MODEL 1
REMARK VINA RESULT: -9.745787766      0.000      0.000
REMARK  7 active torsions:
REMARK  status: ('A' for Active; 'I' for Inactive)
REMARK    1  A    between atoms: C2_2  and  C5_5 
REMARK       I    between atoms: C5_5  and  N1_7 
REMARK    2  A    between atoms: N1_7  and  C6_9 
REMARK    3  A    between atoms: C6_9  and  N2_11 
REMARK    4  A    between atoms: N2_11  and  C7_13 
REMARK    5  A    between atoms: C7_13  and  C8_14 
REMARK       I    between atoms: C8_14  and  N3_16 
REMARK    6  A    between atoms: N3_16  and  C9_18 
REMARK    7  A    between atoms: C16_25  and  C17_26 
ROOT
HETATM    1  C7  UNL     1      12.611   6.441  -8.853  1.00  0.00     0.113 C 
HETATM    2  C14 UNL     1      12.041   5.436  -7.913  1.00  0.00     0.041 C 
HETATM    3  C15 UNL     1      13.243   4.550  -7.534  1.00  0.00     0.008 C 
HETATM    4  C16 UNL     1      14.306   5.585  -7.429  1.00  0.00    -0.008 C 
HETATM    5  C22 UNL     1      14.145   6.429  -8.630  1.00  0.00     0.046 C 
ENDROOT
BRANCH   1   6
HETATM    6  N2  UNL     1      12.334   6.068 -10.210  1.00  0.00    -0.349 N 
ATOM      7  H2  UNL     1      13.050   6.274 -10.907  1.00  0.00     0.163 HD
BRANCH   6   8
HETATM    8  C6  UNL     1      11.150   5.438 -10.662  1.00  0.00     0.175 C 
HETATM    9  S1  UNL     1       9.838   6.269 -11.191  1.00  0.00    -0.041 SA
BRANCH   8  10
HETATM   10  N1  UNL     1      11.022   4.018 -10.674  1.00  0.00    -0.303 N 
HETATM   11  C5  UNL     1      12.109   3.130 -10.845  1.00  0.00     0.231 C 
HETATM   12  O1  UNL     1      13.282   3.555 -11.002  1.00  0.00    -0.272 OA
ATOM     13  H1  UNL     1      10.091   3.619 -10.552  1.00  0.00     0.171 HD
BRANCH  11  14
HETATM   14  C2  UNL     1      11.887   1.653 -10.845  1.00  0.00     0.030 C 
HETATM   15  C1  UNL     1      13.100   0.963 -11.404  1.00  0.00     0.025 C 
HETATM   16  C3  UNL     1      11.660   1.141  -9.441  1.00  0.00     0.025 C 
HETATM   17  C4  UNL     1      10.704   1.376 -11.748  1.00  0.00     0.025 C 
ENDBRANCH  11  14
ENDBRANCH   8  10
ENDBRANCH   6   8
ENDBRANCH   1   6
BRANCH   1  18
HETATM   18  C8  UNL     1      12.114   7.832  -8.633  1.00  0.00     0.246 C 
HETATM   19  O2  UNL     1      11.825   8.188  -7.465  1.00  0.00    -0.271 OA
HETATM   20  N3  UNL     1      11.965   8.752  -9.717  1.00  0.00    -0.354 N 
ATOM     21  H3  UNL     1      12.203   8.459 -10.665  1.00  0.00     0.162 HD
BRANCH  20  22
HETATM   22  C9  UNL     1      11.482  10.097  -9.483  1.00  0.00     0.084 C 
HETATM   23  C10 UNL     1      11.615  10.976 -10.705  1.00  0.00     0.025 C 
HETATM   24  C11 UNL     1      10.207  11.366 -11.102  1.00  0.00     0.002 C 
HETATM   25  C12 UNL     1       9.494  11.330  -9.765  1.00  0.00     0.002 C 
HETATM   26  C13 UNL     1       9.982  10.016  -9.195  1.00  0.00     0.025 C 
ENDBRANCH  20  22
ENDBRANCH   1  18
BRANCH   4  27
HETATM   27  C17 UNL     1      15.671   4.959  -7.293  1.00  0.00    -0.010 C 
HETATM   28  C18 UNL     1      15.781   3.967  -6.183  1.00  0.00     0.005 C 
HETATM   29  C19 UNL     1      17.146   3.335  -6.489  1.00  0.00     0.000 C 
HETATM   30  C20 UNL     1      17.310   3.441  -7.992  1.00  0.00     0.000 C 
HETATM   31  C21 UNL     1      16.055   4.155  -8.499  1.00  0.00     0.005 C 
ENDBRANCH   4  27
TORSDOF 7
ENDMDL
MODEL 2
REMARK VINA RESULT: -9.375148433      1.517      6.182
REMARK  7 active torsions:
REMARK  status: ('A' for Active; 'I' for Inactive)
REMARK    1  A    between atoms: C2_2  and  C5_5 
REMARK       I    between atoms: C5_5  and  N1_7 
REMARK    2  A    between atoms: N1_7  and  C6_9 
REMARK    3  A    between atoms: C6_9  and  N2_11 
REMARK    4  A    between atoms: N2_11  and  C7_13 
REMARK    5  A    between atoms: C7_13  and  C8_14 
REMARK       I    between atoms: C8_14  and  N3_16 
REMARK    6  A    between atoms: N3_16  and  C9_18 
REMARK    7  A    between atoms: C16_25  and  C17_26 
ROOT
HETATM    1  C7  UNL     1      12.307   6.608  -8.074  1.00  0.00     0.113 C 
HETATM    2  C14 UNL     1      12.987   6.644  -9.399  1.00  0.00     0.041 C 
HETATM    3  C15 UNL     1      12.381   7.876 -10.100  1.00  0.00     0.008 C 
HETATM    4  C16 UNL     1      12.295   8.815  -8.949  1.00  0.00    -0.008 C 
HETATM    5  C22 UNL     1      11.715   8.023  -7.845  1.00  0.00     0.046 C 
ENDROOT
BRANCH   1   6
HETATM    6  N2  UNL     1      11.237   5.653  -8.089  1.00  0.00    -0.349 N 
ATOM      7  H2  UNL     1      10.991   5.211  -7.204  1.00  0.00     0.163 HD
BRANCH   6   8
HETATM    8  C6  UNL     1      10.493   5.273  -9.232  1.00  0.00     0.175 C 
HETATM    9  S1  UNL     1       9.237   6.153  -9.818  1.00  0.00    -0.041 SA
BRANCH   8  10
HETATM   10  N1  UNL     1      10.789   4.077  -9.949  1.00  0.00    -0.303 N 
HETATM   11  C5  UNL     1      11.673   3.077  -9.482  1.00  0.00     0.231 C 
HETATM   12  O1  UNL     1      12.264   3.190  -8.378  1.00  0.00    -0.272 OA
ATOM     13  H1  UNL     1      10.336   3.933 -10.852  1.00  0.00     0.171 HD
BRANCH  11  14
HETATM   14  C2  UNL     1      11.928   1.852 -10.296  1.00  0.00     0.030 C 
HETATM   15  C1  UNL     1      10.909   1.760 -11.398  1.00  0.00     0.025 C 
HETATM   16  C3  UNL     1      13.300   1.898 -10.928  1.00  0.00     0.025 C 
HETATM   17  C4  UNL     1      11.768   0.660  -9.377  1.00  0.00     0.025 C 
ENDBRANCH  11  14
ENDBRANCH   8  10
ENDBRANCH   6   8
ENDBRANCH   1   6
BRANCH   1  18
HETATM   18  C8  UNL     1      13.213   6.285  -6.932  1.00  0.00     0.246 C 
HETATM   19  O2  UNL     1      13.040   6.885  -5.842  1.00  0.00    -0.271 OA
HETATM   20  N3  UNL     1      14.259   5.319  -7.057  1.00  0.00    -0.354 N 
ATOM     21  H3  UNL     1      14.395   4.834  -7.944  1.00  0.00     0.162 HD
BRANCH  20  22
HETATM   22  C9  UNL     1      15.127   5.022  -5.937  1.00  0.00     0.084 C 
HETATM   23  C10 UNL     1      14.489   4.067  -4.954  1.00  0.00     0.025 C 
HETATM   24  C11 UNL     1      15.348   2.820  -4.957  1.00  0.00     0.002 C 
HETATM   25  C12 UNL     1      16.707   3.389  -5.314  1.00  0.00     0.002 C 
HETATM   26  C13 UNL     1      16.361   4.297  -6.473  1.00  0.00     0.025 C 
ENDBRANCH  20  22
ENDBRANCH   1  18
BRANCH   4  27
HETATM   27  C17 UNL     1      11.506  10.048  -9.303  1.00  0.00    -0.010 C 
HETATM   28  C18 UNL     1      11.474  10.355 -10.763  1.00  0.00     0.005 C 
HETATM   29  C19 UNL     1      10.400  11.452 -10.810  1.00  0.00     0.000 C 
HETATM   30  C20 UNL     1       9.471  11.152  -9.650  1.00  0.00     0.000 C 
HETATM   31  C21 UNL     1      10.052   9.918  -8.957  1.00  0.00     0.005 C 
ENDBRANCH   4  27
TORSDOF 7
ENDMDL
MODEL 3
REMARK VINA RESULT: -9.289805784      0.431      1.182
REMARK  7 active torsions:
REMARK  status: ('A' for Active; 'I' for Inactive)
REMARK    1  A    between atoms: C2_2  and  C5_5 
REMARK       I    between atoms: C5_5  and  N1_7 
REMARK    2  A    between atoms: N1_7  and  C6_9 
REMARK    3  A    between atoms: C6_9  and  N2_11 
REMARK    4  A    between atoms: N2_11  and  C7_13 
REMARK    5  A    between atoms: C7_13  and  C8_14 
REMARK       I    between atoms: C8_14  and  N3_16 
REMARK    6  A    between atoms: N3_16  and  C9_18 
REMARK    7  A    between atoms: C16_25  and  C17_26 
ROOT
HETATM    1  C7  UNL     1      12.558   6.267  -9.044  1.00  0.00     0.113 C 
HETATM    2  C14 UNL     1      11.719   5.393  -8.178  1.00  0.00     0.041 C 
HETATM    3  C15 UNL     1      12.688   4.292  -7.703  1.00  0.00     0.008 C 
HETATM    4  C16 UNL     1      13.916   5.103  -7.484  1.00  0.00    -0.008 C 
HETATM    5  C22 UNL     1      14.034   5.959  -8.681  1.00  0.00     0.046 C 
ENDROOT
BRANCH   1   6
HETATM    6  N2  UNL     1      12.344   5.951 -10.427  1.00  0.00    -0.349 N 
ATOM      7  H2  UNL     1      13.091   6.181 -11.081  1.00  0.00     0.163 HD
BRANCH   6   8
HETATM    8  C6  UNL     1      11.180   5.345 -10.959  1.00  0.00     0.175 C 
HETATM    9  S1  UNL     1       9.934   6.202 -11.595  1.00  0.00    -0.041 SA
BRANCH   8  10
HETATM   10  N1  UNL     1      11.015   3.929 -10.963  1.00  0.00    -0.303 N 
HETATM   11  C5  UNL     1      12.089   3.010 -11.014  1.00  0.00     0.231 C 
HETATM   12  O1  UNL     1      13.282   3.402 -11.060  1.00  0.00    -0.272 OA
ATOM     13  H1  UNL     1      10.066   3.556 -10.928  1.00  0.00     0.171 HD
BRANCH  11  14
HETATM   14  C2  UNL     1      11.828   1.541 -11.014  1.00  0.00     0.030 C 
HETATM   15  C1  UNL     1      11.529   1.082  -9.614  1.00  0.00     0.025 C 
HETATM   16  C3  UNL     1      10.637   1.203 -11.883  1.00  0.00     0.025 C 
HETATM   17  C4  UNL     1      13.091   0.860 -11.496  1.00  0.00     0.025 C 
ENDBRANCH  11  14
ENDBRANCH   8  10
ENDBRANCH   6   8
ENDBRANCH   1   6
BRANCH   1  18
HETATM   18  C8  UNL     1      12.320   7.728  -8.851  1.00  0.00     0.246 C 
HETATM   19  O2  UNL     1      12.469   8.213  -7.702  1.00  0.00    -0.271 OA
HETATM   20  N3  UNL     1      11.930   8.573  -9.936  1.00  0.00    -0.354 N 
ATOM     21  H3  UNL     1      11.811   8.175 -10.868  1.00  0.00     0.162 HD
BRANCH  20  22
HETATM   22  C9  UNL     1      11.704   9.988  -9.726  1.00  0.00     0.084 C 
HETATM   23  C10 UNL     1      11.783  10.779 -11.011  1.00  0.00     0.025 C 
HETATM   24  C11 UNL     1      10.409  11.377 -11.226  1.00  0.00     0.002 C 
HETATM   25  C12 UNL     1       9.914  11.517  -9.800  1.00  0.00     0.002 C 
HETATM   26  C13 UNL     1      10.273  10.167  -9.219  1.00  0.00     0.025 C 
ENDBRANCH  20  22
ENDBRANCH   1  18
BRANCH   4  27
HETATM   27  C17 UNL     1      15.116   4.227  -7.232  1.00  0.00    -0.010 C 
HETATM   28  C18 UNL     1      16.212   4.389  -8.231  1.00  0.00     0.005 C 
HETATM   29  C19 UNL     1      17.346   3.606  -7.553  1.00  0.00     0.000 C 
HETATM   30  C20 UNL     1      17.083   3.728  -6.065  1.00  0.00     0.000 C 
HETATM   31  C21 UNL     1      15.796   4.546  -5.934  1.00  0.00     0.005 C 
ENDBRANCH   4  27
TORSDOF 7
ENDMDL
MODEL 4
REMARK VINA RESULT: -9.253099680      1.319      6.422
REMARK  7 active torsions:
REMARK  status: ('A' for Active; 'I' for Inactive)
REMARK    1  A    between atoms: C2_2  and  C5_5 
REMARK       I    between atoms: C5_5  and  N1_7 
REMARK    2  A    between atoms: N1_7  and  C6_9 
REMARK    3  A    between atoms: C6_9  and  N2_11 
REMARK    4  A    between atoms: N2_11  and  C7_13 
REMARK    5  A    between atoms: C7_13  and  C8_14 
REMARK       I    between atoms: C8_14  and  N3_16 
REMARK    6  A    between atoms: N3_16  and  C9_18 
REMARK    7  A    between atoms: C16_25  and  C17_26 
ROOT
HETATM    1  C7  UNL     1      11.741   8.048 -10.150  1.00  0.00     0.113 C 
HETATM    2  C14 UNL     1      12.656   8.573 -11.203  1.00  0.00     0.041 C 
HETATM    3  C15 UNL     1      11.965   9.860 -11.693  1.00  0.00     0.008 C 
HETATM    4  C16 UNL     1      11.454  10.391 -10.401  1.00  0.00    -0.008 C 
HETATM    5  C22 UNL     1      10.837   9.233  -9.724  1.00  0.00     0.046 C 
ENDROOT
BRANCH   1   6
HETATM    6  N2  UNL     1      10.917   7.001 -10.682  1.00  0.00    -0.349 N 
ATOM      7  H2  UNL     1      10.856   6.924 -11.697  1.00  0.00     0.163 HD
BRANCH   6   8
HETATM    8  C6  UNL     1      10.182   6.066  -9.915  1.00  0.00     0.175 C 
HETATM    9  S1  UNL     1       9.002   6.501  -8.861  1.00  0.00    -0.041 SA
BRANCH   8  10
HETATM   10  N1  UNL     1      10.436   4.666 -10.008  1.00  0.00    -0.303 N 
HETATM   11  C5  UNL     1      11.599   4.112 -10.589  1.00  0.00     0.231 C 
HETATM   12  O1  UNL     1      12.500   4.844 -11.072  1.00  0.00    -0.272 OA
ATOM     13  H1  UNL     1       9.736   4.026  -9.631  1.00  0.00     0.171 HD
BRANCH  11  14
HETATM   14  C2  UNL     1      11.786   2.632 -10.645  1.00  0.00     0.030 C 
HETATM   15  C1  UNL     1      11.440   2.031  -9.312  1.00  0.00     0.025 C 
HETATM   16  C3  UNL     1      10.885   2.012 -11.689  1.00  0.00     0.025 C 
HETATM   17  C4  UNL     1      13.249   2.375 -10.936  1.00  0.00     0.025 C 
ENDBRANCH  11  14
ENDBRANCH   8  10
ENDBRANCH   6   8
ENDBRANCH   1   6
BRANCH   1  18
HETATM   18  C8  UNL     1      12.441   7.529  -8.937  1.00  0.00     0.246 C 
HETATM   19  O2  UNL     1      12.128   8.002  -7.817  1.00  0.00    -0.271 OA
HETATM   20  N3  UNL     1      13.446   6.517  -9.029  1.00  0.00    -0.354 N 
ATOM     21  H3  UNL     1      13.696   6.135  -9.941  1.00  0.00     0.162 HD
BRANCH  20  22
HETATM   22  C9  UNL     1      14.112   6.028  -7.840  1.00  0.00     0.084 C 
HETATM   23  C10 UNL     1      13.294   4.988  -7.110  1.00  0.00     0.025 C 
HETATM   24  C11 UNL     1      14.101   3.707  -7.153  1.00  0.00     0.002 C 
HETATM   25  C12 UNL     1      15.518   4.245  -7.213  1.00  0.00     0.002 C 
HETATM   26  C13 UNL     1      15.393   5.315  -8.275  1.00  0.00     0.025 C 
ENDBRANCH  20  22
ENDBRANCH   1  18
BRANCH   4  27
HETATM   27  C17 UNL     1      10.517  11.551 -10.616  1.00  0.00    -0.010 C 
HETATM   28  C18 UNL     1       9.992  11.664 -12.008  1.00  0.00     0.005 C 
HETATM   29  C19 UNL     1       8.896  12.723 -11.824  1.00  0.00     0.000 C 
HETATM   30  C20 UNL     1       8.415  12.558 -10.396  1.00  0.00     0.000 C 
HETATM   31  C21 UNL     1       9.266  11.437  -9.795  1.00  0.00     0.005 C 
ENDBRANCH   4  27
TORSDOF 7
ENDMDL
MODEL 5
REMARK VINA RESULT: -9.193028487      1.001      1.046
REMARK  7 active torsions:
REMARK  status: ('A' for Active; 'I' for Inactive)
REMARK    1  A    between atoms: C2_2  and  C5_5 
REMARK       I    between atoms: C5_5  and  N1_7 
REMARK    2  A    between atoms: N1_7  and  C6_9 
REMARK    3  A    between atoms: C6_9  and  N2_11 
REMARK    4  A    between atoms: N2_11  and  C7_13 
REMARK    5  A    between atoms: C7_13  and  C8_14 
REMARK       I    between atoms: C8_14  and  N3_16 
REMARK    6  A    between atoms: N3_16  and  C9_18 
REMARK    7  A    between atoms: C16_25  and  C17_26 
ROOT
HETATM    1  C7  UNL     1      12.119   6.588  -8.429  1.00  0.00     0.113 C 
HETATM    2  C14 UNL     1      12.142   5.905  -7.105  1.00  0.00     0.041 C 
HETATM    3  C15 UNL     1      13.392   5.006  -7.167  1.00  0.00     0.008 C 
HETATM    4  C16 UNL     1      14.328   5.911  -7.887  1.00  0.00    -0.008 C 
HETATM    5  C22 UNL     1      13.548   6.456  -9.016  1.00  0.00     0.046 C 
ENDROOT
BRANCH   1   6
HETATM    6  N2  UNL     1      11.193   5.936  -9.310  1.00  0.00    -0.349 N 
ATOM      7  H2  UNL     1      10.250   5.773  -8.959  1.00  0.00     0.163 HD
BRANCH   6   8
HETATM    8  C6  UNL     1      11.481   5.499 -10.626  1.00  0.00     0.175 C 
HETATM    9  S1  UNL     1      11.265   6.443 -11.950  1.00  0.00    -0.041 SA
BRANCH   8  10
HETATM   10  N1  UNL     1      11.975   4.187 -10.882  1.00  0.00    -0.303 N 
HETATM   11  C5  UNL     1      11.325   3.004 -10.462  1.00  0.00     0.231 C 
HETATM   12  O1  UNL     1      10.246   3.044  -9.819  1.00  0.00    -0.272 OA
ATOM     13  H1  UNL     1      12.849   4.096 -11.401  1.00  0.00     0.171 HD
BRANCH  11  14
HETATM   14  C2  UNL     1      11.912   1.667 -10.773  1.00  0.00     0.030 C 
HETATM   15  C1  UNL     1      13.371   1.821 -11.098  1.00  0.00     0.025 C 
HETATM   16  C3  UNL     1      11.790   0.734  -9.590  1.00  0.00     0.025 C 
HETATM   17  C4  UNL     1      11.190   1.132 -11.992  1.00  0.00     0.025 C 
ENDBRANCH  11  14
ENDBRANCH   8  10
ENDBRANCH   6   8
ENDBRANCH   1   6
BRANCH   1  18
HETATM   18  C8  UNL     1      11.768   8.038  -8.363  1.00  0.00     0.246 C 
HETATM   19  O2  UNL     1      11.577   8.557  -7.237  1.00  0.00    -0.271 OA
HETATM   20  N3  UNL     1      11.648   8.832  -9.545  1.00  0.00    -0.354 N 
ATOM     21  H3  UNL     1      11.805   8.406 -10.459  1.00  0.00     0.162 HD
BRANCH  20  22
HETATM   22  C9  UNL     1      11.306  10.237  -9.459  1.00  0.00     0.084 C 
HETATM   23  C10 UNL     1      11.570  10.972 -10.753  1.00  0.00     0.025 C 
HETATM   24  C11 UNL     1      10.225  11.467 -11.241  1.00  0.00     0.002 C 
HETATM   25  C12 UNL     1       9.474  11.638  -9.935  1.00  0.00     0.002 C 
HETATM   26  C13 UNL     1       9.799  10.343  -9.225  1.00  0.00     0.025 C 
ENDBRANCH  20  22
ENDBRANCH   1  18
BRANCH   4  27
HETATM   27  C17 UNL     1      15.584   5.186  -8.298  1.00  0.00    -0.010 C 
HETATM   28  C18 UNL     1      16.264   4.460  -7.185  1.00  0.00     0.005 C 
HETATM   29  C19 UNL     1      17.296   3.630  -7.963  1.00  0.00     0.000 C 
HETATM   30  C20 UNL     1      16.670   3.382  -9.321  1.00  0.00     0.000 C 
HETATM   31  C21 UNL     1      15.317   4.097  -9.294  1.00  0.00     0.005 C 
ENDBRANCH   4  27
TORSDOF 7
ENDMDL
