MODEL 1
REMARK VINA RESULT: -11.759620838      0.000      0.000
REMARK  3 active torsions:
REMARK  status: ('A' for Active; 'I' for Inactive)
REMARK    1  A    between atoms: C5_7  and  S1_8 
REMARK    2  A    between atoms: S1_8  and  N2_11 
REMARK    3  A    between atoms: N2_11  and  C6_13 
ROOT
HETATM    1  N2  UNL     1      12.385   8.655  -9.154  1.00  0.00    -0.280 N 
ATOM      2  H2  UNL     1      13.336   8.991  -9.002  1.00  0.00     0.179 HD
ENDROOT
BRANCH   1   3
HETATM    3  S1  UNL     1      11.823   7.381  -8.143  1.00  0.00     0.263 S 
HETATM    4  O1  UNL     1      10.347   7.558  -7.840  1.00  0.00    -0.200 OA
HETATM    5  O2  UNL     1      12.535   7.377  -6.811  1.00  0.00    -0.200 OA
BRANCH   3   6
HETATM    6  C5  UNL     1      12.089   5.829  -8.893  1.00  0.00     0.082 A 
HETATM    7  C4  UNL     1      10.955   5.086  -9.219  1.00  0.00     0.055 A 
HETATM    8  C3  UNL     1      11.047   3.837  -9.812  1.00  0.00     0.044 A 
HETATM    9  N1  UNL     1      10.120   2.943 -10.215  1.00  0.00    -0.359 N 
HETATM   10  C20 UNL     1      12.309   3.337 -10.078  1.00  0.00    -0.002 A 
HETATM   11  C2  UNL     1      10.723   1.857 -10.743  1.00  0.00     0.012 A 
ATOM     12  H1  UNL     1       9.111   3.069 -10.132  1.00  0.00     0.166 HD
HETATM   13  C1  UNL     1      10.016   0.659 -11.294  1.00  0.00     0.068 C 
HETATM   14  C21 UNL     1      12.075   2.097 -10.660  1.00  0.00    -0.027 A 
HETATM   15  C22 UNL     1      13.129   1.177 -11.120  1.00  0.00     0.051 C 
HETATM   16  C19 UNL     1      13.437   4.062  -9.761  1.00  0.00     0.016 A 
HETATM   17  C18 UNL     1      13.330   5.311  -9.167  1.00  0.00     0.026 A 
ENDBRANCH   3   6
ENDBRANCH   1   3
BRANCH   1  18
HETATM   18  C6  UNL     1      11.633   9.273 -10.180  1.00  0.00     0.050 A 
HETATM   19  C7  UNL     1      11.576   8.751 -11.454  1.00  0.00     0.045 A 
HETATM   20  C8  UNL     1      10.850   9.360 -12.462  1.00  0.00    -0.001 A 
HETATM   21  C9  UNL     1      10.794   8.837 -13.741  1.00  0.00    -0.044 A 
HETATM   22  C13 UNL     1      10.165  10.518 -12.189  1.00  0.00     0.052 A 
HETATM   23  C10 UNL     1      11.540   7.591 -14.004  1.00  0.00     0.049 C 
HETATM   24  C11 UNL     1      10.074   9.437 -14.753  1.00  0.00     0.082 A 
HETATM   25  C12 UNL     1       9.405  10.598 -14.425  1.00  0.00     0.246 A 
HETATM   26  O3  UNL     1       8.744  11.153 -15.342  1.00  0.00    -0.268 OA
HETATM   27  N3  UNL     1       9.457  11.117 -13.168  1.00  0.00    -0.322 N 
ATOM     28  H3  UNL     1       8.949  11.977 -12.962  1.00  0.00     0.169 HD
HETATM   29  C14 UNL     1      10.227  11.043 -10.893  1.00  0.00    -0.026 A 
HETATM   30  C15 UNL     1       9.475  12.279 -10.667  1.00  0.00     0.051 C 
HETATM   31  C16 UNL     1      10.931  10.458  -9.903  1.00  0.00    -0.026 A 
HETATM   32  C17 UNL     1      11.031  10.956  -8.538  1.00  0.00     0.051 C 
ENDBRANCH   1  18
TORSDOF 3
ENDMDL
MODEL 2
REMARK VINA RESULT: -11.414651575      5.301      9.088
REMARK  3 active torsions:
REMARK  status: ('A' for Active; 'I' for Inactive)
REMARK    1  A    between atoms: C5_7  and  S1_8 
REMARK    2  A    between atoms: S1_8  and  N2_11 
REMARK    3  A    between atoms: N2_11  and  C6_13 
ROOT
HETATM    1  N2  UNL     1      14.858   5.671  -6.683  1.00  0.00    -0.280 N 
ATOM      2  H2  UNL     1      15.524   6.442  -6.715  1.00  0.00     0.179 HD
ENDROOT
BRANCH   1   3
HETATM    3  S1  UNL     1      13.380   5.865  -7.545  1.00  0.00     0.263 S 
HETATM    4  O1  UNL     1      13.344   7.217  -8.234  1.00  0.00    -0.200 OA
HETATM    5  O2  UNL     1      12.190   5.827  -6.617  1.00  0.00    -0.200 OA
BRANCH   3   6
HETATM    6  C5  UNL     1      13.178   4.597  -8.724  1.00  0.00     0.082 A 
HETATM    7  C4  UNL     1      11.885   4.106  -8.903  1.00  0.00     0.055 A 
HETATM    8  C3  UNL     1      11.609   3.093  -9.809  1.00  0.00     0.044 A 
HETATM    9  N1  UNL     1      10.468   2.461 -10.157  1.00  0.00    -0.359 N 
HETATM   10  C20 UNL     1      12.660   2.574 -10.542  1.00  0.00    -0.002 A 
HETATM   11  C2  UNL     1      10.724   1.533 -11.102  1.00  0.00     0.012 A 
ATOM     12  H1  UNL     1       9.547   2.657  -9.763  1.00  0.00     0.166 HD
HETATM   13  C1  UNL     1       9.704   0.636 -11.730  1.00  0.00     0.068 C 
HETATM   14  C21 UNL     1      12.077   1.599 -11.343  1.00  0.00    -0.027 A 
HETATM   15  C22 UNL     1      12.809   0.762 -12.308  1.00  0.00     0.051 C 
HETATM   16  C19 UNL     1      13.942   3.051 -10.373  1.00  0.00     0.016 A 
HETATM   17  C18 UNL     1      14.204   4.065  -9.464  1.00  0.00     0.026 A 
ENDBRANCH   3   6
ENDBRANCH   1   3
BRANCH   1  18
HETATM   18  C6  UNL     1      15.220   4.527  -5.935  1.00  0.00     0.050 A 
HETATM   19  C7  UNL     1      14.493   4.114  -4.841  1.00  0.00     0.045 A 
HETATM   20  C8  UNL     1      14.851   3.002  -4.100  1.00  0.00    -0.001 A 
HETATM   21  C9  UNL     1      14.121   2.589  -3.000  1.00  0.00    -0.044 A 
HETATM   22  C13 UNL     1      15.965   2.286  -4.464  1.00  0.00     0.052 A 
HETATM   23  C10 UNL     1      12.930   3.379  -2.634  1.00  0.00     0.049 C 
HETATM   24  C11 UNL     1      14.472   1.482  -2.256  1.00  0.00     0.082 A 
HETATM   25  C12 UNL     1      15.599   0.800  -2.664  1.00  0.00     0.246 A 
HETATM   26  O3  UNL     1      15.926  -0.213  -1.990  1.00  0.00    -0.268 OA
HETATM   27  N3  UNL     1      16.321   1.202  -3.745  1.00  0.00    -0.322 N 
ATOM     28  H3  UNL     1      17.148   0.671  -4.018  1.00  0.00     0.169 HD
HETATM   29  C14 UNL     1      16.700   2.710  -5.576  1.00  0.00    -0.026 A 
HETATM   30  C15 UNL     1      17.875   1.904  -5.912  1.00  0.00     0.051 C 
HETATM   31  C16 UNL     1      16.359   3.793  -6.306  1.00  0.00    -0.026 A 
HETATM   32  C17 UNL     1      17.083   4.280  -7.471  1.00  0.00     0.051 C 
ENDBRANCH   1  18
TORSDOF 3
ENDMDL
MODEL 3
REMARK VINA RESULT: -11.282439680      2.943      3.715
REMARK  3 active torsions:
REMARK  status: ('A' for Active; 'I' for Inactive)
REMARK    1  A    between atoms: C5_7  and  S1_8 
REMARK    2  A    between atoms: S1_8  and  N2_11 
REMARK    3  A    between atoms: N2_11  and  C6_13 
ROOT
HETATM    1  N2  UNL     1      12.805   7.900  -9.406  1.00  0.00    -0.280 N 
ATOM      2  H2  UNL     1      13.746   8.205  -9.156  1.00  0.00     0.179 HD
ENDROOT
BRANCH   1   3
HETATM    3  S1  UNL     1      12.339   6.309  -8.946  1.00  0.00     0.263 S 
HETATM    4  O1  UNL     1      11.909   5.512 -10.164  1.00  0.00    -0.200 OA
HETATM    5  O2  UNL     1      11.156   6.328  -8.009  1.00  0.00    -0.200 OA
BRANCH   3   6
HETATM    6  C5  UNL     1      13.647   5.488  -8.136  1.00  0.00     0.082 A 
HETATM    7  C4  UNL     1      13.324   4.779  -6.980  1.00  0.00     0.055 A 
HETATM    8  C3  UNL     1      14.285   4.095  -6.252  1.00  0.00     0.044 A 
HETATM    9  N1  UNL     1      14.225   3.353  -5.125  1.00  0.00    -0.359 N 
HETATM   10  C20 UNL     1      15.590   4.132  -6.706  1.00  0.00    -0.002 A 
HETATM   11  C2  UNL     1      15.454   2.891  -4.811  1.00  0.00     0.012 A 
ATOM     12  H1  UNL     1      13.376   3.169  -4.590  1.00  0.00     0.166 HD
HETATM   13  C1  UNL     1      15.776   2.033  -3.628  1.00  0.00     0.068 C 
HETATM   14  C21 UNL     1      16.299   3.369  -5.785  1.00  0.00    -0.027 A 
HETATM   15  C22 UNL     1      17.749   3.116  -5.849  1.00  0.00     0.051 C 
HETATM   16  C19 UNL     1      15.922   4.829  -7.847  1.00  0.00     0.016 A 
HETATM   17  C18 UNL     1      14.950   5.509  -8.566  1.00  0.00     0.026 A 
ENDBRANCH   3   6
ENDBRANCH   1   3
BRANCH   1  18
HETATM   18  C6  UNL     1      11.987   8.820 -10.103  1.00  0.00     0.050 A 
HETATM   19  C7  UNL     1      11.846   8.774 -11.472  1.00  0.00     0.045 A 
HETATM   20  C8  UNL     1      11.055   9.679 -12.158  1.00  0.00    -0.001 A 
HETATM   21  C9  UNL     1      10.915   9.634 -13.533  1.00  0.00    -0.044 A 
HETATM   22  C13 UNL     1      10.389  10.653 -11.455  1.00  0.00     0.052 A 
HETATM   23  C10 UNL     1      11.643   8.575 -14.260  1.00  0.00     0.049 C 
HETATM   24  C11 UNL     1      10.130  10.532 -14.224  1.00  0.00     0.082 A 
HETATM   25  C12 UNL     1       9.484  11.490 -13.471  1.00  0.00     0.246 A 
HETATM   26  O3  UNL     1       8.764  12.314 -14.094  1.00  0.00    -0.268 OA
HETATM   27  N3  UNL     1       9.618  11.540 -12.118  1.00  0.00    -0.322 N 
ATOM     28  H3  UNL     1       9.125  12.262 -11.593  1.00  0.00     0.169 HD
HETATM   29  C14 UNL     1      10.537  10.695 -10.065  1.00  0.00    -0.026 A 
HETATM   30  C15 UNL     1       9.801  11.756  -9.374  1.00  0.00     0.051 C 
HETATM   31  C16 UNL     1      11.305   9.817  -9.386  1.00  0.00    -0.026 A 
HETATM   32  C17 UNL     1      11.495   9.811  -7.943  1.00  0.00     0.051 C 
ENDBRANCH   1  18
TORSDOF 3
ENDMDL
MODEL 4
REMARK VINA RESULT: -11.230771376      1.295      2.688
REMARK  3 active torsions:
REMARK  status: ('A' for Active; 'I' for Inactive)
REMARK    1  A    between atoms: C5_7  and  S1_8 
REMARK    2  A    between atoms: S1_8  and  N2_11 
REMARK    3  A    between atoms: N2_11  and  C6_13 
ROOT
HETATM    1  N2  UNL     1      11.664   9.420  -9.275  1.00  0.00    -0.280 N 
ATOM      2  H2  UNL     1      12.616   9.688  -9.029  1.00  0.00     0.179 HD
ENDROOT
BRANCH   1   3
HETATM    3  S1  UNL     1      10.851   8.327  -8.223  1.00  0.00     0.263 S 
HETATM    4  O1  UNL     1       9.348   8.508  -8.331  1.00  0.00    -0.200 OA
HETATM    5  O2  UNL     1      11.210   8.580  -6.779  1.00  0.00    -0.200 OA
BRANCH   3   6
HETATM    6  C5  UNL     1      11.274   6.676  -8.596  1.00  0.00     0.082 A 
HETATM    7  C4  UNL     1      10.652   6.103  -9.704  1.00  0.00     0.055 A 
HETATM    8  C3  UNL     1      10.908   4.796 -10.089  1.00  0.00     0.044 A 
HETATM    9  N1  UNL     1      10.445   4.030 -11.100  1.00  0.00    -0.359 N 
HETATM   10  C20 UNL     1      11.808   4.063  -9.337  1.00  0.00    -0.002 A 
HETATM   11  C2  UNL     1      11.008   2.805 -11.046  1.00  0.00     0.012 A 
ATOM     12  H1  UNL     1       9.768   4.334 -11.800  1.00  0.00     0.166 HD
HETATM   13  C1  UNL     1      10.735   1.688 -12.004  1.00  0.00     0.068 C 
HETATM   14  C21 UNL     1      11.850   2.821  -9.960  1.00  0.00    -0.027 A 
HETATM   15  C22 UNL     1      12.680   1.690  -9.513  1.00  0.00     0.051 C 
HETATM   16  C19 UNL     1      12.428   4.619  -8.239  1.00  0.00     0.016 A 
HETATM   17  C18 UNL     1      12.163   5.928  -7.866  1.00  0.00     0.026 A 
ENDBRANCH   3   6
ENDBRANCH   1   3
BRANCH   1  18
HETATM   18  C6  UNL     1      11.115   9.976 -10.454  1.00  0.00     0.050 A 
HETATM   19  C7  UNL     1      10.264  11.059 -10.418  1.00  0.00     0.045 A 
HETATM   20  C8  UNL     1       9.716  11.598 -11.568  1.00  0.00    -0.001 A 
HETATM   21  C9  UNL     1       8.860  12.684 -11.532  1.00  0.00    -0.044 A 
HETATM   22  C13 UNL     1      10.027  11.041 -12.784  1.00  0.00     0.052 A 
HETATM   23  C10 UNL     1       8.544  13.262 -10.211  1.00  0.00     0.049 C 
HETATM   24  C11 UNL     1       8.309  13.228 -12.673  1.00  0.00     0.082 A 
HETATM   25  C12 UNL     1       8.654  12.629 -13.867  1.00  0.00     0.246 A 
HETATM   26  O3  UNL     1       8.156  13.119 -14.914  1.00  0.00    -0.268 OA
HETATM   27  N3  UNL     1       9.495  11.561 -13.909  1.00  0.00    -0.322 N 
ATOM     28  H3  UNL     1       9.729  11.144 -14.810  1.00  0.00     0.169 HD
HETATM   29  C14 UNL     1      10.892   9.941 -12.814  1.00  0.00    -0.026 A 
HETATM   30  C15 UNL     1      11.185   9.393 -14.140  1.00  0.00     0.051 C 
HETATM   31  C16 UNL     1      11.432   9.407 -11.699  1.00  0.00    -0.026 A 
HETATM   32  C17 UNL     1      12.337   8.267 -11.669  1.00  0.00     0.051 C 
ENDBRANCH   1  18
TORSDOF 3
ENDMDL
MODEL 5
REMARK VINA RESULT: -11.090619196      5.690      9.328
REMARK  3 active torsions:
REMARK  status: ('A' for Active; 'I' for Inactive)
REMARK    1  A    between atoms: C5_7  and  S1_8 
REMARK    2  A    between atoms: S1_8  and  N2_11 
REMARK    3  A    between atoms: N2_11  and  C6_13 
ROOT
HETATM    1  N2  UNL     1      13.466   4.704  -5.386  1.00  0.00    -0.280 N 
ATOM      2  H2  UNL     1      12.654   4.922  -4.809  1.00  0.00     0.179 HD
ENDROOT
BRANCH   1   3
HETATM    3  S1  UNL     1      13.594   5.499  -6.907  1.00  0.00     0.263 S 
HETATM    4  O1  UNL     1      14.933   6.203  -7.025  1.00  0.00    -0.200 OA
HETATM    5  O2  UNL     1      12.536   6.565  -7.064  1.00  0.00    -0.200 OA
BRANCH   3   6
HETATM    6  C5  UNL     1      13.406   4.365  -8.219  1.00  0.00     0.082 A 
HETATM    7  C4  UNL     1      12.139   3.808  -8.390  1.00  0.00     0.055 A 
HETATM    8  C3  UNL     1      11.877   2.891  -9.396  1.00  0.00     0.044 A 
HETATM    9  N1  UNL     1      10.761   2.224  -9.761  1.00  0.00    -0.359 N 
HETATM   10  C20 UNL     1      12.915   2.536 -10.238  1.00  0.00    -0.002 A 
HETATM   11  C2  UNL     1      11.022   1.433 -10.822  1.00  0.00     0.012 A 
ATOM     12  H1  UNL     1       9.854   2.306  -9.301  1.00  0.00     0.166 HD
HETATM   13  C1  UNL     1      10.026   0.545 -11.501  1.00  0.00     0.068 C 
HETATM   14  C21 UNL     1      12.351   1.623 -11.120  1.00  0.00    -0.027 A 
HETATM   15  C22 UNL     1      13.079   0.957 -12.214  1.00  0.00     0.051 C 
HETATM   16  C19 UNL     1      14.171   3.080 -10.077  1.00  0.00     0.016 A 
HETATM   17  C18 UNL     1      14.420   3.997  -9.067  1.00  0.00     0.026 A 
ENDBRANCH   3   6
ENDBRANCH   1   3
BRANCH   1  18
HETATM   18  C6  UNL     1      14.398   3.772  -4.873  1.00  0.00     0.050 A 
HETATM   19  C7  UNL     1      15.599   3.524  -5.502  1.00  0.00     0.045 A 
HETATM   20  C8  UNL     1      16.507   2.606  -5.009  1.00  0.00    -0.001 A 
HETATM   21  C9  UNL     1      17.712   2.356  -5.641  1.00  0.00    -0.044 A 
HETATM   22  C13 UNL     1      16.208   1.918  -3.858  1.00  0.00     0.052 A 
HETATM   23  C10 UNL     1      18.005   3.110  -6.876  1.00  0.00     0.049 C 
HETATM   24  C11 UNL     1      18.624   1.441  -5.158  1.00  0.00     0.082 A 
HETATM   25  C12 UNL     1      18.273   0.778  -4.000  1.00  0.00     0.246 A 
HETATM   26  O3  UNL     1      19.099  -0.058  -3.551  1.00  0.00    -0.268 OA
HETATM   27  N3  UNL     1      17.089   1.020  -3.374  1.00  0.00    -0.322 N 
ATOM     28  H3  UNL     1      16.864   0.511  -2.519  1.00  0.00     0.169 HD
HETATM   29  C14 UNL     1      14.987   2.175  -3.224  1.00  0.00    -0.026 A 
HETATM   30  C15 UNL     1      14.728   1.410  -2.003  1.00  0.00     0.051 C 
HETATM   31  C16 UNL     1      14.094   3.068  -3.696  1.00  0.00    -0.026 A 
HETATM   32  C17 UNL     1      12.811   3.376  -3.080  1.00  0.00     0.051 C 
ENDBRANCH   1  18
TORSDOF 3
ENDMDL
