MODEL 1
REMARK VINA RESULT: -10.146874007      0.000      0.000
REMARK  7 active torsions:
REMARK  status: ('A' for Active; 'I' for Inactive)
REMARK    1  A    between atoms: O1_2  and  C2_3 
REMARK    2  A    between atoms: C5_6  and  C6_7 
REMARK    3  A    between atoms: C7_8  and  C8_9 
REMARK    4  A    between atoms: C18_19  and  N1_20 
REMARK    5  A    between atoms: N1_20  and  C19_22 
REMARK    6  A    between atoms: C19_22  and  C20_23 
REMARK    7  A    between atoms: C20_23  and  N2_24 
ROOT
HETATM    1  C2  UNL     1      11.586   4.465 -10.145  1.00  0.00     0.104 A 
HETATM    2  C3  UNL     1      11.285   5.680 -10.704  1.00  0.00    -0.007 A 
HETATM    3  C4  UNL     1      10.521   5.724 -11.965  1.00  0.00     0.052 C 
HETATM    4  C5  UNL     1      11.682   6.870 -10.112  1.00  0.00     0.027 A 
HETATM    5  C16 UNL     1      12.405   6.846  -8.920  1.00  0.00     0.039 A 
HETATM    6  C17 UNL     1      12.700   5.640  -8.370  1.00  0.00     0.041 A 
HETATM    7  C18 UNL     1      13.397   5.322  -7.211  1.00  0.00     0.128 A 
HETATM    8  N3  UNL     1      13.398   3.983  -7.144  1.00  0.00    -0.284 N 
ATOM      9  H3  UNL     1      13.837   3.442  -6.399  1.00  0.00     0.188 HD
HETATM   10  N4  UNL     1      12.753   3.458  -8.175  1.00  0.00    -0.295 N 
ATOM     11  H4  UNL     1      12.617   2.461  -8.346  1.00  0.00     0.187 HD
HETATM   12  C25 UNL     1      12.307   4.458  -8.958  1.00  0.00     0.096 A 
ENDROOT
BRANCH   4  13
HETATM   13  C6  UNL     1      11.383   8.154 -10.681  1.00  0.00    -0.066 C 
HETATM   14  C7  UNL     1      11.113   9.223 -11.173  1.00  0.00    -0.091 C 
BRANCH  14  15
HETATM   15  C8  UNL     1      10.769  10.490 -11.770  1.00  0.00     0.097 C 
HETATM   16  C9  UNL     1      10.276  10.372 -13.172  1.00  0.00    -0.071 C 
HETATM   17  C10 UNL     1      10.235   9.089 -13.925  1.00  0.00     0.044 C 
HETATM   18  C11 UNL     1       9.864  11.536 -13.719  1.00  0.00    -0.023 C 
HETATM   19  C12 UNL     1       9.976  12.723 -12.822  1.00  0.00     0.028 C 
HETATM   20  C13 UNL     1       9.357  12.480 -11.476  1.00  0.00     0.009 C 
HETATM   21  C14 UNL     1       9.732  11.145 -10.882  1.00  0.00     0.001 C 
HETATM   22  C15 UNL     1      10.330  11.357  -9.523  1.00  0.00     0.011 C 
ENDBRANCH  14  15
ENDBRANCH   4  13
BRANCH   1  23
HETATM   23  O1  UNL     1      11.188   3.285 -10.741  1.00  0.00    -0.353 OA
HETATM   24  C1  UNL     1      10.413   2.295 -10.127  1.00  0.00     0.210 C 
ENDBRANCH   1  23
BRANCH   7  25
HETATM   25  N1  UNL     1      13.914   6.197  -6.403  1.00  0.00    -0.373 N 
ATOM     26  H1  UNL     1      14.261   7.090  -6.751  1.00  0.00     0.161 HD
BRANCH  25  27
HETATM   27  C19 UNL     1      13.984   5.872  -5.001  1.00  0.00     0.151 C 
BRANCH  27  28
HETATM   28  C20 UNL     1      15.331   5.281  -4.626  1.00  0.00     0.292 C 
BRANCH  28  29
HETATM   29  N2  UNL     1      15.153   4.140  -3.746  1.00  0.00     0.090 N 
HETATM   30  C21 UNL     1      15.532   2.904  -4.448  1.00  0.00     0.272 C 
HETATM   31  C22 UNL     1      14.868   1.873  -3.537  1.00  0.00     0.032 C 
HETATM   32  C23 UNL     1      13.535   2.483  -3.258  1.00  0.00     0.032 C 
HETATM   33  C24 UNL     1      13.735   3.963  -3.492  1.00  0.00     0.272 C 
ENDBRANCH  28  29
ENDBRANCH  27  28
ENDBRANCH  25  27
ENDBRANCH   7  25
TORSDOF 7
ENDMDL
MODEL 2
REMARK VINA RESULT: -9.650600603      2.212      4.785
REMARK  7 active torsions:
REMARK  status: ('A' for Active; 'I' for Inactive)
REMARK    1  A    between atoms: O1_2  and  C2_3 
REMARK    2  A    between atoms: C5_6  and  C6_7 
REMARK    3  A    between atoms: C7_8  and  C8_9 
REMARK    4  A    between atoms: C18_19  and  N1_20 
REMARK    5  A    between atoms: N1_20  and  C19_22 
REMARK    6  A    between atoms: C19_22  and  C20_23 
REMARK    7  A    between atoms: C20_23  and  N2_24 
ROOT
HETATM    1  C2  UNL     1      12.594   6.600  -7.326  1.00  0.00     0.104 A 
HETATM    2  C3  UNL     1      12.179   7.646  -8.109  1.00  0.00    -0.007 A 
HETATM    3  C4  UNL     1      11.787   8.915  -7.467  1.00  0.00     0.052 C 
HETATM    4  C5  UNL     1      12.118   7.540  -9.491  1.00  0.00     0.027 A 
HETATM    5  C16 UNL     1      12.485   6.346 -10.112  1.00  0.00     0.039 A 
HETATM    6  C17 UNL     1      12.896   5.314  -9.332  1.00  0.00     0.041 A 
HETATM    7  C18 UNL     1      13.311   4.033  -9.674  1.00  0.00     0.128 A 
HETATM    8  N3  UNL     1      13.599   3.423  -8.516  1.00  0.00    -0.284 N 
ATOM      9  H3  UNL     1      13.933   2.462  -8.435  1.00  0.00     0.188 HD
HETATM   10  N4  UNL     1      13.394   4.236  -7.490  1.00  0.00    -0.295 N 
ATOM     11  H4  UNL     1      13.544   4.003  -6.508  1.00  0.00     0.187 HD
HETATM   12  C25 UNL     1      12.956   5.419  -7.960  1.00  0.00     0.096 A 
ENDROOT
BRANCH   4  13
HETATM   13  C6  UNL     1      11.682   8.619 -10.331  1.00  0.00    -0.066 C 
HETATM   14  C7  UNL     1      11.296   9.530 -11.023  1.00  0.00    -0.091 C 
BRANCH  14  15
HETATM   15  C8  UNL     1      10.818  10.626 -11.829  1.00  0.00     0.097 C 
HETATM   16  C9  UNL     1      10.478  10.232 -13.226  1.00  0.00    -0.071 C 
HETATM   17  C10 UNL     1      10.700   8.866 -13.773  1.00  0.00     0.044 C 
HETATM   18  C11 UNL     1       9.944  11.223 -13.972  1.00  0.00    -0.023 C 
HETATM   19  C12 UNL     1       9.794  12.527 -13.263  1.00  0.00     0.028 C 
HETATM   20  C13 UNL     1       9.101  12.380 -11.940  1.00  0.00     0.009 C 
HETATM   21  C14 UNL     1       9.619  11.222 -11.124  1.00  0.00     0.001 C 
HETATM   22  C15 UNL     1      10.053  11.719  -9.777  1.00  0.00     0.011 C 
ENDBRANCH  14  15
ENDBRANCH   4  13
BRANCH   1  23
HETATM   23  O1  UNL     1      12.652   6.714  -5.951  1.00  0.00    -0.353 OA
HETATM   24  C1  UNL     1      13.617   6.117  -5.134  1.00  0.00     0.210 C 
ENDBRANCH   1  23
BRANCH   7  25
HETATM   25  N1  UNL     1      13.380   3.585 -10.891  1.00  0.00    -0.373 N 
ATOM     26  H1  UNL     1      12.908   4.069 -11.654  1.00  0.00     0.161 HD
BRANCH  25  27
HETATM   27  C19 UNL     1      14.141   2.386 -11.133  1.00  0.00     0.151 C 
BRANCH  27  28
HETATM   28  C20 UNL     1      13.248   1.217 -11.508  1.00  0.00     0.292 C 
BRANCH  28  29
HETATM   29  N2  UNL     1      11.868   1.506 -11.161  1.00  0.00     0.090 N 
HETATM   30  C21 UNL     1      11.422   0.600 -10.092  1.00  0.00     0.272 C 
HETATM   31  C22 UNL     1       9.909   0.778 -10.212  1.00  0.00     0.032 C 
HETATM   32  C23 UNL     1       9.687   0.753 -11.688  1.00  0.00     0.032 C 
HETATM   33  C24 UNL     1      11.019   1.149 -12.282  1.00  0.00     0.272 C 
ENDBRANCH  28  29
ENDBRANCH  27  28
ENDBRANCH  25  27
ENDBRANCH   7  25
TORSDOF 7
ENDMDL
MODEL 3
REMARK VINA RESULT: -9.347258259      0.391      1.613
REMARK  7 active torsions:
REMARK  status: ('A' for Active; 'I' for Inactive)
REMARK    1  A    between atoms: O1_2  and  C2_3 
REMARK    2  A    between atoms: C5_6  and  C6_7 
REMARK    3  A    between atoms: C7_8  and  C8_9 
REMARK    4  A    between atoms: C18_19  and  N1_20 
REMARK    5  A    between atoms: N1_20  and  C19_22 
REMARK    6  A    between atoms: C19_22  and  C20_23 
REMARK    7  A    between atoms: C20_23  and  N2_24 
ROOT
HETATM    1  C2  UNL     1      11.630   4.227 -10.062  1.00  0.00     0.104 A 
HETATM    2  C3  UNL     1      11.161   5.394 -10.609  1.00  0.00    -0.007 A 
HETATM    3  C4  UNL     1      10.410   5.345 -11.876  1.00  0.00     0.052 C 
HETATM    4  C5  UNL     1      11.378   6.620  -9.997  1.00  0.00     0.027 A 
HETATM    5  C16 UNL     1      12.087   6.683  -8.798  1.00  0.00     0.039 A 
HETATM    6  C17 UNL     1      12.548   5.524  -8.261  1.00  0.00     0.041 A 
HETATM    7  C18 UNL     1      13.273   5.294  -7.098  1.00  0.00     0.128 A 
HETATM    8  N3  UNL     1      13.466   3.968  -7.048  1.00  0.00    -0.284 N 
ATOM      9  H3  UNL     1      13.972   3.485  -6.306  1.00  0.00     0.188 HD
HETATM   10  N4  UNL     1      12.912   3.370  -8.092  1.00  0.00    -0.295 N 
ATOM     11  H4  UNL     1      12.923   2.367  -8.278  1.00  0.00     0.187 HD
HETATM   12  C25 UNL     1      12.334   4.306  -8.867  1.00  0.00     0.096 A 
ENDROOT
BRANCH   4  13
HETATM   13  C6  UNL     1      10.902   7.855 -10.553  1.00  0.00    -0.066 C 
HETATM   14  C7  UNL     1      10.486   8.882 -11.033  1.00  0.00    -0.091 C 
BRANCH  14  15
HETATM   15  C8  UNL     1       9.967  10.094 -11.616  1.00  0.00     0.097 C 
HETATM   16  C9  UNL     1      10.144  11.295 -10.749  1.00  0.00    -0.071 C 
HETATM   17  C10 UNL     1      10.709  11.240  -9.374  1.00  0.00     0.044 C 
HETATM   18  C11 UNL     1       9.745  12.455 -11.314  1.00  0.00    -0.023 C 
HETATM   19  C12 UNL     1       9.203  12.324 -12.697  1.00  0.00     0.028 C 
HETATM   20  C13 UNL     1      10.117  11.543 -13.596  1.00  0.00     0.009 C 
HETATM   21  C14 UNL     1      10.648  10.285 -12.955  1.00  0.00     0.001 C 
HETATM   22  C15 UNL     1      10.325   9.108 -13.828  1.00  0.00     0.011 C 
ENDBRANCH  14  15
ENDBRANCH   4  13
BRANCH   1  23
HETATM   23  O1  UNL     1      11.410   3.010 -10.677  1.00  0.00    -0.353 OA
HETATM   24  C1  UNL     1      10.521   2.029 -10.224  1.00  0.00     0.210 C 
ENDBRANCH   1  23
BRANCH   7  25
HETATM   25  N1  UNL     1      13.652   6.222  -6.274  1.00  0.00    -0.373 N 
ATOM     26  H1  UNL     1      13.797   7.179  -6.594  1.00  0.00     0.161 HD
BRANCH  25  27
HETATM   27  C19 UNL     1      13.861   5.864  -4.894  1.00  0.00     0.151 C 
BRANCH  27  28
HETATM   28  C20 UNL     1      15.249   5.296  -4.663  1.00  0.00     0.292 C 
BRANCH  28  29
HETATM   29  N2  UNL     1      15.184   4.160  -3.761  1.00  0.00     0.090 N 
HETATM   30  C21 UNL     1      15.631   2.944  -4.458  1.00  0.00     0.272 C 
HETATM   31  C22 UNL     1      15.075   1.881  -3.511  1.00  0.00     0.032 C 
HETATM   32  C23 UNL     1      13.710   2.396  -3.197  1.00  0.00     0.032 C 
HETATM   33  C24 UNL     1      13.792   3.883  -3.459  1.00  0.00     0.272 C 
ENDBRANCH  28  29
ENDBRANCH  27  28
ENDBRANCH  25  27
ENDBRANCH   7  25
TORSDOF 7
ENDMDL
MODEL 4
REMARK VINA RESULT: -9.208948707      2.234      5.044
REMARK  7 active torsions:
REMARK  status: ('A' for Active; 'I' for Inactive)
REMARK    1  A    between atoms: O1_2  and  C2_3 
REMARK    2  A    between atoms: C5_6  and  C6_7 
REMARK    3  A    between atoms: C7_8  and  C8_9 
REMARK    4  A    between atoms: C18_19  and  N1_20 
REMARK    5  A    between atoms: N1_20  and  C19_22 
REMARK    6  A    between atoms: C19_22  and  C20_23 
REMARK    7  A    between atoms: C20_23  and  N2_24 
ROOT
HETATM    1  C2  UNL     1      12.912   6.507  -7.113  1.00  0.00     0.104 A 
HETATM    2  C3  UNL     1      12.285   7.375  -7.970  1.00  0.00    -0.007 A 
HETATM    3  C4  UNL     1      11.652   8.591  -7.428  1.00  0.00     0.052 C 
HETATM    4  C5  UNL     1      12.231   7.135  -9.335  1.00  0.00     0.027 A 
HETATM    5  C16 UNL     1      12.824   5.988  -9.863  1.00  0.00     0.039 A 
HETATM    6  C17 UNL     1      13.444   5.133  -9.010  1.00  0.00     0.041 A 
HETATM    7  C18 UNL     1      14.104   3.935  -9.254  1.00  0.00     0.128 A 
HETATM    8  N3  UNL     1      14.524   3.502  -8.057  1.00  0.00    -0.284 N 
ATOM      9  H3  UNL     1      15.045   2.638  -7.904  1.00  0.00     0.188 HD
HETATM   10  N4  UNL     1      14.171   4.345  -7.098  1.00  0.00    -0.295 N 
ATOM     11  H4  UNL     1      14.375   4.237  -6.105  1.00  0.00     0.187 HD
HETATM   12  C25 UNL     1      13.497   5.370  -7.654  1.00  0.00     0.096 A 
ENDROOT
BRANCH   4  13
HETATM   13  C6  UNL     1      11.577   8.025 -10.251  1.00  0.00    -0.066 C 
HETATM   14  C7  UNL     1      11.019   8.755 -11.035  1.00  0.00    -0.091 C 
BRANCH  14  15
HETATM   15  C8  UNL     1      10.340   9.605 -11.982  1.00  0.00     0.097 C 
HETATM   16  C9  UNL     1      10.104  10.988 -11.477  1.00  0.00    -0.071 C 
HETATM   17  C10 UNL     1      10.443  11.429 -10.097  1.00  0.00     0.044 C 
HETATM   18  C11 UNL     1       9.551  11.825 -12.381  1.00  0.00    -0.023 C 
HETATM   19  C12 UNL     1       9.277  11.215 -13.714  1.00  0.00     0.028 C 
HETATM   20  C13 UNL     1      10.473  10.497 -14.268  1.00  0.00     0.009 C 
HETATM   21  C14 UNL     1      11.164   9.622 -13.252  1.00  0.00     0.001 C 
HETATM   22  C15 UNL     1      11.256   8.222 -13.783  1.00  0.00     0.011 C 
ENDBRANCH  14  15
ENDBRANCH   4  13
BRANCH   1  23
HETATM   23  O1  UNL     1      12.961   6.753  -5.755  1.00  0.00    -0.353 OA
HETATM   24  C1  UNL     1      13.759   6.059  -4.840  1.00  0.00     0.210 C 
ENDBRANCH   1  23
BRANCH   7  25
HETATM   25  N1  UNL     1      14.248   3.403 -10.429  1.00  0.00    -0.373 N 
ATOM     26  H1  UNL     1      15.150   3.423 -10.906  1.00  0.00     0.161 HD
BRANCH  25  27
HETATM   27  C19 UNL     1      13.101   2.784 -11.043  1.00  0.00     0.151 C 
BRANCH  27  28
HETATM   28  C20 UNL     1      13.271   1.281 -11.169  1.00  0.00     0.292 C 
BRANCH  28  29
HETATM   29  N2  UNL     1      11.974   0.628 -11.181  1.00  0.00     0.090 N 
HETATM   30  C21 UNL     1      11.106   1.261 -12.186  1.00  0.00     0.272 C 
HETATM   31  C22 UNL     1       9.747   0.740 -11.722  1.00  0.00     0.032 C 
HETATM   32  C23 UNL     1       9.819   0.895 -10.239  1.00  0.00     0.032 C 
HETATM   33  C24 UNL     1      11.298   0.908  -9.928  1.00  0.00     0.272 C 
ENDBRANCH  28  29
ENDBRANCH  27  28
ENDBRANCH  25  27
ENDBRANCH   7  25
TORSDOF 7
ENDMDL
MODEL 5
REMARK VINA RESULT: -9.096360139      3.830      9.383
REMARK  7 active torsions:
REMARK  status: ('A' for Active; 'I' for Inactive)
REMARK    1  A    between atoms: O1_2  and  C2_3 
REMARK    2  A    between atoms: C5_6  and  C6_7 
REMARK    3  A    between atoms: C7_8  and  C8_9 
REMARK    4  A    between atoms: C18_19  and  N1_20 
REMARK    5  A    between atoms: N1_20  and  C19_22 
REMARK    6  A    between atoms: C19_22  and  C20_23 
REMARK    7  A    between atoms: C20_23  and  N2_24 
ROOT
HETATM    1  C2  UNL     1      12.510   6.347  -7.425  1.00  0.00     0.104 A 
HETATM    2  C3  UNL     1      13.283   5.672  -6.516  1.00  0.00    -0.007 A 
HETATM    3  C4  UNL     1      13.364   6.168  -5.130  1.00  0.00     0.052 C 
HETATM    4  C5  UNL     1      13.992   4.533  -6.868  1.00  0.00     0.027 A 
HETATM    5  C16 UNL     1      13.926   4.051  -8.176  1.00  0.00     0.039 A 
HETATM    6  C17 UNL     1      13.159   4.722  -9.072  1.00  0.00     0.041 A 
HETATM    7  C18 UNL     1      12.916   4.475 -10.417  1.00  0.00     0.128 A 
HETATM    8  N3  UNL     1      12.089   5.449 -10.822  1.00  0.00    -0.284 N 
ATOM      9  H3  UNL     1      11.726   5.543 -11.771  1.00  0.00     0.188 HD
HETATM   10  N4  UNL     1      11.807   6.274  -9.825  1.00  0.00    -0.295 N 
ATOM     11  H4  UNL     1      11.199   7.091  -9.883  1.00  0.00     0.187 HD
HETATM   12  C25 UNL     1      12.455   5.854  -8.722  1.00  0.00     0.096 A 
ENDROOT
BRANCH   4  13
HETATM   13  C6  UNL     1      14.812   3.813  -5.936  1.00  0.00    -0.066 C 
HETATM   14  C7  UNL     1      15.488   3.187  -5.156  1.00  0.00    -0.091 C 
BRANCH  14  15
HETATM   15  C8  UNL     1      16.285   2.416  -4.233  1.00  0.00     0.097 C 
HETATM   16  C9  UNL     1      15.483   1.486  -3.387  1.00  0.00    -0.071 C 
HETATM   17  C10 UNL     1      13.996   1.425  -3.414  1.00  0.00     0.044 C 
HETATM   18  C11 UNL     1      16.217   0.692  -2.580  1.00  0.00    -0.023 C 
HETATM   19  C12 UNL     1      17.692   0.889  -2.681  1.00  0.00     0.028 C 
HETATM   20  C13 UNL     1      18.175   0.851  -4.103  1.00  0.00     0.009 C 
HETATM   21  C14 UNL     1      17.317   1.661  -5.043  1.00  0.00     0.001 C 
HETATM   22  C15 UNL     1      18.177   2.654  -5.768  1.00  0.00     0.011 C 
ENDBRANCH  14  15
ENDBRANCH   4  13
BRANCH   1  23
HETATM   23  O1  UNL     1      11.807   7.479  -7.066  1.00  0.00    -0.353 OA
HETATM   24  C1  UNL     1      11.845   8.700  -7.748  1.00  0.00     0.210 C 
ENDBRANCH   1  23
BRANCH   7  25
HETATM   25  N1  UNL     1      13.420   3.481 -11.083  1.00  0.00    -0.373 N 
ATOM     26  H1  UNL     1      13.839   3.625 -12.002  1.00  0.00     0.161 HD
BRANCH  25  27
HETATM   27  C19 UNL     1      13.373   2.169 -10.489  1.00  0.00     0.151 C 
BRANCH  27  28
HETATM   28  C20 UNL     1      13.167   1.085 -11.531  1.00  0.00     0.292 C 
BRANCH  28  29
HETATM   29  N2  UNL     1      11.825   0.541 -11.433  1.00  0.00     0.090 N 
HETATM   30  C21 UNL     1      10.897   1.357 -12.232  1.00  0.00     0.272 C 
HETATM   31  C22 UNL     1       9.567   0.892 -11.642  1.00  0.00     0.032 C 
HETATM   32  C23 UNL     1       9.845   0.860 -10.176  1.00  0.00     0.032 C 
HETATM   33  C24 UNL     1      11.347   0.719 -10.075  1.00  0.00     0.272 C 
ENDBRANCH  28  29
ENDBRANCH  27  28
ENDBRANCH  25  27
ENDBRANCH   7  25
TORSDOF 7
ENDMDL
