MODEL 1
REMARK VINA RESULT: -4.882749898      0.000      0.000
REMARK  5 active torsions:
REMARK  status: ('A' for Active; 'I' for Inactive)
REMARK    1  A    between atoms: C2_2  and  O1_3 
REMARK    2  A    between atoms: C2_2  and  C3_5 
REMARK    3  A    between atoms: C3_5  and  C5_7 
REMARK    4  A    between atoms: N1_11  and  C9_12 
REMARK    5  A    between atoms: N3_15  and  C10_16 
ROOT
HETATM    1  C5  UNL     1      -1.559   8.429  34.405  1.00  0.00     0.040 C 
HETATM    2  C6  UNL     1      -1.397   7.971  33.001  1.00  0.00     0.086 C 
HETATM    3  C7  UNL     1      -2.803   7.629  32.494  1.00  0.00     0.112 C 
HETATM    4  C8  UNL     1      -3.308   8.607  31.485  1.00  0.00     0.034 C 
HETATM    5  N1  UNL     1      -3.617   7.728  33.724  1.00  0.00    -0.262 N 
HETATM    6  N3  UNL     1      -2.986   8.690  34.523  1.00  0.00    -0.278 N 
ENDROOT
BRANCH   1   7
HETATM    7  C3  UNL     1      -0.617   8.572  35.289  1.00  0.00    -0.009 C 
HETATM    8  C4  UNL     1      -0.186   7.374  36.134  1.00  0.00     0.053 C 
BRANCH   7   9
HETATM    9  C2  UNL     1       0.131   9.779  35.563  1.00  0.00     0.047 C 
HETATM   10  C1  UNL     1       0.086  11.065  34.854  1.00  0.00     0.076 C 
BRANCH   9  11
HETATM   11  O1  UNL     1       0.951   9.690  36.580  1.00  0.00    -0.365 OA
ATOM     12  H1  UNL     1       1.860   9.916  36.420  1.00  0.00     0.217 HD
ENDBRANCH   9  11
ENDBRANCH   7   9
ENDBRANCH   1   7
BRANCH   6  13
HETATM   13  C10 UNL     1      -3.581   9.716  35.289  1.00  0.00     0.263 C 
HETATM   14 CL1  UNL     1      -3.467   9.467  37.063  1.00  0.00    -0.107 Cl
ENDBRANCH   6  13
BRANCH   5  15
HETATM   15  C9  UNL     1      -4.773   6.972  33.956  1.00  0.00     0.202 C 
HETATM   16  N2  UNL     1      -5.943   7.397  34.630  1.00  0.00    -0.068 NA
HETATM   17  S1  UNL     1      -4.792   5.410  33.382  1.00  0.00    -0.043 SA
ENDBRANCH   5  15
TORSDOF 5
ENDMDL
MODEL 2
REMARK VINA RESULT: -4.762052517      3.038      5.037
REMARK  5 active torsions:
REMARK  status: ('A' for Active; 'I' for Inactive)
REMARK    1  A    between atoms: C2_2  and  O1_3 
REMARK    2  A    between atoms: C2_2  and  C3_5 
REMARK    3  A    between atoms: C3_5  and  C5_7 
REMARK    4  A    between atoms: N1_11  and  C9_12 
REMARK    5  A    between atoms: N3_15  and  C10_16 
ROOT
HETATM    1  C5  UNL     1      -2.252   7.686  34.084  1.00  0.00     0.040 C 
HETATM    2  C6  UNL     1      -1.082   6.893  34.543  1.00  0.00     0.086 C 
HETATM    3  C7  UNL     1      -0.213   7.849  35.369  1.00  0.00     0.112 C 
HETATM    4  C8  UNL     1      -0.238   7.537  36.830  1.00  0.00     0.034 C 
HETATM    5  N1  UNL     1      -0.865   9.154  35.135  1.00  0.00    -0.262 N 
HETATM    6  N3  UNL     1      -2.220   8.873  34.925  1.00  0.00    -0.278 N 
ENDROOT
BRANCH   1   7
HETATM    7  C3  UNL     1      -3.101   7.353  33.158  1.00  0.00    -0.009 C 
HETATM    8  C4  UNL     1      -2.802   7.701  31.700  1.00  0.00     0.053 C 
BRANCH   7   9
HETATM    9  C2  UNL     1      -4.339   6.630  33.344  1.00  0.00     0.047 C 
HETATM   10  C1  UNL     1      -4.566   5.179  33.312  1.00  0.00     0.076 C 
BRANCH   9  11
HETATM   11  O1  UNL     1      -5.382   7.388  33.568  1.00  0.00    -0.365 OA
ATOM     12  H1  UNL     1      -5.917   7.619  32.817  1.00  0.00     0.217 HD
ENDBRANCH   9  11
ENDBRANCH   7   9
ENDBRANCH   1   7
BRANCH   6  13
HETATM   13  C10 UNL     1      -3.344   9.571  35.419  1.00  0.00     0.263 C 
HETATM   14 CL1  UNL     1      -3.443   9.628  37.210  1.00  0.00    -0.107 Cl
ENDBRANCH   6  13
BRANCH   5  15
HETATM   15  C9  UNL     1      -0.181  10.377  35.140  1.00  0.00     0.202 C 
HETATM   16  N2  UNL     1       0.741  10.828  36.115  1.00  0.00    -0.068 NA
HETATM   17  S1  UNL     1      -0.468  11.418  33.874  1.00  0.00    -0.043 SA
ENDBRANCH   5  15
TORSDOF 5
ENDMDL
MODEL 3
REMARK VINA RESULT: -4.649066421      3.091      4.806
REMARK  5 active torsions:
REMARK  status: ('A' for Active; 'I' for Inactive)
REMARK    1  A    between atoms: C2_2  and  O1_3 
REMARK    2  A    between atoms: C2_2  and  C3_5 
REMARK    3  A    between atoms: C3_5  and  C5_7 
REMARK    4  A    between atoms: N1_11  and  C9_12 
REMARK    5  A    between atoms: N3_15  and  C10_16 
ROOT
HETATM    1  C5  UNL     1      -2.116   7.537  34.053  1.00  0.00     0.040 C 
HETATM    2  C6  UNL     1      -0.953   6.811  34.626  1.00  0.00     0.086 C 
HETATM    3  C7  UNL     1      -0.174   7.835  35.460  1.00  0.00     0.112 C 
HETATM    4  C8  UNL     1      -0.286   7.591  36.929  1.00  0.00     0.034 C 
HETATM    5  N1  UNL     1      -0.853   9.104  35.120  1.00  0.00    -0.262 N 
HETATM    6  N3  UNL     1      -2.180   8.762  34.836  1.00  0.00    -0.278 N 
ENDROOT
BRANCH   1   7
HETATM    7  C3  UNL     1      -2.889   7.130  33.091  1.00  0.00    -0.009 C 
HETATM    8  C4  UNL     1      -4.006   6.132  33.391  1.00  0.00     0.053 C 
BRANCH   7   9
HETATM    9  C2  UNL     1      -2.838   7.552  31.709  1.00  0.00     0.047 C 
HETATM   10  C1  UNL     1      -1.786   8.313  31.022  1.00  0.00     0.076 C 
BRANCH   9  11
HETATM   11  O1  UNL     1      -3.878   7.199  30.995  1.00  0.00    -0.365 OA
ATOM     12  H1  UNL     1      -4.414   6.492  31.336  1.00  0.00     0.217 HD
ENDBRANCH   9  11
ENDBRANCH   7   9
ENDBRANCH   1   7
BRANCH   6  13
HETATM   13  C10 UNL     1      -3.358   9.441  35.220  1.00  0.00     0.263 C 
HETATM   14 CL1  UNL     1      -3.518   9.686  36.992  1.00  0.00    -0.107 Cl
ENDBRANCH   6  13
BRANCH   5  15
HETATM   15  C9  UNL     1      -0.214  10.350  35.110  1.00  0.00     0.202 C 
HETATM   16  N2  UNL     1       0.697  10.843  36.076  1.00  0.00    -0.068 NA
HETATM   17  S1  UNL     1      -0.542  11.368  33.836  1.00  0.00    -0.043 SA
ENDBRANCH   5  15
TORSDOF 5
ENDMDL
MODEL 4
REMARK VINA RESULT: -4.520963326      2.038      2.493
REMARK  5 active torsions:
REMARK  status: ('A' for Active; 'I' for Inactive)
REMARK    1  A    between atoms: C2_2  and  O1_3 
REMARK    2  A    between atoms: C2_2  and  C3_5 
REMARK    3  A    between atoms: C3_5  and  C5_7 
REMARK    4  A    between atoms: N1_11  and  C9_12 
REMARK    5  A    between atoms: N3_15  and  C10_16 
ROOT
HETATM    1  C5  UNL     1      -1.954   8.352  32.915  1.00  0.00     0.040 C 
HETATM    2  C6  UNL     1      -1.432   8.018  31.564  1.00  0.00     0.086 C 
HETATM    3  C7  UNL     1      -2.610   7.424  30.783  1.00  0.00     0.112 C 
HETATM    4  C8  UNL     1      -3.108   8.333  29.707  1.00  0.00     0.034 C 
HETATM    5  N1  UNL     1      -3.646   7.284  31.827  1.00  0.00    -0.262 N 
HETATM    6  N3  UNL     1      -3.400   8.307  32.749  1.00  0.00    -0.278 N 
ENDROOT
BRANCH   1   7
HETATM    7  C3  UNL     1      -1.252   8.635  33.971  1.00  0.00    -0.009 C 
HETATM    8  C4  UNL     1      -0.871  10.087  34.257  1.00  0.00     0.053 C 
BRANCH   7   9
HETATM    9  C2  UNL     1      -0.792   7.702  34.975  1.00  0.00     0.047 C 
HETATM   10  C1  UNL     1      -0.084   7.983  36.231  1.00  0.00     0.076 C 
BRANCH   9  11
HETATM   11  O1  UNL     1      -1.051   6.446  34.708  1.00  0.00    -0.365 OA
ATOM     12  H1  UNL     1      -1.008   6.182  33.796  1.00  0.00     0.217 HD
ENDBRANCH   9  11
ENDBRANCH   7   9
ENDBRANCH   1   7
BRANCH   6  13
HETATM   13  C10 UNL     1      -4.335   9.144  33.397  1.00  0.00     0.263 C 
HETATM   14 CL1  UNL     1      -4.724   8.646  35.078  1.00  0.00    -0.107 Cl
ENDBRANCH   6  13
BRANCH   5  15
HETATM   15  C9  UNL     1      -4.637   6.294  31.812  1.00  0.00     0.202 C 
HETATM   16  N2  UNL     1      -5.528   6.002  30.751  1.00  0.00    -0.068 NA
HETATM   17  S1  UNL     1      -4.795   5.350  33.173  1.00  0.00    -0.043 SA
ENDBRANCH   5  15
TORSDOF 5
ENDMDL
MODEL 5
REMARK VINA RESULT: -4.453515628      0.529      1.512
REMARK  5 active torsions:
REMARK  status: ('A' for Active; 'I' for Inactive)
REMARK    1  A    between atoms: C2_2  and  O1_3 
REMARK    2  A    between atoms: C2_2  and  C3_5 
REMARK    3  A    between atoms: C3_5  and  C5_7 
REMARK    4  A    between atoms: N1_11  and  C9_12 
REMARK    5  A    between atoms: N3_15  and  C10_16 
ROOT
HETATM    1  C5  UNL     1      -1.681   8.753  34.054  1.00  0.00     0.040 C 
HETATM    2  C6  UNL     1      -1.516   8.186  32.690  1.00  0.00     0.086 C 
HETATM    3  C7  UNL     1      -2.891   7.644  32.282  1.00  0.00     0.112 C 
HETATM    4  C8  UNL     1      -3.541   8.460  31.213  1.00  0.00     0.034 C 
HETATM    5  N1  UNL     1      -3.667   7.767  33.534  1.00  0.00    -0.262 N 
HETATM    6  N3  UNL     1      -3.123   8.863  34.213  1.00  0.00    -0.278 N 
ENDROOT
BRANCH   1   7
HETATM    7  C3  UNL     1      -0.731   9.083  34.878  1.00  0.00    -0.009 C 
HETATM    8  C4  UNL     1      -0.200  10.516  34.882  1.00  0.00     0.053 C 
BRANCH   7   9
HETATM    9  C2  UNL     1      -0.107   8.226  35.861  1.00  0.00     0.047 C 
HETATM   10  C1  UNL     1      -0.336   6.796  36.106  1.00  0.00     0.076 C 
BRANCH   9  11
HETATM   11  O1  UNL     1       0.773   8.825  36.623  1.00  0.00    -0.365 OA
ATOM     12  H1  UNL     1       1.537   9.191  36.192  1.00  0.00     0.217 HD
ENDBRANCH   9  11
ENDBRANCH   7   9
ENDBRANCH   1   7
BRANCH   6  13
HETATM   13  C10 UNL     1      -3.805   9.884  34.911  1.00  0.00     0.263 C 
HETATM   14 CL1  UNL     1      -3.845   9.655  36.691  1.00  0.00    -0.107 Cl
ENDBRANCH   6  13
BRANCH   5  15
HETATM   15  C9  UNL     1      -4.719   6.911  33.885  1.00  0.00     0.202 C 
HETATM   16  N2  UNL     1      -5.857   7.241  34.659  1.00  0.00    -0.068 NA
HETATM   17  S1  UNL     1      -4.641   5.341  33.340  1.00  0.00    -0.043 SA
ENDBRANCH   5  15
TORSDOF 5
ENDMDL
