MODEL 1
REMARK VINA RESULT: -4.721962690      0.000      0.000
REMARK  4 active torsions:
REMARK  status: ('A' for Active; 'I' for Inactive)
REMARK    1  A    between atoms: C3_5  and  N2_6 
REMARK       I    between atoms: N2_6  and  C4_8 
REMARK    2  A    between atoms: C4_8  and  C5_10 
REMARK    3  A    between atoms: C6_13  and  C7_14 
REMARK    4  A    between atoms: C7_14  and  C8_16 
ROOT
HETATM    1  C1  UNL     1      -2.669  10.292  32.363  1.00  0.00     0.070 C 
HETATM    2  C2  UNL     1      -2.016   9.254  33.273  1.00  0.00     0.028 A 
HETATM    3  N1  UNL     1      -1.222   9.566  34.258  1.00  0.00    -0.339 N 
ATOM      4  H1  UNL     1      -1.004  10.542  34.458  1.00  0.00     0.168 HD
HETATM    5  C3  UNL     1      -0.699   8.592  34.998  1.00  0.00     0.152 A 
HETATM    6  S1  UNL     1      -1.340   7.182  34.293  1.00  0.00    -0.048 SA
HETATM    7  C6  UNL     1      -2.265   7.924  33.061  1.00  0.00     0.077 A 
ENDROOT
BRANCH   5   8
HETATM    8  N2  UNL     1       0.115   8.707  36.025  1.00  0.00    -0.306 N 
HETATM    9  C4  UNL     1       0.352   9.935  36.653  1.00  0.00     0.237 C 
HETATM   10  O1  UNL     1       0.828  10.899  35.978  1.00  0.00    -0.272 OA
ATOM     11  H2  UNL     1       0.590   7.875  36.375  1.00  0.00     0.171 HD
BRANCH   9  12
HETATM   12  C5  UNL     1       0.082  10.202  38.089  1.00  0.00     0.217 C 
HETATM   13 CL1  UNL     1      -1.523  10.910  38.338  1.00  0.00    -0.121 Cl
ENDBRANCH   9  12
ENDBRANCH   5   8
BRANCH   7  14
HETATM   14  C7  UNL     1      -3.118   7.306  32.026  1.00  0.00     0.175 C 
HETATM   15  O2  UNL     1      -2.706   7.280  30.846  1.00  0.00    -0.291 OA
BRANCH  14  16
HETATM   16  C8  UNL     1      -4.428   6.724  32.346  1.00  0.00     0.015 C 
HETATM   17  C9  UNL     1      -5.163   6.332  31.058  1.00  0.00     0.023 C 
HETATM   18  C10 UNL     1      -5.320   7.668  33.109  1.00  0.00     0.023 C 
HETATM   19  C11 UNL     1      -4.278   5.447  33.141  1.00  0.00     0.023 C 
ENDBRANCH  14  16
ENDBRANCH   7  14
TORSDOF 4
ENDMDL
MODEL 2
REMARK VINA RESULT: -4.663689021      2.063      2.686
REMARK  4 active torsions:
REMARK  status: ('A' for Active; 'I' for Inactive)
REMARK    1  A    between atoms: C3_5  and  N2_6 
REMARK       I    between atoms: N2_6  and  C4_8 
REMARK    2  A    between atoms: C4_8  and  C5_10 
REMARK    3  A    between atoms: C6_13  and  C7_14 
REMARK    4  A    between atoms: C7_14  and  C8_16 
ROOT
HETATM    1  C1  UNL     1      -5.871   7.895  34.258  1.00  0.00     0.070 C 
HETATM    2  C2  UNL     1      -4.356   8.073  34.191  1.00  0.00     0.028 A 
HETATM    3  N1  UNL     1      -3.699   8.897  34.959  1.00  0.00    -0.339 N 
ATOM      4  H1  UNL     1      -4.190   9.465  35.650  1.00  0.00     0.168 HD
HETATM    5  C3  UNL     1      -2.378   8.985  34.829  1.00  0.00     0.152 A 
HETATM    6  S1  UNL     1      -2.036   7.875  33.585  1.00  0.00    -0.048 SA
HETATM    7  C6  UNL     1      -3.634   7.342  33.287  1.00  0.00     0.077 A 
ENDROOT
BRANCH   5   8
HETATM    8  N2  UNL     1      -1.549   9.750  35.507  1.00  0.00    -0.306 N 
HETATM    9  C4  UNL     1      -1.452   9.689  36.901  1.00  0.00     0.237 C 
HETATM   10  O1  UNL     1      -2.480   9.920  37.609  1.00  0.00    -0.272 OA
ATOM     11  H2  UNL     1      -0.959  10.409  35.000  1.00  0.00     0.171 HD
BRANCH   9  12
HETATM   12  C5  UNL     1      -0.202   9.364  37.636  1.00  0.00     0.217 C 
HETATM   13 CL1  UNL     1       0.748   8.121  36.804  1.00  0.00    -0.121 Cl
ENDBRANCH   9  12
ENDBRANCH   5   8
BRANCH   7  14
HETATM   14  C7  UNL     1      -4.125   6.350  32.310  1.00  0.00     0.175 C 
HETATM   15  O2  UNL     1      -4.399   5.198  32.711  1.00  0.00    -0.291 OA
BRANCH  14  16
HETATM   16  C8  UNL     1      -4.301   6.680  30.890  1.00  0.00     0.015 C 
HETATM   17  C9  UNL     1      -4.909   5.489  30.140  1.00  0.00     0.023 C 
HETATM   18  C10 UNL     1      -3.008   7.037  30.205  1.00  0.00     0.023 C 
HETATM   19  C11 UNL     1      -5.276   7.821  30.712  1.00  0.00     0.023 C 
ENDBRANCH  14  16
ENDBRANCH   7  14
TORSDOF 4
ENDMDL
MODEL 3
REMARK VINA RESULT: -4.644760650      2.068      2.613
REMARK  4 active torsions:
REMARK  status: ('A' for Active; 'I' for Inactive)
REMARK    1  A    between atoms: C3_5  and  N2_6 
REMARK       I    between atoms: N2_6  and  C4_8 
REMARK    2  A    between atoms: C4_8  and  C5_10 
REMARK    3  A    between atoms: C6_13  and  C7_14 
REMARK    4  A    between atoms: C7_14  and  C8_16 
ROOT
HETATM    1  C1  UNL     1      -5.898   7.894  34.262  1.00  0.00     0.070 C 
HETATM    2  C2  UNL     1      -4.383   8.069  34.192  1.00  0.00     0.028 A 
HETATM    3  N1  UNL     1      -3.723   8.894  34.956  1.00  0.00    -0.339 N 
ATOM      4  H1  UNL     1      -4.212   9.467  35.644  1.00  0.00     0.168 HD
HETATM    5  C3  UNL     1      -2.401   8.979  34.823  1.00  0.00     0.152 A 
HETATM    6  S1  UNL     1      -2.064   7.862  33.584  1.00  0.00    -0.048 SA
HETATM    7  C6  UNL     1      -3.663   7.332  33.291  1.00  0.00     0.077 A 
ENDROOT
BRANCH   5   8
HETATM    8  N2  UNL     1      -1.570   9.745  35.496  1.00  0.00    -0.306 N 
HETATM    9  C4  UNL     1      -1.462   9.682  36.889  1.00  0.00     0.237 C 
HETATM   10  O1  UNL     1      -2.486   9.909  37.606  1.00  0.00    -0.272 OA
ATOM     11  H2  UNL     1      -0.985  10.407  34.986  1.00  0.00     0.171 HD
BRANCH   9  12
HETATM   12  C5  UNL     1      -0.206   9.360  37.615  1.00  0.00     0.217 C 
HETATM   13 CL1  UNL     1       0.735   8.112  36.781  1.00  0.00    -0.121 Cl
ENDBRANCH   9  12
ENDBRANCH   5   8
BRANCH   7  14
HETATM   14  C7  UNL     1      -4.158   6.336  32.320  1.00  0.00     0.175 C 
HETATM   15  O2  UNL     1      -4.393   5.174  32.718  1.00  0.00    -0.291 OA
BRANCH  14  16
HETATM   16  C8  UNL     1      -4.381   6.673  30.908  1.00  0.00     0.015 C 
HETATM   17  C9  UNL     1      -3.051   7.018  30.228  1.00  0.00     0.023 C 
HETATM   18  C10 UNL     1      -5.305   7.848  30.722  1.00  0.00     0.023 C 
HETATM   19  C11 UNL     1      -4.940   5.492  30.147  1.00  0.00     0.023 C 
ENDBRANCH  14  16
ENDBRANCH   7  14
TORSDOF 4
ENDMDL
MODEL 4
REMARK VINA RESULT: -4.586976523      1.761      1.894
REMARK  4 active torsions:
REMARK  status: ('A' for Active; 'I' for Inactive)
REMARK    1  A    between atoms: C3_5  and  N2_6 
REMARK       I    between atoms: N2_6  and  C4_8 
REMARK    2  A    between atoms: C4_8  and  C5_10 
REMARK    3  A    between atoms: C6_13  and  C7_14 
REMARK    4  A    between atoms: C7_14  and  C8_16 
ROOT
HETATM    1  C1  UNL     1      -3.245  10.161  30.697  1.00  0.00     0.070 C 
HETATM    2  C2  UNL     1      -2.561   9.432  31.851  1.00  0.00     0.028 A 
HETATM    3  N1  UNL     1      -1.925  10.048  32.809  1.00  0.00    -0.339 N 
ATOM      4  H1  UNL     1      -1.862  11.066  32.817  1.00  0.00     0.168 HD
HETATM    5  C3  UNL     1      -1.359   9.328  33.774  1.00  0.00     0.152 A 
HETATM    6  S1  UNL     1      -1.728   7.727  33.331  1.00  0.00    -0.048 SA
HETATM    7  C6  UNL     1      -2.606   8.065  31.902  1.00  0.00     0.077 A 
ENDROOT
BRANCH   5   8
HETATM    8  N2  UNL     1      -0.682   9.764  34.815  1.00  0.00    -0.306 N 
HETATM    9  C4  UNL     1      -1.107   9.536  36.128  1.00  0.00     0.237 C 
HETATM   10  O1  UNL     1      -2.243   9.965  36.499  1.00  0.00    -0.272 OA
ATOM     11  H2  UNL     1       0.180  10.286  34.659  1.00  0.00     0.171 HD
BRANCH   9  12
HETATM   12  C5  UNL     1      -0.308   8.809  37.148  1.00  0.00     0.217 C 
HETATM   13 CL1  UNL     1      -0.008   7.128  36.675  1.00  0.00    -0.121 Cl
ENDBRANCH   9  12
ENDBRANCH   5   8
BRANCH   7  14
HETATM   14  C7  UNL     1      -3.253   7.134  30.956  1.00  0.00     0.175 C 
HETATM   15  O2  UNL     1      -2.686   6.896  29.867  1.00  0.00    -0.291 OA
BRANCH  14  16
HETATM   16  C8  UNL     1      -4.535   6.486  31.259  1.00  0.00     0.015 C 
HETATM   17  C9  UNL     1      -4.908   5.501  30.144  1.00  0.00     0.023 C 
HETATM   18  C10 UNL     1      -5.671   7.465  31.400  1.00  0.00     0.023 C 
HETATM   19  C11 UNL     1      -4.444   5.663  32.524  1.00  0.00     0.023 C 
ENDBRANCH  14  16
ENDBRANCH   7  14
TORSDOF 4
ENDMDL
MODEL 5
REMARK VINA RESULT: -4.543614835      2.925      6.370
REMARK  4 active torsions:
REMARK  status: ('A' for Active; 'I' for Inactive)
REMARK    1  A    between atoms: C3_5  and  N2_6 
REMARK       I    between atoms: N2_6  and  C4_8 
REMARK    2  A    between atoms: C4_8  and  C5_10 
REMARK    3  A    between atoms: C6_13  and  C7_14 
REMARK    4  A    between atoms: C7_14  and  C8_16 
ROOT
HETATM    1  C1  UNL     1       0.068   7.401  36.275  1.00  0.00     0.070 C 
HETATM    2  C2  UNL     1      -0.693   8.042  35.117  1.00  0.00     0.028 A 
HETATM    3  N1  UNL     1      -1.318   7.353  34.203  1.00  0.00    -0.339 N 
ATOM      4  H1  UNL     1      -1.318   6.333  34.234  1.00  0.00     0.168 HD
HETATM    5  C3  UNL     1      -1.955   7.999  33.230  1.00  0.00     0.152 A 
HETATM    6  S1  UNL     1      -1.672   9.636  33.603  1.00  0.00    -0.048 SA
HETATM    7  C6  UNL     1      -0.734   9.407  35.014  1.00  0.00     0.077 A 
ENDROOT
BRANCH   5   8
HETATM    8  N2  UNL     1      -2.635   7.484  32.229  1.00  0.00    -0.306 N 
HETATM    9  C4  UNL     1      -3.728   8.142  31.655  1.00  0.00     0.237 C 
HETATM   10  O1  UNL     1      -4.729   8.437  32.378  1.00  0.00    -0.272 OA
ATOM     11  H2  UNL     1      -2.357   6.574  31.860  1.00  0.00     0.171 HD
BRANCH   9  12
HETATM   12  C5  UNL     1      -3.807   8.532  30.224  1.00  0.00     0.217 C 
HETATM   13 CL1  UNL     1      -2.209   8.564  29.459  1.00  0.00    -0.121 Cl
ENDBRANCH   9  12
ENDBRANCH   5   8
BRANCH   7  14
HETATM   14  C7  UNL     1      -0.118  10.410  35.906  1.00  0.00     0.175 C 
HETATM   15  O2  UNL     1       0.986  10.902  35.584  1.00  0.00    -0.291 OA
BRANCH  14  16
HETATM   16  C8  UNL     1      -0.765  10.843  37.151  1.00  0.00     0.015 C 
HETATM   17  C9  UNL     1       0.066  10.403  38.362  1.00  0.00     0.023 C 
HETATM   18  C10 UNL     1      -2.151  10.278  37.321  1.00  0.00     0.023 C 
HETATM   19  C11 UNL     1      -0.843  12.351  37.229  1.00  0.00     0.023 C 
ENDBRANCH  14  16
ENDBRANCH   7  14
TORSDOF 4
ENDMDL
