MODEL 1
REMARK VINA RESULT: -5.129498301      0.000      0.000
REMARK  5 active torsions:
REMARK  status: ('A' for Active; 'I' for Inactive)
REMARK    1  A    between atoms: C2_2  and  O1_3 
REMARK    2  A    between atoms: O1_3  and  C3_4 
REMARK       I    between atoms: C3_4  and  N1_6 
REMARK    3  A    between atoms: N2_9  and  C6_10 
REMARK    4  A    between atoms: C6_10  and  N3_11 
REMARK    5  A    between atoms: C6_10  and  C7_15 
ROOT
HETATM    1  C3  UNL     1      -0.848   9.929  35.169  1.00  0.00     0.363 C 
HETATM    2  O2  UNL     1       0.169  10.598  34.849  1.00  0.00    -0.238 OA
HETATM    3  N1  UNL     1      -1.776   9.468  34.207  1.00  0.00    -0.319 N 
HETATM    4  C4  UNL     1      -2.925   8.717  34.566  1.00  0.00     0.159 C 
HETATM    5  C5  UNL     1      -3.528   7.848  33.507  1.00  0.00     0.303 C 
HETATM    6  N2  UNL     1      -3.162   8.138  32.154  1.00  0.00     0.195 N 
HETATM    7  C11 UNL     1      -1.747   8.402  32.114  1.00  0.00     0.457 C 
HETATM    8  F1  UNL     1      -1.136   7.403  32.852  1.00  0.00    -0.171 F 
HETATM    9  F2  UNL     1      -1.137   8.521  30.931  1.00  0.00    -0.171 F 
HETATM   10  C12 UNL     1      -1.564   9.763  32.810  1.00  0.00     0.242 C 
ENDROOT
BRANCH   6  11
HETATM   11  C6  UNL     1      -3.591   7.282  31.133  1.00  0.00     0.432 C 
BRANCH  11  12
HETATM   12  N3  UNL     1      -3.906   8.111  29.939  1.00  0.00    -0.046 N 
ATOM     13  H33 UNL     1      -3.645   7.656  29.064  1.00  0.00     0.276 HD
ATOM     14  H32 UNL     1      -4.908   8.184  29.763  1.00  0.00     0.276 HD
ATOM     15  H31 UNL     1      -3.459   9.020  30.060  1.00  0.00     0.276 HD
ENDBRANCH  11  12
BRANCH  11  16
HETATM   16  C7  UNL     1      -4.820   6.461  31.307  1.00  0.00     0.006 C 
HETATM   17  C8  UNL     1      -4.890   5.455  30.110  1.00  0.00     0.018 C 
HETATM   18  C9  UNL     1      -6.098   7.253  31.212  1.00  0.00     0.018 C 
HETATM   19  C10 UNL     1      -4.794   5.517  32.497  1.00  0.00     0.018 C 
ENDBRANCH  11  16
ENDBRANCH   6  11
BRANCH   1  20
HETATM   20  O1  UNL     1      -1.010   9.670  36.528  1.00  0.00    -0.304 OA
BRANCH  20  21
HETATM   21  C2  UNL     1      -0.170   8.790  37.252  1.00  0.00     0.176 C 
HETATM   22  C1  UNL     1      -0.018   7.459  36.545  1.00  0.00     0.034 C 
ENDBRANCH  20  21
ENDBRANCH   1  20
TORSDOF 5
ENDMDL
MODEL 2
REMARK VINA RESULT: -4.870225162      2.769      6.032
REMARK  5 active torsions:
REMARK  status: ('A' for Active; 'I' for Inactive)
REMARK    1  A    between atoms: C2_2  and  O1_3 
REMARK    2  A    between atoms: O1_3  and  C3_4 
REMARK       I    between atoms: C3_4  and  N1_6 
REMARK    3  A    between atoms: N2_9  and  C6_10 
REMARK    4  A    between atoms: C6_10  and  N3_11 
REMARK    5  A    between atoms: C6_10  and  C7_15 
ROOT
HETATM    1  C3  UNL     1      -4.045   7.713  31.316  1.00  0.00     0.363 C 
HETATM    2  O2  UNL     1      -4.341   6.518  31.055  1.00  0.00    -0.238 OA
HETATM    3  N1  UNL     1      -3.418   8.082  32.529  1.00  0.00    -0.319 N 
HETATM    4  C4  UNL     1      -3.086   9.429  32.827  1.00  0.00     0.159 C 
HETATM    5  C5  UNL     1      -1.994   9.656  33.826  1.00  0.00     0.303 C 
HETATM    6  N2  UNL     1      -1.662   8.552  34.674  1.00  0.00     0.195 N 
HETATM    7  C11 UNL     1      -1.632   7.356  33.871  1.00  0.00     0.457 C 
HETATM    8  F1  UNL     1      -0.909   7.663  32.731  1.00  0.00    -0.171 F 
HETATM    9  F2  UNL     1      -1.167   6.223  34.403  1.00  0.00    -0.171 F 
HETATM   10  C12 UNL     1      -3.100   7.070  33.507  1.00  0.00     0.242 C 
ENDROOT
BRANCH   6  11
HETATM   11  C6  UNL     1      -0.566   8.661  35.539  1.00  0.00     0.432 C 
BRANCH  11  12
HETATM   12  N3  UNL     1      -0.403   7.361  36.241  1.00  0.00    -0.046 N 
ATOM     13  H33 UNL     1      -1.254   6.800  36.234  1.00  0.00     0.276 HD
ATOM     14  H32 UNL     1       0.196   6.710  35.733  1.00  0.00     0.276 HD
ATOM     15  H31 UNL     1      -0.065   7.553  37.185  1.00  0.00     0.276 HD
ENDBRANCH  11  12
BRANCH  11  16
HETATM   16  C7  UNL     1      -0.583   9.647  36.653  1.00  0.00     0.006 C 
HETATM   17  C8  UNL     1       0.198   9.018  37.854  1.00  0.00     0.018 C 
HETATM   18  C9  UNL     1      -1.960   9.923  37.199  1.00  0.00     0.018 C 
HETATM   19  C10 UNL     1       0.219  10.912  36.398  1.00  0.00     0.018 C 
ENDBRANCH  11  16
ENDBRANCH   6  11
BRANCH   1  20
HETATM   20  O1  UNL     1      -4.371   8.654  30.343  1.00  0.00    -0.304 OA
BRANCH  20  21
HETATM   21  C2  UNL     1      -3.618   8.832  29.157  1.00  0.00     0.176 C 
HETATM   22  C1  UNL     1      -2.130   8.826  29.437  1.00  0.00     0.034 C 
ENDBRANCH  20  21
ENDBRANCH   1  20
TORSDOF 5
ENDMDL
MODEL 3
REMARK VINA RESULT: -4.833815755      1.418      1.636
REMARK  5 active torsions:
REMARK  status: ('A' for Active; 'I' for Inactive)
REMARK    1  A    between atoms: C2_2  and  O1_3 
REMARK    2  A    between atoms: O1_3  and  C3_4 
REMARK       I    between atoms: C3_4  and  N1_6 
REMARK    3  A    between atoms: N2_9  and  C6_10 
REMARK    4  A    between atoms: C6_10  and  N3_11 
REMARK    5  A    between atoms: C6_10  and  C7_15 
ROOT
HETATM    1  C3  UNL     1      -1.474   9.277  36.026  1.00  0.00     0.363 C 
HETATM    2  O2  UNL     1      -0.228   9.446  36.085  1.00  0.00    -0.238 OA
HETATM    3  N1  UNL     1      -2.147   9.088  34.796  1.00  0.00    -0.319 N 
HETATM    4  C4  UNL     1      -3.552   8.902  34.727  1.00  0.00     0.159 C 
HETATM    5  C5  UNL     1      -4.086   8.202  33.517  1.00  0.00     0.303 C 
HETATM    6  N2  UNL     1      -3.221   8.139  32.378  1.00  0.00     0.195 N 
HETATM    7  C11 UNL     1      -1.893   7.821  32.835  1.00  0.00     0.457 C 
HETATM    8  F1  UNL     1      -2.021   6.773  33.730  1.00  0.00    -0.171 F 
HETATM    9  F2  UNL     1      -0.945   7.531  31.939  1.00  0.00    -0.171 F 
HETATM   10  C12 UNL     1      -1.398   9.084  33.563  1.00  0.00     0.242 C 
ENDROOT
BRANCH   6  11
HETATM   11  C6  UNL     1      -3.614   7.388  31.264  1.00  0.00     0.432 C 
BRANCH  11  12
HETATM   12  N3  UNL     1      -3.972   8.333  30.174  1.00  0.00    -0.046 N 
ATOM     13  H33 UNL     1      -4.402   9.190  30.521  1.00  0.00     0.276 HD
ATOM     14  H32 UNL     1      -3.154   8.758  29.735  1.00  0.00     0.276 HD
ATOM     15  H31 UNL     1      -4.563   7.837  29.507  1.00  0.00     0.276 HD
ENDBRANCH  11  12
BRANCH  11  16
HETATM   16  C7  UNL     1      -4.802   6.495  31.339  1.00  0.00     0.006 C 
HETATM   17  C8  UNL     1      -4.745   5.525  30.113  1.00  0.00     0.018 C 
HETATM   18  C9  UNL     1      -6.115   7.218  31.190  1.00  0.00     0.018 C 
HETATM   19  C10 UNL     1      -4.793   5.517  32.502  1.00  0.00     0.018 C 
ENDBRANCH  11  16
ENDBRANCH   6  11
BRANCH   1  20
HETATM   20  O1  UNL     1      -2.154   9.290  37.241  1.00  0.00    -0.304 OA
BRANCH  20  21
HETATM   21  C2  UNL     1      -2.543  10.482  37.897  1.00  0.00     0.176 C 
HETATM   22  C1  UNL     1      -3.982  10.415  38.366  1.00  0.00     0.034 C 
ENDBRANCH  20  21
ENDBRANCH   1  20
TORSDOF 5
ENDMDL
MODEL 4
REMARK VINA RESULT: -4.701890606      2.802      6.024
REMARK  5 active torsions:
REMARK  status: ('A' for Active; 'I' for Inactive)
REMARK    1  A    between atoms: C2_2  and  O1_3 
REMARK    2  A    between atoms: O1_3  and  C3_4 
REMARK       I    between atoms: C3_4  and  N1_6 
REMARK    3  A    between atoms: N2_9  and  C6_10 
REMARK    4  A    between atoms: C6_10  and  N3_11 
REMARK    5  A    between atoms: C6_10  and  C7_15 
ROOT
HETATM    1  C3  UNL     1      -3.892   7.633  31.197  1.00  0.00     0.363 C 
HETATM    2  O2  UNL     1      -3.845   6.420  30.863  1.00  0.00    -0.238 OA
HETATM    3  N1  UNL     1      -3.552   8.066  32.500  1.00  0.00    -0.319 N 
HETATM    4  C4  UNL     1      -3.608   9.432  32.879  1.00  0.00     0.159 C 
HETATM    5  C5  UNL     1      -2.758   9.853  34.037  1.00  0.00     0.303 C 
HETATM    6  N2  UNL     1      -2.286   8.810  34.897  1.00  0.00     0.195 N 
HETATM    7  C11 UNL     1      -1.849   7.710  34.077  1.00  0.00     0.457 C 
HETATM    8  F1  UNL     1      -1.071   8.251  33.068  1.00  0.00    -0.171 F 
HETATM    9  F2  UNL     1      -1.199   6.690  34.645  1.00  0.00    -0.171 F 
HETATM   10  C12 UNL     1      -3.135   7.102  33.489  1.00  0.00     0.242 C 
ENDROOT
BRANCH   6  11
HETATM   11  C6  UNL     1      -1.383   9.126  35.920  1.00  0.00     0.432 C 
BRANCH  11  12
HETATM   12  N3  UNL     1      -2.114   9.066  37.213  1.00  0.00    -0.046 N 
ATOM     13  H33 UNL     1      -1.569   9.436  37.992  1.00  0.00     0.276 HD
ATOM     14  H32 UNL     1      -2.888   9.729  37.260  1.00  0.00     0.276 HD
ATOM     15  H31 UNL     1      -2.412   8.102  37.363  1.00  0.00     0.276 HD
ENDBRANCH  11  12
BRANCH  11  16
HETATM   16  C7  UNL     1      -0.733  10.464  35.962  1.00  0.00     0.006 C 
HETATM   17  C8  UNL     1       0.348  10.429  37.092  1.00  0.00     0.018 C 
HETATM   18  C9  UNL     1      -1.664  11.580  36.361  1.00  0.00     0.018 C 
HETATM   19  C10 UNL     1       0.111  10.802  34.744  1.00  0.00     0.018 C 
ENDBRANCH  11  16
ENDBRANCH   6  11
BRANCH   1  20
HETATM   20  O1  UNL     1      -4.300   8.526  30.210  1.00  0.00    -0.304 OA
BRANCH  20  21
HETATM   21  C2  UNL     1      -3.501   8.859  29.090  1.00  0.00     0.176 C 
HETATM   22  C1  UNL     1      -2.063   9.119  29.491  1.00  0.00     0.034 C 
ENDBRANCH  20  21
ENDBRANCH   1  20
TORSDOF 5
ENDMDL
MODEL 5
REMARK VINA RESULT: -4.698440376      1.792      2.623
REMARK  5 active torsions:
REMARK  status: ('A' for Active; 'I' for Inactive)
REMARK    1  A    between atoms: C2_2  and  O1_3 
REMARK    2  A    between atoms: O1_3  and  C3_4 
REMARK       I    between atoms: C3_4  and  N1_6 
REMARK    3  A    between atoms: N2_9  and  C6_10 
REMARK    4  A    between atoms: C6_10  and  N3_11 
REMARK    5  A    between atoms: C6_10  and  C7_15 
ROOT
HETATM    1  C3  UNL     1      -0.075   8.390  36.051  1.00  0.00     0.363 C 
HETATM    2  O2  UNL     1       0.086   7.263  36.589  1.00  0.00    -0.238 OA
HETATM    3  N1  UNL     1      -0.726   8.540  34.804  1.00  0.00    -0.319 N 
HETATM    4  C4  UNL     1      -0.905   9.809  34.195  1.00  0.00     0.159 C 
HETATM    5  C5  UNL     1      -2.020   9.937  33.205  1.00  0.00     0.303 C 
HETATM    6  N2  UNL     1      -2.540   8.717  32.664  1.00  0.00     0.195 N 
HETATM    7  C11 UNL     1      -2.669   7.765  33.737  1.00  0.00     0.457 C 
HETATM    8  F1  UNL     1      -3.275   8.431  34.788  1.00  0.00    -0.171 F 
HETATM    9  F2  UNL     1      -3.304   6.611  33.514  1.00  0.00    -0.171 F 
HETATM   10  C12 UNL     1      -1.228   7.377  34.115  1.00  0.00     0.242 C 
ENDROOT
BRANCH   6  11
HETATM   11  C6  UNL     1      -3.666   8.766  31.833  1.00  0.00     0.432 C 
BRANCH  11  12
HETATM   12  N3  UNL     1      -4.832   8.265  32.608  1.00  0.00    -0.046 N 
ATOM     13  H33 UNL     1      -4.654   8.235  33.612  1.00  0.00     0.276 HD
ATOM     14  H32 UNL     1      -5.608   8.927  32.625  1.00  0.00     0.276 HD
ATOM     15  H31 UNL     1      -5.097   7.356  32.227  1.00  0.00     0.276 HD
ENDBRANCH  11  12
BRANCH  11  16
HETATM   16  C7  UNL     1      -3.716   7.954  30.587  1.00  0.00     0.006 C 
HETATM   17  C8  UNL     1      -4.074   8.918  29.408  1.00  0.00     0.018 C 
HETATM   18  C9  UNL     1      -4.812   6.920  30.578  1.00  0.00     0.018 C 
HETATM   19  C10 UNL     1      -2.376   7.401  30.131  1.00  0.00     0.018 C 
ENDBRANCH  11  16
ENDBRANCH   6  11
BRANCH   1  20
HETATM   20  O1  UNL     1       0.426   9.483  36.754  1.00  0.00    -0.304 OA
BRANCH  20  21
HETATM   21  C2  UNL     1      -0.100   9.911  37.996  1.00  0.00     0.176 C 
HETATM   22  C1  UNL     1      -1.525  10.404  37.856  1.00  0.00     0.034 C 
ENDBRANCH  20  21
ENDBRANCH   1  20
TORSDOF 5
ENDMDL
