MODEL 1
REMARK VINA RESULT: -7.195978226      0.000      0.000
REMARK  6 active torsions:
REMARK  status: ('A' for Active; 'I' for Inactive)
REMARK    1  A    between atoms: N1_2  and  C2_4 
REMARK    2  A    between atoms: C5_9  and  C6_10 
REMARK    3  A    between atoms: C6_10  and  C7_12 
REMARK    4  A    between atoms: C8_17  and  N5_18 
REMARK    5  A    between atoms: N5_18  and  C9_20 
REMARK    6  A    between atoms: C9_20  and  C10_21 
ROOT
HETATM    1  C2  UNL     1      16.890  -1.720  52.538  1.00  0.00     0.146 A 
HETATM    2  N2  UNL     1      17.227  -1.422  51.283  1.00  0.00    -0.341 N 
ATOM      3  H2  UNL     1      18.181  -1.634  50.990  1.00  0.00     0.167 HD
HETATM    4  C3  UNL     1      16.407  -0.862  50.370  1.00  0.00     0.035 A 
HETATM    5  C4  UNL     1      16.944  -0.530  49.040  1.00  0.00     0.070 C 
HETATM    6  C5  UNL     1      15.087  -0.564  50.757  1.00  0.00     0.079 A 
HETATM    7  N4  UNL     1      14.778  -0.875  52.035  1.00  0.00    -0.336 N 
ATOM      8  H4  UNL     1      13.830  -0.669  52.351  1.00  0.00     0.168 HD
HETATM    9  C8  UNL     1      15.619  -1.435  52.926  1.00  0.00     0.150 A 
ENDROOT
BRANCH   9  10
HETATM   10  N5  UNL     1      15.195  -1.660  54.092  1.00  0.00    -0.348 N 
ATOM     11  H5  UNL     1      15.934  -1.818  54.778  1.00  0.00     0.167 HD
BRANCH  10  12
HETATM   12  C9  UNL     1      13.894  -1.735  54.624  1.00  0.00     0.101 C 
BRANCH  12  13
HETATM   13  C10 UNL     1      13.636  -0.561  55.536  1.00  0.00    -0.013 A 
HETATM   14  C11 UNL     1      14.489  -0.289  56.563  1.00  0.00     0.032 A 
HETATM   15  C12 UNL     1      14.258   0.800  57.380  1.00  0.00     0.011 A 
HETATM   16 BR1  UNL     1      15.437   1.208  58.820  1.00  0.00    -0.051 Br
HETATM   17  C13 UNL     1      13.171   1.599  57.156  1.00  0.00     0.019 A 
HETATM   18  C14 UNL     1      12.324   1.302  56.113  1.00  0.00     0.009 A 
HETATM   19  C15 UNL     1      12.545   0.224  55.292  1.00  0.00    -0.050 A 
HETATM   20  C16 UNL     1      11.596  -0.065  54.178  1.00  0.00     0.049 C 
ENDBRANCH  12  13
ENDBRANCH  10  12
ENDBRANCH   9  10
BRANCH   1  21
HETATM   21  N1  UNL     1      17.721  -2.289  53.358  1.00  0.00    -0.378 N 
HETATM   22  C1  UNL     1      18.202  -3.621  53.047  1.00  0.00     0.148 C 
ATOM     23  H1  UNL     1      18.029  -1.809  54.203  1.00  0.00     0.160 HD
ENDBRANCH   1  21
BRANCH   6  24
HETATM   24  C6  UNL     1      14.079  -0.081  49.822  1.00  0.00     0.085 C 
HETATM   25  N3  UNL     1      13.979   1.328  49.687  1.00  0.00    -0.102 NA
BRANCH  24  26
HETATM   26  C7  UNL     1      12.881  -0.895  49.510  1.00  0.00     0.227 C 
HETATM   27 CL1  UNL     1      11.605  -0.456  50.743  1.00  0.00    -0.102 Cl
HETATM   28 CL2  UNL     1      12.054  -0.399  47.968  1.00  0.00    -0.102 Cl
ENDBRANCH  24  26
ENDBRANCH   6  24
TORSDOF 6
ENDMDL
MODEL 2
REMARK VINA RESULT: -7.185458454      1.036      1.460
REMARK  6 active torsions:
REMARK  status: ('A' for Active; 'I' for Inactive)
REMARK    1  A    between atoms: N1_2  and  C2_4 
REMARK    2  A    between atoms: C5_9  and  C6_10 
REMARK    3  A    between atoms: C6_10  and  C7_12 
REMARK    4  A    between atoms: C8_17  and  N5_18 
REMARK    5  A    between atoms: N5_18  and  C9_20 
REMARK    6  A    between atoms: C9_20  and  C10_21 
ROOT
HETATM    1  C2  UNL     1      17.008  -1.864  52.402  1.00  0.00     0.146 A 
HETATM    2  N2  UNL     1      17.334  -1.500  51.162  1.00  0.00    -0.341 N 
ATOM      3  H2  UNL     1      18.286  -1.696  50.850  1.00  0.00     0.167 HD
HETATM    4  C3  UNL     1      16.506  -0.896  50.286  1.00  0.00     0.035 A 
HETATM    5  C4  UNL     1      17.031  -0.495  48.970  1.00  0.00     0.070 C 
HETATM    6  C5  UNL     1      15.188  -0.620  50.699  1.00  0.00     0.079 A 
HETATM    7  N4  UNL     1      14.890  -0.998  51.962  1.00  0.00    -0.336 N 
ATOM      8  H4  UNL     1      13.944  -0.810  52.296  1.00  0.00     0.168 HD
HETATM    9  C8  UNL     1      15.740  -1.602  52.816  1.00  0.00     0.150 A 
ENDROOT
BRANCH   9  10
HETATM   10  N5  UNL     1      15.326  -1.888  53.971  1.00  0.00    -0.348 N 
ATOM     11  H5  UNL     1      15.976  -1.640  54.717  1.00  0.00     0.167 HD
BRANCH  10  12
HETATM   12  C9  UNL     1      14.135  -2.486  54.426  1.00  0.00     0.101 C 
BRANCH  12  13
HETATM   13  C10 UNL     1      13.106  -1.427  54.733  1.00  0.00    -0.013 A 
HETATM   14  C11 UNL     1      13.427  -0.365  55.524  1.00  0.00     0.032 A 
HETATM   15  C12 UNL     1      12.486   0.611  55.783  1.00  0.00     0.011 A 
HETATM   16 BR1  UNL     1      12.910   2.111  56.880  1.00  0.00    -0.051 Br
HETATM   17  C13 UNL     1      11.233   0.506  55.247  1.00  0.00     0.019 A 
HETATM   18  C14 UNL     1      10.932  -0.576  54.453  1.00  0.00     0.009 A 
HETATM   19  C15 UNL     1      11.860  -1.552  54.186  1.00  0.00    -0.050 A 
HETATM   20  C16 UNL     1      11.487  -2.713  53.325  1.00  0.00     0.049 C 
ENDBRANCH  12  13
ENDBRANCH  10  12
ENDBRANCH   9  10
BRANCH   1  21
HETATM   21  N1  UNL     1      17.847  -2.473  53.185  1.00  0.00    -0.378 N 
HETATM   22  C1  UNL     1      18.257  -3.822  52.848  1.00  0.00     0.148 C 
ATOM     23  H1  UNL     1      18.208  -2.012  54.019  1.00  0.00     0.160 HD
ENDBRANCH   1  21
BRANCH   6  24
HETATM   24  C6  UNL     1      14.172  -0.092  49.799  1.00  0.00     0.085 C 
HETATM   25  N3  UNL     1      14.121   1.321  49.678  1.00  0.00    -0.102 NA
BRANCH  24  26
HETATM   26  C7  UNL     1      12.935  -0.857  49.516  1.00  0.00     0.227 C 
HETATM   27 CL1  UNL     1      11.704  -0.361  50.774  1.00  0.00    -0.102 Cl
HETATM   28 CL2  UNL     1      12.096  -0.335  47.990  1.00  0.00    -0.102 Cl
ENDBRANCH  24  26
ENDBRANCH   6  24
TORSDOF 6
ENDMDL
MODEL 3
REMARK VINA RESULT: -7.084826226      3.708      6.504
REMARK  6 active torsions:
REMARK  status: ('A' for Active; 'I' for Inactive)
REMARK    1  A    between atoms: N1_2  and  C2_4 
REMARK    2  A    between atoms: C5_9  and  C6_10 
REMARK    3  A    between atoms: C6_10  and  C7_12 
REMARK    4  A    between atoms: C8_17  and  N5_18 
REMARK    5  A    between atoms: N5_18  and  C9_20 
REMARK    6  A    between atoms: C9_20  and  C10_21 
ROOT
HETATM    1  C2  UNL     1      12.968  -2.680  52.804  1.00  0.00     0.146 A 
HETATM    2  N2  UNL     1      12.566  -2.700  54.075  1.00  0.00    -0.341 N 
ATOM      3  H2  UNL     1      12.940  -3.437  54.674  1.00  0.00     0.167 HD
HETATM    4  C3  UNL     1      11.705  -1.824  54.633  1.00  0.00     0.035 A 
HETATM    5  C4  UNL     1      11.305  -2.016  56.036  1.00  0.00     0.070 C 
HETATM    6  C5  UNL     1      11.181  -0.800  53.822  1.00  0.00     0.079 A 
HETATM    7  N4  UNL     1      11.605  -0.809  52.538  1.00  0.00    -0.336 N 
ATOM      8  H4  UNL     1      11.243  -0.082  51.920  1.00  0.00     0.168 HD
HETATM    9  C8  UNL     1      12.468  -1.698  52.008  1.00  0.00     0.150 A 
ENDROOT
BRANCH   9  10
HETATM   10  N5  UNL     1      12.767  -1.590  50.789  1.00  0.00    -0.348 N 
ATOM     11  H5  UNL     1      12.729  -2.469  50.273  1.00  0.00     0.167 HD
BRANCH  10  12
HETATM   12  C9  UNL     1      13.143  -0.483  50.004  1.00  0.00     0.101 C 
BRANCH  12  13
HETATM   13  C10 UNL     1      14.599  -0.587  49.622  1.00  0.00    -0.013 A 
HETATM   14  C11 UNL     1      15.242  -1.787  49.684  1.00  0.00     0.032 A 
HETATM   15  C12 UNL     1      16.568  -1.878  49.312  1.00  0.00     0.011 A 
HETATM   16 BR1  UNL     1      17.490  -3.544  49.384  1.00  0.00    -0.051 Br
HETATM   17  C13 UNL     1      17.232  -0.762  48.886  1.00  0.00     0.019 A 
HETATM   18  C14 UNL     1      16.562   0.438  48.833  1.00  0.00     0.009 A 
HETATM   19  C15 UNL     1      15.242   0.542  49.198  1.00  0.00    -0.050 A 
HETATM   20  C16 UNL     1      14.557   1.865  49.131  1.00  0.00     0.049 C 
ENDBRANCH  12  13
ENDBRANCH  10  12
ENDBRANCH   9  10
BRANCH   1  21
HETATM   21  N1  UNL     1      13.826  -3.536  52.339  1.00  0.00    -0.378 N 
HETATM   22  C1  UNL     1      15.150  -3.584  52.928  1.00  0.00     0.148 C 
ATOM     23  H1  UNL     1      13.574  -4.162  51.574  1.00  0.00     0.160 HD
ENDBRANCH   1  21
BRANCH   6  24
HETATM   24  C6  UNL     1      10.349   0.275  54.345  1.00  0.00     0.085 C 
HETATM   25  N3  UNL     1      10.967   1.138  55.286  1.00  0.00    -0.102 NA
BRANCH  24  26
HETATM   26  C7  UNL     1       8.874   0.142  54.390  1.00  0.00     0.227 C 
HETATM   27 CL1  UNL     1       8.388  -0.863  52.941  1.00  0.00    -0.102 Cl
HETATM   28 CL2  UNL     1       8.286  -0.911  55.750  1.00  0.00    -0.102 Cl
ENDBRANCH  24  26
ENDBRANCH   6  24
TORSDOF 6
ENDMDL
MODEL 4
REMARK VINA RESULT: -6.984922976      2.115      2.716
REMARK  6 active torsions:
REMARK  status: ('A' for Active; 'I' for Inactive)
REMARK    1  A    between atoms: N1_2  and  C2_4 
REMARK    2  A    between atoms: C5_9  and  C6_10 
REMARK    3  A    between atoms: C6_10  and  C7_12 
REMARK    4  A    between atoms: C8_17  and  N5_18 
REMARK    5  A    between atoms: N5_18  and  C9_20 
REMARK    6  A    between atoms: C9_20  and  C10_21 
ROOT
HETATM    1  C2  UNL     1      16.801  -1.714  52.609  1.00  0.00     0.146 A 
HETATM    2  N2  UNL     1      17.190  -1.369  51.382  1.00  0.00    -0.341 N 
ATOM      3  H2  UNL     1      18.163  -1.546  51.130  1.00  0.00     0.167 HD
HETATM    4  C3  UNL     1      16.399  -0.806  50.445  1.00  0.00     0.035 A 
HETATM    5  C4  UNL     1      16.991  -0.420  49.154  1.00  0.00     0.070 C 
HETATM    6  C5  UNL     1      15.053  -0.557  50.774  1.00  0.00     0.079 A 
HETATM    7  N4  UNL     1      14.692  -0.914  52.027  1.00  0.00    -0.336 N 
ATOM      8  H4  UNL     1      13.724  -0.745  52.301  1.00  0.00     0.168 HD
HETATM    9  C8  UNL     1      15.505  -1.477  52.942  1.00  0.00     0.150 A 
ENDROOT
BRANCH   9  10
HETATM   10  N5  UNL     1      15.031  -1.748  54.078  1.00  0.00    -0.348 N 
ATOM     11  H5  UNL     1      15.085  -2.737  54.324  1.00  0.00     0.167 HD
BRANCH  10  12
HETATM   12  C9  UNL     1      14.443  -0.943  55.072  1.00  0.00     0.101 C 
BRANCH  12  13
HETATM   13  C10 UNL     1      13.030  -1.399  55.342  1.00  0.00    -0.013 A 
HETATM   14  C11 UNL     1      12.019  -1.034  54.505  1.00  0.00     0.032 A 
HETATM   15  C12 UNL     1      10.732  -1.474  54.747  1.00  0.00     0.011 A 
HETATM   16 BR1  UNL     1       9.299  -0.984  53.589  1.00  0.00    -0.051 Br
HETATM   17  C13 UNL     1      10.478  -2.270  55.828  1.00  0.00     0.019 A 
HETATM   18  C14 UNL     1      11.516  -2.624  56.659  1.00  0.00     0.009 A 
HETATM   19  C15 UNL     1      12.800  -2.196  56.428  1.00  0.00    -0.050 A 
HETATM   20  C16 UNL     1      13.894  -2.598  57.360  1.00  0.00     0.049 C 
ENDBRANCH  12  13
ENDBRANCH  10  12
ENDBRANCH   9  10
BRANCH   1  21
HETATM   21  N1  UNL     1      17.608  -2.283  53.453  1.00  0.00    -0.378 N 
HETATM   22  C1  UNL     1      18.206  -3.554  53.094  1.00  0.00     0.148 C 
ATOM     23  H1  UNL     1      17.816  -1.845  54.350  1.00  0.00     0.160 HD
ENDBRANCH   1  21
BRANCH   6  24
HETATM   24  C6  UNL     1      14.079  -0.076  49.805  1.00  0.00     0.085 C 
HETATM   25  N3  UNL     1      14.031   1.330  49.615  1.00  0.00    -0.102 NA
BRANCH  24  26
HETATM   26  C7  UNL     1      12.857  -0.858  49.503  1.00  0.00     0.227 C 
HETATM   27 CL1  UNL     1      11.625  -0.435  50.785  1.00  0.00    -0.102 Cl
HETATM   28 CL2  UNL     1      11.996  -0.301  48.002  1.00  0.00    -0.102 Cl
ENDBRANCH  24  26
ENDBRANCH   6  24
TORSDOF 6
ENDMDL
MODEL 5
REMARK VINA RESULT: -6.944151351      2.129      2.619
REMARK  6 active torsions:
REMARK  status: ('A' for Active; 'I' for Inactive)
REMARK    1  A    between atoms: N1_2  and  C2_4 
REMARK    2  A    between atoms: C5_9  and  C6_10 
REMARK    3  A    between atoms: C6_10  and  C7_12 
REMARK    4  A    between atoms: C8_17  and  N5_18 
REMARK    5  A    between atoms: N5_18  and  C9_20 
REMARK    6  A    between atoms: C9_20  and  C10_21 
ROOT
HETATM    1  C2  UNL     1      16.548  -1.736  52.989  1.00  0.00     0.146 A 
HETATM    2  N2  UNL     1      17.011  -1.431  51.777  1.00  0.00    -0.341 N 
ATOM      3  H2  UNL     1      17.997  -1.617  51.591  1.00  0.00     0.167 HD
HETATM    4  C3  UNL     1      16.281  -0.896  50.777  1.00  0.00     0.035 A 
HETATM    5  C4  UNL     1      16.951  -0.552  49.512  1.00  0.00     0.070 C 
HETATM    6  C5  UNL     1      14.919  -0.634  51.016  1.00  0.00     0.079 A 
HETATM    7  N4  UNL     1      14.481  -0.951  52.255  1.00  0.00    -0.336 N 
ATOM      8  H4  UNL     1      13.499  -0.771  52.465  1.00  0.00     0.168 HD
HETATM    9  C8  UNL     1      15.235  -1.485  53.236  1.00  0.00     0.150 A 
ENDROOT
BRANCH   9  10
HETATM   10  N5  UNL     1      14.693  -1.720  54.349  1.00  0.00    -0.348 N 
ATOM     11  H5  UNL     1      14.876  -2.657  54.710  1.00  0.00     0.167 HD
BRANCH  10  12
HETATM   12  C9  UNL     1      13.882  -0.932  55.188  1.00  0.00     0.101 C 
BRANCH  12  13
HETATM   13  C10 UNL     1      12.490  -1.510  55.258  1.00  0.00    -0.013 A 
HETATM   14  C11 UNL     1      12.307  -2.825  55.562  1.00  0.00     0.032 A 
HETATM   15  C12 UNL     1      11.028  -3.341  55.645  1.00  0.00     0.011 A 
HETATM   16 BR1  UNL     1      10.742  -5.176  56.075  1.00  0.00    -0.051 Br
HETATM   17  C13 UNL     1       9.952  -2.530  55.418  1.00  0.00     0.019 A 
HETATM   18  C14 UNL     1      10.164  -1.205  55.112  1.00  0.00     0.009 A 
HETATM   19  C15 UNL     1      11.429  -0.680  55.028  1.00  0.00    -0.050 A 
HETATM   20  C16 UNL     1      11.612   0.761  54.686  1.00  0.00     0.049 C 
ENDBRANCH  12  13
ENDBRANCH  10  12
ENDBRANCH   9  10
BRANCH   1  21
HETATM   21  N1  UNL     1      17.300  -2.279  53.898  1.00  0.00    -0.378 N 
HETATM   22  C1  UNL     1      18.305  -3.240  53.485  1.00  0.00     0.148 C 
ATOM     23  H1  UNL     1      17.186  -2.036  54.881  1.00  0.00     0.160 HD
ENDBRANCH   1  21
BRANCH   6  24
HETATM   24  C6  UNL     1      14.006  -0.182  49.975  1.00  0.00     0.085 C 
HETATM   25  N3  UNL     1      14.008   1.212  49.708  1.00  0.00    -0.102 NA
BRANCH  24  26
HETATM   26  C7  UNL     1      12.778  -0.948  49.656  1.00  0.00     0.227 C 
HETATM   27 CL1  UNL     1      11.527  -0.493  50.909  1.00  0.00    -0.102 Cl
HETATM   28 CL2  UNL     1      11.956  -0.390  48.133  1.00  0.00    -0.102 Cl
ENDBRANCH  24  26
ENDBRANCH   6  24
TORSDOF 6
ENDMDL
