MODEL 1
REMARK VINA RESULT: -6.884657416      0.000      0.000
REMARK  5 active torsions:
REMARK  status: ('A' for Active; 'I' for Inactive)
REMARK    1  A    between atoms: C2_2  and  N1_4 
REMARK    2  A    between atoms: C2_2  and  C5_10 
REMARK    3  A    between atoms: N1_4  and  S1_6 
REMARK    4  A    between atoms: C5_10  and  N2_13 
REMARK       I    between atoms: N2_13  and  C7_15 
REMARK       I    between atoms: C7_15  and  N3_17 
REMARK    5  A    between atoms: N3_17  and  C8_19 
ROOT
HETATM    1  N2  UNL     1      13.622  -1.973  50.717  1.00  0.00    -0.309 N 
ATOM      2  H2  UNL     1      13.357  -2.833  50.238  1.00  0.00     0.170 HD
HETATM    3  C7  UNL     1      12.884  -1.665  51.899  1.00  0.00     0.325 C 
HETATM    4  O2  UNL     1      13.205  -0.622  52.491  1.00  0.00    -0.247 OA
HETATM    5  N3  UNL     1      11.857  -2.483  52.376  1.00  0.00    -0.306 N 
ATOM      6  H3  UNL     1      11.673  -3.317  51.818  1.00  0.00     0.171 HD
ENDROOT
BRANCH   1   7
HETATM    7  C5  UNL     1      14.657  -1.248  50.133  1.00  0.00     0.052 C 
HETATM    8  C6  UNL     1      14.299  -0.377  49.176  1.00  0.00     0.112 C 
HETATM    9 CL1  UNL     1      12.602  -0.220  48.721  1.00  0.00    -0.095 Cl
BRANCH   7  10
HETATM   10  C2  UNL     1      16.105  -1.336  50.474  1.00  0.00     0.074 C 
HETATM   11  C1  UNL     1      16.514  -2.789  50.323  1.00  0.00     0.045 C 
HETATM   12  C3  UNL     1      16.842  -0.454  49.513  1.00  0.00     0.045 C 
BRANCH  10  13
HETATM   13  N1  UNL     1      16.290  -0.868  51.811  1.00  0.00    -0.328 N 
ATOM     14  H1  UNL     1      16.267   0.129  52.022  1.00  0.00     0.171 HD
BRANCH  13  15
HETATM   15  S1  UNL     1      16.544  -1.995  53.023  1.00  0.00     0.084 S 
HETATM   16  C4  UNL     1      18.095  -2.781  53.099  1.00  0.00     0.149 C 
HETATM   17  O1  UNL     1      15.484  -3.088  52.975  1.00  0.00    -0.238 OA
HETATM   18  S2  UNL     1      16.291  -1.207  54.544  1.00  0.00     0.029 SA
ENDBRANCH  13  15
ENDBRANCH  10  13
ENDBRANCH   7  10
ENDBRANCH   1   7
BRANCH   5  19
HETATM   19  C8  UNL     1      11.038  -2.333  53.510  1.00  0.00     0.076 A 
HETATM   20  C9  UNL     1      11.211  -3.014  54.685  1.00  0.00     0.052 A 
HETATM   21  C10 UNL     1      10.354  -2.802  55.752  1.00  0.00     0.013 A 
HETATM   22 BR1  UNL     1      10.623  -3.771  57.384  1.00  0.00    -0.051 Br
HETATM   23  C11 UNL     1       9.310  -1.912  55.675  1.00  0.00     0.022 A 
HETATM   24  C12 UNL     1       9.109  -1.212  54.509  1.00  0.00     0.046 A 
HETATM   25  C13 UNL     1       9.961  -1.429  53.463  1.00  0.00     0.143 A 
HETATM   26  F1  UNL     1       9.726  -0.711  52.316  1.00  0.00    -0.204 F 
ENDBRANCH   5  19
TORSDOF 5
ENDMDL
MODEL 2
REMARK VINA RESULT: -6.878838816      1.735      2.009
REMARK  5 active torsions:
REMARK  status: ('A' for Active; 'I' for Inactive)
REMARK    1  A    between atoms: C2_2  and  N1_4 
REMARK    2  A    between atoms: C2_2  and  C5_10 
REMARK    3  A    between atoms: N1_4  and  S1_6 
REMARK    4  A    between atoms: C5_10  and  N2_13 
REMARK       I    between atoms: N2_13  and  C7_15 
REMARK       I    between atoms: C7_15  and  N3_17 
REMARK    5  A    between atoms: N3_17  and  C8_19 
ROOT
HETATM    1  N2  UNL     1      13.960  -1.517  50.422  1.00  0.00    -0.309 N 
ATOM      2  H2  UNL     1      13.486  -2.098  49.730  1.00  0.00     0.170 HD
HETATM    3  C7  UNL     1      13.384  -1.509  51.728  1.00  0.00     0.325 C 
HETATM    4  O2  UNL     1      13.958  -0.809  52.577  1.00  0.00    -0.247 OA
HETATM    5  N3  UNL     1      12.239  -2.243  52.046  1.00  0.00    -0.306 N 
ATOM      6  H3  UNL     1      11.845  -2.786  51.277  1.00  0.00     0.171 HD
ENDROOT
BRANCH   1   7
HETATM    7  C5  UNL     1      15.086  -0.834  49.972  1.00  0.00     0.052 C 
HETATM    8  C6  UNL     1      14.869   0.390  49.464  1.00  0.00     0.112 C 
HETATM    9 CL1  UNL     1      13.226   1.029  49.388  1.00  0.00    -0.095 Cl
BRANCH   7  10
HETATM   10  C2  UNL     1      16.495  -1.320  50.011  1.00  0.00     0.074 C 
HETATM   11  C1  UNL     1      16.525  -2.663  49.308  1.00  0.00     0.045 C 
HETATM   12  C3  UNL     1      17.334  -0.305  49.298  1.00  0.00     0.045 C 
BRANCH  10  13
HETATM   13  N1  UNL     1      16.904  -1.425  51.376  1.00  0.00    -0.328 N 
ATOM     14  H1  UNL     1      17.095  -0.590  51.929  1.00  0.00     0.171 HD
BRANCH  13  15
HETATM   15  S1  UNL     1      17.064  -2.952  52.046  1.00  0.00     0.084 S 
HETATM   16  C4  UNL     1      18.091  -4.100  51.234  1.00  0.00     0.149 C 
HETATM   17  O1  UNL     1      15.701  -3.609  52.222  1.00  0.00    -0.238 OA
HETATM   18  S2  UNL     1      17.672  -2.766  53.656  1.00  0.00     0.029 SA
ENDBRANCH  13  15
ENDBRANCH  10  13
ENDBRANCH   7  10
ENDBRANCH   1   7
BRANCH   5  19
HETATM   19  C8  UNL     1      11.546  -2.348  53.266  1.00  0.00     0.076 A 
HETATM   20  C9  UNL     1      10.447  -1.601  53.598  1.00  0.00     0.052 A 
HETATM   21  C10 UNL     1       9.827  -1.771  54.825  1.00  0.00     0.013 A 
HETATM   22 BR1  UNL     1       8.291  -0.711  55.260  1.00  0.00    -0.051 Br
HETATM   23  C11 UNL     1      10.284  -2.684  55.746  1.00  0.00     0.022 A 
HETATM   24  C12 UNL     1      11.385  -3.449  55.443  1.00  0.00     0.046 A 
HETATM   25  C13 UNL     1      11.989  -3.273  54.229  1.00  0.00     0.143 A 
HETATM   26  F1  UNL     1      13.085  -4.056  53.966  1.00  0.00    -0.204 F 
ENDBRANCH   5  19
TORSDOF 5
ENDMDL
MODEL 3
REMARK VINA RESULT: -6.672928206      3.142      3.996
REMARK  5 active torsions:
REMARK  status: ('A' for Active; 'I' for Inactive)
REMARK    1  A    between atoms: C2_2  and  N1_4 
REMARK    2  A    between atoms: C2_2  and  C5_10 
REMARK    3  A    between atoms: N1_4  and  S1_6 
REMARK    4  A    between atoms: C5_10  and  N2_13 
REMARK       I    between atoms: N2_13  and  C7_15 
REMARK       I    between atoms: C7_15  and  N3_17 
REMARK    5  A    between atoms: N3_17  and  C8_19 
ROOT
HETATM    1  N2  UNL     1      12.428  -0.791  53.888  1.00  0.00    -0.309 N 
ATOM      2  H2  UNL     1      12.489   0.107  54.367  1.00  0.00     0.170 HD
HETATM    3  C7  UNL     1      11.314  -1.611  54.242  1.00  0.00     0.325 C 
HETATM    4  O2  UNL     1      11.229  -2.704  53.659  1.00  0.00    -0.247 OA
HETATM    5  N3  UNL     1      10.365  -1.217  55.188  1.00  0.00    -0.306 N 
ATOM      6  H3  UNL     1      10.525  -0.302  55.608  1.00  0.00     0.171 HD
ENDROOT
BRANCH   1   7
HETATM    7  C5  UNL     1      13.441  -1.061  52.973  1.00  0.00     0.052 C 
HETATM    8  C6  UNL     1      14.638  -1.372  53.496  1.00  0.00     0.112 C 
HETATM    9 CL1  UNL     1      14.850  -1.405  55.247  1.00  0.00    -0.095 Cl
BRANCH   7  10
HETATM   10  C2  UNL     1      13.323  -1.050  51.488  1.00  0.00     0.074 C 
HETATM   11  C1  UNL     1      13.276  -2.496  51.031  1.00  0.00     0.045 C 
HETATM   12  C3  UNL     1      12.058  -0.324  51.148  1.00  0.00     0.045 C 
BRANCH  10  13
HETATM   13  N1  UNL     1      14.449  -0.358  50.944  1.00  0.00    -0.328 N 
ATOM     14  H1  UNL     1      15.094   0.146  51.552  1.00  0.00     0.171 HD
BRANCH  13  15
HETATM   15  S1  UNL     1      14.684  -0.394  49.286  1.00  0.00     0.084 S 
HETATM   16  C4  UNL     1      13.282  -0.316  48.258  1.00  0.00     0.149 C 
HETATM   17  O1  UNL     1      15.476  -1.631  48.880  1.00  0.00    -0.238 OA
HETATM   18  S2  UNL     1      15.707   0.938  48.865  1.00  0.00     0.029 SA
ENDBRANCH  13  15
ENDBRANCH  10  13
ENDBRANCH   7  10
ENDBRANCH   1   7
BRANCH   5  19
HETATM   19  C8  UNL     1       9.220  -1.893  55.651  1.00  0.00     0.076 A 
HETATM   20  C9  UNL     1       9.218  -3.181  56.117  1.00  0.00     0.052 A 
HETATM   21  C10 UNL     1       8.042  -3.767  56.553  1.00  0.00     0.013 A 
HETATM   22 BR1  UNL     1       8.071  -5.571  57.201  1.00  0.00    -0.051 Br
HETATM   23  C11 UNL     1       6.846  -3.090  56.535  1.00  0.00     0.022 A 
HETATM   24  C12 UNL     1       6.814  -1.796  56.073  1.00  0.00     0.046 A 
HETATM   25  C13 UNL     1       7.981  -1.227  55.645  1.00  0.00     0.143 A 
HETATM   26  F1  UNL     1       7.907   0.067  55.190  1.00  0.00    -0.204 F 
ENDBRANCH   5  19
TORSDOF 5
ENDMDL
MODEL 4
REMARK VINA RESULT: -6.626402395      1.958      2.309
REMARK  5 active torsions:
REMARK  status: ('A' for Active; 'I' for Inactive)
REMARK    1  A    between atoms: C2_2  and  N1_4 
REMARK    2  A    between atoms: C2_2  and  C5_10 
REMARK    3  A    between atoms: N1_4  and  S1_6 
REMARK    4  A    between atoms: C5_10  and  N2_13 
REMARK       I    between atoms: N2_13  and  C7_15 
REMARK       I    between atoms: C7_15  and  N3_17 
REMARK    5  A    between atoms: N3_17  and  C8_19 
ROOT
HETATM    1  N2  UNL     1      12.859  -0.628  52.245  1.00  0.00    -0.309 N 
ATOM      2  H2  UNL     1      12.798   0.388  52.316  1.00  0.00     0.170 HD
HETATM    3  C7  UNL     1      11.922  -1.365  53.031  1.00  0.00     0.325 C 
HETATM    4  O2  UNL     1      11.985  -2.601  52.946  1.00  0.00    -0.247 OA
HETATM    5  N3  UNL     1      10.980  -0.741  53.853  1.00  0.00    -0.306 N 
ATOM      6  H3  UNL     1      11.010   0.278  53.850  1.00  0.00     0.171 HD
ENDROOT
BRANCH   1   7
HETATM    7  C5  UNL     1      13.845  -1.118  51.395  1.00  0.00     0.052 C 
HETATM    8  C6  UNL     1      13.556  -1.098  50.083  1.00  0.00     0.112 C 
HETATM    9 CL1  UNL     1      11.993  -0.488  49.539  1.00  0.00    -0.095 Cl
BRANCH   7  10
HETATM   10  C2  UNL     1      15.181  -1.645  51.794  1.00  0.00     0.074 C 
HETATM   11  C1  UNL     1      16.187  -1.128  50.784  1.00  0.00     0.045 C 
HETATM   12  C3  UNL     1      15.468  -1.129  53.171  1.00  0.00     0.045 C 
BRANCH  10  13
HETATM   13  N1  UNL     1      15.125  -3.073  51.806  1.00  0.00    -0.328 N 
ATOM     14  H1  UNL     1      14.235  -3.559  51.914  1.00  0.00     0.171 HD
BRANCH  13  15
HETATM   15  S1  UNL     1      16.555  -3.929  51.637  1.00  0.00     0.084 S 
HETATM   16  C4  UNL     1      17.924  -3.435  52.591  1.00  0.00     0.149 C 
HETATM   17  O1  UNL     1      17.002  -3.951  50.181  1.00  0.00    -0.238 OA
HETATM   18  S2  UNL     1      16.231  -5.586  52.020  1.00  0.00     0.029 SA
ENDBRANCH  13  15
ENDBRANCH  10  13
ENDBRANCH   7  10
ENDBRANCH   1   7
BRANCH   5  19
HETATM   19  C8  UNL     1       9.995  -1.307  54.684  1.00  0.00     0.076 A 
HETATM   20  C9  UNL     1      10.076  -2.556  55.239  1.00  0.00     0.052 A 
HETATM   21  C10 UNL     1       9.056  -3.032  56.046  1.00  0.00     0.013 A 
HETATM   22 BR1  UNL     1       9.200  -4.785  56.810  1.00  0.00    -0.051 Br
HETATM   23  C11 UNL     1       7.938  -2.281  56.319  1.00  0.00     0.022 A 
HETATM   24  C12 UNL     1       7.826  -1.023  55.776  1.00  0.00     0.046 A 
HETATM   25  C13 UNL     1       8.839  -0.563  54.981  1.00  0.00     0.143 A 
HETATM   26  F1  UNL     1       8.688   0.698  54.458  1.00  0.00    -0.204 F 
ENDBRANCH   5  19
TORSDOF 5
ENDMDL
MODEL 5
REMARK VINA RESULT: -6.458089530      3.526      6.256
REMARK  5 active torsions:
REMARK  status: ('A' for Active; 'I' for Inactive)
REMARK    1  A    between atoms: C2_2  and  N1_4 
REMARK    2  A    between atoms: C2_2  and  C5_10 
REMARK    3  A    between atoms: N1_4  and  S1_6 
REMARK    4  A    between atoms: C5_10  and  N2_13 
REMARK       I    between atoms: N2_13  and  C7_15 
REMARK       I    between atoms: C7_15  and  N3_17 
REMARK    5  A    between atoms: N3_17  and  C8_19 
ROOT
HETATM    1  N2  UNL     1      11.230  -2.241  53.327  1.00  0.00    -0.309 N 
ATOM      2  H2  UNL     1      11.052  -3.177  52.963  1.00  0.00     0.170 HD
HETATM    3  C7  UNL     1      11.998  -1.381  52.484  1.00  0.00     0.325 C 
HETATM    4  O2  UNL     1      12.215  -0.239  52.917  1.00  0.00    -0.247 OA
HETATM    5  N3  UNL     1      12.481  -1.790  51.239  1.00  0.00    -0.306 N 
ATOM      6  H3  UNL     1      12.247  -2.746  50.976  1.00  0.00     0.171 HD
ENDROOT
BRANCH   1   7
HETATM    7  C5  UNL     1      10.696  -1.967  54.582  1.00  0.00     0.052 C 
HETATM    8  C6  UNL     1       9.484  -1.388  54.592  1.00  0.00     0.112 C 
HETATM    9 CL1  UNL     1       8.679  -1.010  53.069  1.00  0.00    -0.095 Cl
BRANCH   7  10
HETATM   10  C2  UNL     1      11.326  -2.262  55.900  1.00  0.00     0.074 C 
HETATM   11  C1  UNL     1      10.259  -2.888  56.777  1.00  0.00     0.045 C 
HETATM   12  C3  UNL     1      12.458  -3.210  55.648  1.00  0.00     0.045 C 
BRANCH  10  13
HETATM   13  N1  UNL     1      11.820  -1.042  56.455  1.00  0.00    -0.328 N 
ATOM     14  H1  UNL     1      11.189  -0.264  56.649  1.00  0.00     0.171 HD
BRANCH  13  15
HETATM   15  S1  UNL     1      13.459  -0.917  56.776  1.00  0.00     0.084 S 
HETATM   16  C4  UNL     1      14.566  -0.986  55.435  1.00  0.00     0.149 C 
HETATM   17  O1  UNL     1      13.894  -1.980  57.778  1.00  0.00    -0.238 OA
HETATM   18  S2  UNL     1      13.729   0.587  57.591  1.00  0.00     0.029 SA
ENDBRANCH  13  15
ENDBRANCH  10  13
ENDBRANCH   7  10
ENDBRANCH   1   7
BRANCH   5  19
HETATM   19  C8  UNL     1      13.244  -1.080  50.292  1.00  0.00     0.076 A 
HETATM   20  C9  UNL     1      14.613  -1.042  50.274  1.00  0.00     0.052 A 
HETATM   21  C10 UNL     1      15.281  -0.316  49.302  1.00  0.00     0.013 A 
HETATM   22 BR1  UNL     1      17.197  -0.283  49.303  1.00  0.00    -0.051 Br
HETATM   23  C11 UNL     1      14.607   0.385  48.331  1.00  0.00     0.022 A 
HETATM   24  C12 UNL     1      13.233   0.367  48.322  1.00  0.00     0.046 A 
HETATM   25  C13 UNL     1      12.583  -0.353  49.286  1.00  0.00     0.143 A 
HETATM   26  F1  UNL     1      11.211  -0.345  49.242  1.00  0.00    -0.204 F 
ENDBRANCH   5  19
TORSDOF 5
ENDMDL
