MODEL 1
REMARK VINA RESULT: -8.719775622      0.000      0.000
REMARK  7 active torsions:
REMARK  status: ('A' for Active; 'I' for Inactive)
REMARK    1  A    between atoms: C2_2  and  N1_3 
REMARK    2  A    between atoms: N1_3  and  C3_5 
REMARK    3  A    between atoms: C5_9  and  C6_10 
REMARK    4  A    between atoms: C7_11  and  C8_12 
REMARK    5  A    between atoms: C12_16  and  C13_17 
REMARK    6  A    between atoms: C22_34  and  C23_35 
REMARK    7  A    between atoms: C23_35  and  O1_36 
ROOT
HETATM    1  C3  UNL     1       8.591  -2.232  55.509  1.00  0.00     0.114 A 
HETATM    2  N2  UNL     1       8.312  -1.216  54.667  1.00  0.00    -0.350 N 
ATOM      3  H2  UNL     1       7.425  -0.716  54.733  1.00  0.00     0.166 HD
HETATM    4  C4  UNL     1       9.212  -0.875  53.747  1.00  0.00     0.112 A 
HETATM    5  C5  UNL     1      10.425  -1.522  53.622  1.00  0.00     0.061 A 
HETATM    6  C16 UNL     1      10.722  -2.562  54.476  1.00  0.00     0.067 A 
HETATM    7  N3  UNL     1      11.796  -3.356  54.586  1.00  0.00    -0.355 N 
ATOM      8  H3  UNL     1      12.633  -3.311  54.005  1.00  0.00     0.166 HD
HETATM    9  C17 UNL     1      11.587  -4.219  55.587  1.00  0.00     0.050 A 
HETATM   10  C18 UNL     1      10.328  -3.974  56.148  1.00  0.00    -0.015 A 
HETATM   11  C19 UNL     1       9.785  -2.928  55.444  1.00  0.00     0.044 A 
HETATM   12  C20 UNL     1       9.783  -4.745  57.271  1.00  0.00     0.069 C 
HETATM   13  C21 UNL     1      10.470  -6.063  57.498  1.00  0.00     0.238 C 
HETATM   14  N4  UNL     1      11.414  -6.388  56.453  1.00  0.00    -0.063 N 
ATOM     15  H41 UNL     1      10.933  -6.647  55.591  1.00  0.00     0.278 HD
ATOM     16  H42 UNL     1      11.888  -7.270  56.647  1.00  0.00     0.278 HD
HETATM   17  C22 UNL     1      12.354  -5.338  56.222  1.00  0.00     0.259 C 
ENDROOT
BRANCH   5  18
HETATM   18  C6  UNL     1      11.366  -1.113  52.606  1.00  0.00    -0.058 C 
HETATM   19  C7  UNL     1      12.172  -0.783  51.759  1.00  0.00    -0.058 C 
BRANCH  19  20
HETATM   20  C8  UNL     1      13.141  -0.411  50.765  1.00  0.00     0.057 A 
HETATM   21  C9  UNL     1      12.780   0.455  49.754  1.00  0.00     0.024 A 
HETATM   22  C10 UNL     1      13.691   0.833  48.780  1.00  0.00     0.002 A 
HETATM   23  C11 UNL     1      14.981   0.339  48.820  1.00  0.00     0.016 A 
HETATM   24  C12 UNL     1      15.374  -0.525  49.812  1.00  0.00     0.052 A 
HETATM   25  C15 UNL     1      14.436  -0.886  50.774  1.00  0.00     0.147 A 
HETATM   26  F3  UNL     1      14.840  -1.744  51.753  1.00  0.00    -0.204 F 
BRANCH  24  27
HETATM   27  C13 UNL     1      16.749  -1.085  49.898  1.00  0.00     0.270 C 
HETATM   28  C14 UNL     1      16.776  -2.450  49.267  1.00  0.00     0.096 C 
HETATM   29  F1  UNL     1      17.645  -0.250  49.245  1.00  0.00    -0.201 F 
HETATM   30  F2  UNL     1      17.171  -1.198  51.208  1.00  0.00    -0.201 F 
ENDBRANCH  24  27
ENDBRANCH  19  20
ENDBRANCH   5  18
BRANCH   1  31
HETATM   31  N1  UNL     1       7.747  -2.582  56.403  1.00  0.00    -0.376 N 
ATOM     32  H1  UNL     1       8.026  -2.633  57.383  1.00  0.00     0.161 HD
BRANCH  31  33
HETATM   33  C2  UNL     1       6.399  -2.904  56.015  1.00  0.00     0.116 C 
HETATM   34  C1  UNL     1       5.404  -1.864  56.439  1.00  0.00     0.026 C 
ENDBRANCH  31  33
ENDBRANCH   1  31
BRANCH  17  35
HETATM   35  C23 UNL     1      13.554  -5.719  55.453  1.00  0.00     0.206 C 
BRANCH  35  36
HETATM   36  O1  UNL     1      14.381  -4.696  55.151  1.00  0.00    -0.394 OA
HETATM   37  C24 UNL     1      15.168  -4.729  54.041  1.00  0.00     0.201 C 
ENDBRANCH  35  36
ENDBRANCH  17  35
TORSDOF 7
ENDMDL
MODEL 2
REMARK VINA RESULT: -8.678827480      0.800      1.067
REMARK  7 active torsions:
REMARK  status: ('A' for Active; 'I' for Inactive)
REMARK    1  A    between atoms: C2_2  and  N1_3 
REMARK    2  A    between atoms: N1_3  and  C3_5 
REMARK    3  A    between atoms: C5_9  and  C6_10 
REMARK    4  A    between atoms: C7_11  and  C8_12 
REMARK    5  A    between atoms: C12_16  and  C13_17 
REMARK    6  A    between atoms: C22_34  and  C23_35 
REMARK    7  A    between atoms: C23_35  and  O1_36 
ROOT
HETATM    1  C3  UNL     1       8.679  -2.333  55.707  1.00  0.00     0.114 A 
HETATM    2  N2  UNL     1       8.259  -1.367  54.864  1.00  0.00    -0.350 N 
ATOM      3  H2  UNL     1       7.366  -0.898  55.016  1.00  0.00     0.166 HD
HETATM    4  C4  UNL     1       9.029  -1.036  53.828  1.00  0.00     0.112 A 
HETATM    5  C5  UNL     1      10.244  -1.643  53.586  1.00  0.00     0.061 A 
HETATM    6  C16 UNL     1      10.684  -2.631  54.440  1.00  0.00     0.067 A 
HETATM    7  N3  UNL     1      11.797  -3.378  54.453  1.00  0.00    -0.355 N 
ATOM      8  H3  UNL     1      12.556  -3.329  53.774  1.00  0.00     0.166 HD
HETATM    9  C17 UNL     1      11.745  -4.201  55.507  1.00  0.00     0.050 A 
HETATM   10  C18 UNL     1      10.551  -3.978  56.205  1.00  0.00    -0.015 A 
HETATM   11  C19 UNL     1       9.885  -2.986  55.528  1.00  0.00     0.044 A 
HETATM   12  C20 UNL     1      10.176  -4.715  57.416  1.00  0.00     0.069 C 
HETATM   13  C21 UNL     1      10.941  -5.995  57.613  1.00  0.00     0.238 C 
HETATM   14  N4  UNL     1      11.767  -6.332  56.476  1.00  0.00    -0.063 N 
ATOM     15  H41 UNL     1      11.199  -6.649  55.690  1.00  0.00     0.278 HD
ATOM     16  H42 UNL     1      12.298  -7.186  56.648  1.00  0.00     0.278 HD
HETATM   17  C22 UNL     1      12.628  -5.261  56.090  1.00  0.00     0.259 C 
ENDROOT
BRANCH   5  18
HETATM   18  C6  UNL     1      11.040  -1.246  52.448  1.00  0.00    -0.058 C 
HETATM   19  C7  UNL     1      11.713  -0.933  51.486  1.00  0.00    -0.058 C 
BRANCH  19  20
HETATM   20  C8  UNL     1      12.514  -0.587  50.344  1.00  0.00     0.057 A 
HETATM   21  C9  UNL     1      11.897  -0.286  49.147  1.00  0.00     0.024 A 
HETATM   22  C10 UNL     1      12.641   0.051  48.027  1.00  0.00     0.002 A 
HETATM   23  C11 UNL     1      14.020   0.087  48.106  1.00  0.00     0.016 A 
HETATM   24  C12 UNL     1      14.666  -0.207  49.281  1.00  0.00     0.052 A 
HETATM   25  C15 UNL     1      13.891  -0.542  50.387  1.00  0.00     0.147 A 
HETATM   26  F3  UNL     1      14.546  -0.831  51.547  1.00  0.00    -0.204 F 
BRANCH  24  27
HETATM   27  C13 UNL     1      16.147  -0.183  49.417  1.00  0.00     0.270 C 
HETATM   28  C14 UNL     1      16.681   1.112  48.866  1.00  0.00     0.096 C 
HETATM   29  F1  UNL     1      16.505  -0.306  50.753  1.00  0.00    -0.201 F 
HETATM   30  F2  UNL     1      16.738  -1.227  48.735  1.00  0.00    -0.201 F 
ENDBRANCH  24  27
ENDBRANCH  19  20
ENDBRANCH   5  18
BRANCH   1  31
HETATM   31  N1  UNL     1       7.962  -2.672  56.710  1.00  0.00    -0.376 N 
ATOM     32  H1  UNL     1       8.209  -2.358  57.649  1.00  0.00     0.161 HD
BRANCH  31  33
HETATM   33  C2  UNL     1       6.804  -3.499  56.503  1.00  0.00     0.116 C 
HETATM   34  C1  UNL     1       5.515  -2.782  56.779  1.00  0.00     0.026 C 
ENDBRANCH  31  33
ENDBRANCH   1  31
BRANCH  17  35
HETATM   35  C23 UNL     1      13.743  -5.631  55.199  1.00  0.00     0.206 C 
BRANCH  35  36
HETATM   36  O1  UNL     1      14.497  -4.596  54.774  1.00  0.00    -0.394 OA
HETATM   37  C24 UNL     1      15.541  -4.786  53.922  1.00  0.00     0.201 C 
ENDBRANCH  35  36
ENDBRANCH  17  35
TORSDOF 7
ENDMDL
MODEL 3
REMARK VINA RESULT: -8.655531109      3.570      8.197
REMARK  7 active torsions:
REMARK  status: ('A' for Active; 'I' for Inactive)
REMARK    1  A    between atoms: C2_2  and  N1_3 
REMARK    2  A    between atoms: N1_3  and  C3_5 
REMARK    3  A    between atoms: C5_9  and  C6_10 
REMARK    4  A    between atoms: C7_11  and  C8_12 
REMARK    5  A    between atoms: C12_16  and  C13_17 
REMARK    6  A    between atoms: C22_34  and  C23_35 
REMARK    7  A    between atoms: C23_35  and  O1_36 
ROOT
HETATM    1  C3  UNL     1      14.484  -0.475  49.598  1.00  0.00     0.114 A 
HETATM    2  N2  UNL     1      13.439   0.360  49.769  1.00  0.00    -0.350 N 
ATOM      3  H2  UNL     1      13.328   1.181  49.173  1.00  0.00     0.166 HD
HETATM    4  C4  UNL     1      12.553   0.097  50.728  1.00  0.00     0.112 A 
HETATM    5  C5  UNL     1      12.664  -1.002  51.556  1.00  0.00     0.061 A 
HETATM    6  C16 UNL     1      13.728  -1.862  51.391  1.00  0.00     0.067 A 
HETATM    7  N3  UNL     1      14.085  -2.984  52.034  1.00  0.00    -0.355 N 
ATOM      8  H3  UNL     1      13.581  -3.411  52.811  1.00  0.00     0.166 HD
HETATM    9  C17 UNL     1      15.212  -3.449  51.484  1.00  0.00     0.050 A 
HETATM   10  C18 UNL     1      15.601  -2.595  50.444  1.00  0.00    -0.015 A 
HETATM   11  C19 UNL     1      14.661  -1.596  50.390  1.00  0.00     0.044 A 
HETATM   12  C20 UNL     1      16.800  -2.814  49.628  1.00  0.00     0.069 C 
HETATM   13  C21 UNL     1      17.795  -3.759  50.245  1.00  0.00     0.238 C 
HETATM   14  N4  UNL     1      17.451  -4.124  51.601  1.00  0.00    -0.063 N 
ATOM     15  H41 UNL     1      17.607  -3.345  52.242  1.00  0.00     0.278 HD
ATOM     16  H42 UNL     1      18.124  -4.788  51.985  1.00  0.00     0.278 HD
HETATM   17  C22 UNL     1      16.117  -4.621  51.711  1.00  0.00     0.259 C 
ENDROOT
BRANCH   5  18
HETATM   18  C6  UNL     1      11.676  -1.241  52.582  1.00  0.00    -0.058 C 
HETATM   19  C7  UNL     1      10.843  -1.464  53.438  1.00  0.00    -0.058 C 
BRANCH  19  20
HETATM   20  C8  UNL     1       9.856  -1.750  54.443  1.00  0.00     0.057 A 
HETATM   21  C9  UNL     1       8.948  -0.775  54.802  1.00  0.00     0.024 A 
HETATM   22  C10 UNL     1       7.984  -1.020  55.766  1.00  0.00     0.002 A 
HETATM   23  C11 UNL     1       7.927  -2.257  56.381  1.00  0.00     0.016 A 
HETATM   24  C12 UNL     1       8.816  -3.250  56.048  1.00  0.00     0.052 A 
HETATM   25  C15 UNL     1       9.771  -2.972  55.075  1.00  0.00     0.147 A 
HETATM   26  F3  UNL     1      10.646  -3.967  54.756  1.00  0.00    -0.204 F 
BRANCH  24  27
HETATM   27  C13 UNL     1       8.796  -4.596  56.679  1.00  0.00     0.270 C 
HETATM   28  C14 UNL     1      10.003  -4.752  57.564  1.00  0.00     0.096 C 
HETATM   29  F1  UNL     1       7.640  -4.752  57.432  1.00  0.00    -0.201 F 
HETATM   30  F2  UNL     1       8.811  -5.602  55.734  1.00  0.00    -0.201 F 
ENDBRANCH  24  27
ENDBRANCH  19  20
ENDBRANCH   5  18
BRANCH   1  31
HETATM   31  N1  UNL     1      15.350  -0.249  48.685  1.00  0.00    -0.376 N 
ATOM     32  H1  UNL     1      15.303  -0.746  47.796  1.00  0.00     0.161 HD
BRANCH  31  33
HETATM   33  C2  UNL     1      16.393   0.714  48.923  1.00  0.00     0.116 C 
HETATM   34  C1  UNL     1      16.186   1.997  48.173  1.00  0.00     0.026 C 
ENDBRANCH  31  33
ENDBRANCH   1  31
BRANCH  17  35
HETATM   35  C23 UNL     1      15.811  -5.348  52.957  1.00  0.00     0.206 C 
BRANCH  35  36
HETATM   36  O1  UNL     1      15.471  -6.643  52.788  1.00  0.00    -0.394 OA
HETATM   37  C24 UNL     1      16.186  -7.458  51.963  1.00  0.00     0.201 C 
ENDBRANCH  35  36
ENDBRANCH  17  35
TORSDOF 7
ENDMDL
MODEL 4
REMARK VINA RESULT: -8.608310639      3.816      8.487
REMARK  7 active torsions:
REMARK  status: ('A' for Active; 'I' for Inactive)
REMARK    1  A    between atoms: C2_2  and  N1_3 
REMARK    2  A    between atoms: N1_3  and  C3_5 
REMARK    3  A    between atoms: C5_9  and  C6_10 
REMARK    4  A    between atoms: C7_11  and  C8_12 
REMARK    5  A    between atoms: C12_16  and  C13_17 
REMARK    6  A    between atoms: C22_34  and  C23_35 
REMARK    7  A    between atoms: C23_35  and  O1_36 
ROOT
HETATM    1  C3  UNL     1      14.607  -0.849  49.793  1.00  0.00     0.114 A 
HETATM    2  N2  UNL     1      13.536  -0.076  50.070  1.00  0.00    -0.350 N 
ATOM      3  H2  UNL     1      13.358   0.774  49.536  1.00  0.00     0.166 HD
HETATM    4  C4  UNL     1      12.714  -0.442  51.053  1.00  0.00     0.112 A 
HETATM    5  C5  UNL     1      12.917  -1.584  51.800  1.00  0.00     0.061 A 
HETATM    6  C16 UNL     1      14.007  -2.382  51.526  1.00  0.00     0.067 A 
HETATM    7  N3  UNL     1      14.446  -3.524  52.075  1.00  0.00    -0.355 N 
ATOM      8  H3  UNL     1      14.003  -4.022  52.846  1.00  0.00     0.166 HD
HETATM    9  C17 UNL     1      15.562  -3.899  51.440  1.00  0.00     0.050 A 
HETATM   10  C18 UNL     1      15.858  -2.964  50.440  1.00  0.00    -0.015 A 
HETATM   11  C19 UNL     1      14.874  -2.008  50.499  1.00  0.00     0.044 A 
HETATM   12  C20 UNL     1      17.021  -3.073  49.554  1.00  0.00     0.069 C 
HETATM   13  C21 UNL     1      18.087  -4.007  50.057  1.00  0.00     0.238 C 
HETATM   14  N4  UNL     1      17.832  -4.474  51.401  1.00  0.00    -0.063 N 
ATOM     15  H41 UNL     1      17.987  -3.731  52.083  1.00  0.00     0.278 HD
ATOM     16  H42 UNL     1      18.552  -5.129  51.706  1.00  0.00     0.278 HD
HETATM   17  C22 UNL     1      16.528  -5.039  51.544  1.00  0.00     0.259 C 
ENDROOT
BRANCH   5  18
HETATM   18  C6  UNL     1      11.995  -1.935  52.855  1.00  0.00    -0.058 C 
HETATM   19  C7  UNL     1      11.219  -2.250  53.735  1.00  0.00    -0.058 C 
BRANCH  19  20
HETATM   20  C8  UNL     1      10.299  -2.646  54.766  1.00  0.00     0.057 A 
HETATM   21  C9  UNL     1      10.701  -3.552  55.725  1.00  0.00     0.024 A 
HETATM   22  C10 UNL     1       9.838  -3.954  56.732  1.00  0.00     0.002 A 
HETATM   23  C11 UNL     1       8.555  -3.442  56.781  1.00  0.00     0.016 A 
HETATM   24  C12 UNL     1       8.122  -2.538  55.842  1.00  0.00     0.052 A 
HETATM   25  C15 UNL     1       9.013  -2.155  54.844  1.00  0.00     0.147 A 
HETATM   26  F3  UNL     1       8.569  -1.258  53.919  1.00  0.00    -0.204 F 
BRANCH  24  27
HETATM   27  C13 UNL     1       6.752  -1.959  55.850  1.00  0.00     0.270 C 
HETATM   28  C14 UNL     1       5.946  -2.592  56.951  1.00  0.00     0.096 C 
HETATM   29  F1  UNL     1       6.817  -0.587  56.046  1.00  0.00    -0.201 F 
HETATM   30  F2  UNL     1       6.103  -2.174  54.651  1.00  0.00    -0.201 F 
ENDBRANCH  24  27
ENDBRANCH  19  20
ENDBRANCH   5  18
BRANCH   1  31
HETATM   31  N1  UNL     1      15.413  -0.524  48.855  1.00  0.00    -0.376 N 
ATOM     32  H1  UNL     1      15.365  -0.994  47.950  1.00  0.00     0.161 HD
BRANCH  31  33
HETATM   33  C2  UNL     1      16.387   0.509  49.085  1.00  0.00     0.116 C 
HETATM   34  C1  UNL     1      16.159   1.727  48.240  1.00  0.00     0.026 C 
ENDBRANCH  31  33
ENDBRANCH   1  31
BRANCH  17  35
HETATM   35  C23 UNL     1      16.320  -5.857  52.753  1.00  0.00     0.206 C 
BRANCH  35  36
HETATM   36  O1  UNL     1      15.826  -7.092  52.523  1.00  0.00    -0.394 OA
HETATM   37  C24 UNL     1      16.293  -7.859  51.499  1.00  0.00     0.201 C 
ENDBRANCH  35  36
ENDBRANCH  17  35
TORSDOF 7
ENDMDL
MODEL 5
REMARK VINA RESULT: -8.514279125      4.121      8.997
REMARK  7 active torsions:
REMARK  status: ('A' for Active; 'I' for Inactive)
REMARK    1  A    between atoms: C2_2  and  N1_3 
REMARK    2  A    between atoms: N1_3  and  C3_5 
REMARK    3  A    between atoms: C5_9  and  C6_10 
REMARK    4  A    between atoms: C7_11  and  C8_12 
REMARK    5  A    between atoms: C12_16  and  C13_17 
REMARK    6  A    between atoms: C22_34  and  C23_35 
REMARK    7  A    between atoms: C23_35  and  O1_36 
ROOT
HETATM    1  C3  UNL     1      16.433  -3.030  52.831  1.00  0.00     0.114 A 
HETATM    2  N2  UNL     1      15.930  -3.710  53.882  1.00  0.00    -0.350 N 
ATOM      3  H2  UNL     1      16.499  -4.398  54.375  1.00  0.00     0.166 HD
HETATM    4  C4  UNL     1      14.678  -3.468  54.266  1.00  0.00     0.112 A 
HETATM    5  C5  UNL     1      13.873  -2.546  53.629  1.00  0.00     0.061 A 
HETATM    6  C16 UNL     1      14.376  -1.845  52.553  1.00  0.00     0.067 A 
HETATM    7  N3  UNL     1      13.837  -0.909  51.759  1.00  0.00    -0.355 N 
ATOM      8  H3  UNL     1      12.890  -0.539  51.833  1.00  0.00     0.166 HD
HETATM    9  C17 UNL     1      14.751  -0.543  50.854  1.00  0.00     0.050 A 
HETATM   10  C18 UNL     1      15.928  -1.270  51.069  1.00  0.00    -0.015 A 
HETATM   11  C19 UNL     1      15.686  -2.090  52.143  1.00  0.00     0.044 A 
HETATM   12  C20 UNL     1      17.133  -1.112  50.248  1.00  0.00     0.069 C 
HETATM   13  C21 UNL     1      16.888  -0.443  48.924  1.00  0.00     0.238 C 
HETATM   14  N4  UNL     1      15.482  -0.250  48.648  1.00  0.00    -0.063 N 
ATOM     15  H41 UNL     1      15.027  -1.135  48.425  1.00  0.00     0.278 HD
ATOM     16  H42 UNL     1      15.345   0.233  47.760  1.00  0.00     0.278 HD
HETATM   17  C22 UNL     1      14.806   0.424  49.710  1.00  0.00     0.259 C 
ENDROOT
BRANCH   5  18
HETATM   18  C6  UNL     1      12.521  -2.323  54.085  1.00  0.00    -0.058 C 
HETATM   19  C7  UNL     1      11.388  -2.114  54.471  1.00  0.00    -0.058 C 
BRANCH  19  20
HETATM   20  C8  UNL     1      10.054  -1.842  54.931  1.00  0.00     0.057 A 
HETATM   21  C9  UNL     1       9.556  -0.558  54.853  1.00  0.00     0.024 A 
HETATM   22  C10 UNL     1       8.274  -0.263  55.288  1.00  0.00     0.002 A 
HETATM   23  C11 UNL     1       7.479  -1.267  55.808  1.00  0.00     0.016 A 
HETATM   24  C12 UNL     1       7.943  -2.556  55.900  1.00  0.00     0.052 A 
HETATM   25  C15 UNL     1       9.234  -2.819  55.455  1.00  0.00     0.147 A 
HETATM   26  F3  UNL     1       9.681  -4.103  55.553  1.00  0.00    -0.204 F 
BRANCH  24  27
HETATM   27  C13 UNL     1       7.127  -3.670  56.452  1.00  0.00     0.270 C 
HETATM   28  C14 UNL     1       5.793  -3.141  56.904  1.00  0.00     0.096 C 
HETATM   29  F1  UNL     1       6.939  -4.648  55.484  1.00  0.00    -0.201 F 
HETATM   30  F2  UNL     1       7.749  -4.271  57.528  1.00  0.00    -0.201 F 
ENDBRANCH  24  27
ENDBRANCH  19  20
ENDBRANCH   5  18
BRANCH   1  31
HETATM   31  N1  UNL     1      17.632  -3.239  52.439  1.00  0.00    -0.376 N 
ATOM     32  H1  UNL     1      18.325  -2.492  52.481  1.00  0.00     0.161 HD
BRANCH  31  33
HETATM   33  C2  UNL     1      17.996  -4.539  51.941  1.00  0.00     0.116 C 
HETATM   34  C1  UNL     1      17.654  -4.726  50.492  1.00  0.00     0.026 C 
ENDBRANCH  31  33
ENDBRANCH   1  31
BRANCH  17  35
HETATM   35  C23 UNL     1      13.485   0.982  49.368  1.00  0.00     0.206 C 
BRANCH  35  36
HETATM   36  O1  UNL     1      12.466   0.098  49.417  1.00  0.00    -0.394 OA
HETATM   37  C24 UNL     1      11.982  -0.484  48.285  1.00  0.00     0.201 C 
ENDBRANCH  35  36
ENDBRANCH  17  35
TORSDOF 7
ENDMDL
