MODEL 1
REMARK VINA RESULT: -6.617020825      0.000      0.000
REMARK  6 active torsions:
REMARK  status: ('A' for Active; 'I' for Inactive)
REMARK    1  A    between atoms: O1_1  and  C1_3 
REMARK    2  A    between atoms: C2_5  and  C3_6 
REMARK    3  A    between atoms: C9_16  and  N2_17 
REMARK    4  A    between atoms: N2_17  and  C10_19 
REMARK    5  A    between atoms: C10_19  and  C11_21 
REMARK    6  A    between atoms: C11_21  and  C12_22 
ROOT
HETATM    1  C1  UNL     1      11.680  -0.415  55.074  1.00  0.00     0.280 C 
HETATM    2  O2  UNL     1      12.420  -0.204  53.941  1.00  0.00    -0.348 OA
HETATM    3  C2  UNL     1      13.221  -1.218  53.530  1.00  0.00     0.174 C 
HETATM    4  C7  UNL     1      12.586  -2.584  53.513  1.00  0.00     0.040 C 
HETATM    5  C8  UNL     1      11.992  -2.809  54.898  1.00  0.00     0.033 C 
HETATM    6  C9  UNL     1      10.909  -1.728  55.020  1.00  0.00     0.137 C 
ENDROOT
BRANCH   3   7
HETATM    7  C3  UNL     1      13.614  -0.920  52.113  1.00  0.00     0.040 A 
HETATM    8  C4  UNL     1      12.703  -0.698  51.103  1.00  0.00     0.049 A 
HETATM    9  C5  UNL     1      13.407  -0.458  49.947  1.00  0.00     0.047 A 
HETATM   10 BR1  UNL     1      12.725  -0.081  48.199  1.00  0.00    -0.048 Br
HETATM   11  C6  UNL     1      14.751  -0.540  50.287  1.00  0.00     0.097 A 
HETATM   12 BR2  UNL     1      16.183  -0.289  49.055  1.00  0.00    -0.030 Br
HETATM   13  N1  UNL     1      14.849  -0.818  51.589  1.00  0.00    -0.350 N 
ATOM     14  H1  UNL     1      15.721  -0.934  52.104  1.00  0.00     0.166 HD
ENDBRANCH   3   7
BRANCH   1  15
HETATM   15  O1  UNL     1      12.408  -0.315  56.255  1.00  0.00    -0.369 OA
ATOM     16  H1  UNL     1      12.076   0.336  56.862  1.00  0.00     0.212 HD
ENDBRANCH   1  15
BRANCH   6  17
HETATM   17  N2  UNL     1      10.218  -1.934  56.243  1.00  0.00    -0.375 N 
ATOM     18  H2  UNL     1      10.677  -1.693  57.122  1.00  0.00     0.160 HD
BRANCH  17  19
HETATM   19  C10 UNL     1       8.907  -2.464  56.271  1.00  0.00     0.074 C 
HETATM   20  S1  UNL     1       8.658  -4.094  56.428  1.00  0.00    -0.066 SA
BRANCH  19  21
HETATM   21  C11 UNL     1       7.676  -1.642  56.151  1.00  0.00     0.084 C 
BRANCH  21  22
HETATM   22  C12 UNL     1       6.490  -2.419  55.672  1.00  0.00     0.121 C 
HETATM   23 CL1  UNL     1       5.321  -2.836  56.899  1.00  0.00    -0.130 Cl
ENDBRANCH  21  22
ENDBRANCH  19  21
ENDBRANCH  17  19
ENDBRANCH   6  17
TORSDOF 6
ENDMDL
MODEL 2
REMARK VINA RESULT: -6.537542883      4.974      7.302
REMARK  6 active torsions:
REMARK  status: ('A' for Active; 'I' for Inactive)
REMARK    1  A    between atoms: O1_1  and  C1_3 
REMARK    2  A    between atoms: C2_5  and  C3_6 
REMARK    3  A    between atoms: C9_16  and  N2_17 
REMARK    4  A    between atoms: N2_17  and  C10_19 
REMARK    5  A    between atoms: C10_19  and  C11_21 
REMARK    6  A    between atoms: C11_21  and  C12_22 
ROOT
HETATM    1  C1  UNL     1      12.846  -1.189  54.425  1.00  0.00     0.280 C 
HETATM    2  O2  UNL     1      11.736  -1.598  55.118  1.00  0.00    -0.348 OA
HETATM    3  C2  UNL     1      10.533  -1.172  54.660  1.00  0.00     0.174 C 
HETATM    4  C7  UNL     1      10.318  -1.301  53.174  1.00  0.00     0.040 C 
HETATM    5  C8  UNL     1      11.497  -0.611  52.499  1.00  0.00     0.033 C 
HETATM    6  C9  UNL     1      12.713  -1.444  52.928  1.00  0.00     0.137 C 
ENDROOT
BRANCH   3   7
HETATM    7  C3  UNL     1       9.488  -2.030  55.311  1.00  0.00     0.040 A 
HETATM    8  C4  UNL     1       8.202  -1.602  55.560  1.00  0.00     0.049 A 
HETATM    9  C5  UNL     1       7.524  -2.636  56.161  1.00  0.00     0.047 A 
HETATM   10 BR1  UNL     1       5.704  -2.676  56.753  1.00  0.00    -0.048 Br
HETATM   11  C6  UNL     1       8.427  -3.685  56.263  1.00  0.00     0.097 A 
HETATM   12 BR2  UNL     1       8.014  -5.383  57.024  1.00  0.00    -0.030 Br
HETATM   13  N1  UNL     1       9.596  -3.298  55.748  1.00  0.00    -0.350 N 
ATOM     14  H1  UNL     1      10.437  -3.871  55.694  1.00  0.00     0.166 HD
ENDBRANCH   3   7
BRANCH   1  15
HETATM   15  O1  UNL     1      13.218   0.127  54.673  1.00  0.00    -0.369 OA
ATOM     16  H1  UNL     1      13.837   0.481  54.045  1.00  0.00     0.212 HD
ENDBRANCH   1  15
BRANCH   6  17
HETATM   17  N2  UNL     1      13.853  -0.939  52.249  1.00  0.00    -0.375 N 
ATOM     18  H2  UNL     1      14.227  -0.028  52.513  1.00  0.00     0.160 HD
BRANCH  17  19
HETATM   19  C10 UNL     1      14.483  -1.673  51.217  1.00  0.00     0.074 C 
HETATM   20  S1  UNL     1      15.235  -3.112  51.541  1.00  0.00    -0.066 SA
BRANCH  19  21
HETATM   21  C11 UNL     1      14.542  -1.230  49.801  1.00  0.00     0.084 C 
BRANCH  21  22
HETATM   22  C12 UNL     1      13.639  -0.075  49.504  1.00  0.00     0.121 C 
HETATM   23 CL1  UNL     1      12.068  -0.494  48.867  1.00  0.00    -0.130 Cl
ENDBRANCH  21  22
ENDBRANCH  19  21
ENDBRANCH  17  19
ENDBRANCH   6  17
TORSDOF 6
ENDMDL
MODEL 3
REMARK VINA RESULT: -6.444396674      4.986      7.389
REMARK  6 active torsions:
REMARK  status: ('A' for Active; 'I' for Inactive)
REMARK    1  A    between atoms: O1_1  and  C1_3 
REMARK    2  A    between atoms: C2_5  and  C3_6 
REMARK    3  A    between atoms: C9_16  and  N2_17 
REMARK    4  A    between atoms: N2_17  and  C10_19 
REMARK    5  A    between atoms: C10_19  and  C11_21 
REMARK    6  A    between atoms: C11_21  and  C12_22 
ROOT
HETATM    1  C1  UNL     1      12.811  -1.190  54.523  1.00  0.00     0.280 C 
HETATM    2  O2  UNL     1      11.685  -1.570  55.206  1.00  0.00    -0.348 OA
HETATM    3  C2  UNL     1      10.496  -1.126  54.728  1.00  0.00     0.174 C 
HETATM    4  C7  UNL     1      10.298  -1.266  53.241  1.00  0.00     0.040 C 
HETATM    5  C8  UNL     1      11.498  -0.607  52.574  1.00  0.00     0.033 C 
HETATM    6  C9  UNL     1      12.692  -1.458  53.027  1.00  0.00     0.137 C 
ENDROOT
BRANCH   3   7
HETATM    7  C3  UNL     1       9.427  -1.957  55.375  1.00  0.00     0.040 A 
HETATM    8  C4  UNL     1       9.649  -3.218  55.885  1.00  0.00     0.049 A 
HETATM    9  C5  UNL     1       8.460  -3.680  56.396  1.00  0.00     0.047 A 
HETATM   10 BR1  UNL     1       8.105  -5.360  57.242  1.00  0.00    -0.048 Br
HETATM   11  C6  UNL     1       7.528  -2.673  56.183  1.00  0.00     0.097 A 
HETATM   12 BR2  UNL     1       5.697  -2.782  56.701  1.00  0.00    -0.030 Br
HETATM   13  N1  UNL     1       8.131  -1.652  55.570  1.00  0.00    -0.350 N 
ATOM     14  H1  UNL     1       7.681  -0.780  55.293  1.00  0.00     0.166 HD
ENDBRANCH   3   7
BRANCH   1  15
HETATM   15  O1  UNL     1      13.206   0.122  54.763  1.00  0.00    -0.369 OA
ATOM     16  H1  UNL     1      13.302   0.648  53.977  1.00  0.00     0.212 HD
ENDBRANCH   1  15
BRANCH   6  17
HETATM   17  N2  UNL     1      13.851  -0.983  52.358  1.00  0.00    -0.375 N 
ATOM     18  H2  UNL     1      14.244  -0.079  52.623  1.00  0.00     0.160 HD
BRANCH  17  19
HETATM   19  C10 UNL     1      14.473  -1.734  51.333  1.00  0.00     0.074 C 
HETATM   20  S1  UNL     1      15.180  -3.193  51.667  1.00  0.00    -0.066 SA
BRANCH  19  21
HETATM   21  C11 UNL     1      14.562  -1.293  49.918  1.00  0.00     0.084 C 
BRANCH  21  22
HETATM   22  C12 UNL     1      13.694  -0.115  49.609  1.00  0.00     0.121 C 
HETATM   23 CL1  UNL     1      12.118  -0.492  48.961  1.00  0.00    -0.130 Cl
ENDBRANCH  21  22
ENDBRANCH  19  21
ENDBRANCH  17  19
ENDBRANCH   6  17
TORSDOF 6
ENDMDL
MODEL 4
REMARK VINA RESULT: -6.432725495      5.386      7.693
REMARK  6 active torsions:
REMARK  status: ('A' for Active; 'I' for Inactive)
REMARK    1  A    between atoms: O1_1  and  C1_3 
REMARK    2  A    between atoms: C2_5  and  C3_6 
REMARK    3  A    between atoms: C9_16  and  N2_17 
REMARK    4  A    between atoms: N2_17  and  C10_19 
REMARK    5  A    between atoms: C10_19  and  C11_21 
REMARK    6  A    between atoms: C11_21  and  C12_22 
ROOT
HETATM    1  C1  UNL     1      12.960  -1.197  54.515  1.00  0.00     0.280 C 
HETATM    2  O2  UNL     1      11.820  -1.567  55.180  1.00  0.00    -0.348 OA
HETATM    3  C2  UNL     1      10.642  -1.120  54.679  1.00  0.00     0.174 C 
HETATM    4  C7  UNL     1      10.470  -1.270  53.189  1.00  0.00     0.040 C 
HETATM    5  C8  UNL     1      11.685  -0.620  52.539  1.00  0.00     0.033 C 
HETATM    6  C9  UNL     1      12.867  -1.474  53.019  1.00  0.00     0.137 C 
ENDROOT
BRANCH   3   7
HETATM    7  C3  UNL     1       9.557  -1.942  55.311  1.00  0.00     0.040 A 
HETATM    8  C4  UNL     1       8.273  -1.482  55.505  1.00  0.00     0.049 A 
HETATM    9  C5  UNL     1       7.552  -2.488  56.104  1.00  0.00     0.047 A 
HETATM   10 BR1  UNL     1       5.712  -2.477  56.632  1.00  0.00    -0.048 Br
HETATM   11  C6  UNL     1       8.429  -3.553  56.261  1.00  0.00     0.097 A 
HETATM   12 BR2  UNL     1       7.954  -5.223  57.046  1.00  0.00    -0.030 Br
HETATM   13  N1  UNL     1       9.623  -3.201  55.780  1.00  0.00    -0.350 N 
ATOM     14  H1  UNL     1      10.454  -3.793  55.768  1.00  0.00     0.166 HD
ENDBRANCH   3   7
BRANCH   1  15
HETATM   15  O1  UNL     1      13.357   0.114  54.753  1.00  0.00    -0.369 OA
ATOM     16  H1  UNL     1      13.671   0.270  55.637  1.00  0.00     0.212 HD
ENDBRANCH   1  15
BRANCH   6  17
HETATM   17  N2  UNL     1      14.039  -1.009  52.368  1.00  0.00    -0.375 N 
ATOM     18  H2  UNL     1      14.471  -0.139  52.679  1.00  0.00     0.160 HD
BRANCH  17  19
HETATM   19  C10 UNL     1      14.623  -1.726  51.297  1.00  0.00     0.074 C 
HETATM   20  S1  UNL     1      15.341  -3.195  51.556  1.00  0.00    -0.066 SA
BRANCH  19  21
HETATM   21  C11 UNL     1      14.661  -1.239  49.895  1.00  0.00     0.084 C 
BRANCH  21  22
HETATM   22  C12 UNL     1      16.024  -1.309  49.280  1.00  0.00     0.121 C 
HETATM   23 CL1  UNL     1      16.926   0.186  49.282  1.00  0.00    -0.130 Cl
ENDBRANCH  21  22
ENDBRANCH  19  21
ENDBRANCH  17  19
ENDBRANCH   6  17
TORSDOF 6
ENDMDL
MODEL 5
REMARK VINA RESULT: -6.416591768      1.423      1.559
REMARK  6 active torsions:
REMARK  status: ('A' for Active; 'I' for Inactive)
REMARK    1  A    between atoms: O1_1  and  C1_3 
REMARK    2  A    between atoms: C2_5  and  C3_6 
REMARK    3  A    between atoms: C9_16  and  N2_17 
REMARK    4  A    between atoms: N2_17  and  C10_19 
REMARK    5  A    between atoms: C10_19  and  C11_21 
REMARK    6  A    between atoms: C11_21  and  C12_22 
ROOT
HETATM    1  C1  UNL     1      11.393  -0.554  55.018  1.00  0.00     0.280 C 
HETATM    2  O2  UNL     1      12.144  -0.299  53.901  1.00  0.00    -0.348 OA
HETATM    3  C2  UNL     1      12.991  -1.275  53.491  1.00  0.00     0.174 C 
HETATM    4  C7  UNL     1      12.410  -2.665  53.444  1.00  0.00     0.040 C 
HETATM    5  C8  UNL     1      11.801  -2.932  54.815  1.00  0.00     0.033 C 
HETATM    6  C9  UNL     1      10.675  -1.896  54.932  1.00  0.00     0.137 C 
ENDROOT
BRANCH   3   7
HETATM    7  C3  UNL     1      13.397  -0.942  52.086  1.00  0.00     0.040 A 
HETATM    8  C4  UNL     1      12.496  -0.741  51.063  1.00  0.00     0.049 A 
HETATM    9  C5  UNL     1      13.211  -0.458  49.923  1.00  0.00     0.047 A 
HETATM   10 BR1  UNL     1      12.545  -0.082  48.168  1.00  0.00    -0.048 Br
HETATM   11  C6  UNL     1      14.550  -0.492  50.286  1.00  0.00     0.097 A 
HETATM   12 BR2  UNL     1      15.993  -0.168  49.084  1.00  0.00    -0.030 Br
HETATM   13  N1  UNL     1      14.636  -0.785  51.585  1.00  0.00    -0.350 N 
ATOM     14  H1  UNL     1      15.503  -0.874  52.115  1.00  0.00     0.166 HD
ENDBRANCH   3   7
BRANCH   1  15
HETATM   15  O1  UNL     1      12.096  -0.443  56.213  1.00  0.00    -0.369 OA
ATOM     16  H1  UNL     1      12.201  -1.265  56.680  1.00  0.00     0.212 HD
ENDBRANCH   1  15
BRANCH   6  17
HETATM   17  N2  UNL     1       9.971  -2.145  56.140  1.00  0.00    -0.375 N 
ATOM     18  H2  UNL     1      10.486  -2.174  57.020  1.00  0.00     0.160 HD
BRANCH  17  19
HETATM   19  C10 UNL     1       8.572  -2.353  56.150  1.00  0.00     0.074 C 
HETATM   20  S1  UNL     1       7.531  -1.111  55.815  1.00  0.00    -0.066 SA
BRANCH  19  21
HETATM   21  C11 UNL     1       7.929  -3.654  56.467  1.00  0.00     0.084 C 
BRANCH  21  22
HETATM   22  C12 UNL     1       8.866  -4.816  56.373  1.00  0.00     0.121 C 
HETATM   23 CL1  UNL     1       8.110  -6.372  56.131  1.00  0.00    -0.130 Cl
ENDBRANCH  21  22
ENDBRANCH  19  21
ENDBRANCH  17  19
ENDBRANCH   6  17
TORSDOF 6
ENDMDL
