MODEL 1
REMARK VINA RESULT: -10.193835464      0.000      0.000
REMARK  9 active torsions:
REMARK  status: ('A' for Active; 'I' for Inactive)
REMARK    1  A    between atoms: C2_2  and  N1_3 
REMARK    2  A    between atoms: C2_2  and  C10_16 
REMARK    3  A    between atoms: N1_3  and  O1_5 
REMARK    4  A    between atoms: O1_5  and  C3_6 
REMARK    5  A    between atoms: C3_6  and  C4_7 
REMARK    6  A    between atoms: C4_7  and  C5_9 
REMARK    7  A    between atoms: N2_10  and  C6_12 
REMARK    8  A    between atoms: C14_20  and  N3_21 
REMARK       I    between atoms: N3_21  and  C15_23 
REMARK    9  A    between atoms: C15_23  and  C16_25 
ROOT
HETATM    1  C10 UNL     1       5.025   2.519  15.693  1.00  0.00     0.106 C 
HETATM    2  C11 UNL     1       4.414   3.617  14.846  1.00  0.00     0.074 C 
HETATM    3  C12 UNL     1       3.860   3.901  16.233  1.00  0.00     0.127 C 
HETATM    4  C13 UNL     1       2.877   2.783  16.388  1.00  0.00     0.060 C 
HETATM    5  C14 UNL     1       3.866   1.642  16.013  1.00  0.00     0.124 C 
HETATM    6  O4  UNL     1       5.082   3.440  16.727  1.00  0.00    -0.370 OA
ENDROOT
BRANCH   1   7
HETATM    7  C2  UNL     1       6.324   1.929  15.255  1.00  0.00     0.138 C 
HETATM    8  C1  UNL     1       6.696   2.679  13.957  1.00  0.00     0.037 C 
BRANCH   7   9
HETATM    9  N1  UNL     1       7.331   2.177  16.195  1.00  0.00    -0.295 N 
ATOM     10  H1  UNL     1       7.896   3.024  16.138  1.00  0.00     0.188 HD
BRANCH   9  11
HETATM   11  O1  UNL     1       7.538   1.293  17.160  1.00  0.00    -0.277 OA
BRANCH  11  12
HETATM   12  C3  UNL     1       8.243   1.905  18.208  1.00  0.00     0.285 C 
BRANCH  12  13
HETATM   13  C4  UNL     1       9.667   2.242  17.884  1.00  0.00     0.190 C 
HETATM   14  O2  UNL     1       9.922   2.705  16.809  1.00  0.00    -0.289 OA
BRANCH  13  15
HETATM   15  C5  UNL     1      10.706   1.995  18.909  1.00  0.00     0.136 C 
HETATM   16  N2  UNL     1      11.922   2.589  18.885  1.00  0.00    -0.388 N 
ATOM     17  H2  UNL     1      12.702   1.957  18.708  1.00  0.00     0.159 HD
BRANCH  16  18
HETATM   18  C6  UNL     1      12.280   3.913  19.061  1.00  0.00     0.018 C 
HETATM   19  C7  UNL     1      13.498   3.968  20.014  1.00  0.00     0.037 C 
HETATM   20  C8  UNL     1      11.177   4.726  19.743  1.00  0.00     0.037 C 
HETATM   21  C9  UNL     1      12.699   4.704  17.855  1.00  0.00     0.037 C 
ENDBRANCH  16  18
ENDBRANCH  13  15
ENDBRANCH  12  13
ENDBRANCH  11  12
ENDBRANCH   9  11
ENDBRANCH   7   9
ENDBRANCH   1   7
BRANCH   5  22
HETATM   22  N3  UNL     1       3.963   0.696  17.060  1.00  0.00    -0.349 N 
HETATM   23  C15 UNL     1       4.602  -0.540  17.117  1.00  0.00     0.255 C 
HETATM   24  O3  UNL     1       5.189  -0.897  16.023  1.00  0.00    -0.268 OA
ATOM     25  H3  UNL     1       3.484   0.964  17.919  1.00  0.00     0.163 HD
BRANCH  23  26
HETATM   26  C16 UNL     1       4.728  -1.497  18.181  1.00  0.00     0.077 A 
HETATM   27  C17 UNL     1       4.313  -2.819  17.936  1.00  0.00     0.053 A 
HETATM   28 CL1  UNL     1       3.662  -3.280  16.362  1.00  0.00    -0.083 Cl
HETATM   29  C18 UNL     1       4.396  -3.805  18.895  1.00  0.00     0.050 A 
HETATM   30  C19 UNL     1       4.897  -3.520  20.150  1.00  0.00     0.059 A 
HETATM   31 CL2  UNL     1       5.012  -4.762  21.394  1.00  0.00    -0.082 Cl
HETATM   32  C20 UNL     1       5.302  -2.257  20.401  1.00  0.00     0.078 A 
HETATM   33 CL3  UNL     1       5.947  -1.908  21.997  1.00  0.00    -0.081 Cl
HETATM   34  C21 UNL     1       5.217  -1.258  19.426  1.00  0.00     0.074 A 
HETATM   35 CL4  UNL     1       5.747   0.311  19.935  1.00  0.00    -0.081 Cl
ENDBRANCH  23  26
ENDBRANCH   5  22
TORSDOF 9
ENDMDL
MODEL 2
REMARK VINA RESULT: -10.121059305      0.752      1.083
REMARK  9 active torsions:
REMARK  status: ('A' for Active; 'I' for Inactive)
REMARK    1  A    between atoms: C2_2  and  N1_3 
REMARK    2  A    between atoms: C2_2  and  C10_16 
REMARK    3  A    between atoms: N1_3  and  O1_5 
REMARK    4  A    between atoms: O1_5  and  C3_6 
REMARK    5  A    between atoms: C3_6  and  C4_7 
REMARK    6  A    between atoms: C4_7  and  C5_9 
REMARK    7  A    between atoms: N2_10  and  C6_12 
REMARK    8  A    between atoms: C14_20  and  N3_21 
REMARK       I    between atoms: N3_21  and  C15_23 
REMARK    9  A    between atoms: C15_23  and  C16_25 
ROOT
HETATM    1  C10 UNL     1       5.260   2.587  15.678  1.00  0.00     0.106 C 
HETATM    2  C11 UNL     1       4.694   3.681  14.796  1.00  0.00     0.074 C 
HETATM    3  C12 UNL     1       4.037   3.948  16.141  1.00  0.00     0.127 C 
HETATM    4  C13 UNL     1       3.063   2.814  16.218  1.00  0.00     0.060 C 
HETATM    5  C14 UNL     1       4.094   1.691  15.909  1.00  0.00     0.124 C 
HETATM    6  O4  UNL     1       5.228   3.502  16.718  1.00  0.00    -0.370 OA
ENDROOT
BRANCH   1   7
HETATM    7  C2  UNL     1       6.596   2.019  15.331  1.00  0.00     0.138 C 
HETATM    8  C1  UNL     1       7.272   3.083  14.440  1.00  0.00     0.037 C 
BRANCH   7   9
HETATM    9  N1  UNL     1       7.385   1.856  16.476  1.00  0.00    -0.295 N 
ATOM     10  H1  UNL     1       7.007   1.398  17.305  1.00  0.00     0.188 HD
BRANCH   9  11
HETATM   11  O1  UNL     1       8.631   2.308  16.464  1.00  0.00    -0.277 OA
BRANCH  11  12
HETATM   12  C3  UNL     1       9.029   2.606  17.777  1.00  0.00     0.285 C 
BRANCH  12  13
HETATM   13  C4  UNL     1      10.154   1.761  18.291  1.00  0.00     0.190 C 
HETATM   14  O2  UNL     1       9.901   0.820  18.988  1.00  0.00    -0.289 OA
BRANCH  13  15
HETATM   15  C5  UNL     1      11.540   2.117  17.914  1.00  0.00     0.136 C 
HETATM   16  N2  UNL     1      11.986   3.395  17.857  1.00  0.00    -0.388 N 
ATOM     17  H2  UNL     1      12.212   3.726  16.920  1.00  0.00     0.159 HD
BRANCH  16  18
HETATM   18  C6  UNL     1      12.183   4.323  18.862  1.00  0.00     0.018 C 
HETATM   19  C7  UNL     1      12.512   5.687  18.210  1.00  0.00     0.037 C 
HETATM   20  C8  UNL     1      13.388   3.978  19.742  1.00  0.00     0.037 C 
HETATM   21  C9  UNL     1      11.047   4.608  19.802  1.00  0.00     0.037 C 
ENDBRANCH  16  18
ENDBRANCH  13  15
ENDBRANCH  12  13
ENDBRANCH  11  12
ENDBRANCH   9  11
ENDBRANCH   7   9
ENDBRANCH   1   7
BRANCH   5  22
HETATM   22  N3  UNL     1       4.130   0.739  16.955  1.00  0.00    -0.349 N 
HETATM   23  C15 UNL     1       4.807  -0.473  17.063  1.00  0.00     0.255 C 
HETATM   24  O3  UNL     1       5.504  -0.798  16.026  1.00  0.00    -0.268 OA
ATOM     25  H3  UNL     1       3.565   0.982  17.767  1.00  0.00     0.163 HD
BRANCH  23  26
HETATM   26  C16 UNL     1       4.870  -1.434  18.129  1.00  0.00     0.077 A 
HETATM   27  C17 UNL     1       4.354  -2.721  17.892  1.00  0.00     0.053 A 
HETATM   28 CL1  UNL     1       3.656  -3.136  16.324  1.00  0.00    -0.083 Cl
HETATM   29  C18 UNL     1       4.371  -3.709  18.853  1.00  0.00     0.050 A 
HETATM   30  C19 UNL     1       4.904  -3.460  20.101  1.00  0.00     0.059 A 
HETATM   31 CL2  UNL     1       4.937  -4.705  21.348  1.00  0.00    -0.082 Cl
HETATM   32  C20 UNL     1       5.406  -2.231  20.346  1.00  0.00     0.078 A 
HETATM   33 CL3  UNL     1       6.090  -1.928  21.935  1.00  0.00    -0.081 Cl
HETATM   34  C21 UNL     1       5.388  -1.230  19.369  1.00  0.00     0.074 A 
HETATM   35 CL4  UNL     1       6.039   0.295  19.868  1.00  0.00    -0.081 Cl
ENDBRANCH  23  26
ENDBRANCH   5  22
TORSDOF 9
ENDMDL
MODEL 3
REMARK VINA RESULT: -9.754969609      1.609      2.118
REMARK  9 active torsions:
REMARK  status: ('A' for Active; 'I' for Inactive)
REMARK    1  A    between atoms: C2_2  and  N1_3 
REMARK    2  A    between atoms: C2_2  and  C10_16 
REMARK    3  A    between atoms: N1_3  and  O1_5 
REMARK    4  A    between atoms: O1_5  and  C3_6 
REMARK    5  A    between atoms: C3_6  and  C4_7 
REMARK    6  A    between atoms: C4_7  and  C5_9 
REMARK    7  A    between atoms: N2_10  and  C6_12 
REMARK    8  A    between atoms: C14_20  and  N3_21 
REMARK       I    between atoms: N3_21  and  C15_23 
REMARK    9  A    between atoms: C15_23  and  C16_25 
ROOT
HETATM    1  C10 UNL     1       5.134   2.353  15.923  1.00  0.00     0.106 C 
HETATM    2  C11 UNL     1       4.425   3.208  14.892  1.00  0.00     0.074 C 
HETATM    3  C12 UNL     1       3.846   3.703  16.208  1.00  0.00     0.127 C 
HETATM    4  C13 UNL     1       2.970   2.551  16.591  1.00  0.00     0.060 C 
HETATM    5  C14 UNL     1       4.059   1.453  16.425  1.00  0.00     0.124 C 
HETATM    6  O4  UNL     1       5.106   3.457  16.760  1.00  0.00    -0.370 OA
ENDROOT
BRANCH   1   7
HETATM    7  C2  UNL     1       6.482   1.810  15.584  1.00  0.00     0.138 C 
HETATM    8  C1  UNL     1       7.000   2.695  14.430  1.00  0.00     0.037 C 
BRANCH   7   9
HETATM    9  N1  UNL     1       7.365   1.950  16.660  1.00  0.00    -0.295 N 
ATOM     10  H1  UNL     1       8.069   2.688  16.660  1.00  0.00     0.188 HD
BRANCH   9  11
HETATM   11  O1  UNL     1       7.273   1.107  17.678  1.00  0.00    -0.277 OA
BRANCH  11  12
HETATM   12  C3  UNL     1       7.734   1.737  18.846  1.00  0.00     0.285 C 
BRANCH  12  13
HETATM   13  C4  UNL     1       9.117   1.339  19.260  1.00  0.00     0.190 C 
HETATM   14  O2  UNL     1       9.710   0.533  18.602  1.00  0.00    -0.289 OA
BRANCH  13  15
HETATM   15  C5  UNL     1       9.704   1.963  20.467  1.00  0.00     0.136 C 
HETATM   16  N2  UNL     1      11.003   2.338  20.548  1.00  0.00    -0.388 N 
ATOM     17  H2  UNL     1      11.563   1.796  21.206  1.00  0.00     0.159 HD
BRANCH  16  18
HETATM   18  C6  UNL     1      11.694   3.334  19.885  1.00  0.00     0.018 C 
HETATM   19  C7  UNL     1      12.871   3.792  20.778  1.00  0.00     0.037 C 
HETATM   20  C8  UNL     1      10.835   4.580  19.652  1.00  0.00     0.037 C 
HETATM   21  C9  UNL     1      12.321   3.005  18.559  1.00  0.00     0.037 C 
ENDBRANCH  16  18
ENDBRANCH  13  15
ENDBRANCH  12  13
ENDBRANCH  11  12
ENDBRANCH   9  11
ENDBRANCH   7   9
ENDBRANCH   1   7
BRANCH   5  22
HETATM   22  N3  UNL     1       4.243   0.739  17.632  1.00  0.00    -0.349 N 
HETATM   23  C15 UNL     1       3.544  -0.338  18.172  1.00  0.00     0.255 C 
HETATM   24  O3  UNL     1       2.543  -0.742  17.463  1.00  0.00    -0.268 OA
ATOM     25  H3  UNL     1       5.020   1.068  18.204  1.00  0.00     0.163 HD
BRANCH  23  26
HETATM   26  C16 UNL     1       3.737  -1.085  19.383  1.00  0.00     0.077 A 
HETATM   27  C17 UNL     1       3.147  -0.597  20.563  1.00  0.00     0.053 A 
HETATM   28 CL1  UNL     1       2.195   0.889  20.546  1.00  0.00    -0.083 Cl
HETATM   29  C18 UNL     1       3.277  -1.246  21.773  1.00  0.00     0.050 A 
HETATM   30  C19 UNL     1       4.004  -2.415  21.864  1.00  0.00     0.059 A 
HETATM   31 CL2  UNL     1       4.187  -3.263  23.397  1.00  0.00    -0.082 Cl
HETATM   32  C20 UNL     1       4.575  -2.899  20.740  1.00  0.00     0.078 A 
HETATM   33 CL3  UNL     1       5.489  -4.393  20.866  1.00  0.00    -0.081 Cl
HETATM   34  C21 UNL     1       4.442  -2.239  19.514  1.00  0.00     0.074 A 
HETATM   35 CL4  UNL     1       5.270  -2.982  18.187  1.00  0.00    -0.081 Cl
ENDBRANCH  23  26
ENDBRANCH   5  22
TORSDOF 9
ENDMDL
MODEL 4
REMARK VINA RESULT: -9.550239895      1.410      1.688
REMARK  9 active torsions:
REMARK  status: ('A' for Active; 'I' for Inactive)
REMARK    1  A    between atoms: C2_2  and  N1_3 
REMARK    2  A    between atoms: C2_2  and  C10_16 
REMARK    3  A    between atoms: N1_3  and  O1_5 
REMARK    4  A    between atoms: O1_5  and  C3_6 
REMARK    5  A    between atoms: C3_6  and  C4_7 
REMARK    6  A    between atoms: C4_7  and  C5_9 
REMARK    7  A    between atoms: N2_10  and  C6_12 
REMARK    8  A    between atoms: C14_20  and  N3_21 
REMARK       I    between atoms: N3_21  and  C15_23 
REMARK    9  A    between atoms: C15_23  and  C16_25 
ROOT
HETATM    1  C10 UNL     1       5.227   2.451  15.768  1.00  0.00     0.106 C 
HETATM    2  C11 UNL     1       4.520   3.442  14.866  1.00  0.00     0.074 C 
HETATM    3  C12 UNL     1       3.885   3.697  16.224  1.00  0.00     0.127 C 
HETATM    4  C13 UNL     1       3.038   2.473  16.382  1.00  0.00     0.060 C 
HETATM    5  C14 UNL     1       4.170   1.450  16.078  1.00  0.00     0.124 C 
HETATM    6  O4  UNL     1       5.135   3.401  16.772  1.00  0.00    -0.370 OA
ENDROOT
BRANCH   1   7
HETATM    7  C2  UNL     1       6.603   2.010  15.393  1.00  0.00     0.138 C 
HETATM    8  C1  UNL     1       7.052   2.978  14.277  1.00  0.00     0.037 C 
BRANCH   7   9
HETATM    9  N1  UNL     1       7.488   2.157  16.467  1.00  0.00    -0.295 N 
ATOM     10  H1  UNL     1       8.065   2.993  16.552  1.00  0.00     0.188 HD
BRANCH   9  11
HETATM   11  O1  UNL     1       7.563   1.191  17.371  1.00  0.00    -0.277 OA
BRANCH  11  12
HETATM   12  C3  UNL     1       7.253   1.714  18.637  1.00  0.00     0.285 C 
BRANCH  12  13
HETATM   13  C4  UNL     1       8.435   1.895  19.540  1.00  0.00     0.190 C 
HETATM   14  O2  UNL     1       8.271   2.400  20.614  1.00  0.00    -0.289 OA
BRANCH  13  15
HETATM   15  C5  UNL     1       9.763   1.439  19.072  1.00  0.00     0.136 C 
HETATM   16  N2  UNL     1      10.763   2.291  18.743  1.00  0.00    -0.388 N 
ATOM     17  H2  UNL     1      11.008   2.299  17.753  1.00  0.00     0.159 HD
BRANCH  16  18
HETATM   18  C6  UNL     1      11.505   3.153  19.528  1.00  0.00     0.018 C 
HETATM   19  C7  UNL     1      10.819   4.540  19.516  1.00  0.00     0.037 C 
HETATM   20  C8  UNL     1      12.914   3.377  18.972  1.00  0.00     0.037 C 
HETATM   21  C9  UNL     1      11.678   2.821  20.983  1.00  0.00     0.037 C 
ENDBRANCH  16  18
ENDBRANCH  13  15
ENDBRANCH  12  13
ENDBRANCH  11  12
ENDBRANCH   9  11
ENDBRANCH   7   9
ENDBRANCH   1   7
BRANCH   5  22
HETATM   22  N3  UNL     1       4.342   0.552  17.158  1.00  0.00    -0.349 N 
HETATM   23  C15 UNL     1       3.465  -0.365  17.732  1.00  0.00     0.255 C 
HETATM   24  O3  UNL     1       2.286  -0.387  17.206  1.00  0.00    -0.268 OA
ATOM     25  H3  UNL     1       5.265   0.582  17.589  1.00  0.00     0.163 HD
BRANCH  23  26
HETATM   26  C16 UNL     1       3.637  -1.296  18.812  1.00  0.00     0.077 A 
HETATM   27  C17 UNL     1       3.864  -2.647  18.491  1.00  0.00     0.053 A 
HETATM   28 CL1  UNL     1       3.938  -3.172  16.807  1.00  0.00    -0.083 Cl
HETATM   29  C18 UNL     1       4.041  -3.613  19.458  1.00  0.00     0.050 A 
HETATM   30  C19 UNL     1       3.999  -3.278  20.796  1.00  0.00     0.059 A 
HETATM   31 CL2  UNL     1       4.220  -4.493  22.052  1.00  0.00    -0.082 Cl
HETATM   32  C20 UNL     1       3.784  -1.985  21.122  1.00  0.00     0.078 A 
HETATM   33 CL3  UNL     1       3.742  -1.569  22.827  1.00  0.00    -0.081 Cl
HETATM   34  C21 UNL     1       3.605  -1.007  20.139  1.00  0.00     0.074 A 
HETATM   35 CL4  UNL     1       3.305   0.590  20.738  1.00  0.00    -0.081 Cl
ENDBRANCH  23  26
ENDBRANCH   5  22
TORSDOF 9
ENDMDL
MODEL 5
REMARK VINA RESULT: -9.423561849      3.234      7.254
REMARK  9 active torsions:
REMARK  status: ('A' for Active; 'I' for Inactive)
REMARK    1  A    between atoms: C2_2  and  N1_3 
REMARK    2  A    between atoms: C2_2  and  C10_16 
REMARK    3  A    between atoms: N1_3  and  O1_5 
REMARK    4  A    between atoms: O1_5  and  C3_6 
REMARK    5  A    between atoms: C3_6  and  C4_7 
REMARK    6  A    between atoms: C4_7  and  C5_9 
REMARK    7  A    between atoms: N2_10  and  C6_12 
REMARK    8  A    between atoms: C14_20  and  N3_21 
REMARK       I    between atoms: N3_21  and  C15_23 
REMARK    9  A    between atoms: C15_23  and  C16_25 
ROOT
HETATM    1  C10 UNL     1       6.269  -0.332  19.556  1.00  0.00     0.106 C 
HETATM    2  C11 UNL     1       5.122  -1.041  20.249  1.00  0.00     0.074 C 
HETATM    3  C12 UNL     1       4.826   0.429  20.505  1.00  0.00     0.127 C 
HETATM    4  C13 UNL     1       5.884   0.768  21.508  1.00  0.00     0.060 C 
HETATM    5  C14 UNL     1       7.077   0.204  20.685  1.00  0.00     0.124 C 
HETATM    6  O4  UNL     1       5.369   0.673  19.242  1.00  0.00    -0.370 OA
ENDROOT
BRANCH   1   7
HETATM    7  C2  UNL     1       6.930  -1.017  18.407  1.00  0.00     0.138 C 
HETATM    8  C1  UNL     1       6.240  -2.394  18.299  1.00  0.00     0.037 C 
BRANCH   7   9
HETATM    9  N1  UNL     1       6.698  -0.328  17.211  1.00  0.00    -0.295 N 
ATOM     10  H1  UNL     1       7.178   0.551  17.017  1.00  0.00     0.188 HD
BRANCH   9  11
HETATM   11  O1  UNL     1       5.844  -0.837  16.334  1.00  0.00    -0.277 OA
BRANCH  11  12
HETATM   12  C3  UNL     1       4.941   0.160  15.932  1.00  0.00     0.285 C 
BRANCH  12  13
HETATM   13  C4  UNL     1       5.554   1.514  15.745  1.00  0.00     0.190 C 
HETATM   14  O2  UNL     1       6.269   1.701  14.802  1.00  0.00    -0.289 OA
BRANCH  13  15
HETATM   15  C5  UNL     1       5.249   2.574  16.732  1.00  0.00     0.136 C 
HETATM   16  N2  UNL     1       5.222   3.891  16.417  1.00  0.00    -0.388 N 
ATOM     17  H2  UNL     1       5.963   4.447  16.844  1.00  0.00     0.159 HD
BRANCH  16  18
HETATM   18  C6  UNL     1       4.356   4.605  15.611  1.00  0.00     0.018 C 
HETATM   19  C7  UNL     1       4.191   6.024  16.206  1.00  0.00     0.037 C 
HETATM   20  C8  UNL     1       2.952   3.995  15.585  1.00  0.00     0.037 C 
HETATM   21  C9  UNL     1       4.741   4.831  14.176  1.00  0.00     0.037 C 
ENDBRANCH  16  18
ENDBRANCH  13  15
ENDBRANCH  12  13
ENDBRANCH  11  12
ENDBRANCH   9  11
ENDBRANCH   7   9
ENDBRANCH   1   7
BRANCH   5  22
HETATM   22  N3  UNL     1       8.044   1.209  20.446  1.00  0.00    -0.349 N 
HETATM   23  C15 UNL     1       9.200   1.198  19.669  1.00  0.00     0.255 C 
HETATM   24  O3  UNL     1       9.446   0.075  19.082  1.00  0.00    -0.268 OA
ATOM     25  H3  UNL     1       7.864   2.091  20.925  1.00  0.00     0.163 HD
BRANCH  23  26
HETATM   26  C16 UNL     1      10.174   2.219  19.401  1.00  0.00     0.077 A 
HETATM   27  C17 UNL     1      10.141   2.852  18.145  1.00  0.00     0.053 A 
HETATM   28 CL1  UNL     1       8.931   2.402  16.941  1.00  0.00    -0.083 Cl
HETATM   29  C18 UNL     1      11.034   3.843  17.797  1.00  0.00     0.050 A 
HETATM   30  C19 UNL     1      12.007   4.251  18.688  1.00  0.00     0.059 A 
HETATM   31 CL2  UNL     1      13.162   5.513  18.268  1.00  0.00    -0.082 Cl
HETATM   32  C20 UNL     1      12.051   3.655  19.899  1.00  0.00     0.078 A 
HETATM   33 CL3  UNL     1      13.287   4.189  21.027  1.00  0.00    -0.081 Cl
HETATM   34  C21 UNL     1      11.144   2.651  20.249  1.00  0.00     0.074 A 
HETATM   35 CL4  UNL     1      11.371   1.974  21.827  1.00  0.00    -0.081 Cl
ENDBRANCH  23  26
ENDBRANCH   5  22
TORSDOF 9
ENDMDL
