MODEL 1
REMARK VINA RESULT: -8.142059022      0.000      0.000
REMARK  11 active torsions:
REMARK  status: ('A' for Active; 'I' for Inactive)
REMARK    1  A    between atoms: N1_2  and  C2_3 
REMARK    2  A    between atoms: N1_2  and  C7_12 
REMARK    3  A    between atoms: C2_3  and  C3_4 
REMARK    4  A    between atoms: C3_4  and  C4_5 
REMARK    5  A    between atoms: C4_5  and  C5_6 
REMARK    6  A    between atoms: C5_6  and  C6_7 
REMARK    7  A    between atoms: C6_7  and  N2_8 
REMARK    8  A    between atoms: C7_12  and  C8_13 
REMARK    9  A    between atoms: C8_13  and  N3_14 
REMARK   10  A    between atoms: C12_18  and  O1_19 
REMARK   11  A    between atoms: C19_27  and  O2_28 
ROOT
HETATM    1  N3  UNL     1       4.442  -1.950  18.713  1.00  0.00    -0.375 N 
HETATM    2  C9  UNL     1       3.477  -1.071  18.165  1.00  0.00     0.091 C 
HETATM    3  C10 UNL     1       2.292  -1.835  17.644  1.00  0.00     0.028 C 
HETATM    4  C11 UNL     1       2.638  -3.192  17.120  1.00  0.00     0.036 C 
HETATM    5  C12 UNL     1       4.074  -3.291  16.672  1.00  0.00     0.146 C 
HETATM    6  C13 UNL     1       4.970  -2.940  17.846  1.00  0.00     0.054 C 
HETATM    7  C14 UNL     1       5.283  -4.277  18.489  1.00  0.00     0.041 C 
HETATM    8  C15 UNL     1       6.299  -2.423  17.349  1.00  0.00     0.034 C 
HETATM    9  C16 UNL     1       6.161  -1.234  16.432  1.00  0.00     0.008 C 
HETATM   10  C17 UNL     1       5.544  -0.038  17.117  1.00  0.00     0.003 C 
HETATM   11  C18 UNL     1       4.021  -0.105  17.134  1.00  0.00     0.042 C 
HETATM   12  C19 UNL     1       3.461   1.266  17.488  1.00  0.00     0.125 C 
HETATM   13  C20 UNL     1       3.804   2.337  16.522  1.00  0.00     0.037 C 
HETATM   14  C21 UNL     1       5.101   2.090  15.818  1.00  0.00    -0.004 C 
HETATM   15  C22 UNL     1       4.951   1.627  14.415  1.00  0.00     0.005 C 
HETATM   16  C23 UNL     1       6.296   1.881  13.717  1.00  0.00     0.000 C 
HETATM   17  C24 UNL     1       7.287   0.998  14.445  1.00  0.00     0.001 C 
HETATM   18  C25 UNL     1       7.353   1.278  15.900  1.00  0.00     0.010 C 
HETATM   19  C26 UNL     1       6.070   1.266  16.655  1.00  0.00    -0.036 C 
HETATM   20  C27 UNL     1       6.316   2.126  17.913  1.00  0.00     0.016 C 
ENDROOT
BRANCH   1  21
HETATM   21  C8  UNL     1       4.434  -2.174  20.082  1.00  0.00     0.089 C 
BRANCH  21  22
HETATM   22  C7  UNL     1       5.087  -1.224  21.016  1.00  0.00     0.316 C 
BRANCH  22  23
HETATM   23  N1  UNL     1       6.511  -1.422  21.120  1.00  0.00     0.088 N 
HETATM   24  C1  UNL     1       6.823  -1.720  22.519  1.00  0.00     0.310 C 
BRANCH  23  25
HETATM   25  C2  UNL     1       7.286  -0.270  20.697  1.00  0.00     0.272 C 
BRANCH  25  26
HETATM   26  C3  UNL     1       8.295  -0.586  19.653  1.00  0.00     0.030 C 
BRANCH  26  27
HETATM   27  C4  UNL     1       9.420   0.438  19.552  1.00  0.00     0.003 C 
BRANCH  27  28
HETATM   28  C5  UNL     1      10.055   0.693  20.901  1.00  0.00     0.027 C 
BRANCH  28  29
HETATM   29  C6  UNL     1      10.344   2.133  21.175  1.00  0.00     0.229 C 
BRANCH  29  30
HETATM   30  N2  UNL     1       9.170   2.957  20.970  1.00  0.00    -0.079 N 
ATOM     31  H23 UNL     1       8.412   2.691  21.600  1.00  0.00     0.274 HD
ATOM     32  H22 UNL     1       9.320   3.911  21.299  1.00  0.00     0.274 HD
ATOM     33  H21 UNL     1       8.868   2.940  19.995  1.00  0.00     0.274 HD
ENDBRANCH  29  30
ENDBRANCH  28  29
ENDBRANCH  27  28
ENDBRANCH  26  27
ENDBRANCH  25  26
ENDBRANCH  23  25
ENDBRANCH  22  23
ENDBRANCH  21  22
ENDBRANCH   1  21
BRANCH   5  34
HETATM   34  O1  UNL     1       4.274  -4.628  16.256  1.00  0.00    -0.393 OA
ATOM     35  H1  UNL     1       4.285  -5.157  17.045  1.00  0.00     0.210 HD
ENDBRANCH   5  34
BRANCH  12  36
HETATM   36  O2  UNL     1       2.069   1.165  17.540  1.00  0.00    -0.395 OA
ATOM     37  H2  UNL     1       1.704   1.802  16.939  1.00  0.00     0.210 HD
ENDBRANCH  12  36
TORSDOF 11
ENDMDL
MODEL 2
REMARK VINA RESULT: -8.057408522      2.405      5.961
REMARK  11 active torsions:
REMARK  status: ('A' for Active; 'I' for Inactive)
REMARK    1  A    between atoms: N1_2  and  C2_3 
REMARK    2  A    between atoms: N1_2  and  C7_12 
REMARK    3  A    between atoms: C2_3  and  C3_4 
REMARK    4  A    between atoms: C3_4  and  C4_5 
REMARK    5  A    between atoms: C4_5  and  C5_6 
REMARK    6  A    between atoms: C5_6  and  C6_7 
REMARK    7  A    between atoms: C6_7  and  N2_8 
REMARK    8  A    between atoms: C7_12  and  C8_13 
REMARK    9  A    between atoms: C8_13  and  N3_14 
REMARK   10  A    between atoms: C12_18  and  O1_19 
REMARK   11  A    between atoms: C19_27  and  O2_28 
ROOT
HETATM    1  N3  UNL     1       5.293  -1.682  18.549  1.00  0.00    -0.375 N 
HETATM    2  C9  UNL     1       5.223  -3.074  18.795  1.00  0.00     0.091 C 
HETATM    3  C10 UNL     1       4.413  -3.766  17.736  1.00  0.00     0.028 C 
HETATM    4  C11 UNL     1       3.314  -2.921  17.176  1.00  0.00     0.036 C 
HETATM    5  C12 UNL     1       2.864  -1.847  18.135  1.00  0.00     0.146 C 
HETATM    6  C13 UNL     1       4.061  -0.983  18.486  1.00  0.00     0.054 C 
HETATM    7  C14 UNL     1       4.004   0.158  17.488  1.00  0.00     0.041 C 
HETATM    8  C15 UNL     1       3.857  -0.335  19.835  1.00  0.00     0.034 C 
HETATM    9  C16 UNL     1       3.602  -1.335  20.934  1.00  0.00     0.008 C 
HETATM   10  C17 UNL     1       4.769  -2.265  21.157  1.00  0.00     0.003 C 
HETATM   11  C18 UNL     1       4.760  -3.443  20.189  1.00  0.00     0.042 C 
HETATM   12  C19 UNL     1       5.717  -4.516  20.693  1.00  0.00     0.125 C 
HETATM   13  C20 UNL     1       5.361  -5.082  22.016  1.00  0.00     0.037 C 
HETATM   14  C21 UNL     1       4.616  -4.115  22.880  1.00  0.00    -0.004 C 
HETATM   15  C22 UNL     1       3.161  -4.388  22.983  1.00  0.00     0.005 C 
HETATM   16  C23 UNL     1       2.655  -3.645  24.229  1.00  0.00     0.000 C 
HETATM   17  C24 UNL     1       2.881  -2.179  23.928  1.00  0.00     0.001 C 
HETATM   18  C25 UNL     1       4.298  -1.860  23.627  1.00  0.00     0.010 C 
HETATM   19  C26 UNL     1       4.966  -2.666  22.568  1.00  0.00    -0.036 C 
HETATM   20  C27 UNL     1       6.479  -2.566  22.859  1.00  0.00     0.016 C 
ENDROOT
BRANCH   1  21
HETATM   21  C8  UNL     1       6.399  -1.181  17.878  1.00  0.00     0.089 C 
BRANCH  21  22
HETATM   22  C7  UNL     1       7.646  -0.840  18.607  1.00  0.00     0.316 C 
BRANCH  22  23
HETATM   23  N1  UNL     1       8.086   0.512  18.371  1.00  0.00     0.088 N 
HETATM   24  C1  UNL     1       7.858   0.819  16.957  1.00  0.00     0.310 C 
BRANCH  23  25
HETATM   25  C2  UNL     1       9.488   0.724  18.680  1.00  0.00     0.272 C 
BRANCH  25  26
HETATM   26  C3  UNL     1       9.937   0.011  19.905  1.00  0.00     0.030 C 
BRANCH  26  27
HETATM   27  C4  UNL     1      10.286   0.938  21.064  1.00  0.00     0.003 C 
BRANCH  27  28
HETATM   28  C5  UNL     1      11.186   0.249  22.068  1.00  0.00     0.027 C 
BRANCH  28  29
HETATM   29  C6  UNL     1      12.130   1.169  22.770  1.00  0.00     0.229 C 
BRANCH  29  30
HETATM   30  N2  UNL     1      13.141   0.432  23.501  1.00  0.00    -0.079 N 
ATOM     31  H23 UNL     1      12.829  -0.515  23.719  1.00  0.00     0.274 HD
ATOM     32  H22 UNL     1      13.938   0.201  22.906  1.00  0.00     0.274 HD
ATOM     33  H21 UNL     1      13.433   0.932  24.341  1.00  0.00     0.274 HD
ENDBRANCH  29  30
ENDBRANCH  28  29
ENDBRANCH  27  28
ENDBRANCH  26  27
ENDBRANCH  25  26
ENDBRANCH  23  25
ENDBRANCH  22  23
ENDBRANCH  21  22
ENDBRANCH   1  21
BRANCH   5  34
HETATM   34  O1  UNL     1       1.871  -1.098  17.462  1.00  0.00    -0.393 OA
ATOM     35  H1  UNL     1       2.052  -0.184  17.645  1.00  0.00     0.210 HD
ENDBRANCH   5  34
BRANCH  12  36
HETATM   36  O2  UNL     1       5.723  -5.560  19.766  1.00  0.00    -0.395 OA
ATOM     37  H2  UNL     1       6.312  -6.234  20.085  1.00  0.00     0.210 HD
ENDBRANCH  12  36
TORSDOF 11
ENDMDL
MODEL 3
REMARK VINA RESULT: -7.988187414      2.496      5.439
REMARK  11 active torsions:
REMARK  status: ('A' for Active; 'I' for Inactive)
REMARK    1  A    between atoms: N1_2  and  C2_3 
REMARK    2  A    between atoms: N1_2  and  C7_12 
REMARK    3  A    between atoms: C2_3  and  C3_4 
REMARK    4  A    between atoms: C3_4  and  C4_5 
REMARK    5  A    between atoms: C4_5  and  C5_6 
REMARK    6  A    between atoms: C5_6  and  C6_7 
REMARK    7  A    between atoms: C6_7  and  N2_8 
REMARK    8  A    between atoms: C7_12  and  C8_13 
REMARK    9  A    between atoms: C8_13  and  N3_14 
REMARK   10  A    between atoms: C12_18  and  O1_19 
REMARK   11  A    between atoms: C19_27  and  O2_28 
ROOT
HETATM    1  N3  UNL     1       5.812  -2.247  18.742  1.00  0.00    -0.375 N 
HETATM    2  C9  UNL     1       5.817  -3.086  19.883  1.00  0.00     0.091 C 
HETATM    3  C10 UNL     1       5.745  -4.533  19.484  1.00  0.00     0.028 C 
HETATM    4  C11 UNL     1       4.971  -4.769  18.227  1.00  0.00     0.036 C 
HETATM    5  C12 UNL     1       3.963  -3.681  17.955  1.00  0.00     0.146 C 
HETATM    6  C13 UNL     1       4.696  -2.355  17.875  1.00  0.00     0.054 C 
HETATM    7  C14 UNL     1       4.992  -2.180  16.398  1.00  0.00     0.041 C 
HETATM    8  C15 UNL     1       3.761  -1.222  18.225  1.00  0.00     0.034 C 
HETATM    9  C16 UNL     1       3.127  -1.381  19.584  1.00  0.00     0.008 C 
HETATM   10  C17 UNL     1       4.140  -1.368  20.703  1.00  0.00     0.003 C 
HETATM   11  C18 UNL     1       4.774  -2.737  20.924  1.00  0.00     0.042 C 
HETATM   12  C19 UNL     1       5.485  -2.752  22.270  1.00  0.00     0.125 C 
HETATM   13  C20 UNL     1       4.595  -2.530  23.436  1.00  0.00     0.037 C 
HETATM   14  C21 UNL     1       3.396  -1.701  23.101  1.00  0.00    -0.004 C 
HETATM   15  C22 UNL     1       2.136  -2.476  22.980  1.00  0.00     0.005 C 
HETATM   16  C23 UNL     1       0.981  -1.472  23.116  1.00  0.00     0.000 C 
HETATM   17  C24 UNL     1       1.128  -0.544  21.929  1.00  0.00     0.001 C 
HETATM   18  C25 UNL     1       2.449   0.130  21.879  1.00  0.00     0.010 C 
HETATM   19  C26 UNL     1       3.657  -0.736  21.953  1.00  0.00    -0.036 C 
HETATM   20  C27 UNL     1       4.793   0.174  22.466  1.00  0.00     0.016 C 
ENDROOT
BRANCH   1  21
HETATM   21  C8  UNL     1       7.027  -1.801  18.242  1.00  0.00     0.089 C 
BRANCH  21  22
HETATM   22  C7  UNL     1       7.986  -1.066  19.103  1.00  0.00     0.316 C 
BRANCH  22  23
HETATM   23  N1  UNL     1       8.148   0.313  18.718  1.00  0.00     0.088 N 
HETATM   24  C1  UNL     1       7.744   0.439  17.316  1.00  0.00     0.310 C 
BRANCH  23  25
HETATM   25  C2  UNL     1       9.509   0.796  18.863  1.00  0.00     0.272 C 
BRANCH  25  26
HETATM   26  C3  UNL     1      10.243   0.163  19.989  1.00  0.00     0.030 C 
BRANCH  26  27
HETATM   27  C4  UNL     1      10.300   1.023  21.248  1.00  0.00     0.003 C 
BRANCH  27  28
HETATM   28  C5  UNL     1      11.362   0.527  22.205  1.00  0.00     0.027 C 
BRANCH  28  29
HETATM   29  C6  UNL     1      11.875   1.574  23.139  1.00  0.00     0.229 C 
BRANCH  29  30
HETATM   30  N2  UNL     1      12.976   1.075  23.939  1.00  0.00    -0.079 N 
ATOM     31  H23 UNL     1      13.847   1.057  23.406  1.00  0.00     0.274 HD
ATOM     32  H22 UNL     1      13.247   1.744  24.660  1.00  0.00     0.274 HD
ATOM     33  H21 UNL     1      12.763   0.160  24.337  1.00  0.00     0.274 HD
ENDBRANCH  29  30
ENDBRANCH  28  29
ENDBRANCH  27  28
ENDBRANCH  26  27
ENDBRANCH  25  26
ENDBRANCH  23  25
ENDBRANCH  22  23
ENDBRANCH  21  22
ENDBRANCH   1  21
BRANCH   5  34
HETATM   34  O1  UNL     1       3.349  -4.002  16.721  1.00  0.00    -0.393 OA
ATOM     35  H1  UNL     1       3.360  -3.208  16.200  1.00  0.00     0.210 HD
ENDBRANCH   5  34
BRANCH  12  36
HETATM   36  O2  UNL     1       6.093  -3.999  22.425  1.00  0.00    -0.395 OA
ATOM     37  H2  UNL     1       5.420  -4.629  22.654  1.00  0.00     0.210 HD
ENDBRANCH  12  36
TORSDOF 11
ENDMDL
MODEL 4
REMARK VINA RESULT: -7.908933417      2.584      6.479
REMARK  11 active torsions:
REMARK  status: ('A' for Active; 'I' for Inactive)
REMARK    1  A    between atoms: N1_2  and  C2_3 
REMARK    2  A    between atoms: N1_2  and  C7_12 
REMARK    3  A    between atoms: C2_3  and  C3_4 
REMARK    4  A    between atoms: C3_4  and  C4_5 
REMARK    5  A    between atoms: C4_5  and  C5_6 
REMARK    6  A    between atoms: C5_6  and  C6_7 
REMARK    7  A    between atoms: C6_7  and  N2_8 
REMARK    8  A    between atoms: C7_12  and  C8_13 
REMARK    9  A    between atoms: C8_13  and  N3_14 
REMARK   10  A    between atoms: C12_18  and  O1_19 
REMARK   11  A    between atoms: C19_27  and  O2_28 
ROOT
HETATM    1  N3  UNL     1       5.084  -1.726  18.213  1.00  0.00    -0.375 N 
HETATM    2  C9  UNL     1       5.103  -3.096  18.572  1.00  0.00     0.091 C 
HETATM    3  C10 UNL     1       4.247  -3.906  17.639  1.00  0.00     0.028 C 
HETATM    4  C11 UNL     1       3.068  -3.156  17.106  1.00  0.00     0.036 C 
HETATM    5  C12 UNL     1       2.642  -2.027  18.011  1.00  0.00     0.146 C 
HETATM    6  C13 UNL     1       3.819  -1.088  18.196  1.00  0.00     0.054 C 
HETATM    7  C14 UNL     1       3.629  -0.035  17.120  1.00  0.00     0.041 C 
HETATM    8  C15 UNL     1       3.688  -0.341  19.502  1.00  0.00     0.034 C 
HETATM    9  C16 UNL     1       3.568  -1.258  20.693  1.00  0.00     0.008 C 
HETATM   10  C17 UNL     1       4.793  -2.117  20.892  1.00  0.00     0.003 C 
HETATM   11  C18 UNL     1       4.767  -3.369  20.023  1.00  0.00     0.042 C 
HETATM   12  C19 UNL     1       5.811  -4.356  20.530  1.00  0.00     0.125 C 
HETATM   13  C20 UNL     1       5.586  -4.826  21.918  1.00  0.00     0.037 C 
HETATM   14  C21 UNL     1       4.864  -3.824  22.761  1.00  0.00    -0.004 C 
HETATM   15  C22 UNL     1       3.436  -4.150  23.002  1.00  0.00     0.005 C 
HETATM   16  C23 UNL     1       2.992  -3.330  24.223  1.00  0.00     0.000 C 
HETATM   17  C24 UNL     1       3.123  -1.885  23.792  1.00  0.00     0.001 C 
HETATM   18  C25 UNL     1       4.495  -1.532  23.353  1.00  0.00     0.010 C 
HETATM   19  C26 UNL     1       5.118  -2.393  22.310  1.00  0.00    -0.036 C 
HETATM   20  C27 UNL     1       6.642  -2.205  22.469  1.00  0.00     0.016 C 
ENDROOT
BRANCH   1  21
HETATM   21  C8  UNL     1       6.109  -1.235  17.418  1.00  0.00     0.089 C 
BRANCH  21  22
HETATM   22  C7  UNL     1       7.254  -0.501  18.012  1.00  0.00     0.316 C 
BRANCH  22  23
HETATM   23  N1  UNL     1       7.852   0.444  17.102  1.00  0.00     0.088 N 
HETATM   24  C1  UNL     1       8.913   1.151  17.822  1.00  0.00     0.310 C 
BRANCH  23  25
HETATM   25  C2  UNL     1       6.910   1.414  16.576  1.00  0.00     0.272 C 
BRANCH  25  26
HETATM   26  C3  UNL     1       6.918   1.502  15.093  1.00  0.00     0.030 C 
BRANCH  26  27
HETATM   27  C4  UNL     1       5.586   1.937  14.493  1.00  0.00     0.003 C 
BRANCH  27  28
HETATM   28  C5  UNL     1       4.863   2.906  15.402  1.00  0.00     0.027 C 
BRANCH  28  29
HETATM   29  C6  UNL     1       4.443   4.173  14.731  1.00  0.00     0.229 C 
BRANCH  29  30
HETATM   30  N2  UNL     1       4.828   4.183  13.334  1.00  0.00    -0.079 N 
ATOM     31  H23 UNL     1       5.578   3.517  13.148  1.00  0.00     0.274 HD
ATOM     32  H22 UNL     1       4.104   3.774  12.744  1.00  0.00     0.274 HD
ATOM     33  H21 UNL     1       5.077   5.123  13.023  1.00  0.00     0.274 HD
ENDBRANCH  29  30
ENDBRANCH  28  29
ENDBRANCH  27  28
ENDBRANCH  26  27
ENDBRANCH  25  26
ENDBRANCH  23  25
ENDBRANCH  22  23
ENDBRANCH  21  22
ENDBRANCH   1  21
BRANCH   5  34
HETATM   34  O1  UNL     1       1.564  -1.379  17.364  1.00  0.00    -0.393 OA
ATOM     35  H1  UNL     1       1.319  -1.930  16.631  1.00  0.00     0.210 HD
ENDBRANCH   5  34
BRANCH  12  36
HETATM   36  O2  UNL     1       5.796  -5.471  19.690  1.00  0.00    -0.395 OA
ATOM     37  H2  UNL     1       6.307  -6.157  20.103  1.00  0.00     0.210 HD
ENDBRANCH  12  36
TORSDOF 11
ENDMDL
MODEL 5
REMARK VINA RESULT: -7.901781795      2.761      6.155
REMARK  11 active torsions:
REMARK  status: ('A' for Active; 'I' for Inactive)
REMARK    1  A    between atoms: N1_2  and  C2_3 
REMARK    2  A    between atoms: N1_2  and  C7_12 
REMARK    3  A    between atoms: C2_3  and  C3_4 
REMARK    4  A    between atoms: C3_4  and  C4_5 
REMARK    5  A    between atoms: C4_5  and  C5_6 
REMARK    6  A    between atoms: C5_6  and  C6_7 
REMARK    7  A    between atoms: C6_7  and  N2_8 
REMARK    8  A    between atoms: C7_12  and  C8_13 
REMARK    9  A    between atoms: C8_13  and  N3_14 
REMARK   10  A    between atoms: C12_18  and  O1_19 
REMARK   11  A    between atoms: C19_27  and  O2_28 
ROOT
HETATM    1  N3  UNL     1       5.748  -2.334  18.734  1.00  0.00    -0.375 N 
HETATM    2  C9  UNL     1       5.730  -3.167  19.878  1.00  0.00     0.091 C 
HETATM    3  C10 UNL     1       5.643  -4.615  19.486  1.00  0.00     0.028 C 
HETATM    4  C11 UNL     1       4.879  -4.847  18.221  1.00  0.00     0.036 C 
HETATM    5  C12 UNL     1       3.888  -3.747  17.933  1.00  0.00     0.146 C 
HETATM    6  C13 UNL     1       4.640  -2.431  17.856  1.00  0.00     0.054 C 
HETATM    7  C14 UNL     1       4.954  -2.267  16.381  1.00  0.00     0.041 C 
HETATM    8  C15 UNL     1       3.715  -1.285  18.190  1.00  0.00     0.034 C 
HETATM    9  C16 UNL     1       3.065  -1.429  19.543  1.00  0.00     0.008 C 
HETATM   10  C17 UNL     1       4.066  -1.424  20.673  1.00  0.00     0.003 C 
HETATM   11  C18 UNL     1       4.680  -2.799  20.906  1.00  0.00     0.042 C 
HETATM   12  C19 UNL     1       5.376  -2.817  22.260  1.00  0.00     0.125 C 
HETATM   13  C20 UNL     1       4.477  -2.578  23.415  1.00  0.00     0.037 C 
HETATM   14  C21 UNL     1       3.293  -1.735  23.064  1.00  0.00    -0.004 C 
HETATM   15  C22 UNL     1       2.024  -2.494  22.933  1.00  0.00     0.005 C 
HETATM   16  C23 UNL     1       0.881  -1.475  23.052  1.00  0.00     0.000 C 
HETATM   17  C24 UNL     1       1.052  -0.555  21.862  1.00  0.00     0.001 C 
HETATM   18  C25 UNL     1       2.382   0.102  21.823  1.00  0.00     0.010 C 
HETATM   19  C26 UNL     1       3.579  -0.779  21.914  1.00  0.00    -0.036 C 
HETATM   20  C27 UNL     1       4.721   0.118  22.435  1.00  0.00     0.016 C 
ENDROOT
BRANCH   1  21
HETATM   21  C8  UNL     1       6.973  -1.906  18.244  1.00  0.00     0.089 C 
BRANCH  21  22
HETATM   22  C7  UNL     1       7.485  -0.546  18.545  1.00  0.00     0.316 C 
BRANCH  22  23
HETATM   23  N1  UNL     1       7.473   0.328  17.398  1.00  0.00     0.088 N 
HETATM   24  C1  UNL     1       8.660   1.182  17.472  1.00  0.00     0.310 C 
BRANCH  23  25
HETATM   25  C2  UNL     1       6.291   1.166  17.324  1.00  0.00     0.272 C 
BRANCH  25  26
HETATM   26  C3  UNL     1       5.928   1.554  15.936  1.00  0.00     0.030 C 
BRANCH  26  27
HETATM   27  C4  UNL     1       4.455   1.342  15.602  1.00  0.00     0.003 C 
BRANCH  27  28
HETATM   28  C5  UNL     1       3.866   2.554  14.914  1.00  0.00     0.027 C 
BRANCH  28  29
HETATM   29  C6  UNL     1       4.835   3.674  14.721  1.00  0.00     0.229 C 
BRANCH  29  30
HETATM   30  N2  UNL     1       4.817   4.160  13.356  1.00  0.00    -0.079 N 
ATOM     31  H23 UNL     1       3.888   4.490  13.089  1.00  0.00     0.274 HD
ATOM     32  H22 UNL     1       5.328   5.039  13.265  1.00  0.00     0.274 HD
ATOM     33  H21 UNL     1       5.164   3.456  12.705  1.00  0.00     0.274 HD
ENDBRANCH  29  30
ENDBRANCH  28  29
ENDBRANCH  27  28
ENDBRANCH  26  27
ENDBRANCH  25  26
ENDBRANCH  23  25
ENDBRANCH  22  23
ENDBRANCH  21  22
ENDBRANCH   1  21
BRANCH   5  34
HETATM   34  O1  UNL     1       3.283  -4.066  16.695  1.00  0.00    -0.393 OA
ATOM     35  H1  UNL     1       2.442  -4.458  16.899  1.00  0.00     0.210 HD
ENDBRANCH   5  34
BRANCH  12  36
HETATM   36  O2  UNL     1       5.967  -4.071  22.428  1.00  0.00    -0.395 OA
ATOM     37  H2  UNL     1       5.635  -4.448  23.234  1.00  0.00     0.210 HD
ENDBRANCH  12  36
TORSDOF 11
ENDMDL
