MODEL 1
REMARK VINA RESULT: -9.158797206      0.000      0.000
REMARK  12 active torsions:
REMARK  status: ('A' for Active; 'I' for Inactive)
REMARK    1  A    between atoms: C3_6  and  C4_7 
REMARK       I    between atoms: C4_7  and  N3_9 
REMARK    2  A    between atoms: N3_9  and  C5_11 
REMARK    3  A    between atoms: C7_13  and  C8_14 
REMARK    4  A    between atoms: C9_20  and  N6_21 
REMARK    5  A    between atoms: C10_26  and  N8_27 
REMARK    6  A    between atoms: N8_27  and  C11_29 
REMARK    7  A    between atoms: C15_35  and  N10_36 
REMARK    8  A    between atoms: C17_38  and  C18_39 
REMARK    9  A    between atoms: C18_39  and  C19_40 
REMARK   10  A    between atoms: C19_40  and  C20_41 
REMARK   11  A    between atoms: C20_41  and  N11_42 
REMARK   12  A    between atoms: N14_50  and  N15_51 
ROOT
HETATM    1  N1  UNL     1      31.531  -4.560  17.208  1.00  0.00    -0.188 NA
HETATM    2  C1  UNL     1      31.162  -3.465  17.085  1.00  0.00     0.139 C 
HETATM    3  C2  UNL     1      30.690  -2.121  16.963  1.00  0.00     0.212 A 
HETATM    4  N2  UNL     1      31.444  -1.025  17.009  1.00  0.00    -0.324 N 
ATOM      5  H2  UNL     1      32.456  -1.014  17.142  1.00  0.00     0.168 HD
HETATM    6  C3  UNL     1      30.673   0.066  16.854  1.00  0.00     0.151 A 
HETATM    7  C15 UNL     1      29.343  -0.366  16.702  1.00  0.00     0.184 A 
HETATM    8  N14 UNL     1      29.413  -1.725  16.775  1.00  0.00    -0.216 N 
ENDROOT
BRANCH   8   9
HETATM    9  N15 UNL     1      28.322  -2.591  16.662  1.00  0.00    -0.335 N 
ATOM     10 2H15 UNL     1      28.273  -3.390  16.031  1.00  0.00     0.177 HD
ATOM     11 1H15 UNL     1      27.464  -2.515  17.207  1.00  0.00     0.177 HD
ENDBRANCH   8   9
BRANCH   6  12
HETATM   12  C4  UNL     1      31.065   1.446  16.776  1.00  0.00     0.277 C 
HETATM   13  O1  UNL     1      30.758   2.217  17.769  1.00  0.00    -0.265 OA
HETATM   14  N3  UNL     1      31.730   2.100  15.769  1.00  0.00    -0.307 N 
ATOM     15  H3  UNL     1      31.900   3.038  16.133  1.00  0.00     0.170 HD
BRANCH  14  16
HETATM   16  C5  UNL     1      32.276   2.106  14.515  1.00  0.00     0.126 A 
HETATM   17  C6  UNL     1      33.272   1.254  14.060  1.00  0.00     0.081 A 
HETATM   18  C7  UNL     1      33.821   1.369  12.781  1.00  0.00     0.085 A 
HETATM   19  N7  UNL     1      33.371   2.336  11.976  1.00  0.00    -0.189 N 
HETATM   20  C10 UNL     1      32.407   3.195  12.367  1.00  0.00     0.680 A 
ATOM     21  H7  UNL     1      33.766   2.427  11.040  1.00  0.00     0.184 HD
HETATM   22  N9  UNL     1      31.914   3.049  13.579  1.00  0.00    -0.177 N 
ATOM     23  H9  UNL     1      31.185   3.707  13.855  1.00  0.00     0.186 HD
BRANCH  18  24
HETATM   24  C8  UNL     1      34.837   0.413  12.365  1.00  0.00     0.129 A 
HETATM   25  N4  UNL     1      34.752  -0.929  12.289  1.00  0.00    -0.236 N 
HETATM   26  O2  UNL     1      35.880  -1.404  11.826  1.00  0.00    -0.155 OA
ATOM     27  H4  UNL     1      33.939  -1.486  12.550  1.00  0.00     0.197 HD
HETATM   28  N5  UNL     1      36.717  -0.477  11.587  1.00  0.00    -0.224 N 
HETATM   29  C9  UNL     1      36.131   0.696  11.904  1.00  0.00     0.152 A 
ATOM     30  H5  UNL     1      37.662  -0.598  11.223  1.00  0.00     0.198 HD
BRANCH  29  31
HETATM   31  N6  UNL     1      36.550   1.892  11.821  1.00  0.00    -0.382 N 
ATOM     32  H62 UNL     1      36.282   2.735  12.327  1.00  0.00     0.157 HD
ATOM     33  H61 UNL     1      37.299   2.144  11.176  1.00  0.00     0.157 HD
ENDBRANCH  29  31
ENDBRANCH  18  24
BRANCH  20  34
HETATM   34  N8  UNL     1      31.980   4.127  11.537  1.00  0.00    -0.221 N 
ATOM     35  H8  UNL     1      32.600   4.545  10.843  1.00  0.00     0.178 HD
BRANCH  34  36
HETATM   36  C11 UNL     1      30.604   4.531  11.652  1.00  0.00     0.099 C 
HETATM   37  C12 UNL     1      30.313   5.979  11.989  1.00  0.00     0.026 C 
HETATM   38  C13 UNL     1      29.049   5.789  11.104  1.00  0.00     0.004 C 
HETATM   39  C14 UNL     1      29.958   4.855  10.281  1.00  0.00     0.026 C 
ENDBRANCH  34  36
ENDBRANCH  20  34
ENDBRANCH  14  16
ENDBRANCH   6  12
BRANCH   7  40
HETATM   40  N10 UNL     1      28.186   0.418  16.509  1.00  0.00    -0.231 N 
HETATM   41  C16 UNL     1      27.610   0.687  15.286  1.00  0.00     0.146 A 
HETATM   42  C17 UNL     1      26.496   1.486  15.450  1.00  0.00     0.044 A 
HETATM   43  N12 UNL     1      26.419   1.686  16.770  1.00  0.00    -0.289 N 
HETATM   44  N13 UNL     1      27.399   1.065  17.366  1.00  0.00    -0.234 N 
ATOM     45  H12 UNL     1      25.703   2.240  17.240  1.00  0.00     0.188 HD
ATOM     46  H13 UNL     1      27.546   1.074  18.375  1.00  0.00     0.209 HD
BRANCH  42  47
HETATM   47  C18 UNL     1      25.582   2.046  14.414  1.00  0.00     0.062 C 
BRANCH  47  48
HETATM   48  C19 UNL     1      26.286   2.086  13.079  1.00  0.00     0.033 C 
BRANCH  48  49
HETATM   49  C20 UNL     1      27.319   3.168  12.946  1.00  0.00     0.230 C 
BRANCH  49  50
HETATM   50  N11 UNL     1      26.642   4.434  13.309  1.00  0.00    -0.079 N 
ATOM     51 3H11 UNL     1      25.625   4.378  13.261  1.00  0.00     0.274 HD
ATOM     52 2H11 UNL     1      26.708   4.659  14.302  1.00  0.00     0.274 HD
ATOM     53 1H11 UNL     1      27.038   5.153  12.703  1.00  0.00     0.274 HD
ENDBRANCH  49  50
ENDBRANCH  48  49
ENDBRANCH  47  48
ENDBRANCH  42  47
ENDBRANCH   7  40
TORSDOF 12
ENDMDL
MODEL 2
REMARK VINA RESULT: -9.146609788      2.570      8.534
REMARK  12 active torsions:
REMARK  status: ('A' for Active; 'I' for Inactive)
REMARK    1  A    between atoms: C3_6  and  C4_7 
REMARK       I    between atoms: C4_7  and  N3_9 
REMARK    2  A    between atoms: N3_9  and  C5_11 
REMARK    3  A    between atoms: C7_13  and  C8_14 
REMARK    4  A    between atoms: C9_20  and  N6_21 
REMARK    5  A    between atoms: C10_26  and  N8_27 
REMARK    6  A    between atoms: N8_27  and  C11_29 
REMARK    7  A    between atoms: C15_35  and  N10_36 
REMARK    8  A    between atoms: C17_38  and  C18_39 
REMARK    9  A    between atoms: C18_39  and  C19_40 
REMARK   10  A    between atoms: C19_40  and  C20_41 
REMARK   11  A    between atoms: C20_41  and  N11_42 
REMARK   12  A    between atoms: N14_50  and  N15_51 
ROOT
HETATM    1  N1  UNL     1      28.198   5.119  11.507  1.00  0.00    -0.188 NA
HETATM    2  C1  UNL     1      29.142   4.505  11.793  1.00  0.00     0.139 C 
HETATM    3  C2  UNL     1      30.320   3.778  12.150  1.00  0.00     0.212 A 
HETATM    4  N2  UNL     1      30.441   2.954  13.188  1.00  0.00    -0.324 N 
ATOM      5  H2  UNL     1      29.702   2.746  13.860  1.00  0.00     0.168 HD
HETATM    6  C3  UNL     1      31.683   2.439  13.220  1.00  0.00     0.151 A 
HETATM    7  C15 UNL     1      32.397   2.971  12.131  1.00  0.00     0.184 A 
HETATM    8  N14 UNL     1      31.506   3.790  11.503  1.00  0.00    -0.216 N 
ENDROOT
BRANCH   8   9
HETATM    9  N15 UNL     1      31.774   4.531  10.350  1.00  0.00    -0.335 N 
ATOM     10 2H15 UNL     1      31.723   5.547  10.283  1.00  0.00     0.177 HD
ATOM     11 1H15 UNL     1      32.055   4.129   9.456  1.00  0.00     0.177 HD
ENDBRANCH   8   9
BRANCH   6  12
HETATM   12  C4  UNL     1      32.235   1.466  14.122  1.00  0.00     0.277 C 
HETATM   13  O1  UNL     1      33.458   1.091  13.928  1.00  0.00    -0.265 OA
HETATM   14  N3  UNL     1      31.640   0.842  15.190  1.00  0.00    -0.307 N 
ATOM     15  H3  UNL     1      32.386   0.300  15.625  1.00  0.00     0.170 HD
BRANCH  14  16
HETATM   16  C5  UNL     1      30.533   0.594  15.954  1.00  0.00     0.126 A 
HETATM   17  C6  UNL     1      30.538   0.203  17.285  1.00  0.00     0.081 A 
HETATM   18  C7  UNL     1      29.361  -0.094  17.978  1.00  0.00     0.085 A 
HETATM   19  N7  UNL     1      28.197   0.001  17.329  1.00  0.00    -0.189 N 
HETATM   20  C10 UNL     1      28.133   0.374  16.033  1.00  0.00     0.680 A 
ATOM     21  H7  UNL     1      27.333  -0.214  17.826  1.00  0.00     0.184 HD
HETATM   22  N9  UNL     1      29.265   0.647  15.420  1.00  0.00    -0.177 N 
ATOM     23  H9  UNL     1      29.196   0.929  14.442  1.00  0.00     0.186 HD
BRANCH  18  24
HETATM   24  C8  UNL     1      29.448  -0.463  19.383  1.00  0.00     0.129 A 
HETATM   25  N4  UNL     1      29.652  -1.679  19.925  1.00  0.00    -0.236 N 
HETATM   26  O2  UNL     1      29.704  -1.563  21.227  1.00  0.00    -0.155 OA
ATOM     27  H4  UNL     1      29.750  -2.551  19.404  1.00  0.00     0.197 HD
HETATM   28  N5  UNL     1      29.548  -0.357  21.598  1.00  0.00    -0.224 N 
HETATM   29  C9  UNL     1      29.380   0.394  20.491  1.00  0.00     0.152 A 
ATOM     30  H5  UNL     1      29.550  -0.018  22.560  1.00  0.00     0.198 HD
BRANCH  29  31
HETATM   31  N6  UNL     1      29.212   1.643  20.344  1.00  0.00    -0.382 N 
ATOM     32  H62 UNL     1      29.878   2.414  20.320  1.00  0.00     0.157 HD
ATOM     33  H61 UNL     1      28.281   2.036  20.197  1.00  0.00     0.157 HD
ENDBRANCH  29  31
ENDBRANCH  18  24
BRANCH  20  34
HETATM   34  N8  UNL     1      26.962   0.468  15.434  1.00  0.00    -0.221 N 
ATOM     35  H8  UNL     1      26.351  -0.342  15.329  1.00  0.00     0.178 HD
BRANCH  34  36
HETATM   36  C11 UNL     1      26.582   1.762  14.933  1.00  0.00     0.099 C 
HETATM   37  C12 UNL     1      26.928   2.100  13.497  1.00  0.00     0.026 C 
HETATM   38  C13 UNL     1      25.613   2.928  13.517  1.00  0.00     0.004 C 
HETATM   39  C14 UNL     1      25.109   1.811  14.453  1.00  0.00     0.026 C 
ENDBRANCH  34  36
ENDBRANCH  20  34
ENDBRANCH  14  16
ENDBRANCH   6  12
BRANCH   7  40
HETATM   40  N10 UNL     1      33.733   2.720  11.755  1.00  0.00    -0.231 N 
HETATM   41  C16 UNL     1      34.785   3.587  11.954  1.00  0.00     0.146 A 
HETATM   42  C17 UNL     1      35.954   3.038  11.465  1.00  0.00     0.044 A 
HETATM   43  N12 UNL     1      35.586   1.848  10.978  1.00  0.00    -0.289 N 
HETATM   44  N13 UNL     1      34.305   1.679  11.152  1.00  0.00    -0.234 N 
ATOM     45  H12 UNL     1      36.213   1.174  10.537  1.00  0.00     0.188 HD
ATOM     46  H13 UNL     1      33.797   0.845  10.859  1.00  0.00     0.209 HD
BRANCH  42  47
HETATM   47  C18 UNL     1      37.326   3.621  11.438  1.00  0.00     0.062 C 
BRANCH  47  48
HETATM   48  C19 UNL     1      37.287   4.989  10.799  1.00  0.00     0.033 C 
BRANCH  48  49
HETATM   49  C20 UNL     1      38.447   5.293   9.895  1.00  0.00     0.230 C 
BRANCH  49  50
HETATM   50  N11 UNL     1      39.608   5.541  10.779  1.00  0.00    -0.079 N 
ATOM     51 3H11 UNL     1      39.780   6.531  10.953  1.00  0.00     0.274 HD
ATOM     52 2H11 UNL     1      39.444   5.270  11.749  1.00  0.00     0.274 HD
ATOM     53 1H11 UNL     1      40.399   5.060  10.352  1.00  0.00     0.274 HD
ENDBRANCH  49  50
ENDBRANCH  48  49
ENDBRANCH  47  48
ENDBRANCH  42  47
ENDBRANCH   7  40
TORSDOF 12
ENDMDL
MODEL 3
REMARK VINA RESULT: -9.012739751      2.616      6.297
REMARK  12 active torsions:
REMARK  status: ('A' for Active; 'I' for Inactive)
REMARK    1  A    between atoms: C3_6  and  C4_7 
REMARK       I    between atoms: C4_7  and  N3_9 
REMARK    2  A    between atoms: N3_9  and  C5_11 
REMARK    3  A    between atoms: C7_13  and  C8_14 
REMARK    4  A    between atoms: C9_20  and  N6_21 
REMARK    5  A    between atoms: C10_26  and  N8_27 
REMARK    6  A    between atoms: N8_27  and  C11_29 
REMARK    7  A    between atoms: C15_35  and  N10_36 
REMARK    8  A    between atoms: C17_38  and  C18_39 
REMARK    9  A    between atoms: C18_39  and  C19_40 
REMARK   10  A    between atoms: C19_40  and  C20_41 
REMARK   11  A    between atoms: C20_41  and  N11_42 
REMARK   12  A    between atoms: N14_50  and  N15_51 
ROOT
HETATM    1  N1  UNL     1      31.943   5.109   9.516  1.00  0.00    -0.188 NA
HETATM    2  C1  UNL     1      32.060   4.457  10.471  1.00  0.00     0.139 C 
HETATM    3  C2  UNL     1      32.185   3.632  11.632  1.00  0.00     0.212 A 
HETATM    4  N2  UNL     1      33.315   3.097  12.088  1.00  0.00    -0.324 N 
ATOM      5  H2  UNL     1      34.233   3.210  11.657  1.00  0.00     0.168 HD
HETATM    6  C3  UNL     1      33.065   2.383  13.201  1.00  0.00     0.151 A 
HETATM    7  C15 UNL     1      31.687   2.471  13.468  1.00  0.00     0.184 A 
HETATM    8  N14 UNL     1      31.193   3.255  12.468  1.00  0.00    -0.216 N 
ENDROOT
BRANCH   8   9
HETATM    9  N15 UNL     1      29.854   3.628  12.330  1.00  0.00    -0.335 N 
ATOM     10 2H15 UNL     1      29.531   4.515  11.944  1.00  0.00     0.177 HD
ATOM     11 1H15 UNL     1      29.060   3.045  12.594  1.00  0.00     0.177 HD
ENDBRANCH   8   9
BRANCH   6  12
HETATM   12  C4  UNL     1      33.989   1.691  14.056  1.00  0.00     0.277 C 
HETATM   13  O1  UNL     1      34.823   2.402  14.743  1.00  0.00    -0.265 OA
HETATM   14  N3  UNL     1      34.136   0.341  14.256  1.00  0.00    -0.307 N 
ATOM     15  H3  UNL     1      34.828   0.260  15.002  1.00  0.00     0.170 HD
BRANCH  14  16
HETATM   16  C5  UNL     1      33.806  -0.949  13.943  1.00  0.00     0.126 A 
HETATM   17  C6  UNL     1      34.437  -1.739  12.992  1.00  0.00     0.081 A 
HETATM   18  C7  UNL     1      33.996  -3.029  12.685  1.00  0.00     0.085 A 
HETATM   19  N7  UNL     1      32.928  -3.509  13.330  1.00  0.00    -0.189 N 
HETATM   20  C10 UNL     1      32.274  -2.784  14.261  1.00  0.00     0.680 A 
ATOM     21  H7  UNL     1      32.599  -4.450  13.113  1.00  0.00     0.184 HD
HETATM   22  N9  UNL     1      32.725  -1.575  14.522  1.00  0.00    -0.177 N 
ATOM     23  H9  UNL     1      32.219  -1.044  15.230  1.00  0.00     0.186 HD
BRANCH  18  24
HETATM   24  C8  UNL     1      34.733  -3.808  11.702  1.00  0.00     0.129 A 
HETATM   25  N4  UNL     1      34.781  -3.651  10.365  1.00  0.00    -0.236 N 
HETATM   26  O2  UNL     1      35.599  -4.538   9.859  1.00  0.00    -0.155 OA
ATOM     27  H4  UNL     1      34.263  -2.952   9.832  1.00  0.00     0.197 HD
HETATM   28  N5  UNL     1      36.102  -5.280  10.760  1.00  0.00    -0.224 N 
HETATM   29  C9  UNL     1      35.602  -4.880  11.948  1.00  0.00     0.152 A 
ATOM     30  H5  UNL     1      36.765  -6.042  10.613  1.00  0.00     0.198 HD
BRANCH  29  31
HETATM   31  N6  UNL     1      35.816  -5.293  13.129  1.00  0.00    -0.382 N 
ATOM     32  H62 UNL     1      35.356  -5.075  14.012  1.00  0.00     0.157 HD
ATOM     33  H61 UNL     1      36.545  -5.980  13.323  1.00  0.00     0.157 HD
ENDBRANCH  29  31
ENDBRANCH  18  24
BRANCH  20  34
HETATM   34  N8  UNL     1      31.233  -3.300  14.885  1.00  0.00    -0.221 N 
ATOM     35  H8  UNL     1      30.690  -4.060  14.474  1.00  0.00     0.178 HD
BRANCH  34  36
HETATM   36  C11 UNL     1      30.894  -2.746  16.169  1.00  0.00     0.099 C 
HETATM   37  C12 UNL     1      29.616  -3.218  16.833  1.00  0.00     0.026 C 
HETATM   38  C13 UNL     1      30.391  -3.011  18.164  1.00  0.00     0.004 C 
HETATM   39  C14 UNL     1      31.613  -3.463  17.340  1.00  0.00     0.026 C 
ENDBRANCH  34  36
ENDBRANCH  20  34
ENDBRANCH  14  16
ENDBRANCH   6  12
BRANCH   7  40
HETATM   40  N10 UNL     1      30.964   1.889  14.529  1.00  0.00    -0.231 N 
HETATM   41  C16 UNL     1      29.807   1.154  14.386  1.00  0.00     0.146 A 
HETATM   42  C17 UNL     1      29.353   0.735  15.622  1.00  0.00     0.044 A 
HETATM   43  N12 UNL     1      30.244   1.227  16.489  1.00  0.00    -0.289 N 
HETATM   44  N13 UNL     1      31.165   1.888  15.846  1.00  0.00    -0.234 N 
ATOM     45  H12 UNL     1      30.209   1.103  17.502  1.00  0.00     0.188 HD
ATOM     46  H13 UNL     1      31.951   2.353  16.299  1.00  0.00     0.209 HD
BRANCH  42  47
HETATM   47  C18 UNL     1      28.134  -0.056  15.955  1.00  0.00     0.062 C 
BRANCH  47  48
HETATM   48  C19 UNL     1      26.962   0.447  15.146  1.00  0.00     0.033 C 
BRANCH  48  49
HETATM   49  C20 UNL     1      26.312   1.688  15.687  1.00  0.00     0.230 C 
BRANCH  49  50
HETATM   50  N11 UNL     1      26.019   2.546  14.517  1.00  0.00    -0.079 N 
ATOM     51 3H11 UNL     1      26.363   2.162  13.637  1.00  0.00     0.274 HD
ATOM     52 2H11 UNL     1      25.031   2.567  14.267  1.00  0.00     0.274 HD
ATOM     53 1H11 UNL     1      26.402   3.466  14.735  1.00  0.00     0.274 HD
ENDBRANCH  49  50
ENDBRANCH  48  49
ENDBRANCH  47  48
ENDBRANCH  42  47
ENDBRANCH   7  40
TORSDOF 12
ENDMDL
MODEL 4
REMARK VINA RESULT: -8.969210343      2.861      5.057
REMARK  12 active torsions:
REMARK  status: ('A' for Active; 'I' for Inactive)
REMARK    1  A    between atoms: C3_6  and  C4_7 
REMARK       I    between atoms: C4_7  and  N3_9 
REMARK    2  A    between atoms: N3_9  and  C5_11 
REMARK    3  A    between atoms: C7_13  and  C8_14 
REMARK    4  A    between atoms: C9_20  and  N6_21 
REMARK    5  A    between atoms: C10_26  and  N8_27 
REMARK    6  A    between atoms: N8_27  and  C11_29 
REMARK    7  A    between atoms: C15_35  and  N10_36 
REMARK    8  A    between atoms: C17_38  and  C18_39 
REMARK    9  A    between atoms: C18_39  and  C19_40 
REMARK   10  A    between atoms: C19_40  and  C20_41 
REMARK   11  A    between atoms: C20_41  and  N11_42 
REMARK   12  A    between atoms: N14_50  and  N15_51 
ROOT
HETATM    1  N1  UNL     1      31.656   0.530  21.583  1.00  0.00    -0.188 NA
HETATM    2  C1  UNL     1      31.233   0.201  20.551  1.00  0.00     0.139 C 
HETATM    3  C2  UNL     1      30.729  -0.175  19.267  1.00  0.00     0.212 A 
HETATM    4  N2  UNL     1      31.018  -1.301  18.619  1.00  0.00    -0.324 N 
ATOM      5  H2  UNL     1      31.641  -2.032  18.961  1.00  0.00     0.168 HD
HETATM    6  C3  UNL     1      30.365  -1.330  17.443  1.00  0.00     0.151 A 
HETATM    7  C15 UNL     1      29.614  -0.145  17.338  1.00  0.00     0.184 A 
HETATM    8  N14 UNL     1      29.875   0.529  18.494  1.00  0.00    -0.216 N 
ENDROOT
BRANCH   8   9
HETATM    9  N15 UNL     1      29.331   1.769  18.838  1.00  0.00    -0.335 N 
ATOM     10 2H15 UNL     1      29.678   2.670  18.511  1.00  0.00     0.177 HD
ATOM     11 1H15 UNL     1      28.525   1.899  19.449  1.00  0.00     0.177 HD
ENDBRANCH   8   9
BRANCH   6  12
HETATM   12  C4  UNL     1      30.331  -2.372  16.453  1.00  0.00     0.277 C 
HETATM   13  O1  UNL     1      29.616  -3.420  16.706  1.00  0.00    -0.265 OA
HETATM   14  N3  UNL     1      30.973  -2.433  15.242  1.00  0.00    -0.307 N 
ATOM     15  H3  UNL     1      30.619  -3.283  14.801  1.00  0.00     0.170 HD
BRANCH  14  16
HETATM   16  C5  UNL     1      31.856  -1.910  14.337  1.00  0.00     0.126 A 
HETATM   17  C6  UNL     1      32.375  -0.624  14.362  1.00  0.00     0.081 A 
HETATM   18  C7  UNL     1      33.225  -0.145  13.361  1.00  0.00     0.085 A 
HETATM   19  N7  UNL     1      33.539  -0.957  12.348  1.00  0.00    -0.189 N 
HETATM   20  C10 UNL     1      33.060  -2.217  12.270  1.00  0.00     0.680 A 
ATOM     21  H7  UNL     1      34.158  -0.616  11.612  1.00  0.00     0.184 HD
HETATM   22  N9  UNL     1      32.266  -2.628  13.236  1.00  0.00    -0.177 N 
ATOM     23  H9  UNL     1      31.916  -3.583  13.161  1.00  0.00     0.186 HD
BRANCH  18  24
HETATM   24  C8  UNL     1      33.757   1.204  13.478  1.00  0.00     0.129 A 
HETATM   25  N4  UNL     1      34.235   1.831  14.571  1.00  0.00    -0.236 N 
HETATM   26  O2  UNL     1      34.655   3.022  14.232  1.00  0.00    -0.155 OA
ATOM     27  H4  UNL     1      34.264   1.439  15.513  1.00  0.00     0.197 HD
HETATM   28  N5  UNL     1      34.493   3.241  12.990  1.00  0.00    -0.224 N 
HETATM   29  C9  UNL     1      33.931   2.140  12.449  1.00  0.00     0.152 A 
ATOM     30  H5  UNL     1      34.742   4.095  12.491  1.00  0.00     0.198 HD
BRANCH  29  31
HETATM   31  N6  UNL     1      33.600   1.869  11.254  1.00  0.00    -0.382 N 
ATOM     32  H62 UNL     1      34.010   1.235  10.570  1.00  0.00     0.157 HD
ATOM     33  H61 UNL     1      32.781   2.300  10.824  1.00  0.00     0.157 HD
ENDBRANCH  29  31
ENDBRANCH  18  24
BRANCH  20  34
HETATM   34  N8  UNL     1      33.405  -2.991  11.260  1.00  0.00    -0.221 N 
ATOM     35  H8  UNL     1      32.785  -3.131  10.462  1.00  0.00     0.178 HD
BRANCH  34  36
HETATM   36  C11 UNL     1      34.692  -3.629  11.330  1.00  0.00     0.099 C 
HETATM   37  C12 UNL     1      35.160  -4.143  12.677  1.00  0.00     0.026 C 
HETATM   38  C13 UNL     1      35.864  -5.258  11.855  1.00  0.00     0.004 C 
HETATM   39  C14 UNL     1      34.644  -5.123  10.922  1.00  0.00     0.026 C 
ENDBRANCH  34  36
ENDBRANCH  20  34
ENDBRANCH  14  16
ENDBRANCH   6  12
BRANCH   7  40
HETATM   40  N10 UNL     1      28.771   0.266  16.285  1.00  0.00    -0.231 N 
HETATM   41  C16 UNL     1      29.179   0.981  15.180  1.00  0.00     0.146 A 
HETATM   42  C17 UNL     1      28.106   1.223  14.346  1.00  0.00     0.044 A 
HETATM   43  N12 UNL     1      27.067   0.650  14.964  1.00  0.00    -0.289 N 
HETATM   44  N13 UNL     1      27.465   0.103  16.078  1.00  0.00    -0.234 N 
ATOM     45  H12 UNL     1      26.108   0.642  14.615  1.00  0.00     0.188 HD
ATOM     46  H13 UNL     1      26.847  -0.393  16.720  1.00  0.00     0.209 HD
BRANCH  42  47
HETATM   47  C18 UNL     1      28.067   1.977  13.060  1.00  0.00     0.062 C 
BRANCH  47  48
HETATM   48  C19 UNL     1      26.946   2.987  13.094  1.00  0.00     0.033 C 
BRANCH  48  49
HETATM   49  C20 UNL     1      27.167   4.199  12.234  1.00  0.00     0.230 C 
BRANCH  49  50
HETATM   50  N11 UNL     1      27.281   5.348  13.159  1.00  0.00    -0.079 N 
ATOM     51 3H11 UNL     1      27.308   5.077  14.142  1.00  0.00     0.274 HD
ATOM     52 2H11 UNL     1      28.194   5.803  13.131  1.00  0.00     0.274 HD
ATOM     53 1H11 UNL     1      26.509   5.975  12.933  1.00  0.00     0.274 HD
ENDBRANCH  49  50
ENDBRANCH  48  49
ENDBRANCH  47  48
ENDBRANCH  42  47
ENDBRANCH   7  40
TORSDOF 12
ENDMDL
MODEL 5
REMARK VINA RESULT: -8.863231836      2.820      6.590
REMARK  12 active torsions:
REMARK  status: ('A' for Active; 'I' for Inactive)
REMARK    1  A    between atoms: C3_6  and  C4_7 
REMARK       I    between atoms: C4_7  and  N3_9 
REMARK    2  A    between atoms: N3_9  and  C5_11 
REMARK    3  A    between atoms: C7_13  and  C8_14 
REMARK    4  A    between atoms: C9_20  and  N6_21 
REMARK    5  A    between atoms: C10_26  and  N8_27 
REMARK    6  A    between atoms: N8_27  and  C11_29 
REMARK    7  A    between atoms: C15_35  and  N10_36 
REMARK    8  A    between atoms: C17_38  and  C18_39 
REMARK    9  A    between atoms: C18_39  and  C19_40 
REMARK   10  A    between atoms: C19_40  and  C20_41 
REMARK   11  A    between atoms: C20_41  and  N11_42 
REMARK   12  A    between atoms: N14_50  and  N15_51 
ROOT
HETATM    1  N1  UNL     1      31.725   5.199   9.732  1.00  0.00    -0.188 NA
HETATM    2  C1  UNL     1      31.874   4.500  10.648  1.00  0.00     0.139 C 
HETATM    3  C2  UNL     1      32.038   3.616  11.760  1.00  0.00     0.212 A 
HETATM    4  N2  UNL     1      33.197   3.134  12.204  1.00  0.00    -0.324 N 
ATOM      5  H2  UNL     1      34.111   3.337  11.799  1.00  0.00     0.168 HD
HETATM    6  C3  UNL     1      32.981   2.339  13.268  1.00  0.00     0.151 A 
HETATM    7  C15 UNL     1      31.596   2.314  13.513  1.00  0.00     0.184 A 
HETATM    8  N14 UNL     1      31.063   3.122  12.553  1.00  0.00    -0.216 N 
ENDROOT
BRANCH   8   9
HETATM    9  N15 UNL     1      29.704   3.408  12.411  1.00  0.00    -0.335 N 
ATOM     10 2H15 UNL     1      29.311   4.343  12.304  1.00  0.00     0.177 HD
ATOM     11 1H15 UNL     1      28.963   2.707  12.392  1.00  0.00     0.177 HD
ENDBRANCH   8   9
BRANCH   6  12
HETATM   12  C4  UNL     1      33.939   1.662  14.098  1.00  0.00     0.277 C 
HETATM   13  O1  UNL     1      34.781   2.386  14.760  1.00  0.00    -0.265 OA
HETATM   14  N3  UNL     1      34.111   0.314  14.296  1.00  0.00    -0.307 N 
ATOM     15  H3  UNL     1      34.824   0.245  15.021  1.00  0.00     0.170 HD
BRANCH  14  16
HETATM   16  C5  UNL     1      33.791  -0.981  13.993  1.00  0.00     0.126 A 
HETATM   17  C6  UNL     1      34.401  -1.761  13.022  1.00  0.00     0.081 A 
HETATM   18  C7  UNL     1      33.969  -3.058  12.730  1.00  0.00     0.085 A 
HETATM   19  N7  UNL     1      32.933  -3.555  13.412  1.00  0.00    -0.189 N 
HETATM   20  C10 UNL     1      32.300  -2.840  14.365  1.00  0.00     0.680 A 
ATOM     21  H7  UNL     1      32.611  -4.501  13.206  1.00  0.00     0.184 HD
HETATM   22  N9  UNL     1      32.741  -1.623  14.610  1.00  0.00    -0.177 N 
ATOM     23  H9  UNL     1      32.251  -1.100  15.335  1.00  0.00     0.186 HD
BRANCH  18  24
HETATM   24  C8  UNL     1      34.685  -3.825  11.722  1.00  0.00     0.129 A 
HETATM   25  N4  UNL     1      34.669  -3.681  10.383  1.00  0.00    -0.236 N 
HETATM   26  O2  UNL     1      35.489  -4.549   9.849  1.00  0.00    -0.155 OA
ATOM     27  H4  UNL     1      34.107  -3.003   9.867  1.00  0.00     0.197 HD
HETATM   28  N5  UNL     1      36.053  -5.268  10.733  1.00  0.00    -0.224 N 
HETATM   29  C9  UNL     1      35.595  -4.870  11.938  1.00  0.00     0.152 A 
ATOM     30  H5  UNL     1      36.730  -6.011  10.563  1.00  0.00     0.198 HD
BRANCH  29  31
HETATM   31  N6  UNL     1      35.873  -5.264  13.112  1.00  0.00    -0.382 N 
ATOM     32  H62 UNL     1      35.807  -6.184  13.546  1.00  0.00     0.157 HD
ATOM     33  H61 UNL     1      36.254  -4.622  13.807  1.00  0.00     0.157 HD
ENDBRANCH  29  31
ENDBRANCH  18  24
BRANCH  20  34
HETATM   34  N8  UNL     1      31.289  -3.372  15.024  1.00  0.00    -0.221 N 
ATOM     35  H8  UNL     1      30.775  -4.172  14.653  1.00  0.00     0.178 HD
BRANCH  34  36
HETATM   36  C11 UNL     1      30.942  -2.778  16.288  1.00  0.00     0.099 C 
HETATM   37  C12 UNL     1      29.602  -3.135  16.898  1.00  0.00     0.026 C 
HETATM   38  C13 UNL     1      30.333  -2.979  18.260  1.00  0.00     0.004 C 
HETATM   39  C14 UNL     1      31.548  -3.539  17.495  1.00  0.00     0.026 C 
ENDBRANCH  34  36
ENDBRANCH  20  34
ENDBRANCH  14  16
ENDBRANCH   6  12
BRANCH   7  40
HETATM   40  N10 UNL     1      30.900   1.620  14.524  1.00  0.00    -0.231 N 
HETATM   41  C16 UNL     1      31.123   1.762  15.876  1.00  0.00     0.146 A 
HETATM   42  C17 UNL     1      30.277   0.936  16.588  1.00  0.00     0.044 A 
HETATM   43  N12 UNL     1      29.557   0.308  15.651  1.00  0.00    -0.289 N 
HETATM   44  N13 UNL     1      29.927   0.712  14.469  1.00  0.00    -0.234 N 
ATOM     45  H12 UNL     1      28.828  -0.383  15.835  1.00  0.00     0.188 HD
ATOM     46  H13 UNL     1      29.518   0.371  13.599  1.00  0.00     0.209 HD
BRANCH  42  47
HETATM   47  C18 UNL     1      30.181   0.736  18.063  1.00  0.00     0.062 C 
BRANCH  47  48
HETATM   48  C19 UNL     1      28.757   0.405  18.441  1.00  0.00     0.033 C 
BRANCH  48  49
HETATM   49  C20 UNL     1      28.002   1.529  19.090  1.00  0.00     0.230 C 
BRANCH  49  50
HETATM   50  N11 UNL     1      28.787   1.921  20.283  1.00  0.00    -0.079 N 
ATOM     51 3H11 UNL     1      29.769   1.653  20.228  1.00  0.00     0.274 HD
ATOM     52 2H11 UNL     1      28.937   2.928  20.357  1.00  0.00     0.274 HD
ATOM     53 1H11 UNL     1      28.302   1.524  21.087  1.00  0.00     0.274 HD
ENDBRANCH  49  50
ENDBRANCH  48  49
ENDBRANCH  47  48
ENDBRANCH  42  47
ENDBRANCH   7  40
TORSDOF 12
ENDMDL
