MODEL 1
REMARK VINA RESULT: -9.015438705      0.000      0.000
REMARK  14 active torsions:
REMARK  status: ('A' for Active; 'I' for Inactive)
REMARK    1  A    between atoms: C2_2  and  C3_3 
REMARK       I    between atoms: C3_3  and  N1_5 
REMARK    2  A    between atoms: N1_5  and  C4_7 
REMARK    3  A    between atoms: N2_9  and  C5_10 
REMARK    4  A    between atoms: C6_11  and  C8_14 
REMARK    5  A    between atoms: C8_14  and  O3_16 
REMARK    6  A    between atoms: O3_16  and  C9_17 
REMARK    7  A    between atoms: C9_17  and  C10_18 
REMARK    8  A    between atoms: C10_18  and  N4_19 
REMARK    9  A    between atoms: C10_18  and  C11_23 
REMARK   10  A    between atoms: C11_23  and  O5_28 
REMARK   11  A    between atoms: N5_24  and  O4_26 
REMARK   12  A    between atoms: O5_28  and  C12_29 
REMARK   13  A    between atoms: C14_32  and  C15_33 
REMARK   14  A    between atoms: C16_34  and  O7_35 
ROOT
HETATM    1  C5  UNL     1      33.713   1.784  11.476  1.00  0.00     0.134 C 
HETATM    2  C6  UNL     1      34.977   2.019  11.768  1.00  0.00     0.136 C 
HETATM    3  C7  UNL     1      35.331   3.334  12.220  1.00  0.00     0.107 C 
HETATM    4  N3  UNL     1      35.602   4.399  12.593  1.00  0.00    -0.191 NA
ENDROOT
BRANCH   2   5
HETATM    5  C8  UNL     1      36.004   0.990  11.642  1.00  0.00     0.305 C 
HETATM    6  O2  UNL     1      37.185   1.341  11.509  1.00  0.00    -0.258 OA
BRANCH   5   7
HETATM    7  O3  UNL     1      35.658  -0.323  11.671  1.00  0.00    -0.314 OA
BRANCH   7   8
HETATM    8  C9  UNL     1      35.803  -1.203  12.735  1.00  0.00     0.220 C 
BRANCH   8   9
HETATM    9  C10 UNL     1      34.550  -2.015  12.959  1.00  0.00     0.283 C 
BRANCH   9  10
HETATM   10  N4  UNL     1      33.342  -1.234  12.849  1.00  0.00    -0.066 N 
ATOM     11  H43 UNL     1      33.510  -0.376  12.324  1.00  0.00     0.275 HD
ATOM     12  H42 UNL     1      32.674  -1.684  12.224  1.00  0.00     0.275 HD
ATOM     13  H41 UNL     1      32.915  -1.029  13.752  1.00  0.00     0.275 HD
ENDBRANCH   9  10
BRANCH   9  14
HETATM   14  C11 UNL     1      34.475  -3.167  12.026  1.00  0.00     0.179 C 
HETATM   15  N5  UNL     1      35.096  -3.104  10.912  1.00  0.00    -0.249 N 
ATOM     16  H5  UNL     1      35.628  -2.257  10.709  1.00  0.00     0.196 HD
BRANCH  15  17
HETATM   17  O4  UNL     1      35.094  -4.074   9.998  1.00  0.00    -0.288 OA
ATOM     18  H4  UNL     1      34.511  -4.100   9.248  1.00  0.00     0.244 HD
ENDBRANCH  15  17
BRANCH  14  19
HETATM   19  O5  UNL     1      33.764  -4.357  12.269  1.00  0.00    -0.262 OA
BRANCH  19  20
HETATM   20  C12 UNL     1      32.425  -4.501  11.850  1.00  0.00     0.261 C 
HETATM   21  C13 UNL     1      31.409  -5.092  12.757  1.00  0.00     0.126 C 
HETATM   22  O6  UNL     1      32.149  -4.109  10.689  1.00  0.00    -0.265 OA
ENDBRANCH  19  20
ENDBRANCH  14  19
ENDBRANCH   9  14
ENDBRANCH   8   9
ENDBRANCH   7   8
ENDBRANCH   5   7
ENDBRANCH   2   5
BRANCH   1  23
HETATM   23  N2  UNL     1      32.738   2.817  11.611  1.00  0.00    -0.285 N 
HETATM   24  S1  UNL     1      32.360   4.117  10.648  1.00  0.00     0.013 SA
HETATM   25  C4  UNL     1      31.306   4.194  11.967  1.00  0.00     0.122 A 
HETATM   26  C14 UNL     1      31.823   3.068  12.550  1.00  0.00     0.101 A 
BRANCH  25  27
HETATM   27  N1  UNL     1      30.252   5.132  12.314  1.00  0.00    -0.318 N 
HETATM   28  C3  UNL     1      28.947   4.980  11.787  1.00  0.00     0.222 C 
HETATM   29  O1  UNL     1      28.753   3.994  11.007  1.00  0.00    -0.273 OA
ATOM     30  H1  UNL     1      30.455   5.909  12.943  1.00  0.00     0.169 HD
BRANCH  28  31
HETATM   31  C2  UNL     1      27.846   5.891  12.099  1.00  0.00     0.098 C 
HETATM   32  C1  UNL     1      28.389   7.257  12.436  1.00  0.00     0.014 C 
ENDBRANCH  28  31
ENDBRANCH  25  27
BRANCH  26  33
HETATM   33  C15 UNL     1      31.445   2.406  13.801  1.00  0.00     0.113 A 
HETATM   34  C16 UNL     1      30.170   1.854  13.955  1.00  0.00     0.162 A 
HETATM   35  N6  UNL     1      29.817   1.247  15.098  1.00  0.00    -0.288 N 
HETATM   36  C17 UNL     1      30.654   1.147  16.118  1.00  0.00     0.329 A 
ATOM     37  H6  UNL     1      28.880   0.851  15.182  1.00  0.00     0.172 HD
HETATM   38  O8  UNL     1      30.367   0.586  17.211  1.00  0.00    -0.247 OA
HETATM   39  N7  UNL     1      31.892   1.663  16.018  1.00  0.00    -0.275 N 
HETATM   40  C18 UNL     1      32.278   2.278  14.888  1.00  0.00     0.266 A 
ATOM     41  H7  UNL     1      32.540   1.588  16.803  1.00  0.00     0.173 HD
HETATM   42  O9  UNL     1      33.415   2.747  14.811  1.00  0.00    -0.267 OA
BRANCH  34  43
HETATM   43  O7  UNL     1      29.246   1.925  12.923  1.00  0.00    -0.345 OA
ATOM     44  H7  UNL     1      28.316   1.865  13.106  1.00  0.00     0.219 HD
ENDBRANCH  34  43
ENDBRANCH  26  33
ENDBRANCH   1  23
TORSDOF 14
ENDMDL
MODEL 2
REMARK VINA RESULT: -8.876629706      0.158      1.369
REMARK  14 active torsions:
REMARK  status: ('A' for Active; 'I' for Inactive)
REMARK    1  A    between atoms: C2_2  and  C3_3 
REMARK       I    between atoms: C3_3  and  N1_5 
REMARK    2  A    between atoms: N1_5  and  C4_7 
REMARK    3  A    between atoms: N2_9  and  C5_10 
REMARK    4  A    between atoms: C6_11  and  C8_14 
REMARK    5  A    between atoms: C8_14  and  O3_16 
REMARK    6  A    between atoms: O3_16  and  C9_17 
REMARK    7  A    between atoms: C9_17  and  C10_18 
REMARK    8  A    between atoms: C10_18  and  N4_19 
REMARK    9  A    between atoms: C10_18  and  C11_23 
REMARK   10  A    between atoms: C11_23  and  O5_28 
REMARK   11  A    between atoms: N5_24  and  O4_26 
REMARK   12  A    between atoms: O5_28  and  C12_29 
REMARK   13  A    between atoms: C14_32  and  C15_33 
REMARK   14  A    between atoms: C16_34  and  O7_35 
ROOT
HETATM    1  C5  UNL     1      33.800   1.811  11.441  1.00  0.00     0.134 C 
HETATM    2  C6  UNL     1      35.061   2.052  11.744  1.00  0.00     0.136 C 
HETATM    3  C7  UNL     1      35.404   3.366  12.202  1.00  0.00     0.107 C 
HETATM    4  N3  UNL     1      35.667   4.432  12.579  1.00  0.00    -0.191 NA
ENDROOT
BRANCH   2   5
HETATM    5  C8  UNL     1      36.093   1.027  11.624  1.00  0.00     0.305 C 
HETATM    6  O2  UNL     1      37.279   1.383  11.555  1.00  0.00    -0.258 OA
BRANCH   5   7
HETATM    7  O3  UNL     1      35.748  -0.286  11.590  1.00  0.00    -0.314 OA
BRANCH   7   8
HETATM    8  C9  UNL     1      35.805  -1.194  12.639  1.00  0.00     0.220 C 
BRANCH   8   9
HETATM    9  C10 UNL     1      34.504  -1.943  12.796  1.00  0.00     0.283 C 
BRANCH   9  10
HETATM   10  N4  UNL     1      33.345  -1.133  12.508  1.00  0.00    -0.066 N 
ATOM     11  H43 UNL     1      32.627  -1.260  13.221  1.00  0.00     0.275 HD
ATOM     12  H42 UNL     1      33.548  -0.144  12.651  1.00  0.00     0.275 HD
ATOM     13  H41 UNL     1      32.965  -1.296  11.576  1.00  0.00     0.275 HD
ENDBRANCH   9  10
BRANCH   9  14
HETATM   14  C11 UNL     1      34.472  -3.161  11.947  1.00  0.00     0.179 C 
HETATM   15  N5  UNL     1      35.127  -3.169  10.851  1.00  0.00    -0.249 N 
ATOM     16  H5  UNL     1      35.654  -2.332  10.602  1.00  0.00     0.196 HD
BRANCH  15  17
HETATM   17  O4  UNL     1      35.167  -4.203  10.010  1.00  0.00    -0.288 OA
ATOM     18  H4  UNL     1      35.066  -4.129   9.068  1.00  0.00     0.244 HD
ENDBRANCH  15  17
BRANCH  14  19
HETATM   19  O5  UNL     1      33.769  -4.340  12.254  1.00  0.00    -0.262 OA
BRANCH  19  20
HETATM   20  C12 UNL     1      32.438  -4.525  11.825  1.00  0.00     0.261 C 
HETATM   21  C13 UNL     1      31.419  -5.089  12.746  1.00  0.00     0.126 C 
HETATM   22  O6  UNL     1      32.172  -4.191  10.644  1.00  0.00    -0.265 OA
ENDBRANCH  19  20
ENDBRANCH  14  19
ENDBRANCH   9  14
ENDBRANCH   8   9
ENDBRANCH   7   8
ENDBRANCH   5   7
ENDBRANCH   2   5
BRANCH   1  23
HETATM   23  N2  UNL     1      32.819   2.839  11.571  1.00  0.00    -0.285 N 
HETATM   24  S1  UNL     1      32.439   4.136  10.605  1.00  0.00     0.013 SA
HETATM   25  C4  UNL     1      31.377   4.208  11.919  1.00  0.00     0.122 A 
HETATM   26  C14 UNL     1      31.897   3.085  12.504  1.00  0.00     0.101 A 
BRANCH  25  27
HETATM   27  N1  UNL     1      30.317   5.142  12.259  1.00  0.00    -0.318 N 
HETATM   28  C3  UNL     1      29.037   5.028  11.665  1.00  0.00     0.222 C 
HETATM   29  O1  UNL     1      28.870   4.081  10.833  1.00  0.00    -0.273 OA
ATOM     30  H1  UNL     1      30.497   5.886  12.932  1.00  0.00     0.169 HD
BRANCH  28  31
HETATM   31  C2  UNL     1      27.930   5.936  11.968  1.00  0.00     0.098 C 
HETATM   32  C1  UNL     1      28.459   7.192  12.614  1.00  0.00     0.014 C 
ENDBRANCH  28  31
ENDBRANCH  25  27
BRANCH  26  33
HETATM   33  C15 UNL     1      31.516   2.423  13.754  1.00  0.00     0.113 A 
HETATM   34  C16 UNL     1      32.403   2.379  14.833  1.00  0.00     0.162 A 
HETATM   35  N6  UNL     1      32.061   1.774  15.980  1.00  0.00    -0.288 N 
HETATM   36  C17 UNL     1      30.880   1.198  16.136  1.00  0.00     0.329 A 
ATOM     37  H6  UNL     1      32.728   1.758  16.753  1.00  0.00     0.172 HD
HETATM   38  O8  UNL     1      30.514   0.617  17.195  1.00  0.00    -0.247 OA
HETATM   39  N7  UNL     1      29.992   1.214  15.126  1.00  0.00    -0.275 N 
HETATM   40  C18 UNL     1      30.302   1.812  13.963  1.00  0.00     0.266 A 
ATOM     41  H7  UNL     1      29.080   0.771  15.243  1.00  0.00     0.173 HD
HETATM   42  O9  UNL     1      29.479   1.818  13.047  1.00  0.00    -0.267 OA
BRANCH  34  43
HETATM   43  O7  UNL     1      33.657   2.964  14.734  1.00  0.00    -0.345 OA
ATOM     44  H7  UNL     1      33.959   3.568  15.403  1.00  0.00     0.219 HD
ENDBRANCH  34  43
ENDBRANCH  26  33
ENDBRANCH   1  23
TORSDOF 14
ENDMDL
MODEL 3
REMARK VINA RESULT: -8.866777835      0.909      1.277
REMARK  14 active torsions:
REMARK  status: ('A' for Active; 'I' for Inactive)
REMARK    1  A    between atoms: C2_2  and  C3_3 
REMARK       I    between atoms: C3_3  and  N1_5 
REMARK    2  A    between atoms: N1_5  and  C4_7 
REMARK    3  A    between atoms: N2_9  and  C5_10 
REMARK    4  A    between atoms: C6_11  and  C8_14 
REMARK    5  A    between atoms: C8_14  and  O3_16 
REMARK    6  A    between atoms: O3_16  and  C9_17 
REMARK    7  A    between atoms: C9_17  and  C10_18 
REMARK    8  A    between atoms: C10_18  and  N4_19 
REMARK    9  A    between atoms: C10_18  and  C11_23 
REMARK   10  A    between atoms: C11_23  and  O5_28 
REMARK   11  A    between atoms: N5_24  and  O4_26 
REMARK   12  A    between atoms: O5_28  and  C12_29 
REMARK   13  A    between atoms: C14_32  and  C15_33 
REMARK   14  A    between atoms: C16_34  and  O7_35 
ROOT
HETATM    1  C5  UNL     1      33.708   1.769  11.500  1.00  0.00     0.134 C 
HETATM    2  C6  UNL     1      34.975   2.016  11.770  1.00  0.00     0.136 C 
HETATM    3  C7  UNL     1      35.327   3.340  12.194  1.00  0.00     0.107 C 
HETATM    4  N3  UNL     1      35.597   4.413  12.544  1.00  0.00    -0.191 NA
ENDROOT
BRANCH   2   5
HETATM    5  C8  UNL     1      36.005   0.990  11.648  1.00  0.00     0.305 C 
HETATM    6  O2  UNL     1      37.186   1.346  11.525  1.00  0.00    -0.258 OA
BRANCH   5   7
HETATM    7  O3  UNL     1      35.663  -0.324  11.669  1.00  0.00    -0.314 OA
BRANCH   7   8
HETATM    8  C9  UNL     1      35.988  -1.257  12.644  1.00  0.00     0.220 C 
BRANCH   8   9
HETATM    9  C10 UNL     1      34.754  -1.886  13.245  1.00  0.00     0.283 C 
BRANCH   9  10
HETATM   10  N4  UNL     1      33.873  -0.925  13.864  1.00  0.00    -0.066 N 
ATOM     11  H43 UNL     1      34.399  -0.269  14.441  1.00  0.00     0.275 HD
ATOM     12  H42 UNL     1      33.499  -0.277  13.172  1.00  0.00     0.275 HD
ATOM     13  H41 UNL     1      33.121  -1.359  14.400  1.00  0.00     0.275 HD
ENDBRANCH   9  10
BRANCH   9  14
HETATM   14  C11 UNL     1      33.995  -2.667  12.236  1.00  0.00     0.179 C 
HETATM   15  N5  UNL     1      33.113  -2.073  11.528  1.00  0.00    -0.249 N 
ATOM     16  H5  UNL     1      32.968  -1.075  11.685  1.00  0.00     0.196 HD
BRANCH  15  17
HETATM   17  O4  UNL     1      32.371  -2.673  10.598  1.00  0.00    -0.288 OA
ATOM     18  H4  UNL     1      31.635  -3.243  10.789  1.00  0.00     0.244 HD
ENDBRANCH  15  17
BRANCH  14  19
HETATM   19  O5  UNL     1      34.170  -4.038  11.979  1.00  0.00    -0.262 OA
BRANCH  19  20
HETATM   20  C12 UNL     1      35.028  -4.481  10.950  1.00  0.00     0.261 C 
HETATM   21  C13 UNL     1      35.816  -5.730  11.108  1.00  0.00     0.126 C 
HETATM   22  O6  UNL     1      35.084  -3.772   9.915  1.00  0.00    -0.265 OA
ENDBRANCH  19  20
ENDBRANCH  14  19
ENDBRANCH   9  14
ENDBRANCH   8   9
ENDBRANCH   7   8
ENDBRANCH   5   7
ENDBRANCH   2   5
BRANCH   1  23
HETATM   23  N2  UNL     1      32.729   2.798  11.630  1.00  0.00    -0.285 N 
HETATM   24  S1  UNL     1      32.348   4.095  10.663  1.00  0.00     0.013 SA
HETATM   25  C4  UNL     1      31.290   4.171  11.980  1.00  0.00     0.122 A 
HETATM   26  C14 UNL     1      31.810   3.048  12.566  1.00  0.00     0.101 A 
BRANCH  25  27
HETATM   27  N1  UNL     1      30.233   5.106  12.321  1.00  0.00    -0.318 N 
HETATM   28  C3  UNL     1      28.931   4.952  11.785  1.00  0.00     0.222 C 
HETATM   29  O1  UNL     1      28.744   3.968  11.002  1.00  0.00    -0.273 OA
ATOM     30  H1  UNL     1      30.430   5.882  12.954  1.00  0.00     0.169 HD
BRANCH  28  31
HETATM   31  C2  UNL     1      27.826   5.861  12.092  1.00  0.00     0.098 C 
HETATM   32  C1  UNL     1      28.365   7.224  12.446  1.00  0.00     0.014 C 
ENDBRANCH  28  31
ENDBRANCH  25  27
BRANCH  26  33
HETATM   33  C15 UNL     1      31.431   2.388  13.818  1.00  0.00     0.113 A 
HETATM   34  C16 UNL     1      30.152   1.848  13.976  1.00  0.00     0.162 A 
HETATM   35  N6  UNL     1      29.798   1.242  15.119  1.00  0.00    -0.288 N 
HETATM   36  C17 UNL     1      30.638   1.132  16.136  1.00  0.00     0.329 A 
ATOM     37  H6  UNL     1      28.857   0.856  15.207  1.00  0.00     0.172 HD
HETATM   38  O8  UNL     1      30.351   0.572  17.229  1.00  0.00    -0.247 OA
HETATM   39  N7  UNL     1      31.881   1.636  16.031  1.00  0.00    -0.275 N 
HETATM   40  C18 UNL     1      32.268   2.249  14.900  1.00  0.00     0.266 A 
ATOM     41  H7  UNL     1      32.531   1.553  16.812  1.00  0.00     0.173 HD
HETATM   42  O9  UNL     1      33.409   2.706  14.818  1.00  0.00    -0.267 OA
BRANCH  34  43
HETATM   43  O7  UNL     1      29.223   1.930  12.948  1.00  0.00    -0.345 OA
ATOM     44  H7  UNL     1      28.293   1.910  13.139  1.00  0.00     0.219 HD
ENDBRANCH  34  43
ENDBRANCH  26  33
ENDBRANCH   1  23
TORSDOF 14
ENDMDL
MODEL 4
REMARK VINA RESULT: -8.720104983      1.289      1.807
REMARK  14 active torsions:
REMARK  status: ('A' for Active; 'I' for Inactive)
REMARK    1  A    between atoms: C2_2  and  C3_3 
REMARK       I    between atoms: C3_3  and  N1_5 
REMARK    2  A    between atoms: N1_5  and  C4_7 
REMARK    3  A    between atoms: N2_9  and  C5_10 
REMARK    4  A    between atoms: C6_11  and  C8_14 
REMARK    5  A    between atoms: C8_14  and  O3_16 
REMARK    6  A    between atoms: O3_16  and  C9_17 
REMARK    7  A    between atoms: C9_17  and  C10_18 
REMARK    8  A    between atoms: C10_18  and  N4_19 
REMARK    9  A    between atoms: C10_18  and  C11_23 
REMARK   10  A    between atoms: C11_23  and  O5_28 
REMARK   11  A    between atoms: N5_24  and  O4_26 
REMARK   12  A    between atoms: O5_28  and  C12_29 
REMARK   13  A    between atoms: C14_32  and  C15_33 
REMARK   14  A    between atoms: C16_34  and  O7_35 
ROOT
HETATM    1  C5  UNL     1      33.698   1.896  11.341  1.00  0.00     0.134 C 
HETATM    2  C6  UNL     1      34.967   2.147  11.598  1.00  0.00     0.136 C 
HETATM    3  C7  UNL     1      35.312   3.455  12.074  1.00  0.00     0.107 C 
HETATM    4  N3  UNL     1      35.576   4.515  12.466  1.00  0.00    -0.191 NA
ENDROOT
BRANCH   2   5
HETATM    5  C8  UNL     1      36.007   1.140  11.412  1.00  0.00     0.305 C 
HETATM    6  O2  UNL     1      36.465   0.962  10.274  1.00  0.00    -0.258 OA
BRANCH   5   7
HETATM    7  O3  UNL     1      36.453   0.418  12.472  1.00  0.00    -0.314 OA
BRANCH   7   8
HETATM    8  C9  UNL     1      36.461  -0.964  12.600  1.00  0.00     0.220 C 
BRANCH   8   9
HETATM    9  C10 UNL     1      35.098  -1.554  12.329  1.00  0.00     0.283 C 
BRANCH   9  10
HETATM   10  N4  UNL     1      35.158  -2.848  11.693  1.00  0.00    -0.066 N 
ATOM     11  H43 UNL     1      35.970  -2.914  11.079  1.00  0.00     0.275 HD
ATOM     12  H42 UNL     1      35.398  -3.574  12.367  1.00  0.00     0.275 HD
ATOM     13  H41 UNL     1      34.303  -3.086  11.190  1.00  0.00     0.275 HD
ENDBRANCH   9  10
BRANCH   9  14
HETATM   14  C11 UNL     1      34.293  -1.658  13.573  1.00  0.00     0.179 C 
HETATM   15  N5  UNL     1      34.477  -0.802  14.503  1.00  0.00    -0.249 N 
ATOM     16  H5  UNL     1      35.174  -0.072  14.350  1.00  0.00     0.196 HD
BRANCH  15  17
HETATM   17  O4  UNL     1      33.816  -0.802  15.661  1.00  0.00    -0.288 OA
ATOM     18  H4  UNL     1      34.148  -0.418  16.464  1.00  0.00     0.244 HD
ENDBRANCH  15  17
BRANCH  14  19
HETATM   19  O5  UNL     1      33.317  -2.639  13.822  1.00  0.00    -0.262 OA
BRANCH  19  20
HETATM   20  C12 UNL     1      31.979  -2.453  13.413  1.00  0.00     0.261 C 
HETATM   21  C13 UNL     1      31.354  -3.373  12.431  1.00  0.00     0.126 C 
HETATM   22  O6  UNL     1      31.363  -1.482  13.919  1.00  0.00    -0.265 OA
ENDBRANCH  19  20
ENDBRANCH  14  19
ENDBRANCH   9  14
ENDBRANCH   8   9
ENDBRANCH   7   8
ENDBRANCH   5   7
ENDBRANCH   2   5
BRANCH   1  23
HETATM   23  N2  UNL     1      32.710   2.907  11.535  1.00  0.00    -0.285 N 
HETATM   24  S1  UNL     1      32.272   4.219  10.615  1.00  0.00     0.013 SA
HETATM   25  C4  UNL     1      31.267   4.248  11.974  1.00  0.00     0.122 A 
HETATM   26  C14 UNL     1      31.826   3.119  12.512  1.00  0.00     0.101 A 
BRANCH  25  27
HETATM   27  N1  UNL     1      30.210   5.158  12.380  1.00  0.00    -0.318 N 
HETATM   28  C3  UNL     1      28.886   4.983  11.910  1.00  0.00     0.222 C 
HETATM   29  O1  UNL     1      28.678   4.004  11.126  1.00  0.00    -0.273 OA
ATOM     30  H1  UNL     1      30.424   5.931  13.011  1.00  0.00     0.169 HD
BRANCH  28  31
HETATM   31  C2  UNL     1      27.780   5.866  12.283  1.00  0.00     0.098 C 
HETATM   32  C1  UNL     1      28.276   7.284  12.412  1.00  0.00     0.014 C 
ENDBRANCH  28  31
ENDBRANCH  25  27
BRANCH  26  33
HETATM   33  C15 UNL     1      31.508   2.424  13.762  1.00  0.00     0.113 A 
HETATM   34  C16 UNL     1      30.254   1.836  13.947  1.00  0.00     0.162 A 
HETATM   35  N6  UNL     1      29.955   1.198  15.088  1.00  0.00    -0.288 N 
HETATM   36  C17 UNL     1      30.828   1.100  16.078  1.00  0.00     0.329 A 
ATOM     37  H6  UNL     1      29.032   0.776  15.196  1.00  0.00     0.172 HD
HETATM   38  O8  UNL     1      30.593   0.511  17.168  1.00  0.00    -0.247 OA
HETATM   39  N7  UNL     1      32.049   1.650  15.947  1.00  0.00    -0.275 N 
HETATM   40  C18 UNL     1      32.380   2.296  14.816  1.00  0.00     0.266 A 
ATOM     41  H7  UNL     1      32.724   1.576  16.707  1.00  0.00     0.173 HD
HETATM   42  O9  UNL     1      33.502   2.796  14.711  1.00  0.00    -0.267 OA
BRANCH  34  43
HETATM   43  O7  UNL     1      29.293   1.903  12.947  1.00  0.00    -0.345 OA
ATOM     44  H7  UNL     1      28.370   1.858  13.166  1.00  0.00     0.219 HD
ENDBRANCH  34  43
ENDBRANCH  26  33
ENDBRANCH   1  23
TORSDOF 14
ENDMDL
MODEL 5
REMARK VINA RESULT: -8.673912768      0.910      1.868
REMARK  14 active torsions:
REMARK  status: ('A' for Active; 'I' for Inactive)
REMARK    1  A    between atoms: C2_2  and  C3_3 
REMARK       I    between atoms: C3_3  and  N1_5 
REMARK    2  A    between atoms: N1_5  and  C4_7 
REMARK    3  A    between atoms: N2_9  and  C5_10 
REMARK    4  A    between atoms: C6_11  and  C8_14 
REMARK    5  A    between atoms: C8_14  and  O3_16 
REMARK    6  A    between atoms: O3_16  and  C9_17 
REMARK    7  A    between atoms: C9_17  and  C10_18 
REMARK    8  A    between atoms: C10_18  and  N4_19 
REMARK    9  A    between atoms: C10_18  and  C11_23 
REMARK   10  A    between atoms: C11_23  and  O5_28 
REMARK   11  A    between atoms: N5_24  and  O4_26 
REMARK   12  A    between atoms: O5_28  and  C12_29 
REMARK   13  A    between atoms: C14_32  and  C15_33 
REMARK   14  A    between atoms: C16_34  and  O7_35 
ROOT
HETATM    1  C5  UNL     1      33.761   1.750  11.561  1.00  0.00     0.134 C 
HETATM    2  C6  UNL     1      35.029   2.001  11.823  1.00  0.00     0.136 C 
HETATM    3  C7  UNL     1      35.386   3.336  12.206  1.00  0.00     0.107 C 
HETATM    4  N3  UNL     1      35.660   4.419  12.522  1.00  0.00    -0.191 NA
ENDROOT
BRANCH   2   5
HETATM    5  C8  UNL     1      36.056   0.968  11.733  1.00  0.00     0.305 C 
HETATM    6  O2  UNL     1      37.246   1.315  11.694  1.00  0.00    -0.258 OA
BRANCH   5   7
HETATM    7  O3  UNL     1      35.702  -0.342  11.691  1.00  0.00    -0.314 OA
BRANCH   7   8
HETATM    8  C9  UNL     1      36.011  -1.323  12.624  1.00  0.00     0.220 C 
BRANCH   8   9
HETATM    9  C10 UNL     1      34.766  -1.938  13.217  1.00  0.00     0.283 C 
BRANCH   9  10
HETATM   10  N4  UNL     1      33.899  -0.970  13.843  1.00  0.00    -0.066 N 
ATOM     11  H43 UNL     1      34.253  -0.023  13.708  1.00  0.00     0.275 HD
ATOM     12  H42 UNL     1      33.017  -0.891  13.338  1.00  0.00     0.275 HD
ATOM     13  H41 UNL     1      33.736  -1.159  14.832  1.00  0.00     0.275 HD
ENDBRANCH   9  10
BRANCH   9  14
HETATM   14  C11 UNL     1      33.996  -2.697  12.198  1.00  0.00     0.179 C 
HETATM   15  N5  UNL     1      33.120  -2.083  11.500  1.00  0.00    -0.249 N 
ATOM     16  H5  UNL     1      32.987  -1.086  11.669  1.00  0.00     0.196 HD
BRANCH  15  17
HETATM   17  O4  UNL     1      32.370  -2.664  10.563  1.00  0.00    -0.288 OA
ATOM     18  H4  UNL     1      31.478  -2.408  10.360  1.00  0.00     0.244 HD
ENDBRANCH  15  17
BRANCH  14  19
HETATM   19  O5  UNL     1      34.155  -4.067  11.924  1.00  0.00    -0.262 OA
BRANCH  19  20
HETATM   20  C12 UNL     1      35.005  -4.506  10.886  1.00  0.00     0.261 C 
HETATM   21  C13 UNL     1      35.754  -5.781  11.012  1.00  0.00     0.126 C 
HETATM   22  O6  UNL     1      35.087  -3.770   9.871  1.00  0.00    -0.265 OA
ENDBRANCH  19  20
ENDBRANCH  14  19
ENDBRANCH   9  14
ENDBRANCH   8   9
ENDBRANCH   7   8
ENDBRANCH   5   7
ENDBRANCH   2   5
BRANCH   1  23
HETATM   23  N2  UNL     1      32.786   2.786  11.660  1.00  0.00    -0.285 N 
HETATM   24  S1  UNL     1      32.459   4.097  10.693  1.00  0.00     0.013 SA
HETATM   25  C4  UNL     1      31.345   4.168  11.961  1.00  0.00     0.122 A 
HETATM   26  C14 UNL     1      31.828   3.033  12.557  1.00  0.00     0.101 A 
BRANCH  25  27
HETATM   27  N1  UNL     1      30.281   5.108  12.267  1.00  0.00    -0.318 N 
HETATM   28  C3  UNL     1      29.038   5.037  11.592  1.00  0.00     0.222 C 
HETATM   29  O1  UNL     1      28.908   4.121  10.720  1.00  0.00    -0.273 OA
ATOM     30  H1  UNL     1      30.431   5.827  12.974  1.00  0.00     0.169 HD
BRANCH  28  31
HETATM   31  C2  UNL     1      27.930   5.954  11.856  1.00  0.00     0.098 C 
HETATM   32  C1  UNL     1      28.432   7.165  12.603  1.00  0.00     0.014 C 
ENDBRANCH  28  31
ENDBRANCH  25  27
BRANCH  26  33
HETATM   33  C15 UNL     1      31.389   2.362  13.783  1.00  0.00     0.113 A 
HETATM   34  C16 UNL     1      32.254   2.240  14.874  1.00  0.00     0.162 A 
HETATM   35  N6  UNL     1      31.858   1.627  16.000  1.00  0.00    -0.288 N 
HETATM   36  C17 UNL     1      30.644   1.117  16.122  1.00  0.00     0.329 A 
ATOM     37  H6  UNL     1      32.510   1.553  16.781  1.00  0.00     0.172 HD
HETATM   38  O8  UNL     1      30.227   0.532  17.159  1.00  0.00    -0.247 OA
HETATM   39  N7  UNL     1      29.775   1.210  15.099  1.00  0.00    -0.275 N 
HETATM   40  C18 UNL     1      30.138   1.818  13.958  1.00  0.00     0.266 A 
ATOM     41  H7  UNL     1      28.837   0.818  15.190  1.00  0.00     0.173 HD
HETATM   42  O9  UNL     1      29.332   1.895  13.029  1.00  0.00    -0.267 OA
BRANCH  34  43
HETATM   43  O7  UNL     1      33.541   2.753  14.809  1.00  0.00    -0.345 OA
ATOM     44  H7  UNL     1      34.286   2.214  15.048  1.00  0.00     0.219 HD
ENDBRANCH  34  43
ENDBRANCH  26  33
ENDBRANCH   1  23
TORSDOF 14
ENDMDL
