MODEL 1
REMARK VINA RESULT: -9.446735825      0.000      0.000
REMARK  12 active torsions:
REMARK  status: ('A' for Active; 'I' for Inactive)
REMARK    1  A    between atoms: N1_2  and  C2_4 
REMARK    2  A    between atoms: C3_9  and  C4_10 
REMARK    3  A    between atoms: C4_10  and  O1_11 
REMARK    4  A    between atoms: C4_10  and  O2_13 
REMARK    5  A    between atoms: N4_17  and  C7_19 
REMARK    6  A    between atoms: C9_21  and  N5_22 
REMARK    7  A    between atoms: N5_22  and  C10_24 
REMARK    8  A    between atoms: C10_24  and  C11_25 
REMARK    9  A    between atoms: C16_34  and  O3_35 
REMARK   10  A    between atoms: O3_35  and  C17_36 
REMARK   11  A    between atoms: C18_39  and  N9_40 
REMARK   12  A    between atoms: C19_45  and  N11_46 
ROOT
HETATM    1  C7  UNL     1      31.329   0.055  15.394  1.00  0.00     0.093 C 
HETATM    2  C8  UNL     1      30.392   0.372  14.214  1.00  0.00     0.101 C 
HETATM    3  C9  UNL     1      30.299   1.818  13.992  1.00  0.00     0.076 C 
HETATM    4  N7  UNL     1      31.413   2.470  13.939  1.00  0.00    -0.353 N 
ATOM      5  H7  UNL     1      31.414   3.479  13.787  1.00  0.00     0.163 HD
HETATM    6  C16 UNL     1      32.643   1.762  14.097  1.00  0.00     0.233 C 
HETATM    7  C20 UNL     1      32.656   0.740  15.205  1.00  0.00     0.079 C 
ENDROOT
BRANCH   1   8
HETATM    8  N4  UNL     1      30.658   0.342  16.589  1.00  0.00    -0.376 N 
HETATM    9  C6  UNL     1      29.884  -0.275  17.382  1.00  0.00     0.117 A 
HETATM   10  C2  UNL     1      29.432  -1.571  17.267  1.00  0.00     0.149 A 
HETATM   11  S1  UNL     1      29.255   0.517  18.804  1.00  0.00    -0.049 SA
HETATM   12  N2  UNL     1      28.599  -2.182  18.136  1.00  0.00    -0.283 N 
HETATM   13  N3  UNL     1      28.076  -1.698  19.212  1.00  0.00    -0.292 N 
ATOM     14  H2  UNL     1      28.353  -3.147  17.914  1.00  0.00     0.188 HD
HETATM   15  C3  UNL     1      28.239  -0.484  19.709  1.00  0.00     0.123 A 
ATOM     16  H3  UNL     1      27.467  -2.324  19.739  1.00  0.00     0.187 HD
ATOM     17  H4  UNL     1      30.840   1.295  16.904  1.00  0.00     0.160 HD
BRANCH  10  18
HETATM   18  N1  UNL     1      29.855  -2.251  16.229  1.00  0.00    -0.377 N 
HETATM   19  C1  UNL     1      30.319  -3.602  16.422  1.00  0.00     0.148 C 
ATOM     20  H1  UNL     1      29.856  -1.831  15.300  1.00  0.00     0.160 HD
ENDBRANCH  10  18
BRANCH  15  21
HETATM   21  C4  UNL     1      27.554  -0.060  20.990  1.00  0.00     0.316 C 
BRANCH  21  22
HETATM   22  O1  UNL     1      26.179  -0.140  20.707  1.00  0.00    -0.365 OA
ATOM     23  H1  UNL     1      25.895   0.762  20.620  1.00  0.00     0.213 HD
ENDBRANCH  21  22
BRANCH  21  24
HETATM   24  O2  UNL     1      27.817  -0.939  22.009  1.00  0.00    -0.360 OA
HETATM   25  C5  UNL     1      29.150  -1.124  22.281  1.00  0.00     0.205 C 
ENDBRANCH  21  24
ENDBRANCH  15  21
ENDBRANCH   1   8
BRANCH   3  26
HETATM   26  N5  UNL     1      29.030   2.438  13.847  1.00  0.00    -0.376 N 
ATOM     27  H5  UNL     1      28.471   2.576  14.689  1.00  0.00     0.161 HD
BRANCH  26  28
HETATM   28  C10 UNL     1      28.476   2.888  12.591  1.00  0.00     0.160 C 
BRANCH  28  29
HETATM   29  C11 UNL     1      28.538   4.345  12.493  1.00  0.00    -0.025 A 
HETATM   30  C12 UNL     1      29.628   4.962  11.918  1.00  0.00     0.011 A 
HETATM   31  C13 UNL     1      29.680   6.343  11.829  1.00  0.00     0.018 A 
HETATM   32  C14 UNL     1      28.611   7.061  12.334  1.00  0.00     0.087 A 
HETATM   33  N6  UNL     1      27.554   6.469  12.892  1.00  0.00    -0.375 N 
HETATM   34  C15 UNL     1      27.525   5.130  12.968  1.00  0.00     0.096 A 
ATOM     35  H6  UNL     1      26.781   7.026  13.255  1.00  0.00     0.164 HD
ENDBRANCH  28  29
ENDBRANCH  26  28
ENDBRANCH   3  26
BRANCH   6  36
HETATM   36  O3  UNL     1      33.761   2.623  14.168  1.00  0.00    -0.295 OA
BRANCH  36  37
HETATM   37  C17 UNL     1      34.727   2.691  13.183  1.00  0.00     0.254 A 
HETATM   38  N8  UNL     1      35.214   1.556  12.659  1.00  0.00    -0.154 N 
HETATM   39  C18 UNL     1      36.169   1.580  11.685  1.00  0.00     0.693 A 
ATOM     40  H8  UNL     1      34.863   0.658  12.994  1.00  0.00     0.188 HD
HETATM   41  N10 UNL     1      36.632   2.741  11.240  1.00  0.00    -0.023 N 
HETATM   42  C19 UNL     1      36.159   3.885  11.749  1.00  0.00     0.693 A 
ATOM     43  H10 UNL     1      37.345   2.761  10.511  1.00  0.00     0.203 HD
HETATM   44  N12 UNL     1      35.203   3.855  12.724  1.00  0.00    -0.154 N 
ATOM     45  H12 UNL     1      34.847   4.731  13.108  1.00  0.00     0.188 HD
BRANCH  39  46
HETATM   46  N9  UNL     1      36.614   0.470  11.204  1.00  0.00    -0.234 N 
ATOM     47  H92 UNL     1      36.262   0.113  10.316  1.00  0.00     0.174 HD
ATOM     48  H91 UNL     1      37.322  -0.052  11.721  1.00  0.00     0.174 HD
ENDBRANCH  39  46
BRANCH  42  49
HETATM   49  N11 UNL     1      36.597   5.007  11.328  1.00  0.00    -0.234 N 
ATOM     50 2H11 UNL     1      37.537   5.069  10.935  1.00  0.00     0.174 HD
ATOM     51 1H11 UNL     1      36.013   5.842  11.382  1.00  0.00     0.174 HD
ENDBRANCH  42  49
ENDBRANCH  36  37
ENDBRANCH   6  36
TORSDOF 12
ENDMDL
MODEL 2
REMARK VINA RESULT: -9.273307248      3.821      7.273
REMARK  12 active torsions:
REMARK  status: ('A' for Active; 'I' for Inactive)
REMARK    1  A    between atoms: N1_2  and  C2_4 
REMARK    2  A    between atoms: C3_9  and  C4_10 
REMARK    3  A    between atoms: C4_10  and  O1_11 
REMARK    4  A    between atoms: C4_10  and  O2_13 
REMARK    5  A    between atoms: N4_17  and  C7_19 
REMARK    6  A    between atoms: C9_21  and  N5_22 
REMARK    7  A    between atoms: N5_22  and  C10_24 
REMARK    8  A    between atoms: C10_24  and  C11_25 
REMARK    9  A    between atoms: C16_34  and  O3_35 
REMARK   10  A    between atoms: O3_35  and  C17_36 
REMARK   11  A    between atoms: C18_39  and  N9_40 
REMARK   12  A    between atoms: C19_45  and  N11_46 
ROOT
HETATM    1  C7  UNL     1      30.421  -0.136  14.151  1.00  0.00     0.093 C 
HETATM    2  C8  UNL     1      31.166   0.670  15.229  1.00  0.00     0.101 C 
HETATM    3  C9  UNL     1      31.752   1.889  14.661  1.00  0.00     0.076 C 
HETATM    4  N7  UNL     1      30.976   2.620  13.932  1.00  0.00    -0.353 N 
ATOM      5  H7  UNL     1      31.326   3.480  13.508  1.00  0.00     0.163 HD
HETATM    6  C16 UNL     1      29.624   2.210  13.724  1.00  0.00     0.233 C 
HETATM    7  C20 UNL     1      29.439   0.744  13.425  1.00  0.00     0.079 C 
ENDROOT
BRANCH   1   8
HETATM    8  N4  UNL     1      31.364  -0.790  13.348  1.00  0.00    -0.376 N 
HETATM    9  C6  UNL     1      31.934  -1.922  13.333  1.00  0.00     0.117 A 
HETATM   10  C2  UNL     1      31.757  -2.958  14.224  1.00  0.00     0.149 A 
HETATM   11  S1  UNL     1      33.100  -2.313  12.095  1.00  0.00    -0.049 SA
HETATM   12  N2  UNL     1      32.396  -4.145  14.171  1.00  0.00    -0.283 N 
HETATM   13  N3  UNL     1      33.271  -4.541  13.308  1.00  0.00    -0.292 N 
ATOM     14  H2  UNL     1      32.158  -4.813  14.904  1.00  0.00     0.188 HD
HETATM   15  C3  UNL     1      33.742  -3.866  12.274  1.00  0.00     0.123 A 
ATOM     16  H3  UNL     1      33.641  -5.482  13.440  1.00  0.00     0.187 HD
ATOM     17  H4  UNL     1      31.672  -0.202  12.573  1.00  0.00     0.160 HD
BRANCH  10  18
HETATM   18  N1  UNL     1      30.894  -2.760  15.191  1.00  0.00    -0.377 N 
HETATM   19  C1  UNL     1      30.489  -3.878  16.006  1.00  0.00     0.148 C 
ATOM     20  H1  UNL     1      30.514  -1.829  15.364  1.00  0.00     0.160 HD
ENDBRANCH  10  18
BRANCH  15  21
HETATM   21  C4  UNL     1      34.773  -4.469  11.344  1.00  0.00     0.316 C 
BRANCH  21  22
HETATM   22  O1  UNL     1      34.878  -3.554  10.282  1.00  0.00    -0.365 OA
ATOM     23  H1  UNL     1      35.805  -3.529  10.073  1.00  0.00     0.213 HD
ENDBRANCH  21  22
BRANCH  21  24
HETATM   24  O2  UNL     1      36.002  -4.543  11.948  1.00  0.00    -0.360 OA
HETATM   25  C5  UNL     1      36.487  -5.817  12.111  1.00  0.00     0.205 C 
ENDBRANCH  21  24
ENDBRANCH  15  21
ENDBRANCH   1   8
BRANCH   3  26
HETATM   26  N5  UNL     1      33.108   2.218  14.921  1.00  0.00    -0.376 N 
ATOM     27  H5  UNL     1      33.298   3.086  15.421  1.00  0.00     0.161 HD
BRANCH  26  28
HETATM   28  C10 UNL     1      34.238   1.407  14.527  1.00  0.00     0.160 C 
BRANCH  28  29
HETATM   29  C11 UNL     1      34.809   1.897  13.274  1.00  0.00    -0.025 A 
HETATM   30  C12 UNL     1      34.841   3.247  13.000  1.00  0.00     0.011 A 
HETATM   31  C13 UNL     1      35.383   3.704  11.811  1.00  0.00     0.018 A 
HETATM   32  C14 UNL     1      35.882   2.764  10.928  1.00  0.00     0.087 A 
HETATM   33  N6  UNL     1      35.854   1.456  11.188  1.00  0.00    -0.375 N 
HETATM   34  C15 UNL     1      35.323   1.035  12.346  1.00  0.00     0.096 A 
ATOM     35  H6  UNL     1      36.230   0.787  10.517  1.00  0.00     0.164 HD
ENDBRANCH  28  29
ENDBRANCH  26  28
ENDBRANCH   3  26
BRANCH   6  36
HETATM   36  O3  UNL     1      28.947   3.023  12.787  1.00  0.00    -0.295 OA
BRANCH  36  37
HETATM   37  C17 UNL     1      29.519   4.134  12.197  1.00  0.00     0.254 A 
HETATM   38  N8  UNL     1      29.225   5.355  12.670  1.00  0.00    -0.154 N 
HETATM   39  C18 UNL     1      29.768   6.477  12.115  1.00  0.00     0.693 A 
ATOM     40  H8  UNL     1      28.584   5.446  13.458  1.00  0.00     0.188 HD
HETATM   41  N10 UNL     1      30.603   6.371  11.090  1.00  0.00    -0.023 N 
HETATM   42  C19 UNL     1      30.911   5.162  10.604  1.00  0.00     0.693 A 
ATOM     43  H10 UNL     1      31.011   7.209  10.674  1.00  0.00     0.203 HD
HETATM   44  N12 UNL     1      30.364   4.043  11.163  1.00  0.00    -0.154 N 
ATOM     45  H12 UNL     1      30.603   3.125  10.787  1.00  0.00     0.188 HD
BRANCH  39  46
HETATM   46  N9  UNL     1      29.462   7.633  12.594  1.00  0.00    -0.234 N 
ATOM     47  H92 UNL     1      28.869   8.273  12.067  1.00  0.00     0.174 HD
ATOM     48  H91 UNL     1      29.821   7.907  13.509  1.00  0.00     0.174 HD
ENDBRANCH  39  46
BRANCH  42  49
HETATM   49  N11 UNL     1      31.714   5.050   9.618  1.00  0.00    -0.234 N 
ATOM     50 2H11 UNL     1      31.741   5.775   8.901  1.00  0.00     0.174 HD
ATOM     51 1H11 UNL     1      32.328   4.238   9.545  1.00  0.00     0.174 HD
ENDBRANCH  42  49
ENDBRANCH  36  37
ENDBRANCH   6  36
TORSDOF 12
ENDMDL
MODEL 3
REMARK VINA RESULT: -9.238962118      3.816      7.198
REMARK  12 active torsions:
REMARK  status: ('A' for Active; 'I' for Inactive)
REMARK    1  A    between atoms: N1_2  and  C2_4 
REMARK    2  A    between atoms: C3_9  and  C4_10 
REMARK    3  A    between atoms: C4_10  and  O1_11 
REMARK    4  A    between atoms: C4_10  and  O2_13 
REMARK    5  A    between atoms: N4_17  and  C7_19 
REMARK    6  A    between atoms: C9_21  and  N5_22 
REMARK    7  A    between atoms: N5_22  and  C10_24 
REMARK    8  A    between atoms: C10_24  and  C11_25 
REMARK    9  A    between atoms: C16_34  and  O3_35 
REMARK   10  A    between atoms: O3_35  and  C17_36 
REMARK   11  A    between atoms: C18_39  and  N9_40 
REMARK   12  A    between atoms: C19_45  and  N11_46 
ROOT
HETATM    1  C7  UNL     1      30.416  -0.128  14.155  1.00  0.00     0.093 C 
HETATM    2  C8  UNL     1      31.157   0.685  15.232  1.00  0.00     0.101 C 
HETATM    3  C9  UNL     1      31.738   1.905  14.661  1.00  0.00     0.076 C 
HETATM    4  N7  UNL     1      30.960   2.630  13.928  1.00  0.00    -0.353 N 
ATOM      5  H7  UNL     1      31.306   3.490  13.502  1.00  0.00     0.163 HD
HETATM    6  C16 UNL     1      29.610   2.213  13.720  1.00  0.00     0.233 C 
HETATM    7  C20 UNL     1      29.431   0.746  13.426  1.00  0.00     0.079 C 
ENDROOT
BRANCH   1   8
HETATM    8  N4  UNL     1      31.362  -0.781  13.355  1.00  0.00    -0.376 N 
HETATM    9  C6  UNL     1      31.938  -1.910  13.345  1.00  0.00     0.117 A 
HETATM   10  C2  UNL     1      31.766  -2.943  14.240  1.00  0.00     0.149 A 
HETATM   11  S1  UNL     1      33.107  -2.300  12.109  1.00  0.00    -0.049 SA
HETATM   12  N2  UNL     1      32.410  -4.127  14.192  1.00  0.00    -0.283 N 
HETATM   13  N3  UNL     1      33.287  -4.522  13.331  1.00  0.00    -0.292 N 
ATOM     14  H2  UNL     1      32.175  -4.794  14.928  1.00  0.00     0.188 HD
HETATM   15  C3  UNL     1      33.756  -3.849  12.295  1.00  0.00     0.123 A 
ATOM     16  H3  UNL     1      33.661  -5.462  13.466  1.00  0.00     0.187 HD
ATOM     17  H4  UNL     1      31.668  -0.194  12.578  1.00  0.00     0.160 HD
BRANCH  10  18
HETATM   18  N1  UNL     1      30.901  -2.746  15.205  1.00  0.00    -0.377 N 
HETATM   19  C1  UNL     1      30.488  -3.866  16.014  1.00  0.00     0.148 C 
ATOM     20  H1  UNL     1      30.526  -1.813  15.383  1.00  0.00     0.160 HD
ENDBRANCH  10  18
BRANCH  15  21
HETATM   21  C4  UNL     1      34.790  -4.451  11.368  1.00  0.00     0.316 C 
BRANCH  21  22
HETATM   22  O1  UNL     1      34.880  -3.548  10.294  1.00  0.00    -0.365 OA
ATOM     23  H1  UNL     1      35.685  -3.781   9.846  1.00  0.00     0.213 HD
ENDBRANCH  21  22
BRANCH  21  24
HETATM   24  O2  UNL     1      36.023  -4.503  11.966  1.00  0.00    -0.360 OA
HETATM   25  C5  UNL     1      36.518  -5.769  12.155  1.00  0.00     0.205 C 
ENDBRANCH  21  24
ENDBRANCH  15  21
ENDBRANCH   1   8
BRANCH   3  26
HETATM   26  N5  UNL     1      33.092   2.239  14.921  1.00  0.00    -0.376 N 
ATOM     27  H5  UNL     1      33.279   3.111  15.416  1.00  0.00     0.161 HD
BRANCH  26  28
HETATM   28  C10 UNL     1      34.226   1.430  14.534  1.00  0.00     0.160 C 
BRANCH  28  29
HETATM   29  C11 UNL     1      34.799   1.914  13.280  1.00  0.00    -0.025 A 
HETATM   30  C12 UNL     1      34.837   3.264  13.003  1.00  0.00     0.011 A 
HETATM   31  C13 UNL     1      35.381   3.716  11.813  1.00  0.00     0.018 A 
HETATM   32  C14 UNL     1      35.875   2.772  10.932  1.00  0.00     0.087 A 
HETATM   33  N6  UNL     1      35.841   1.465  11.194  1.00  0.00    -0.375 N 
HETATM   34  C15 UNL     1      35.308   1.049  12.353  1.00  0.00     0.096 A 
ATOM     35  H6  UNL     1      36.213   0.792  10.524  1.00  0.00     0.164 HD
ENDBRANCH  28  29
ENDBRANCH  26  28
ENDBRANCH   3  26
BRANCH   6  36
HETATM   36  O3  UNL     1      28.931   3.020  12.779  1.00  0.00    -0.295 OA
BRANCH  36  37
HETATM   37  C17 UNL     1      29.477   4.164  12.230  1.00  0.00     0.254 A 
HETATM   38  N8  UNL     1      30.322   4.057  11.192  1.00  0.00    -0.154 N 
HETATM   39  C18 UNL     1      30.884   5.162  10.622  1.00  0.00     0.693 A 
ATOM     40  H8  UNL     1      30.548   3.133  10.822  1.00  0.00     0.188 HD
HETATM   41  N10 UNL     1      30.597   6.369  11.092  1.00  0.00    -0.023 N 
HETATM   42  C19 UNL     1      29.757   6.497  12.127  1.00  0.00     0.693 A 
ATOM     43  H10 UNL     1      31.016   7.196  10.667  1.00  0.00     0.203 HD
HETATM   44  N12 UNL     1      29.198   5.388  12.694  1.00  0.00    -0.154 N 
ATOM     45  H12 UNL     1      28.558   5.493  13.482  1.00  0.00     0.188 HD
BRANCH  39  46
HETATM   46  N9  UNL     1      31.690   5.022   9.627  1.00  0.00    -0.234 N 
ATOM     47  H92 UNL     1      31.384   4.556   8.773  1.00  0.00     0.174 HD
ATOM     48  H91 UNL     1      32.643   5.379   9.699  1.00  0.00     0.174 HD
ENDBRANCH  39  46
BRANCH  42  49
HETATM   49  N11 UNL     1      29.474   7.654  12.587  1.00  0.00    -0.234 N 
ATOM     50 2H11 UNL     1      30.211   8.230  12.996  1.00  0.00     0.174 HD
ATOM     51 1H11 UNL     1      28.517   8.004  12.548  1.00  0.00     0.174 HD
ENDBRANCH  42  49
ENDBRANCH  36  37
ENDBRANCH   6  36
TORSDOF 12
ENDMDL
MODEL 4
REMARK VINA RESULT: -9.027164212      2.680      8.725
REMARK  12 active torsions:
REMARK  status: ('A' for Active; 'I' for Inactive)
REMARK    1  A    between atoms: N1_2  and  C2_4 
REMARK    2  A    between atoms: C3_9  and  C4_10 
REMARK    3  A    between atoms: C4_10  and  O1_11 
REMARK    4  A    between atoms: C4_10  and  O2_13 
REMARK    5  A    between atoms: N4_17  and  C7_19 
REMARK    6  A    between atoms: C9_21  and  N5_22 
REMARK    7  A    between atoms: N5_22  and  C10_24 
REMARK    8  A    between atoms: C10_24  and  C11_25 
REMARK    9  A    between atoms: C16_34  and  O3_35 
REMARK   10  A    between atoms: O3_35  and  C17_36 
REMARK   11  A    between atoms: C18_39  and  N9_40 
REMARK   12  A    between atoms: C19_45  and  N11_46 
ROOT
HETATM    1  C7  UNL     1      29.760   0.033  14.912  1.00  0.00     0.093 C 
HETATM    2  C8  UNL     1      30.836  -1.058  14.768  1.00  0.00     0.101 C 
HETATM    3  C9  UNL     1      32.010  -0.748  15.592  1.00  0.00     0.076 C 
HETATM    4  N7  UNL     1      31.786  -0.420  16.821  1.00  0.00    -0.353 N 
ATOM      5  H7  UNL     1      32.562  -0.193  17.443  1.00  0.00     0.163 HD
HETATM    6  C16 UNL     1      30.441  -0.378  17.297  1.00  0.00     0.233 C 
HETATM    7  C20 UNL     1      29.452   0.275  16.366  1.00  0.00     0.079 C 
ENDROOT
BRANCH   1   8
HETATM    8  N4  UNL     1      30.159   1.156  14.177  1.00  0.00    -0.376 N 
HETATM    9  C6  UNL     1      29.592   2.046  13.473  1.00  0.00     0.117 A 
HETATM   10  C2  UNL     1      28.247   2.164  13.202  1.00  0.00     0.149 A 
HETATM   11  S1  UNL     1      30.529   3.301  12.704  1.00  0.00    -0.049 SA
HETATM   12  N2  UNL     1      27.691   3.126  12.436  1.00  0.00    -0.283 N 
HETATM   13  N3  UNL     1      28.281   4.096  11.824  1.00  0.00    -0.292 N 
ATOM     14  H2  UNL     1      26.678   3.080  12.328  1.00  0.00     0.188 HD
HETATM   15  C3  UNL     1      29.574   4.368  11.808  1.00  0.00     0.123 A 
ATOM     16  H3  UNL     1      27.681   4.726  11.291  1.00  0.00     0.187 HD
ATOM     17  H4  UNL     1      31.169   1.296  14.220  1.00  0.00     0.160 HD
BRANCH  10  18
HETATM   18  N1  UNL     1      27.458   1.265  13.741  1.00  0.00    -0.377 N 
HETATM   19  C1  UNL     1      26.345   1.705  14.544  1.00  0.00     0.148 C 
ATOM     20  H1  UNL     1      27.629   0.270  13.594  1.00  0.00     0.160 HD
ENDBRANCH  10  18
BRANCH  15  21
HETATM   21  C4  UNL     1      30.121   5.551  11.038  1.00  0.00     0.316 C 
BRANCH  21  22
HETATM   22  O1  UNL     1      30.026   5.176   9.686  1.00  0.00    -0.365 OA
ATOM     23  H1  UNL     1      30.292   4.264   9.667  1.00  0.00     0.213 HD
ENDBRANCH  21  22
BRANCH  21  24
HETATM   24  O2  UNL     1      29.337   6.663  11.213  1.00  0.00    -0.360 OA
HETATM   25  C5  UNL     1      29.463   7.269  12.438  1.00  0.00     0.205 C 
ENDBRANCH  21  24
ENDBRANCH  15  21
ENDBRANCH   1   8
BRANCH   3  26
HETATM   26  N5  UNL     1      33.313  -0.816  15.032  1.00  0.00    -0.376 N 
ATOM     27  H5  UNL     1      33.587  -1.683  14.571  1.00  0.00     0.161 HD
BRANCH  26  28
HETATM   28  C10 UNL     1      34.277   0.260  15.068  1.00  0.00     0.160 C 
BRANCH  28  29
HETATM   29  C11 UNL     1      34.201   1.061  13.848  1.00  0.00    -0.025 A 
HETATM   30  C12 UNL     1      34.499   2.406  13.875  1.00  0.00     0.011 A 
HETATM   31  C13 UNL     1      34.424   3.160  12.716  1.00  0.00     0.018 A 
HETATM   32  C14 UNL     1      34.046   2.514  11.553  1.00  0.00     0.087 A 
HETATM   33  N6  UNL     1      33.756   1.213  11.521  1.00  0.00    -0.375 N 
HETATM   34  C15 UNL     1      33.834   0.502  12.656  1.00  0.00     0.096 A 
ATOM     35  H6  UNL     1      33.480   0.765  10.647  1.00  0.00     0.164 HD
ENDBRANCH  28  29
ENDBRANCH  26  28
ENDBRANCH   3  26
BRANCH   6  36
HETATM   36  O3  UNL     1      30.344   0.142  18.608  1.00  0.00    -0.295 OA
BRANCH  36  37
HETATM   37  C17 UNL     1      29.406  -0.291  19.525  1.00  0.00     0.254 A 
HETATM   38  N8  UNL     1      29.392  -1.582  19.892  1.00  0.00    -0.154 N 
HETATM   39  C18 UNL     1      28.481  -2.049  20.795  1.00  0.00     0.693 A 
ATOM     40  H8  UNL     1      30.074  -2.225  19.491  1.00  0.00     0.188 HD
HETATM   41  N10 UNL     1      27.590  -1.222  21.326  1.00  0.00    -0.023 N 
HETATM   42  C19 UNL     1      27.588   0.070  20.973  1.00  0.00     0.693 A 
ATOM     43  H10 UNL     1      26.909  -1.569  22.001  1.00  0.00     0.203 HD
HETATM   44  N12 UNL     1      28.501   0.531  20.069  1.00  0.00    -0.154 N 
ATOM     45  H12 UNL     1      28.494   1.517  19.805  1.00  0.00     0.188 HD
BRANCH  39  46
HETATM   46  N9  UNL     1      28.496  -3.295  21.124  1.00  0.00    -0.234 N 
ATOM     47  H92 UNL     1      27.801  -3.939  20.749  1.00  0.00     0.174 HD
ATOM     48  H91 UNL     1      29.211  -3.634  21.768  1.00  0.00     0.174 HD
ENDBRANCH  39  46
BRANCH  42  49
HETATM   49  N11 UNL     1      26.735   0.873  21.478  1.00  0.00    -0.234 N 
ATOM     50 2H11 UNL     1      25.949   0.506  22.016  1.00  0.00     0.174 HD
ATOM     51 1H11 UNL     1      26.835   1.880  21.346  1.00  0.00     0.174 HD
ENDBRANCH  42  49
ENDBRANCH  36  37
ENDBRANCH   6  36
TORSDOF 12
ENDMDL
MODEL 5
REMARK VINA RESULT: -8.886332926      2.752      8.803
REMARK  12 active torsions:
REMARK  status: ('A' for Active; 'I' for Inactive)
REMARK    1  A    between atoms: N1_2  and  C2_4 
REMARK    2  A    between atoms: C3_9  and  C4_10 
REMARK    3  A    between atoms: C4_10  and  O1_11 
REMARK    4  A    between atoms: C4_10  and  O2_13 
REMARK    5  A    between atoms: N4_17  and  C7_19 
REMARK    6  A    between atoms: C9_21  and  N5_22 
REMARK    7  A    between atoms: N5_22  and  C10_24 
REMARK    8  A    between atoms: C10_24  and  C11_25 
REMARK    9  A    between atoms: C16_34  and  O3_35 
REMARK   10  A    between atoms: O3_35  and  C17_36 
REMARK   11  A    between atoms: C18_39  and  N9_40 
REMARK   12  A    between atoms: C19_45  and  N11_46 
ROOT
HETATM    1  C7  UNL     1      29.289   0.324  14.956  1.00  0.00     0.093 C 
HETATM    2  C8  UNL     1      30.325  -0.813  14.934  1.00  0.00     0.101 C 
HETATM    3  C9  UNL     1      31.494  -0.473  15.752  1.00  0.00     0.076 C 
HETATM    4  N7  UNL     1      31.260  -0.028  16.942  1.00  0.00    -0.353 N 
ATOM      5  H7  UNL     1      32.032   0.226  17.558  1.00  0.00     0.163 HD
HETATM    6  C16 UNL     1      29.909   0.104  17.382  1.00  0.00     0.233 C 
HETATM    7  C20 UNL     1      28.962   0.706  16.375  1.00  0.00     0.079 C 
ENDROOT
BRANCH   1   8
HETATM    8  N4  UNL     1      29.743   1.362  14.133  1.00  0.00    -0.376 N 
HETATM    9  C6  UNL     1      29.221   2.218  13.357  1.00  0.00     0.117 A 
HETATM   10  C2  UNL     1      27.883   2.381  13.073  1.00  0.00     0.149 A 
HETATM   11  S1  UNL     1      30.220   3.357  12.491  1.00  0.00    -0.049 SA
HETATM   12  N2  UNL     1      27.376   3.304  12.230  1.00  0.00    -0.283 N 
HETATM   13  N3  UNL     1      28.014   4.190  11.542  1.00  0.00    -0.292 N 
ATOM     14  H2  UNL     1      26.361   3.301  12.123  1.00  0.00     0.188 HD
HETATM   15  C3  UNL     1      29.319   4.394  11.508  1.00  0.00     0.123 A 
ATOM     16  H3  UNL     1      27.445   4.804  10.958  1.00  0.00     0.187 HD
ATOM     17  H4  UNL     1      30.758   1.454  14.168  1.00  0.00     0.160 HD
BRANCH  10  18
HETATM   18  N1  UNL     1      27.050   1.571  13.681  1.00  0.00    -0.377 N 
HETATM   19  C1  UNL     1      25.751   2.064  14.064  1.00  0.00     0.148 C 
ATOM     20  H1  UNL     1      27.318   0.607  13.881  1.00  0.00     0.160 HD
ENDBRANCH  10  18
BRANCH  15  21
HETATM   21  C4  UNL     1      29.924   5.481  10.645  1.00  0.00     0.316 C 
BRANCH  21  22
HETATM   22  O1  UNL     1      29.367   6.678  11.129  1.00  0.00    -0.365 OA
ATOM     23  H1  UNL     1      28.444   6.488  11.245  1.00  0.00     0.213 HD
ENDBRANCH  21  22
BRANCH  21  24
HETATM   24  O2  UNL     1      31.282   5.557  10.821  1.00  0.00    -0.360 OA
HETATM   25  C5  UNL     1      32.026   5.062   9.780  1.00  0.00     0.205 C 
ENDBRANCH  21  24
ENDBRANCH  15  21
ENDBRANCH   1   8
BRANCH   3  26
HETATM   26  N5  UNL     1      32.803  -0.637  15.229  1.00  0.00    -0.376 N 
ATOM     27  H5  UNL     1      33.039  -1.538  14.813  1.00  0.00     0.161 HD
BRANCH  26  28
HETATM   28  C10 UNL     1      33.826   0.384  15.244  1.00  0.00     0.160 C 
BRANCH  28  29
HETATM   29  C11 UNL     1      33.856   1.101  13.971  1.00  0.00    -0.025 A 
HETATM   30  C12 UNL     1      34.176   2.441  13.931  1.00  0.00     0.011 A 
HETATM   31  C13 UNL     1      34.203   3.115  12.721  1.00  0.00     0.018 A 
HETATM   32  C14 UNL     1      33.899   2.397  11.579  1.00  0.00     0.087 A 
HETATM   33  N6  UNL     1      33.588   1.101  11.612  1.00  0.00    -0.375 N 
HETATM   34  C15 UNL     1      33.568   0.468  12.794  1.00  0.00     0.096 A 
ATOM     35  H6  UNL     1      33.369   0.598  10.752  1.00  0.00     0.164 HD
ENDBRANCH  28  29
ENDBRANCH  26  28
ENDBRANCH   3  26
BRANCH   6  36
HETATM   36  O3  UNL     1      29.807   0.743  18.639  1.00  0.00    -0.295 OA
BRANCH  36  37
HETATM   37  C17 UNL     1      29.596   0.059  19.820  1.00  0.00     0.254 A 
HETATM   38  N8  UNL     1      28.353  -0.020  20.322  1.00  0.00    -0.154 N 
HETATM   39  C18 UNL     1      28.103  -0.686  21.487  1.00  0.00     0.693 A 
ATOM     40  H8  UNL     1      27.582   0.425  19.825  1.00  0.00     0.188 HD
HETATM   41  N10 UNL     1      29.097  -1.271  22.142  1.00  0.00    -0.023 N 
HETATM   42  C19 UNL     1      30.344  -1.204  21.658  1.00  0.00     0.693 A 
ATOM     43  H10 UNL     1      28.912  -1.770  23.012  1.00  0.00     0.203 HD
HETATM   44  N12 UNL     1      30.588  -0.536  20.493  1.00  0.00    -0.154 N 
ATOM     45  H12 UNL     1      31.541  -0.490  20.130  1.00  0.00     0.188 HD
BRANCH  39  46
HETATM   46  N9  UNL     1      26.898  -0.742  21.939  1.00  0.00    -0.234 N 
ATOM     47  H92 UNL     1      26.204  -0.052  21.652  1.00  0.00     0.174 HD
ATOM     48  H91 UNL     1      26.641  -1.484  22.591  1.00  0.00     0.174 HD
ENDBRANCH  39  46
BRANCH  42  49
HETATM   49  N11 UNL     1      31.307  -1.764  22.281  1.00  0.00    -0.234 N 
ATOM     50 2H11 UNL     1      32.139  -1.223  22.518  1.00  0.00     0.174 HD
ATOM     51 1H11 UNL     1      31.249  -2.748  22.543  1.00  0.00     0.174 HD
ENDBRANCH  42  49
ENDBRANCH  36  37
ENDBRANCH   6  36
TORSDOF 12
ENDMDL
