MODEL 1
REMARK VINA RESULT: -7.893219054      0.000      0.000
REMARK  6 active torsions:
REMARK  status: ('A' for Active; 'I' for Inactive)
REMARK    1  A    between atoms: C3_3  and  C4_4 
REMARK    2  A    between atoms: C4_4  and  C5_5 
REMARK    3  A    between atoms: C5_5  and  C6_6 
REMARK    4  A    between atoms: C6_6  and  C7_7 
REMARK    5  A    between atoms: C7_7  and  O1_8 
REMARK    6  A    between atoms: C12_17  and  N2_18 
REMARK       I    between atoms: N2_18  and  C13_20 
REMARK       I    between atoms: C13_20  and  N4_24 
ROOT
HETATM    1  C1  UNL     1     -30.298  -9.709  77.432  1.00  0.00     0.013 C 
HETATM    2  C2  UNL     1     -30.863  -9.175  78.329  1.00  0.00    -0.106 C 
HETATM    3  C3  UNL     1     -31.617  -8.445  79.481  1.00  0.00     0.172 C 
ENDROOT
BRANCH   3   4
HETATM    4  C4  UNL     1     -30.807  -8.062  80.301  1.00  0.00    -0.170 C 
BRANCH   4   5
HETATM    5  C5  UNL     1     -29.857  -7.609  81.265  1.00  0.00     0.104 C 
BRANCH   5   6
HETATM    6  C6  UNL     1     -29.659  -6.179  81.517  1.00  0.00     0.094 C 
HETATM    7  C8  UNL     1     -29.678  -5.903  83.002  1.00  0.00     0.232 C 
HETATM    8  O2  UNL     1     -30.592  -5.608  83.806  1.00  0.00    -0.272 OA
HETATM    9  N1  UNL     1     -28.296  -6.061  83.412  1.00  0.00    -0.350 N 
HETATM   10  C9  UNL     1     -27.611  -5.216  82.420  1.00  0.00     0.048 C 
ATOM     11  H1  UNL     1     -27.906  -6.610  84.178  1.00  0.00     0.163 HD
HETATM   12  C10 UNL     1     -26.163  -5.531  82.525  1.00  0.00     0.040 C 
HETATM   13  C11 UNL     1     -27.827  -3.751  82.686  1.00  0.00     0.040 C 
HETATM   14  C12 UNL     1     -28.280  -5.684  81.138  1.00  0.00     0.147 C 
BRANCH   6  15
HETATM   15  C7  UNL     1     -30.781  -5.358  80.925  1.00  0.00     0.186 C 
BRANCH  15  16
HETATM   16  O1  UNL     1     -30.824  -4.113  81.499  1.00  0.00    -0.399 OA
ATOM     17  H1  UNL     1     -31.594  -3.637  81.210  1.00  0.00     0.209 HD
ENDBRANCH  15  16
ENDBRANCH   6  15
BRANCH  14  18
HETATM   18  N2  UNL     1     -27.454  -6.610  80.452  1.00  0.00    -0.217 N 
HETATM   19  C13 UNL     1     -27.045  -6.649  79.095  1.00  0.00     0.686 C 
HETATM   20  N3  UNL     1     -26.748  -5.564  78.505  1.00  0.00    -0.234 N 
HETATM   21  N4  UNL     1     -26.938  -7.854  78.367  1.00  0.00    -0.139 N 
ATOM     22  H32 UNL     1     -26.825  -4.693  79.031  1.00  0.00     0.174 HD
ATOM     23  H31 UNL     1     -26.454  -5.592  77.528  1.00  0.00     0.174 HD
HETATM   24  N5  UNL     1     -26.674  -8.918  78.959  1.00  0.00    -0.331 N 
ATOM     25  H4  UNL     1     -27.078  -7.853  77.357  1.00  0.00     0.205 HD
ATOM     26  H52 UNL     1     -26.538  -8.902  79.970  1.00  0.00     0.177 HD
ATOM     27  H51 UNL     1     -26.598  -9.789  78.433  1.00  0.00     0.177 HD
ATOM     28  H2  UNL     1     -27.096  -7.372  81.027  1.00  0.00     0.178 HD
ENDBRANCH  14  18
ENDBRANCH   5   6
ENDBRANCH   4   5
ENDBRANCH   3   4
TORSDOF 6
ENDMDL
MODEL 2
REMARK VINA RESULT: -7.726040672      8.010     10.446
REMARK  6 active torsions:
REMARK  status: ('A' for Active; 'I' for Inactive)
REMARK    1  A    between atoms: C3_3  and  C4_4 
REMARK    2  A    between atoms: C4_4  and  C5_5 
REMARK    3  A    between atoms: C5_5  and  C6_6 
REMARK    4  A    between atoms: C6_6  and  C7_7 
REMARK    5  A    between atoms: C7_7  and  O1_8 
REMARK    6  A    between atoms: C12_17  and  N2_18 
REMARK       I    between atoms: N2_18  and  C13_20 
REMARK       I    between atoms: C13_20  and  N4_24 
ROOT
HETATM    1  C1  UNL     1     -31.149  -9.198  77.465  1.00  0.00     0.013 C 
HETATM    2  C2  UNL     1     -32.238  -8.872  77.805  1.00  0.00    -0.106 C 
HETATM    3  C3  UNL     1     -33.675  -8.481  78.266  1.00  0.00     0.172 C 
ENDROOT
BRANCH   3   4
HETATM    4  C4  UNL     1     -34.345  -8.217  77.287  1.00  0.00    -0.170 C 
BRANCH   4   5
HETATM    5  C5  UNL     1     -35.133  -7.904  76.140  1.00  0.00     0.104 C 
BRANCH   5   6
HETATM    6  C6  UNL     1     -35.256  -8.847  75.025  1.00  0.00     0.094 C 
HETATM    7  C8  UNL     1     -34.630 -10.173  75.392  1.00  0.00     0.232 C 
HETATM    8  O2  UNL     1     -33.475 -10.639  75.263  1.00  0.00    -0.272 OA
HETATM    9  N1  UNL     1     -35.712 -10.918  76.006  1.00  0.00    -0.350 N 
HETATM   10  C9  UNL     1     -36.774 -10.753  75.001  1.00  0.00     0.048 C 
ATOM     11  H1  UNL     1     -35.730 -11.420  76.894  1.00  0.00     0.163 HD
HETATM   12  C10 UNL     1     -38.037 -11.202  75.642  1.00  0.00     0.040 C 
HETATM   13  C11 UNL     1     -36.515 -11.578  73.770  1.00  0.00     0.040 C 
HETATM   14  C12 UNL     1     -36.683  -9.259  74.736  1.00  0.00     0.147 C 
BRANCH   6  15
HETATM   15  C7  UNL     1     -34.508  -8.355  73.807  1.00  0.00     0.186 C 
BRANCH  15  16
HETATM   16  O1  UNL     1     -34.225  -9.397  72.961  1.00  0.00    -0.399 OA
ATOM     17  H1  UNL     1     -34.268  -9.113  72.055  1.00  0.00     0.209 HD
ENDBRANCH  15  16
ENDBRANCH   6  15
BRANCH  14  18
HETATM   18  N2  UNL     1     -37.689  -8.561  75.452  1.00  0.00    -0.217 N 
HETATM   19  C13 UNL     1     -38.471  -7.440  75.081  1.00  0.00     0.686 C 
HETATM   20  N3  UNL     1     -38.906  -7.351  73.891  1.00  0.00    -0.234 N 
HETATM   21  N4  UNL     1     -38.805  -6.412  75.990  1.00  0.00    -0.139 N 
ATOM     22  H32 UNL     1     -38.664  -8.094  73.234  1.00  0.00     0.174 HD
ATOM     23  H31 UNL     1     -39.469  -6.543  73.624  1.00  0.00     0.174 HD
HETATM   24  N5  UNL     1     -38.908  -6.664  77.206  1.00  0.00    -0.331 N 
ATOM     25  H4  UNL     1     -38.963  -5.463  75.651  1.00  0.00     0.205 HD
ATOM     26  H52 UNL     1     -38.747  -7.618  77.529  1.00  0.00     0.177 HD
ATOM     27  H51 UNL     1     -39.149  -5.921  77.863  1.00  0.00     0.177 HD
ATOM     28  H2  UNL     1     -37.880  -8.925  76.385  1.00  0.00     0.178 HD
ENDBRANCH  14  18
ENDBRANCH   5   6
ENDBRANCH   4   5
ENDBRANCH   3   4
TORSDOF 6
ENDMDL
MODEL 3
REMARK VINA RESULT: -7.718347533      9.311     10.974
REMARK  6 active torsions:
REMARK  status: ('A' for Active; 'I' for Inactive)
REMARK    1  A    between atoms: C3_3  and  C4_4 
REMARK    2  A    between atoms: C4_4  and  C5_5 
REMARK    3  A    between atoms: C5_5  and  C6_6 
REMARK    4  A    between atoms: C6_6  and  C7_7 
REMARK    5  A    between atoms: C7_7  and  O1_8 
REMARK    6  A    between atoms: C12_17  and  N2_18 
REMARK       I    between atoms: N2_18  and  C13_20 
REMARK       I    between atoms: C13_20  and  N4_24 
ROOT
HETATM    1  C1  UNL     1     -36.914  -4.724  76.056  1.00  0.00     0.013 C 
HETATM    2  C2  UNL     1     -37.773  -5.520  75.867  1.00  0.00    -0.106 C 
HETATM    3  C3  UNL     1     -38.909  -6.567  75.659  1.00  0.00     0.172 C 
ENDROOT
BRANCH   3   4
HETATM    4  C4  UNL     1     -38.423  -7.596  75.234  1.00  0.00    -0.170 C 
BRANCH   4   5
HETATM    5  C5  UNL     1     -37.852  -8.806  74.738  1.00  0.00     0.104 C 
BRANCH   5   6
HETATM    6  C6  UNL     1     -36.440  -9.126  74.967  1.00  0.00     0.094 C 
HETATM    7  C8  UNL     1     -36.221 -10.618  74.875  1.00  0.00     0.232 C 
HETATM    8  O2  UNL     1     -36.254 -11.541  75.721  1.00  0.00    -0.272 OA
HETATM    9  N1  UNL     1     -35.939 -10.851  73.472  1.00  0.00    -0.350 N 
HETATM   10  C9  UNL     1     -34.895  -9.843  73.225  1.00  0.00     0.048 C 
ATOM     11  H1  UNL     1     -36.352 -11.528  72.832  1.00  0.00     0.163 HD
HETATM   12  C10 UNL     1     -34.732  -9.756  71.751  1.00  0.00     0.040 C 
HETATM   13  C11 UNL     1     -33.583 -10.227  73.853  1.00  0.00     0.040 C 
HETATM   14  C12 UNL     1     -35.521  -8.621  73.876  1.00  0.00     0.147 C 
BRANCH   6  15
HETATM   15  C7  UNL     1     -36.008  -8.725  76.359  1.00  0.00     0.186 C 
BRANCH  15  16
HETATM   16  O1  UNL     1     -36.726  -9.411  77.304  1.00  0.00    -0.399 OA
ATOM     17  H1  UNL     1     -36.251 -10.182  77.591  1.00  0.00     0.209 HD
ENDBRANCH  15  16
ENDBRANCH   6  15
BRANCH  14  18
HETATM   18  N2  UNL     1     -36.117  -7.782  72.899  1.00  0.00    -0.217 N 
HETATM   19  C13 UNL     1     -36.097  -6.373  72.761  1.00  0.00     0.686 C 
HETATM   20  N3  UNL     1     -35.026  -5.738  73.014  1.00  0.00    -0.234 N 
HETATM   21  N4  UNL     1     -37.224  -5.634  72.338  1.00  0.00    -0.139 N 
ATOM     22  H32 UNL     1     -34.211  -6.272  73.319  1.00  0.00     0.174 HD
ATOM     23  H31 UNL     1     -35.012  -4.723  72.915  1.00  0.00     0.174 HD
HETATM   24  N5  UNL     1     -38.066  -6.159  71.584  1.00  0.00    -0.331 N 
ATOM     25  H4  UNL     1     -37.348  -4.671  72.649  1.00  0.00     0.205 HD
ATOM     26  H52 UNL     1     -37.927  -7.124  71.283  1.00  0.00     0.177 HD
ATOM     27  H51 UNL     1     -38.880  -5.625  71.279  1.00  0.00     0.177 HD
ATOM     28  H2  UNL     1     -36.646  -8.274  72.180  1.00  0.00     0.178 HD
ENDBRANCH  14  18
ENDBRANCH   5   6
ENDBRANCH   4   5
ENDBRANCH   3   4
TORSDOF 6
ENDMDL
MODEL 4
REMARK VINA RESULT: -7.713860813      8.706     10.518
REMARK  6 active torsions:
REMARK  status: ('A' for Active; 'I' for Inactive)
REMARK    1  A    between atoms: C3_3  and  C4_4 
REMARK    2  A    between atoms: C4_4  and  C5_5 
REMARK    3  A    between atoms: C5_5  and  C6_6 
REMARK    4  A    between atoms: C6_6  and  C7_7 
REMARK    5  A    between atoms: C7_7  and  O1_8 
REMARK    6  A    between atoms: C12_17  and  N2_18 
REMARK       I    between atoms: N2_18  and  C13_20 
REMARK       I    between atoms: C13_20  and  N4_24 
ROOT
HETATM    1  C1  UNL     1     -32.983 -10.260  74.870  1.00  0.00     0.013 C 
HETATM    2  C2  UNL     1     -33.766 -10.346  73.983  1.00  0.00    -0.106 C 
HETATM    3  C3  UNL     1     -34.765 -10.449  72.791  1.00  0.00     0.172 C 
ENDROOT
BRANCH   3   4
HETATM    4  C4  UNL     1     -35.605  -9.579  72.904  1.00  0.00    -0.170 C 
BRANCH   4   5
HETATM    5  C5  UNL     1     -36.595  -8.559  73.037  1.00  0.00     0.104 C 
BRANCH   5   6
HETATM    6  C6  UNL     1     -36.250  -7.233  73.558  1.00  0.00     0.094 C 
HETATM    7  C8  UNL     1     -37.164  -6.186  72.966  1.00  0.00     0.232 C 
HETATM    8  O2  UNL     1     -37.094  -5.468  71.942  1.00  0.00    -0.272 OA
HETATM    9  N1  UNL     1     -38.289  -6.138  73.880  1.00  0.00    -0.350 N 
HETATM   10  C9  UNL     1     -37.596  -6.000  75.171  1.00  0.00     0.048 C 
ATOM     11  H1  UNL     1     -39.288  -6.188  73.681  1.00  0.00     0.163 HD
HETATM   12  C10 UNL     1     -38.612  -6.252  76.225  1.00  0.00     0.040 C 
HETATM   13  C11 UNL     1     -37.016  -4.624  75.353  1.00  0.00     0.040 C 
HETATM   14  C12 UNL     1     -36.528  -7.074  75.036  1.00  0.00     0.147 C 
BRANCH   6  15
HETATM   15  C7  UNL     1     -34.847  -6.837  73.159  1.00  0.00     0.186 C 
BRANCH  15  16
HETATM   16  O1  UNL     1     -34.701  -5.474  73.198  1.00  0.00    -0.399 OA
ATOM     17  H1  UNL     1     -34.151  -5.175  72.483  1.00  0.00     0.209 HD
ENDBRANCH  15  16
ENDBRANCH   6  15
BRANCH  14  18
HETATM   18  N2  UNL     1     -36.912  -8.251  75.728  1.00  0.00    -0.217 N 
HETATM   19  C13 UNL     1     -36.162  -9.110  76.568  1.00  0.00     0.686 C 
HETATM   20  N3  UNL     1     -35.320  -8.609  77.378  1.00  0.00    -0.234 N 
HETATM   21  N4  UNL     1     -36.319 -10.513  76.556  1.00  0.00    -0.139 N 
ATOM     22  H32 UNL     1     -35.207  -7.594  77.387  1.00  0.00     0.174 HD
ATOM     23  H31 UNL     1     -34.780  -9.227  77.982  1.00  0.00     0.174 HD
HETATM   24  N5  UNL     1     -37.417 -11.015  76.246  1.00  0.00    -0.331 N 
ATOM     25  H4  UNL     1     -35.533 -11.116  76.801  1.00  0.00     0.205 HD
ATOM     26  H52 UNL     1     -38.192 -10.398  76.004  1.00  0.00     0.177 HD
ATOM     27  H51 UNL     1     -37.530 -12.029  76.237  1.00  0.00     0.177 HD
ATOM     28  H2  UNL     1     -37.886  -8.524  75.599  1.00  0.00     0.178 HD
ENDBRANCH  14  18
ENDBRANCH   5   6
ENDBRANCH   4   5
ENDBRANCH   3   4
TORSDOF 6
ENDMDL
MODEL 5
REMARK VINA RESULT: -7.701237497      7.672     10.141
REMARK  6 active torsions:
REMARK  status: ('A' for Active; 'I' for Inactive)
REMARK    1  A    between atoms: C3_3  and  C4_4 
REMARK    2  A    between atoms: C4_4  and  C5_5 
REMARK    3  A    between atoms: C5_5  and  C6_6 
REMARK    4  A    between atoms: C6_6  and  C7_7 
REMARK    5  A    between atoms: C7_7  and  O1_8 
REMARK    6  A    between atoms: C12_17  and  N2_18 
REMARK       I    between atoms: N2_18  and  C13_20 
REMARK       I    between atoms: C13_20  and  N4_24 
ROOT
HETATM    1  C1  UNL     1     -30.643  -9.441  77.411  1.00  0.00     0.013 C 
HETATM    2  C2  UNL     1     -31.044  -9.924  76.403  1.00  0.00    -0.106 C 
HETATM    3  C3  UNL     1     -31.534 -10.547  75.062  1.00  0.00     0.172 C 
ENDROOT
BRANCH   3   4
HETATM    4  C4  UNL     1     -32.470  -9.896  74.643  1.00  0.00    -0.170 C 
BRANCH   4   5
HETATM    5  C5  UNL     1     -33.568  -9.128  74.152  1.00  0.00     0.104 C 
BRANCH   5   6
HETATM    6  C6  UNL     1     -34.917  -9.695  74.083  1.00  0.00     0.094 C 
HETATM    7  C8  UNL     1     -35.243 -10.428  75.364  1.00  0.00     0.232 C 
HETATM    8  O2  UNL     1     -35.091 -11.614  75.734  1.00  0.00    -0.272 OA
HETATM    9  N1  UNL     1     -35.826  -9.410  76.217  1.00  0.00    -0.350 N 
HETATM   10  C9  UNL     1     -36.834  -8.831  75.314  1.00  0.00     0.048 C 
ATOM     11  H1  UNL     1     -35.599  -9.164  77.180  1.00  0.00     0.163 HD
HETATM   12  C10 UNL     1     -37.296  -7.570  75.950  1.00  0.00     0.040 C 
HETATM   13  C11 UNL     1     -38.007  -9.753  75.117  1.00  0.00     0.040 C 
HETATM   14  C12 UNL     1     -36.011  -8.650  74.049  1.00  0.00     0.147 C 
BRANCH   6  15
HETATM   15  C7  UNL     1     -35.023 -10.720  72.977  1.00  0.00     0.186 C 
BRANCH  15  16
HETATM   16  O1  UNL     1     -36.136 -11.503  73.149  1.00  0.00    -0.399 OA
ATOM     17  H1  UNL     1     -36.916 -11.044  72.860  1.00  0.00     0.209 HD
ENDBRANCH  15  16
ENDBRANCH   6  15
BRANCH  14  18
HETATM   18  N2  UNL     1     -35.582  -7.305  73.919  1.00  0.00    -0.217 N 
HETATM   19  C13 UNL     1     -35.947  -6.310  72.978  1.00  0.00     0.686 C 
HETATM   20  N3  UNL     1     -37.157  -6.223  72.603  1.00  0.00    -0.234 N 
HETATM   21  N4  UNL     1     -35.017  -5.392  72.444  1.00  0.00    -0.139 N 
ATOM     22  H32 UNL     1     -37.829  -6.886  72.990  1.00  0.00     0.174 HD
ATOM     23  H31 UNL     1     -37.419  -5.507  71.925  1.00  0.00     0.174 HD
HETATM   24  N5  UNL     1     -34.022  -5.052  73.113  1.00  0.00    -0.331 N 
ATOM     25  H4  UNL     1     -35.159  -5.007  71.510  1.00  0.00     0.205 HD
ATOM     26  H52 UNL     1     -33.894  -5.445  74.045  1.00  0.00     0.177 HD
ATOM     27  H51 UNL     1     -33.349  -4.388  72.726  1.00  0.00     0.177 HD
ATOM     28  H2  UNL     1     -34.901  -7.004  74.615  1.00  0.00     0.178 HD
ENDBRANCH  14  18
ENDBRANCH   5   6
ENDBRANCH   4   5
ENDBRANCH   3   4
TORSDOF 6
ENDMDL
