MODEL 1
REMARK VINA RESULT: -8.141344996      0.000      0.000
REMARK  6 active torsions:
REMARK  status: ('A' for Active; 'I' for Inactive)
REMARK    1  A    between atoms: C2_2  and  N1_3 
REMARK    2  A    between atoms: N1_3  and  C3_4 
REMARK    3  A    between atoms: C3_4  and  C4_5 
REMARK    4  A    between atoms: C4_5  and  O1_6 
REMARK    5  A    between atoms: C4_5  and  N2_8 
REMARK       I    between atoms: N2_8  and  C5_10 
REMARK       I    between atoms: C5_10  and  N3_12 
REMARK    6  A    between atoms: N3_12  and  C6_14 
ROOT
HETATM    1  N2  UNL     1     -26.589 -10.375  66.513  1.00  0.00    -0.315 N 
ATOM      2  H2  UNL     1     -26.256  -9.553  67.015  1.00  0.00     0.166 HD
HETATM    3  C5  UNL     1     -25.731 -10.988  65.547  1.00  0.00     0.318 C 
HETATM    4  O2  UNL     1     -26.128 -12.003  64.921  1.00  0.00    -0.247 OA
HETATM    5  N3  UNL     1     -24.440 -10.495  65.261  1.00  0.00    -0.336 N 
ATOM      6  H3  UNL     1     -24.104  -9.672  65.761  1.00  0.00     0.164 HD
ENDROOT
BRANCH   1   7
HETATM    7  C4  UNL     1     -27.918 -10.887  66.803  1.00  0.00     0.247 C 
BRANCH   7   8
HETATM    8  C3  UNL     1     -27.765 -11.840  67.949  1.00  0.00     0.290 C 
BRANCH   8   9
HETATM    9  N1  UNL     1     -27.976 -13.214  67.670  1.00  0.00    -0.063 N 
HETATM   10  C10 UNL     1     -26.640 -13.844  67.688  1.00  0.00     0.237 C 
HETATM   11  C11 UNL     1     -26.843 -15.196  67.092  1.00  0.00     0.029 C 
HETATM   12  C12 UNL     1     -28.003 -14.947  66.152  1.00  0.00     0.029 C 
HETATM   13  C13 UNL     1     -28.403 -13.496  66.330  1.00  0.00     0.237 C 
BRANCH   9  14
HETATM   14  C2  UNL     1     -28.775 -13.946  68.582  1.00  0.00     0.233 C 
HETATM   15  C1  UNL     1     -28.551 -13.678  70.025  1.00  0.00     0.035 C 
ENDBRANCH   9  14
ENDBRANCH   8   9
ENDBRANCH   7   8
BRANCH   7  16
HETATM   16  O1  UNL     1     -28.802  -9.844  67.045  1.00  0.00    -0.375 OA
ATOM     17  H1  UNL     1     -28.711  -9.110  66.447  1.00  0.00     0.212 HD
ENDBRANCH   7  16
ENDBRANCH   1   7
BRANCH   5  18
HETATM   18  C6  UNL     1     -23.582 -11.115  64.287  1.00  0.00     0.112 C 
HETATM   19  C7  UNL     1     -22.311 -10.326  64.056  1.00  0.00     0.148 C 
HETATM   20  N4  UNL     1     -21.303 -11.354  63.776  1.00  0.00    -0.359 N 
HETATM   21  C8  UNL     1     -21.829 -12.639  64.079  1.00  0.00     0.219 C 
ATOM     22  H4  UNL     1     -20.365 -11.173  63.418  1.00  0.00     0.162 HD
HETATM   23  O3  UNL     1     -21.285 -13.707  63.740  1.00  0.00    -0.274 OA
HETATM   24  C9  UNL     1     -23.087 -12.425  64.836  1.00  0.00     0.129 C 
ENDBRANCH   5  18
TORSDOF 6
ENDMDL
MODEL 2
REMARK VINA RESULT: -7.973161367      2.139      3.074
REMARK  6 active torsions:
REMARK  status: ('A' for Active; 'I' for Inactive)
REMARK    1  A    between atoms: C2_2  and  N1_3 
REMARK    2  A    between atoms: N1_3  and  C3_4 
REMARK    3  A    between atoms: C3_4  and  C4_5 
REMARK    4  A    between atoms: C4_5  and  O1_6 
REMARK    5  A    between atoms: C4_5  and  N2_8 
REMARK       I    between atoms: N2_8  and  C5_10 
REMARK       I    between atoms: C5_10  and  N3_12 
REMARK    6  A    between atoms: N3_12  and  C6_14 
ROOT
HETATM    1  N2  UNL     1     -26.287 -14.895  66.218  1.00  0.00    -0.315 N 
ATOM      2  H2  UNL     1     -26.015 -15.844  65.960  1.00  0.00     0.166 HD
HETATM    3  C5  UNL     1     -25.371 -13.825  65.980  1.00  0.00     0.318 C 
HETATM    4  O2  UNL     1     -25.692 -12.651  66.294  1.00  0.00    -0.247 OA
HETATM    5  N3  UNL     1     -24.100 -14.031  65.400  1.00  0.00    -0.336 N 
ATOM      6  H3  UNL     1     -23.825 -14.978  65.140  1.00  0.00     0.164 HD
ENDROOT
BRANCH   1   7
HETATM    7  C4  UNL     1     -27.594 -14.677  66.817  1.00  0.00     0.247 C 
BRANCH   7   8
HETATM    8  C3  UNL     1     -27.347 -14.025  68.144  1.00  0.00     0.290 C 
BRANCH   8   9
HETATM    9  N1  UNL     1     -28.482 -13.789  68.961  1.00  0.00    -0.063 N 
HETATM   10  C10 UNL     1     -28.025 -13.967  70.354  1.00  0.00     0.237 C 
HETATM   11  C11 UNL     1     -29.276 -14.026  71.165  1.00  0.00     0.029 C 
HETATM   12  C12 UNL     1     -30.257 -14.616  70.176  1.00  0.00     0.029 C 
HETATM   13  C13 UNL     1     -29.506 -14.789  68.870  1.00  0.00     0.237 C 
BRANCH   9  14
HETATM   14  C2  UNL     1     -29.074 -12.505  68.894  1.00  0.00     0.233 C 
HETATM   15  C1  UNL     1     -28.314 -11.460  68.160  1.00  0.00     0.035 C 
ENDBRANCH   9  14
ENDBRANCH   8   9
ENDBRANCH   7   8
BRANCH   7  16
HETATM   16  O1  UNL     1     -28.407 -13.945  65.965  1.00  0.00    -0.375 OA
ATOM     17  H1  UNL     1     -28.855 -14.467  65.309  1.00  0.00     0.212 HD
ENDBRANCH   7  16
ENDBRANCH   1   7
BRANCH   5  18
HETATM   18  C6  UNL     1     -23.182 -12.950  65.163  1.00  0.00     0.112 C 
HETATM   19  C7  UNL     1     -21.792 -13.443  64.819  1.00  0.00     0.148 C 
HETATM   20  N4  UNL     1     -21.284 -12.438  63.878  1.00  0.00    -0.359 N 
HETATM   21  C8  UNL     1     -22.342 -11.581  63.472  1.00  0.00     0.219 C 
ATOM     22  H4  UNL     1     -20.316 -12.366  63.563  1.00  0.00     0.162 HD
HETATM   23  O3  UNL     1     -22.169 -10.513  62.853  1.00  0.00    -0.274 OA
HETATM   24  C9  UNL     1     -23.607 -12.210  63.925  1.00  0.00     0.129 C 
ENDBRANCH   5  18
TORSDOF 6
ENDMDL
MODEL 3
REMARK VINA RESULT: -7.755593668      3.105      7.367
REMARK  6 active torsions:
REMARK  status: ('A' for Active; 'I' for Inactive)
REMARK    1  A    between atoms: C2_2  and  N1_3 
REMARK    2  A    between atoms: N1_3  and  C3_4 
REMARK    3  A    between atoms: C3_4  and  C4_5 
REMARK    4  A    between atoms: C4_5  and  O1_6 
REMARK    5  A    between atoms: C4_5  and  N2_8 
REMARK       I    between atoms: N2_8  and  C5_10 
REMARK       I    between atoms: C5_10  and  N3_12 
REMARK    6  A    between atoms: N3_12  and  C6_14 
ROOT
HETATM    1  N2  UNL     1     -27.718 -14.256  67.748  1.00  0.00    -0.315 N 
ATOM      2  H2  UNL     1     -27.028 -15.005  67.802  1.00  0.00     0.166 HD
HETATM    3  C5  UNL     1     -28.235 -13.704  68.961  1.00  0.00     0.318 C 
HETATM    4  O2  UNL     1     -29.085 -12.781  68.910  1.00  0.00    -0.247 OA
HETATM    5  N3  UNL     1     -27.827 -14.160  70.234  1.00  0.00    -0.336 N 
ATOM      6  H3  UNL     1     -27.137 -14.909  70.292  1.00  0.00     0.164 HD
ENDROOT
BRANCH   1   7
HETATM    7  C4  UNL     1     -28.143 -13.784  66.440  1.00  0.00     0.247 C 
BRANCH   7   8
HETATM    8  C3  UNL     1     -27.075 -12.848  65.960  1.00  0.00     0.290 C 
BRANCH   8   9
HETATM    9  N1  UNL     1     -27.464 -11.508  65.711  1.00  0.00    -0.063 N 
HETATM   10  C10 UNL     1     -27.312 -10.794  66.995  1.00  0.00     0.237 C 
HETATM   11  C11 UNL     1     -28.012  -9.491  66.797  1.00  0.00     0.029 C 
HETATM   12  C12 UNL     1     -29.077  -9.865  65.789  1.00  0.00     0.029 C 
HETATM   13  C13 UNL     1     -28.863 -11.327  65.451  1.00  0.00     0.237 C 
BRANCH   9  14
HETATM   14  C2  UNL     1     -26.712 -10.780  64.757  1.00  0.00     0.233 C 
HETATM   15  C1  UNL     1     -25.271 -11.123  64.646  1.00  0.00     0.035 C 
ENDBRANCH   9  14
ENDBRANCH   8   9
ENDBRANCH   7   8
BRANCH   7  16
HETATM   16  O1  UNL     1     -28.388 -14.853  65.590  1.00  0.00    -0.375 OA
ATOM     17  H1  UNL     1     -27.636 -15.120  65.073  1.00  0.00     0.212 HD
ENDBRANCH   7  16
ENDBRANCH   1   7
BRANCH   5  18
HETATM   18  C6  UNL     1     -28.351 -13.602  71.451  1.00  0.00     0.112 C 
HETATM   19  C7  UNL     1     -29.626 -14.288  71.894  1.00  0.00     0.148 C 
HETATM   20  N4  UNL     1     -29.561 -14.242  73.359  1.00  0.00    -0.359 N 
HETATM   21  C8  UNL     1     -28.265 -13.829  73.771  1.00  0.00     0.219 C 
ATOM     22  H4  UNL     1     -30.331 -14.471  73.988  1.00  0.00     0.162 HD
HETATM   23  O3  UNL     1     -27.983 -13.493  74.936  1.00  0.00    -0.274 OA
HETATM   24  C9  UNL     1     -27.391 -13.887  72.573  1.00  0.00     0.129 C 
ENDBRANCH   5  18
TORSDOF 6
ENDMDL
MODEL 4
REMARK VINA RESULT: -7.551449377      3.713      8.056
REMARK  6 active torsions:
REMARK  status: ('A' for Active; 'I' for Inactive)
REMARK    1  A    between atoms: C2_2  and  N1_3 
REMARK    2  A    between atoms: N1_3  and  C3_4 
REMARK    3  A    between atoms: C3_4  and  C4_5 
REMARK    4  A    between atoms: C4_5  and  O1_6 
REMARK    5  A    between atoms: C4_5  and  N2_8 
REMARK       I    between atoms: N2_8  and  C5_10 
REMARK       I    between atoms: C5_10  and  N3_12 
REMARK    6  A    between atoms: N3_12  and  C6_14 
ROOT
HETATM    1  N2  UNL     1     -27.628 -13.777  69.319  1.00  0.00    -0.315 N 
ATOM      2  H2  UNL     1     -26.617 -13.771  69.454  1.00  0.00     0.166 HD
HETATM    3  C5  UNL     1     -28.477 -13.848  70.467  1.00  0.00     0.318 C 
HETATM    4  O2  UNL     1     -29.724 -13.855  70.316  1.00  0.00    -0.247 OA
HETATM    5  N3  UNL     1     -27.968 -13.912  71.782  1.00  0.00    -0.336 N 
ATOM      6  H3  UNL     1     -26.957 -13.907  71.921  1.00  0.00     0.164 HD
ENDROOT
BRANCH   1   7
HETATM    7  C4  UNL     1     -28.157 -13.712  67.967  1.00  0.00     0.247 C 
BRANCH   7   8
HETATM    8  C3  UNL     1     -27.056 -13.172  67.106  1.00  0.00     0.290 C 
BRANCH   8   9
HETATM    9  N1  UNL     1     -27.308 -11.947  66.438  1.00  0.00    -0.063 N 
HETATM   10  C10 UNL     1     -27.676 -10.977  67.490  1.00  0.00     0.237 C 
HETATM   11  C11 UNL     1     -28.234  -9.805  66.755  1.00  0.00     0.029 C 
HETATM   12  C12 UNL     1     -28.814 -10.463  65.522  1.00  0.00     0.029 C 
HETATM   13  C13 UNL     1     -28.489 -11.940  65.623  1.00  0.00     0.237 C 
BRANCH   9  14
HETATM   14  C2  UNL     1     -26.237 -11.368  65.716  1.00  0.00     0.233 C 
HETATM   15  C1  UNL     1     -25.384 -12.298  64.933  1.00  0.00     0.035 C 
ENDBRANCH   9  14
ENDBRANCH   8   9
ENDBRANCH   7   8
BRANCH   7  16
HETATM   16  O1  UNL     1     -28.635 -14.953  67.569  1.00  0.00    -0.375 OA
ATOM     17  H1  UNL     1     -27.973 -15.525  67.199  1.00  0.00     0.212 HD
ENDBRANCH   7  16
ENDBRANCH   1   7
BRANCH   5  18
HETATM   18  C6  UNL     1     -28.827 -13.984  72.933  1.00  0.00     0.112 C 
HETATM   19  C7  UNL     1     -28.050 -13.957  74.232  1.00  0.00     0.148 C 
HETATM   20  N4  UNL     1     -28.935 -13.242  75.158  1.00  0.00    -0.359 N 
HETATM   21  C8  UNL     1     -30.009 -12.651  74.438  1.00  0.00     0.219 C 
ATOM     22  H4  UNL     1     -28.801 -13.180  76.167  1.00  0.00     0.162 HD
HETATM   23  O3  UNL     1     -31.023 -12.171  74.979  1.00  0.00    -0.274 OA
HETATM   24  C9  UNL     1     -29.663 -12.735  72.998  1.00  0.00     0.129 C 
ENDBRANCH   5  18
TORSDOF 6
ENDMDL
MODEL 5
REMARK VINA RESULT: -7.315449325     10.981     13.238
REMARK  6 active torsions:
REMARK  status: ('A' for Active; 'I' for Inactive)
REMARK    1  A    between atoms: C2_2  and  N1_3 
REMARK    2  A    between atoms: N1_3  and  C3_4 
REMARK    3  A    between atoms: C3_4  and  C4_5 
REMARK    4  A    between atoms: C4_5  and  O1_6 
REMARK    5  A    between atoms: C4_5  and  N2_8 
REMARK       I    between atoms: N2_8  and  C5_10 
REMARK       I    between atoms: C5_10  and  N3_12 
REMARK    6  A    between atoms: N3_12  and  C6_14 
ROOT
HETATM    1  N2  UNL     1     -33.856  -8.939  73.274  1.00  0.00    -0.315 N 
ATOM      2  H2  UNL     1     -33.210  -8.597  72.563  1.00  0.00     0.166 HD
HETATM    3  C5  UNL     1     -33.347  -9.745  74.339  1.00  0.00     0.318 C 
HETATM    4  O2  UNL     1     -34.132 -10.174  75.222  1.00  0.00    -0.247 OA
HETATM    5  N3  UNL     1     -31.982 -10.087  74.444  1.00  0.00    -0.336 N 
ATOM      6  H3  UNL     1     -31.332  -9.746  73.735  1.00  0.00     0.164 HD
ENDROOT
BRANCH   1   7
HETATM    7  C4  UNL     1     -35.264  -8.592  73.169  1.00  0.00     0.247 C 
BRANCH   7   8
HETATM    8  C3  UNL     1     -35.318  -7.116  72.916  1.00  0.00     0.290 C 
BRANCH   8   9
HETATM    9  N1  UNL     1     -36.063  -6.336  73.835  1.00  0.00    -0.063 N 
HETATM   10  C10 UNL     1     -35.404  -5.015  73.878  1.00  0.00     0.237 C 
HETATM   11  C11 UNL     1     -35.998  -4.326  75.060  1.00  0.00     0.029 C 
HETATM   12  C12 UNL     1     -36.328  -5.494  75.963  1.00  0.00     0.029 C 
HETATM   13  C13 UNL     1     -35.953  -6.751  75.203  1.00  0.00     0.237 C 
BRANCH   9  14
HETATM   14  C2  UNL     1     -37.424  -6.094  73.527  1.00  0.00     0.233 C 
HETATM   15  C1  UNL     1     -37.823  -6.257  72.105  1.00  0.00     0.035 C 
ENDBRANCH   9  14
ENDBRANCH   8   9
ENDBRANCH   7   8
BRANCH   7  16
HETATM   16  O1  UNL     1     -35.887  -9.361  72.197  1.00  0.00    -0.375 OA
ATOM     17  H1  UNL     1     -36.622  -8.932  71.773  1.00  0.00     0.212 HD
ENDBRANCH   7  16
ENDBRANCH   1   7
BRANCH   5  18
HETATM   18  C6  UNL     1     -31.476 -10.899  75.518  1.00  0.00     0.112 C 
HETATM   19  C7  UNL     1     -30.425 -11.883  75.047  1.00  0.00     0.148 C 
HETATM   20  N4  UNL     1     -29.507 -11.990  76.187  1.00  0.00    -0.359 N 
HETATM   21  C8  UNL     1     -29.802 -10.978  77.140  1.00  0.00     0.219 C 
ATOM     22  H4  UNL     1     -28.769 -12.688  76.281  1.00  0.00     0.162 HD
HETATM   23  O3  UNL     1     -29.335 -10.957  78.295  1.00  0.00    -0.274 OA
HETATM   24  C9  UNL     1     -30.728 -10.022  76.484  1.00  0.00     0.129 C 
ENDBRANCH   5  18
TORSDOF 6
ENDMDL
