MODEL 1
REMARK VINA RESULT: -6.712737242      0.000      0.000
REMARK  8 active torsions:
REMARK  status: ('A' for Active; 'I' for Inactive)
REMARK    1  A    between atoms: C2_2  and  N1_3 
REMARK    2  A    between atoms: N1_3  and  C3_4 
REMARK    3  A    between atoms: N1_3  and  C5_6 
REMARK    4  A    between atoms: C5_6  and  C6_7 
REMARK    5  A    between atoms: C6_7  and  N2_8 
REMARK    6  A    between atoms: C7_9  and  O1_10 
REMARK    7  A    between atoms: C10_14  and  O2_15 
REMARK    8  A    between atoms: S1_22  and  S2_23 
ROOT
HETATM    1  N2  UNL     1      10.081  19.908  -4.797  1.00  0.00    -0.303 N 
HETATM    2  C7  UNL     1       9.217  20.910  -5.064  1.00  0.00     0.152 A 
HETATM    3  C8  UNL     1       9.736  21.684  -6.074  1.00  0.00     0.013 A 
HETATM    4  C9  UNL     1      10.946  21.099  -6.399  1.00  0.00     0.022 A 
HETATM    5  C10 UNL     1      11.149  19.986  -5.590  1.00  0.00     0.153 A 
HETATM    6  C11 UNL     1      11.743  21.738  -7.473  1.00  0.00     0.108 C 
HETATM    7  C12 UNL     1      11.759  23.203  -7.188  1.00  0.00    -0.010 C 
HETATM    8  C13 UNL     1      10.562  23.743  -6.879  1.00  0.00    -0.019 C 
HETATM    9  C14 UNL     1       9.312  22.919  -6.825  1.00  0.00     0.055 C 
HETATM   10  C15 UNL     1       8.952  22.497  -8.209  1.00  0.00     0.089 C 
HETATM   11  S1  UNL     1      10.516  21.663  -9.093  1.00  0.00    -0.146 SA
ENDROOT
BRANCH   1  12
HETATM   12  C6  UNL     1       9.886  18.889  -3.773  1.00  0.00     0.178 C 
BRANCH  12  13
HETATM   13  C5  UNL     1       9.018  17.771  -4.292  1.00  0.00     0.083 C 
BRANCH  13  14
HETATM   14  N1  UNL     1       9.774  16.753  -4.873  1.00  0.00    -0.373 N 
BRANCH  14  15
HETATM   15  C2  UNL     1       9.709  16.471  -6.241  1.00  0.00     0.058 C 
HETATM   16  C1  UNL     1       8.934  17.387  -7.117  1.00  0.00     0.055 C 
ENDBRANCH  14  15
BRANCH  14  17
HETATM   17  C3  UNL     1      10.813  16.147  -4.131  1.00  0.00     0.122 C 
HETATM   18  C4  UNL     1      12.028  15.792  -4.939  1.00  0.00     0.027 C 
ENDBRANCH  14  17
ENDBRANCH  13  14
ENDBRANCH  12  13
ENDBRANCH   1  12
BRANCH   2  19
HETATM   19  O1  UNL     1       8.027  21.114  -4.432  1.00  0.00    -0.345 OA
ATOM     20  H1  UNL     1       7.530  21.924  -4.442  1.00  0.00     0.219 HD
ENDBRANCH   2  19
BRANCH   5  21
HETATM   21  O2  UNL     1      12.275  19.154  -5.648  1.00  0.00    -0.345 OA
ATOM     22  H2  UNL     1      12.323  18.206  -5.661  1.00  0.00     0.219 HD
ENDBRANCH   5  21
BRANCH  11  23
HETATM   23  S2  UNL     1      11.545  22.326 -10.661  1.00  0.00    -0.112 SA
HETATM   24  C16 UNL     1      11.414  23.951 -11.119  1.00  0.00     0.102 C 
ENDBRANCH  11  23
TORSDOF 8
ENDMDL
MODEL 2
REMARK VINA RESULT: -6.700859031      0.089      1.452
REMARK  8 active torsions:
REMARK  status: ('A' for Active; 'I' for Inactive)
REMARK    1  A    between atoms: C2_2  and  N1_3 
REMARK    2  A    between atoms: N1_3  and  C3_4 
REMARK    3  A    between atoms: N1_3  and  C5_6 
REMARK    4  A    between atoms: C5_6  and  C6_7 
REMARK    5  A    between atoms: C6_7  and  N2_8 
REMARK    6  A    between atoms: C7_9  and  O1_10 
REMARK    7  A    between atoms: C10_14  and  O2_15 
REMARK    8  A    between atoms: S1_22  and  S2_23 
ROOT
HETATM    1  N2  UNL     1      10.069  19.936  -4.778  1.00  0.00    -0.303 N 
HETATM    2  C7  UNL     1       9.211  20.944  -5.041  1.00  0.00     0.152 A 
HETATM    3  C8  UNL     1       9.731  21.712  -6.055  1.00  0.00     0.013 A 
HETATM    4  C9  UNL     1      10.934  21.118  -6.386  1.00  0.00     0.022 A 
HETATM    5  C10 UNL     1      11.133  20.004  -5.577  1.00  0.00     0.153 A 
HETATM    6  C11 UNL     1      11.731  21.749  -7.465  1.00  0.00     0.108 C 
HETATM    7  C12 UNL     1      11.759  23.215  -7.182  1.00  0.00    -0.010 C 
HETATM    8  C13 UNL     1      10.569  23.764  -6.868  1.00  0.00    -0.019 C 
HETATM    9  C14 UNL     1       9.312  22.950  -6.805  1.00  0.00     0.055 C 
HETATM   10  C15 UNL     1       8.941  22.529  -8.187  1.00  0.00     0.089 C 
HETATM   11  S1  UNL     1      10.494  21.682  -9.078  1.00  0.00    -0.146 SA
ENDROOT
BRANCH   1  12
HETATM   12  C6  UNL     1       9.871  18.920  -3.751  1.00  0.00     0.178 C 
BRANCH  12  13
HETATM   13  C5  UNL     1       9.008  17.799  -4.270  1.00  0.00     0.083 C 
BRANCH  13  14
HETATM   14  N1  UNL     1       9.765  16.805  -4.892  1.00  0.00    -0.373 N 
BRANCH  14  15
HETATM   15  C2  UNL     1      10.707  16.044  -4.192  1.00  0.00     0.058 C 
HETATM   16  C1  UNL     1      12.003  15.743  -4.852  1.00  0.00     0.055 C 
ENDBRANCH  14  15
BRANCH  14  17
HETATM   17  C3  UNL     1       9.414  16.375  -6.192  1.00  0.00     0.122 C 
HETATM   18  C4  UNL     1       8.833  17.448  -7.066  1.00  0.00     0.027 C 
ENDBRANCH  14  17
ENDBRANCH  13  14
ENDBRANCH  12  13
ENDBRANCH   1  12
BRANCH   2  19
HETATM   19  O1  UNL     1       8.026  21.158  -4.403  1.00  0.00    -0.345 OA
ATOM     20  H1  UNL     1       7.454  21.903  -4.541  1.00  0.00     0.219 HD
ENDBRANCH   2  19
BRANCH   5  21
HETATM   21  O2  UNL     1      12.252  19.164  -5.639  1.00  0.00    -0.345 OA
ATOM     22  H2  UNL     1      12.691  18.800  -6.399  1.00  0.00     0.219 HD
ENDBRANCH   5  21
BRANCH  11  23
HETATM   23  S2  UNL     1      11.520  22.334 -10.653  1.00  0.00    -0.112 SA
HETATM   24  C16 UNL     1      11.420  23.966 -11.095  1.00  0.00     0.102 C 
ENDBRANCH  11  23
TORSDOF 8
ENDMDL
MODEL 3
REMARK VINA RESULT: -6.627778775      1.128      1.769
REMARK  8 active torsions:
REMARK  status: ('A' for Active; 'I' for Inactive)
REMARK    1  A    between atoms: C2_2  and  N1_3 
REMARK    2  A    between atoms: N1_3  and  C3_4 
REMARK    3  A    between atoms: N1_3  and  C5_6 
REMARK    4  A    between atoms: C5_6  and  C6_7 
REMARK    5  A    between atoms: C6_7  and  N2_8 
REMARK    6  A    between atoms: C7_9  and  O1_10 
REMARK    7  A    between atoms: C10_14  and  O2_15 
REMARK    8  A    between atoms: S1_22  and  S2_23 
ROOT
HETATM    1  N2  UNL     1      10.045  19.862  -4.954  1.00  0.00    -0.303 N 
HETATM    2  C7  UNL     1       9.225  20.914  -5.157  1.00  0.00     0.152 A 
HETATM    3  C8  UNL     1       9.774  21.721  -6.126  1.00  0.00     0.013 A 
HETATM    4  C9  UNL     1      10.956  21.103  -6.491  1.00  0.00     0.022 A 
HETATM    5  C10 UNL     1      11.112  19.938  -5.748  1.00  0.00     0.153 A 
HETATM    6  C11 UNL     1      11.776  21.767  -7.532  1.00  0.00     0.108 C 
HETATM    7  C12 UNL     1      11.857  23.212  -7.165  1.00  0.00    -0.010 C 
HETATM    8  C13 UNL     1      10.687  23.784  -6.818  1.00  0.00    -0.019 C 
HETATM    9  C14 UNL     1       9.401  23.014  -6.802  1.00  0.00     0.055 C 
HETATM   10  C15 UNL     1       9.017  22.687  -8.206  1.00  0.00     0.089 C 
HETATM   11  S1  UNL     1      10.540  21.838  -9.146  1.00  0.00    -0.146 SA
ENDROOT
BRANCH   1  12
HETATM   12  C6  UNL     1       9.810  18.796  -3.988  1.00  0.00     0.178 C 
BRANCH  12  13
HETATM   13  C5  UNL     1       9.548  17.489  -4.690  1.00  0.00     0.083 C 
BRANCH  13  14
HETATM   14  N1  UNL     1       8.432  17.560  -5.523  1.00  0.00    -0.373 N 
BRANCH  14  15
HETATM   15  C2  UNL     1       8.513  17.299  -6.895  1.00  0.00     0.058 C 
HETATM   16  C1  UNL     1       8.510  18.448  -7.836  1.00  0.00     0.055 C 
ENDBRANCH  14  15
BRANCH  14  17
HETATM   17  C3  UNL     1       7.142  17.655  -4.953  1.00  0.00     0.122 C 
HETATM   18  C4  UNL     1       6.101  16.811  -5.629  1.00  0.00     0.027 C 
ENDBRANCH  14  17
ENDBRANCH  13  14
ENDBRANCH  12  13
ENDBRANCH   1  12
BRANCH   2  19
HETATM   19  O1  UNL     1       8.048  21.134  -4.507  1.00  0.00    -0.345 OA
ATOM     20  H1  UNL     1       7.349  21.702  -4.811  1.00  0.00     0.219 HD
ENDBRANCH   2  19
BRANCH   5  21
HETATM   21  O2  UNL     1      12.201  19.063  -5.860  1.00  0.00    -0.345 OA
ATOM     22  H2  UNL     1      12.813  18.774  -5.193  1.00  0.00     0.219 HD
ENDBRANCH   5  21
BRANCH  11  23
HETATM   23  S2  UNL     1      11.591  22.543 -10.681  1.00  0.00    -0.112 SA
HETATM   24  C16 UNL     1      12.732  21.547 -11.438  1.00  0.00     0.102 C 
ENDBRANCH  11  23
TORSDOF 8
ENDMDL
MODEL 4
REMARK VINA RESULT: -6.579098470      4.569      6.301
REMARK  8 active torsions:
REMARK  status: ('A' for Active; 'I' for Inactive)
REMARK    1  A    between atoms: C2_2  and  N1_3 
REMARK    2  A    between atoms: N1_3  and  C3_4 
REMARK    3  A    between atoms: N1_3  and  C5_6 
REMARK    4  A    between atoms: C5_6  and  C6_7 
REMARK    5  A    between atoms: C6_7  and  N2_8 
REMARK    6  A    between atoms: C7_9  and  O1_10 
REMARK    7  A    between atoms: C10_14  and  O2_15 
REMARK    8  A    between atoms: S1_22  and  S2_23 
ROOT
HETATM    1  N2  UNL     1       9.530  14.646  -6.321  1.00  0.00    -0.303 N 
HETATM    2  C7  UNL     1      10.167  15.226  -5.282  1.00  0.00     0.152 A 
HETATM    3  C8  UNL     1      11.449  15.536  -5.668  1.00  0.00     0.013 A 
HETATM    4  C9  UNL     1      11.548  15.116  -6.982  1.00  0.00     0.022 A 
HETATM    5  C10 UNL     1      10.336  14.561  -7.378  1.00  0.00     0.153 A 
HETATM    6  C11 UNL     1      12.847  15.322  -7.665  1.00  0.00     0.108 C 
HETATM    7  C12 UNL     1      13.910  14.852  -6.728  1.00  0.00    -0.010 C 
HETATM    8  C13 UNL     1      13.786  15.282  -5.456  1.00  0.00    -0.019 C 
HETATM    9  C14 UNL     1      12.656  16.167  -5.024  1.00  0.00     0.055 C 
HETATM   10  C15 UNL     1      12.836  17.513  -5.639  1.00  0.00     0.089 C 
HETATM   11  S1  UNL     1      13.118  17.336  -7.592  1.00  0.00    -0.146 SA
ENDROOT
BRANCH   1  12
HETATM   12  C6  UNL     1       8.155  14.163  -6.290  1.00  0.00     0.178 C 
BRANCH  12  13
HETATM   13  C5  UNL     1       7.280  14.985  -7.201  1.00  0.00     0.083 C 
BRANCH  13  14
HETATM   14  N1  UNL     1       6.564  15.954  -6.497  1.00  0.00    -0.373 N 
BRANCH  14  15
HETATM   15  C2  UNL     1       7.164  17.129  -6.033  1.00  0.00     0.058 C 
HETATM   16  C1  UNL     1       8.088  17.857  -6.940  1.00  0.00     0.055 C 
ENDBRANCH  14  15
BRANCH  14  17
HETATM   17  C3  UNL     1       5.153  15.883  -6.457  1.00  0.00     0.122 C 
HETATM   18  C4  UNL     1       4.529  15.225  -7.654  1.00  0.00     0.027 C 
ENDBRANCH  14  17
ENDBRANCH  13  14
ENDBRANCH  12  13
ENDBRANCH   1  12
BRANCH   2  19
HETATM   19  O1  UNL     1       9.623  15.463  -4.056  1.00  0.00    -0.345 OA
ATOM     20  H1  UNL     1       9.388  16.319  -3.715  1.00  0.00     0.219 HD
ENDBRANCH   2  19
BRANCH   5  21
HETATM   21  O2  UNL     1      10.080  14.033  -8.650  1.00  0.00    -0.345 OA
ATOM     22  H2  UNL     1       9.500  13.324  -8.903  1.00  0.00     0.219 HD
ENDBRANCH   5  21
BRANCH  11  23
HETATM   23  S2  UNL     1      14.748  17.766  -8.647  1.00  0.00    -0.112 SA
HETATM   24  C16 UNL     1      16.144  16.829  -8.445  1.00  0.00     0.102 C 
ENDBRANCH  11  23
TORSDOF 8
ENDMDL
MODEL 5
REMARK VINA RESULT: -6.488978664      3.057      6.278
REMARK  8 active torsions:
REMARK  status: ('A' for Active; 'I' for Inactive)
REMARK    1  A    between atoms: C2_2  and  N1_3 
REMARK    2  A    between atoms: N1_3  and  C3_4 
REMARK    3  A    between atoms: N1_3  and  C5_6 
REMARK    4  A    between atoms: C5_6  and  C6_7 
REMARK    5  A    between atoms: C6_7  and  N2_8 
REMARK    6  A    between atoms: C7_9  and  O1_10 
REMARK    7  A    between atoms: C10_14  and  O2_15 
REMARK    8  A    between atoms: S1_22  and  S2_23 
ROOT
HETATM    1  N2  UNL     1      11.625  21.391  -6.690  1.00  0.00    -0.303 N 
HETATM    2  C7  UNL     1      12.207  20.645  -7.652  1.00  0.00     0.152 A 
HETATM    3  C8  UNL     1      12.390  19.370  -7.171  1.00  0.00     0.013 A 
HETATM    4  C9  UNL     1      11.890  19.390  -5.882  1.00  0.00     0.022 A 
HETATM    5  C10 UNL     1      11.413  20.663  -5.595  1.00  0.00     0.153 A 
HETATM    6  C11 UNL     1      11.964  18.129  -5.106  1.00  0.00     0.108 C 
HETATM    7  C12 UNL     1      13.345  17.590  -5.283  1.00  0.00    -0.010 C 
HETATM    8  C13 UNL     1      13.800  17.581  -6.553  1.00  0.00    -0.019 C 
HETATM    9  C14 UNL     1      12.972  18.084  -7.696  1.00  0.00     0.055 C 
HETATM   10  C15 UNL     1      11.838  17.142  -7.920  1.00  0.00     0.089 C 
HETATM   11  S1  UNL     1      10.881  16.815  -6.217  1.00  0.00    -0.146 SA
ENDROOT
BRANCH   1  12
HETATM   12  C6  UNL     1      11.286  22.803  -6.821  1.00  0.00     0.178 C 
BRANCH  12  13
HETATM   13  C5  UNL     1       9.811  22.977  -7.076  1.00  0.00     0.083 C 
BRANCH  13  14
HETATM   14  N1  UNL     1       9.518  22.994  -8.439  1.00  0.00    -0.373 N 
BRANCH  14  15
HETATM   15  C2  UNL     1       8.591  22.115  -9.009  1.00  0.00     0.058 C 
HETATM   16  C1  UNL     1       8.652  20.680  -8.631  1.00  0.00     0.055 C 
ENDBRANCH  14  15
BRANCH  14  17
HETATM   17  C3  UNL     1       9.968  24.072  -9.235  1.00  0.00     0.122 C 
HETATM   18  C4  UNL     1      10.865  23.673 -10.372  1.00  0.00     0.027 C 
ENDBRANCH  14  17
ENDBRANCH  13  14
ENDBRANCH  12  13
ENDBRANCH   1  12
BRANCH   2  19
HETATM   19  O1  UNL     1      12.554  21.088  -8.893  1.00  0.00    -0.345 OA
ATOM     20  H1  UNL     1      12.307  21.927  -9.266  1.00  0.00     0.219 HD
ENDBRANCH   2  19
BRANCH   5  21
HETATM   21  O2  UNL     1      10.836  21.041  -4.375  1.00  0.00    -0.345 OA
ATOM     22  H2  UNL     1      10.662  20.517  -3.603  1.00  0.00     0.219 HD
ENDBRANCH   5  21
BRANCH  11  23
HETATM   23  S2  UNL     1      10.743  15.120  -5.185  1.00  0.00    -0.112 SA
HETATM   24  C16 UNL     1       9.740  13.878  -5.750  1.00  0.00     0.102 C 
ENDBRANCH  11  23
TORSDOF 8
ENDMDL
