MODEL 1
REMARK VINA RESULT: -7.652159924      0.000      0.000
REMARK  2 active torsions:
REMARK  status: ('A' for Active; 'I' for Inactive)
REMARK    1  A    between atoms: C5_12  and  N3_13 
REMARK    2  A    between atoms: N3_13  and  N4_15 
ROOT
HETATM    1  N1  UNL     1      14.046   5.733  17.403  1.00  0.00    -0.234 N 
ATOM      2  H11 UNL     1      14.051   6.638  16.933  1.00  0.00     0.174 HD
ATOM      3  H12 UNL     1      13.502   5.653  18.261  1.00  0.00     0.174 HD
HETATM    4  C1  UNL     1      14.706   4.728  16.928  1.00  0.00     0.679 A 
HETATM    5  N2  UNL     1      14.700   3.471  17.581  1.00  0.00    -0.153 N 
ATOM      6  H2  UNL     1      14.160   3.373  18.440  1.00  0.00     0.187 HD
HETATM    7  C2  UNL     1      15.409   2.342  17.095  1.00  0.00     0.312 A 
HETATM    8  O1  UNL     1      15.367   1.250  17.718  1.00  0.00    -0.263 OA
HETATM    9  C3  UNL     1      16.182   2.463  15.872  1.00  0.00     0.268 A 
HETATM   10  O2  UNL     1      16.811   1.455  15.445  1.00  0.00    -0.280 OA
HETATM   11  C4  UNL     1      16.192   3.744  15.202  1.00  0.00     0.121 A 
HETATM   12  C5  UNL     1      16.874   3.906  14.093  1.00  0.00     0.141 C 
HETATM   13  N7  UNL     1      15.468   4.840  15.727  1.00  0.00    -0.186 N 
ATOM     14  H7  UNL     1      15.491   5.733  15.234  1.00  0.00     0.184 HD
ENDROOT
BRANCH  12  15
HETATM   15  N3  UNL     1      17.598   2.807  13.568  1.00  0.00    -0.305 N 
ATOM     16  H3  UNL     1      18.072   2.169  14.208  1.00  0.00     0.186 HD
BRANCH  15  17
HETATM   17  N4  UNL     1      17.674   2.583  12.208  1.00  0.00    -0.264 N 
HETATM   18  C6  UNL     1      16.607   2.147  11.342  1.00  0.00     0.171 C 
HETATM   19  C7  UNL     1      17.387   1.534  10.209  1.00  0.00     0.144 C 
HETATM   20  N5  UNL     1      18.671   2.157  10.303  1.00  0.00    -0.362 N 
HETATM   21  C8  UNL     1      18.862   2.753  11.412  1.00  0.00     0.205 C 
ATOM     22  H5  UNL     1      19.365   2.126   9.556  1.00  0.00     0.162 HD
HETATM   23  N6  UNL     1      20.003   3.477  11.865  1.00  0.00    -0.062 NA
ENDBRANCH  15  17
ENDBRANCH  12  15
TORSDOF 2
ENDMDL
MODEL 2
REMARK VINA RESULT: -7.418361252      0.868      1.401
REMARK  2 active torsions:
REMARK  status: ('A' for Active; 'I' for Inactive)
REMARK    1  A    between atoms: C5_12  and  N3_13 
REMARK    2  A    between atoms: N3_13  and  N4_15 
ROOT
HETATM    1  N1  UNL     1      14.250   5.780  17.232  1.00  0.00    -0.234 N 
ATOM      2  H11 UNL     1      14.234   6.671  16.734  1.00  0.00     0.174 HD
ATOM      3  H12 UNL     1      13.765   5.736  18.127  1.00  0.00     0.174 HD
HETATM    4  C1  UNL     1      14.863   4.752  16.747  1.00  0.00     0.679 A 
HETATM    5  N2  UNL     1      14.885   3.516  17.438  1.00  0.00    -0.153 N 
ATOM      6  H2  UNL     1      14.403   3.452  18.335  1.00  0.00     0.187 HD
HETATM    7  C2  UNL     1      15.544   2.361  16.942  1.00  0.00     0.312 A 
HETATM    8  O1  UNL     1      15.530   1.290  17.601  1.00  0.00    -0.263 OA
HETATM    9  C3  UNL     1      16.234   2.432  15.666  1.00  0.00     0.268 A 
HETATM   10  O2  UNL     1      16.819   1.402  15.230  1.00  0.00    -0.280 OA
HETATM   11  C4  UNL     1      16.215   3.692  14.956  1.00  0.00     0.121 A 
HETATM   12  C5  UNL     1      16.822   3.809  13.799  1.00  0.00     0.141 C 
HETATM   13  N7  UNL     1      15.543   4.814  15.493  1.00  0.00    -0.186 N 
ATOM     14  H7  UNL     1      15.544   5.691  14.972  1.00  0.00     0.184 HD
ENDROOT
BRANCH  12  15
HETATM   15  N3  UNL     1      17.495   2.684  13.262  1.00  0.00    -0.305 N 
ATOM     16  H3  UNL     1      17.345   1.765  13.680  1.00  0.00     0.186 HD
BRANCH  15  17
HETATM   17  N4  UNL     1      18.349   2.806  12.184  1.00  0.00    -0.264 N 
HETATM   18  C6  UNL     1      19.101   3.977  11.805  1.00  0.00     0.171 C 
HETATM   19  C7  UNL     1      19.322   3.716  10.339  1.00  0.00     0.144 C 
HETATM   20  N5  UNL     1      19.177   2.298  10.220  1.00  0.00    -0.362 N 
HETATM   21  C8  UNL     1      18.635   1.759  11.238  1.00  0.00     0.205 C 
ATOM     22  H5  UNL     1      19.478   1.770   9.400  1.00  0.00     0.162 HD
HETATM   23  N6  UNL     1      18.330   0.388  11.482  1.00  0.00    -0.062 NA
ENDBRANCH  15  17
ENDBRANCH  12  15
TORSDOF 2
ENDMDL
MODEL 3
REMARK VINA RESULT: -7.334754420      2.380      6.020
REMARK  2 active torsions:
REMARK  status: ('A' for Active; 'I' for Inactive)
REMARK    1  A    between atoms: C5_12  and  N3_13 
REMARK    2  A    between atoms: N3_13  and  N4_15 
ROOT
HETATM    1  N1  UNL     1      20.731   5.487  11.664  1.00  0.00    -0.234 N 
ATOM      2  H11 UNL     1      21.256   5.984  12.385  1.00  0.00     0.174 HD
ATOM      3  H12 UNL     1      21.184   5.359  10.760  1.00  0.00     0.174 HD
HETATM    4  C1  UNL     1      19.541   5.040  11.890  1.00  0.00     0.679 A 
HETATM    5  N2  UNL     1      18.814   4.350  10.890  1.00  0.00    -0.153 N 
ATOM      6  H2  UNL     1      19.251   4.212   9.979  1.00  0.00     0.187 HD
HETATM    7  C2  UNL     1      17.505   3.841  11.094  1.00  0.00     0.312 A 
HETATM    8  O1  UNL     1      16.906   3.237  10.168  1.00  0.00    -0.263 OA
HETATM    9  C3  UNL     1      16.866   4.027  12.385  1.00  0.00     0.268 A 
HETATM   10  O2  UNL     1      15.701   3.573  12.561  1.00  0.00    -0.280 OA
HETATM   11  C4  UNL     1      17.604   4.731  13.410  1.00  0.00     0.121 A 
HETATM   12  C5  UNL     1      17.073   4.926  14.593  1.00  0.00     0.141 C 
HETATM   13  N7  UNL     1      18.907   5.219  13.156  1.00  0.00    -0.186 N 
ATOM     14  H7  UNL     1      19.406   5.712  13.897  1.00  0.00     0.184 HD
ENDROOT
BRANCH  12  15
HETATM   15  N3  UNL     1      15.767   4.436  14.846  1.00  0.00    -0.305 N 
ATOM     16  H3  UNL     1      15.034   4.582  14.151  1.00  0.00     0.186 HD
BRANCH  15  17
HETATM   17  N4  UNL     1      15.467   3.766  16.015  1.00  0.00    -0.264 N 
HETATM   18  C6  UNL     1      14.624   4.233  17.089  1.00  0.00     0.171 C 
HETATM   19  C7  UNL     1      15.147   3.418  18.241  1.00  0.00     0.144 C 
HETATM   20  N5  UNL     1      15.767   2.294  17.610  1.00  0.00    -0.362 N 
HETATM   21  C8  UNL     1      15.959   2.458  16.363  1.00  0.00     0.205 C 
ATOM     22  H5  UNL     1      16.029   1.444  18.111  1.00  0.00     0.162 HD
HETATM   23  N6  UNL     1      16.544   1.571  15.412  1.00  0.00    -0.062 NA
ENDBRANCH  15  17
ENDBRANCH  12  15
TORSDOF 2
ENDMDL
MODEL 4
REMARK VINA RESULT: -7.266269479      1.101      1.413
REMARK  2 active torsions:
REMARK  status: ('A' for Active; 'I' for Inactive)
REMARK    1  A    between atoms: C5_12  and  N3_13 
REMARK    2  A    between atoms: N3_13  and  N4_15 
ROOT
HETATM    1  N1  UNL     1      14.037   5.684  17.310  1.00  0.00    -0.234 N 
ATOM      2  H11 UNL     1      14.026   6.573  16.809  1.00  0.00     0.174 HD
ATOM      3  H12 UNL     1      13.500   5.627  18.174  1.00  0.00     0.174 HD
HETATM    4  C1  UNL     1      14.707   4.673  16.866  1.00  0.00     0.679 A 
HETATM    5  N2  UNL     1      14.722   3.439  17.562  1.00  0.00    -0.153 N 
ATOM      6  H2  UNL     1      14.189   3.363  18.428  1.00  0.00     0.187 HD
HETATM    7  C2  UNL     1      15.442   2.303  17.111  1.00  0.00     0.312 A 
HETATM    8  O1  UNL     1      15.419   1.233  17.771  1.00  0.00    -0.263 OA
HETATM    9  C3  UNL     1      16.206   2.391  15.879  1.00  0.00     0.268 A 
HETATM   10  O2  UNL     1      16.846   1.378  15.483  1.00  0.00    -0.280 OA
HETATM   11  C4  UNL     1      16.195   3.649  15.165  1.00  0.00     0.121 A 
HETATM   12  C5  UNL     1      16.868   3.782  14.047  1.00  0.00     0.141 C 
HETATM   13  N7  UNL     1      15.460   4.752  15.656  1.00  0.00    -0.186 N 
ATOM     14  H7  UNL     1      15.468   5.628  15.133  1.00  0.00     0.184 HD
ENDROOT
BRANCH  12  15
HETATM   15  N3  UNL     1      17.604   2.674  13.555  1.00  0.00    -0.305 N 
ATOM     16  H3  UNL     1      18.397   2.323  14.091  1.00  0.00     0.186 HD
BRANCH  15  17
HETATM   17  N4  UNL     1      17.266   2.062  12.365  1.00  0.00    -0.264 N 
HETATM   18  C6  UNL     1      17.659   0.744  11.928  1.00  0.00     0.171 C 
HETATM   19  C7  UNL     1      17.525   0.883  10.435  1.00  0.00     0.144 C 
HETATM   20  N5  UNL     1      16.613   1.973  10.275  1.00  0.00    -0.362 N 
HETATM   21  C8  UNL     1      16.447   2.653  11.339  1.00  0.00     0.205 C 
ATOM     22  H5  UNL     1      16.143   2.186   9.395  1.00  0.00     0.162 HD
HETATM   23  N6  UNL     1      15.626   3.796  11.564  1.00  0.00    -0.062 NA
ENDBRANCH  15  17
ENDBRANCH  12  15
TORSDOF 2
ENDMDL
MODEL 5
REMARK VINA RESULT: -6.956096931      1.784      6.124
REMARK  2 active torsions:
REMARK  status: ('A' for Active; 'I' for Inactive)
REMARK    1  A    between atoms: C5_12  and  N3_13 
REMARK    2  A    between atoms: N3_13  and  N4_15 
ROOT
HETATM    1  N1  UNL     1      18.993   4.748   9.923  1.00  0.00    -0.234 N 
ATOM      2  H11 UNL     1      19.023   5.754  10.095  1.00  0.00     0.174 HD
ATOM      3  H12 UNL     1      19.364   4.414   9.034  1.00  0.00     0.174 HD
HETATM    4  C1  UNL     1      18.504   3.933  10.797  1.00  0.00     0.679 A 
HETATM    5  N2  UNL     1      18.463   2.538  10.558  1.00  0.00    -0.153 N 
ATOM      6  H2  UNL     1      18.830   2.185   9.674  1.00  0.00     0.187 HD
HETATM    7  C2  UNL     1      17.935   1.606  11.489  1.00  0.00     0.312 A 
HETATM    8  O1  UNL     1      17.924   0.378  11.222  1.00  0.00    -0.263 OA
HETATM    9  C3  UNL     1      17.409   2.089  12.753  1.00  0.00     0.268 A 
HETATM   10  O2  UNL     1      16.940   1.256  13.578  1.00  0.00    -0.280 OA
HETATM   11  C4  UNL     1      17.448   3.513  13.003  1.00  0.00     0.121 A 
HETATM   12  C5  UNL     1      16.986   4.001  14.129  1.00  0.00     0.141 C 
HETATM   13  N7  UNL     1      17.985   4.400  12.041  1.00  0.00    -0.186 N 
ATOM     14  H7  UNL     1      18.002   5.400  12.243  1.00  0.00     0.184 HD
ENDROOT
BRANCH  12  15
HETATM   15  N3  UNL     1      16.449   3.110  15.092  1.00  0.00    -0.305 N 
ATOM     16  H3  UNL     1      16.744   2.134  15.090  1.00  0.00     0.186 HD
BRANCH  15  17
HETATM   17  N4  UNL     1      15.533   3.539  16.032  1.00  0.00    -0.264 N 
HETATM   18  C6  UNL     1      14.779   4.768  16.008  1.00  0.00     0.171 C 
HETATM   19  C7  UNL     1      14.465   4.942  17.470  1.00  0.00     0.144 C 
HETATM   20  N5  UNL     1      14.579   3.620  18.003  1.00  0.00    -0.362 N 
HETATM   21  C8  UNL     1      15.173   2.810  17.221  1.00  0.00     0.205 C 
ATOM     22  H5  UNL     1      14.220   3.352  18.920  1.00  0.00     0.162 HD
HETATM   23  N6  UNL     1      15.469   1.428  17.403  1.00  0.00    -0.062 NA
ENDBRANCH  15  17
ENDBRANCH  12  15
TORSDOF 2
ENDMDL
