MODEL 1
REMARK VINA RESULT: -8.449326963      0.000      0.000
REMARK  9 active torsions:
REMARK  status: ('A' for Active; 'I' for Inactive)
REMARK    1  A    between atoms: N1_1  and  C1_4 
REMARK    2  A    between atoms: C2_7  and  O1_8 
REMARK    3  A    between atoms: O1_8  and  C3_9 
REMARK    4  A    between atoms: N3_11  and  N4_13 
REMARK    5  A    between atoms: N4_13  and  C5_15 
REMARK    6  A    between atoms: C8_25  and  C9_26 
REMARK    7  A    between atoms: C9_26  and  O3_27 
REMARK       I    between atoms: N9_30  and  C10_31 
REMARK    8  A    between atoms: C10_31  and  C11_33 
REMARK    9  A    between atoms: C11_33  and  O5_34 
ROOT
HETATM    1  C3  UNL     1      16.737   3.967  14.106  1.00  0.00     0.303 C 
HETATM    2  C4  UNL     1      16.274   5.336  13.650  1.00  0.00     0.077 C 
HETATM    3  N3  UNL     1      16.859   5.971  12.718  1.00  0.00    -0.301 N 
ATOM      4  H3  UNL     1      17.661   5.511  12.288  1.00  0.00     0.186 HD
HETATM    5  C8  UNL     1      15.119   5.622  14.508  1.00  0.00     0.174 C 
HETATM    6  N8  UNL     1      15.529   5.030  15.752  1.00  0.00    -0.120 NA
HETATM    7  N9  UNL     1      15.970   3.777  15.324  1.00  0.00    -0.227 N 
HETATM    8  C10 UNL     1      15.693   2.569  15.992  1.00  0.00     0.261 C 
HETATM    9  O4  UNL     1      16.133   1.491  15.529  1.00  0.00    -0.269 OA
ENDROOT
BRANCH   1  10
HETATM   10  O1  UNL     1      16.347   3.096  13.094  1.00  0.00    -0.288 OA
BRANCH  10  11
HETATM   11  C2  UNL     1      17.159   2.344  12.260  1.00  0.00     0.244 A 
HETATM   12  N2  UNL     1      17.191   1.006  12.285  1.00  0.00    -0.155 N 
HETATM   13  C1  UNL     1      18.010   0.350  11.440  1.00  0.00     0.683 A 
ATOM     14  H2  UNL     1      16.602   0.489  12.938  1.00  0.00     0.188 HD
HETATM   15  N11 UNL     1      18.811   0.972  10.556  1.00  0.00    -0.141 N 
HETATM   16  C12 UNL     1      18.749   2.324  10.563  1.00  0.00     0.341 A 
ATOM     17  H11 UNL     1      19.424   0.458   9.923  1.00  0.00     0.189 HD
HETATM   18  N10 UNL     1      17.948   2.992  11.388  1.00  0.00    -0.273 N 
HETATM   19  O6  UNL     1      19.490   2.960   9.741  1.00  0.00    -0.246 OA
ATOM     20  H10 UNL     1      17.933   4.012  11.358  1.00  0.00     0.174 HD
BRANCH  13  21
HETATM   21  N1  UNL     1      18.034  -0.955  11.474  1.00  0.00    -0.234 N 
ATOM     22  H12 UNL     1      17.228  -1.437  11.870  1.00  0.00     0.174 HD
ATOM     23  H11 UNL     1      18.851  -1.441  11.106  1.00  0.00     0.174 HD
ENDBRANCH  13  21
ENDBRANCH  10  11
ENDBRANCH   1  10
BRANCH   3  24
HETATM   24  N4  UNL     1      16.527   7.212  12.225  1.00  0.00    -0.284 N 
ATOM     25  H4  UNL     1      16.563   8.021  12.846  1.00  0.00     0.188 HD
BRANCH  24  26
HETATM   26  C5  UNL     1      16.171   7.376  10.995  1.00  0.00     0.141 A 
HETATM   27  C6  UNL     1      16.702   6.644   9.957  1.00  0.00     0.157 A 
HETATM   28  N5  UNL     1      16.309   6.838   8.689  1.00  0.00    -0.304 N 
HETATM   29  N6  UNL     1      15.390   7.745   8.364  1.00  0.00    -0.252 N 
ATOM     30  H5  UNL     1      16.728   6.273   7.950  1.00  0.00     0.186 HD
HETATM   31  C7  UNL     1      14.864   8.466   9.369  1.00  0.00     0.340 A 
ATOM     32  H6  UNL     1      15.099   7.887   7.396  1.00  0.00     0.191 HD
HETATM   33  O2  UNL     1      13.988   9.344   9.142  1.00  0.00    -0.245 OA
HETATM   34  N7  UNL     1      15.238   8.293  10.649  1.00  0.00    -0.291 N 
ATOM     35  H7  UNL     1      14.808   8.865  11.375  1.00  0.00     0.172 HD
ENDBRANCH  24  26
ENDBRANCH   3  24
BRANCH   5  36
HETATM   36  C9  UNL     1      14.733   7.051  14.597  1.00  0.00     0.193 C 
BRANCH  36  37
HETATM   37  O3  UNL     1      14.040   7.552  13.537  1.00  0.00    -0.399 OA
ATOM     38  H3  UNL     1      13.539   8.342  13.701  1.00  0.00     0.209 HD
ENDBRANCH  36  37
ENDBRANCH   5  36
BRANCH   8  39
HETATM   39  C11 UNL     1      14.894   2.506  17.233  1.00  0.00     0.268 C 
BRANCH  39  40
HETATM   40  O5  UNL     1      13.558   2.636  16.953  1.00  0.00    -0.392 OA
ATOM     41  H5  UNL     1      13.050   1.997  17.440  1.00  0.00     0.210 HD
ENDBRANCH  39  40
ENDBRANCH   8  39
TORSDOF 9
ENDMDL
MODEL 2
REMARK VINA RESULT: -8.303379459      1.060      1.366
REMARK  9 active torsions:
REMARK  status: ('A' for Active; 'I' for Inactive)
REMARK    1  A    between atoms: N1_1  and  C1_4 
REMARK    2  A    between atoms: C2_7  and  O1_8 
REMARK    3  A    between atoms: O1_8  and  C3_9 
REMARK    4  A    between atoms: N3_11  and  N4_13 
REMARK    5  A    between atoms: N4_13  and  C5_15 
REMARK    6  A    between atoms: C8_25  and  C9_26 
REMARK    7  A    between atoms: C9_26  and  O3_27 
REMARK       I    between atoms: N9_30  and  C10_31 
REMARK    8  A    between atoms: C10_31  and  C11_33 
REMARK    9  A    between atoms: C11_33  and  O5_34 
ROOT
HETATM    1  C3  UNL     1      16.747   3.917  14.164  1.00  0.00     0.303 C 
HETATM    2  C4  UNL     1      16.275   5.277  13.693  1.00  0.00     0.077 C 
HETATM    3  N3  UNL     1      16.856   5.908  12.757  1.00  0.00    -0.301 N 
ATOM      4  H3  UNL     1      17.662   5.449  12.332  1.00  0.00     0.186 HD
HETATM    5  C8  UNL     1      15.115   5.563  14.547  1.00  0.00     0.174 C 
HETATM    6  N8  UNL     1      15.528   4.986  15.798  1.00  0.00    -0.120 NA
HETATM    7  N9  UNL     1      15.979   3.733  15.382  1.00  0.00    -0.227 N 
HETATM    8  C10 UNL     1      15.711   2.530  16.061  1.00  0.00     0.261 C 
HETATM    9  O4  UNL     1      16.160   1.451  15.611  1.00  0.00    -0.269 OA
ENDROOT
BRANCH   1  10
HETATM   10  O1  UNL     1      16.366   3.033  13.160  1.00  0.00    -0.288 OA
BRANCH  10  11
HETATM   11  C2  UNL     1      17.185   2.323  12.297  1.00  0.00     0.244 A 
HETATM   12  N2  UNL     1      17.250   0.985  12.288  1.00  0.00    -0.155 N 
HETATM   13  C1  UNL     1      18.073   0.371  11.417  1.00  0.00     0.683 A 
ATOM     14  H2  UNL     1      16.682   0.438  12.935  1.00  0.00     0.188 HD
HETATM   15  N11 UNL     1      18.847   1.034  10.538  1.00  0.00    -0.141 N 
HETATM   16  C12 UNL     1      18.751   2.384  10.580  1.00  0.00     0.341 A 
ATOM     17  H11 UNL     1      19.464   0.552   9.884  1.00  0.00     0.189 HD
HETATM   18  N10 UNL     1      17.946   3.011  11.432  1.00  0.00    -0.273 N 
HETATM   19  O6  UNL     1      19.466   3.058   9.764  1.00  0.00    -0.246 OA
ATOM     20  H10 UNL     1      17.905   4.031  11.427  1.00  0.00     0.174 HD
BRANCH  13  21
HETATM   21  N1  UNL     1      18.130  -0.933  11.417  1.00  0.00    -0.234 N 
ATOM     22  H12 UNL     1      17.828  -1.424  12.259  1.00  0.00     0.174 HD
ATOM     23  H11 UNL     1      18.471  -1.411  10.583  1.00  0.00     0.174 HD
ENDBRANCH  13  21
ENDBRANCH  10  11
ENDBRANCH   1  10
BRANCH   3  24
HETATM   24  N4  UNL     1      16.516   7.141  12.251  1.00  0.00    -0.284 N 
ATOM     25  H4  UNL     1      16.225   7.880  12.891  1.00  0.00     0.188 HD
BRANCH  24  26
HETATM   26  C5  UNL     1      16.557   7.385  10.983  1.00  0.00     0.141 A 
HETATM   27  C6  UNL     1      15.816   8.380  10.387  1.00  0.00     0.157 A 
HETATM   28  N5  UNL     1      15.882   8.608   9.067  1.00  0.00    -0.304 N 
HETATM   29  N6  UNL     1      16.662   7.889   8.263  1.00  0.00    -0.252 N 
ATOM     30  H5  UNL     1      15.316   9.356   8.666  1.00  0.00     0.186 HD
HETATM   31  C7  UNL     1      17.391   6.914   8.834  1.00  0.00     0.340 A 
ATOM     32  H6  UNL     1      16.704   8.069   7.259  1.00  0.00     0.191 HD
HETATM   33  O2  UNL     1      18.155   6.191   8.139  1.00  0.00    -0.245 OA
HETATM   34  N7  UNL     1      17.346   6.664  10.153  1.00  0.00    -0.291 N 
ATOM     35  H7  UNL     1      17.919   5.913  10.538  1.00  0.00     0.172 HD
ENDBRANCH  24  26
ENDBRANCH   3  24
BRANCH   5  36
HETATM   36  C9  UNL     1      14.718   6.990  14.621  1.00  0.00     0.193 C 
BRANCH  36  37
HETATM   37  O3  UNL     1      14.050   7.483  13.541  1.00  0.00    -0.399 OA
ATOM     38  H3  UNL     1      13.974   8.429  13.493  1.00  0.00     0.209 HD
ENDBRANCH  36  37
ENDBRANCH   5  36
BRANCH   8  39
HETATM   39  C11 UNL     1      14.909   2.472  17.302  1.00  0.00     0.268 C 
BRANCH  39  40
HETATM   40  O5  UNL     1      13.574   2.612  17.021  1.00  0.00    -0.392 OA
ATOM     41  H5  UNL     1      13.049   2.423  17.789  1.00  0.00     0.210 HD
ENDBRANCH  39  40
ENDBRANCH   8  39
TORSDOF 9
ENDMDL
MODEL 3
REMARK VINA RESULT: -8.158265844      1.852      2.573
REMARK  9 active torsions:
REMARK  status: ('A' for Active; 'I' for Inactive)
REMARK    1  A    between atoms: N1_1  and  C1_4 
REMARK    2  A    between atoms: C2_7  and  O1_8 
REMARK    3  A    between atoms: O1_8  and  C3_9 
REMARK    4  A    between atoms: N3_11  and  N4_13 
REMARK    5  A    between atoms: N4_13  and  C5_15 
REMARK    6  A    between atoms: C8_25  and  C9_26 
REMARK    7  A    between atoms: C9_26  and  O3_27 
REMARK       I    between atoms: N9_30  and  C10_31 
REMARK    8  A    between atoms: C10_31  and  C11_33 
REMARK    9  A    between atoms: C11_33  and  O5_34 
ROOT
HETATM    1  C3  UNL     1      16.736   3.977  14.165  1.00  0.00     0.303 C 
HETATM    2  C4  UNL     1      16.242   5.348  13.750  1.00  0.00     0.077 C 
HETATM    3  N3  UNL     1      16.804   6.020  12.831  1.00  0.00    -0.301 N 
ATOM      4  H3  UNL     1      17.611   5.588  12.381  1.00  0.00     0.186 HD
HETATM    5  C8  UNL     1      15.089   5.587  14.626  1.00  0.00     0.174 C 
HETATM    6  N8  UNL     1      15.523   4.970  15.850  1.00  0.00    -0.120 NA
HETATM    7  N9  UNL     1      15.985   3.739  15.383  1.00  0.00    -0.227 N 
HETATM    8  C10 UNL     1      15.739   2.508  16.021  1.00  0.00     0.261 C 
HETATM    9  O4  UNL     1      16.196   1.452  15.525  1.00  0.00    -0.269 OA
ENDROOT
BRANCH   1  10
HETATM   10  O1  UNL     1      16.354   3.126  13.133  1.00  0.00    -0.288 OA
BRANCH  10  11
HETATM   11  C2  UNL     1      17.172   2.388  12.293  1.00  0.00     0.244 A 
HETATM   12  N2  UNL     1      17.223   1.050  12.315  1.00  0.00    -0.155 N 
HETATM   13  C1  UNL     1      18.047   0.407  11.465  1.00  0.00     0.683 A 
ATOM     14  H2  UNL     1      16.644   0.524  12.969  1.00  0.00     0.188 HD
HETATM   15  N11 UNL     1      18.835   1.042  10.578  1.00  0.00    -0.141 N 
HETATM   16  C12 UNL     1      18.754   2.393  10.588  1.00  0.00     0.341 A 
ATOM     17  H11 UNL     1      19.452   0.538   9.941  1.00  0.00     0.189 HD
HETATM   18  N10 UNL     1      17.948   3.049  11.419  1.00  0.00    -0.273 N 
HETATM   19  O6  UNL     1      19.483   3.041   9.764  1.00  0.00    -0.246 OA
ATOM     20  H10 UNL     1      17.919   4.068  11.391  1.00  0.00     0.174 HD
BRANCH  13  21
HETATM   21  N1  UNL     1      18.089  -0.897  11.495  1.00  0.00    -0.234 N 
ATOM     22  H12 UNL     1      17.914  -1.359  12.387  1.00  0.00     0.174 HD
ATOM     23  H11 UNL     1      18.292  -1.403  10.633  1.00  0.00     0.174 HD
ENDBRANCH  13  21
ENDBRANCH  10  11
ENDBRANCH   1  10
BRANCH   3  24
HETATM   24  N4  UNL     1      16.443   7.267  12.375  1.00  0.00    -0.284 N 
ATOM     25  H4  UNL     1      15.526   7.396  11.946  1.00  0.00     0.188 HD
BRANCH  24  26
HETATM   26  C5  UNL     1      17.238   8.279  12.479  1.00  0.00     0.141 A 
HETATM   27  C6  UNL     1      17.307   9.278  11.535  1.00  0.00     0.157 A 
HETATM   28  N5  UNL     1      18.144  10.317  11.672  1.00  0.00    -0.304 N 
HETATM   29  N6  UNL     1      18.953  10.440  12.723  1.00  0.00    -0.252 N 
ATOM     30  H5  UNL     1      18.162  11.036  10.949  1.00  0.00     0.186 HD
HETATM   31  C7  UNL     1      18.894   9.471  13.652  1.00  0.00     0.340 A 
ATOM     32  H6  UNL     1      19.588  11.233  12.818  1.00  0.00     0.191 HD
HETATM   33  O2  UNL     1      19.628   9.516  14.677  1.00  0.00    -0.245 OA
HETATM   34  N7  UNL     1      18.065   8.419  13.541  1.00  0.00    -0.291 N 
ATOM     35  H7  UNL     1      18.059   7.710  14.274  1.00  0.00     0.172 HD
ENDBRANCH  24  26
ENDBRANCH   3  24
BRANCH   5  36
HETATM   36  C9  UNL     1      14.675   7.005  14.758  1.00  0.00     0.193 C 
BRANCH  36  37
HETATM   37  O3  UNL     1      13.993   7.531  13.703  1.00  0.00    -0.399 OA
ATOM     38  H3  UNL     1      14.522   7.861  12.986  1.00  0.00     0.209 HD
ENDBRANCH  36  37
ENDBRANCH   5  36
BRANCH   8  39
HETATM   39  C11 UNL     1      14.953   2.395  17.267  1.00  0.00     0.268 C 
BRANCH  39  40
HETATM   40  O5  UNL     1      13.619   2.589  17.016  1.00  0.00    -0.392 OA
ATOM     41  H5  UNL     1      13.449   2.568  16.082  1.00  0.00     0.210 HD
ENDBRANCH  39  40
ENDBRANCH   8  39
TORSDOF 9
ENDMDL
MODEL 4
REMARK VINA RESULT: -8.151375812      1.977      5.034
REMARK  9 active torsions:
REMARK  status: ('A' for Active; 'I' for Inactive)
REMARK    1  A    between atoms: N1_1  and  C1_4 
REMARK    2  A    between atoms: C2_7  and  O1_8 
REMARK    3  A    between atoms: O1_8  and  C3_9 
REMARK    4  A    between atoms: N3_11  and  N4_13 
REMARK    5  A    between atoms: N4_13  and  C5_15 
REMARK    6  A    between atoms: C8_25  and  C9_26 
REMARK    7  A    between atoms: C9_26  and  O3_27 
REMARK       I    between atoms: N9_30  and  C10_31 
REMARK    8  A    between atoms: C10_31  and  C11_33 
REMARK    9  A    between atoms: C11_33  and  O5_34 
ROOT
HETATM    1  C3  UNL     1      16.415   3.857  12.473  1.00  0.00     0.303 C 
HETATM    2  C4  UNL     1      16.968   5.121  11.848  1.00  0.00     0.077 C 
HETATM    3  N3  UNL     1      16.505   6.271  12.125  1.00  0.00    -0.301 N 
ATOM      4  H3  UNL     1      15.736   6.302  12.794  1.00  0.00     0.186 HD
HETATM    5  C8  UNL     1      18.039   4.639  10.968  1.00  0.00     0.174 C 
HETATM    6  N8  UNL     1      17.483   3.404  10.486  1.00  0.00    -0.120 NA
HETATM    7  N9  UNL     1      17.046   2.821  11.676  1.00  0.00    -0.227 N 
HETATM    8  C10 UNL     1      17.210   1.461  11.998  1.00  0.00     0.261 C 
HETATM    9  O4  UNL     1      16.783   1.028  13.094  1.00  0.00    -0.269 OA
ENDROOT
BRANCH   1  10
HETATM   10  O1  UNL     1      16.876   3.868  13.786  1.00  0.00    -0.288 OA
BRANCH  10  11
HETATM   11  C2  UNL     1      16.127   3.810  14.951  1.00  0.00     0.244 A 
HETATM   12  N2  UNL     1      15.485   4.869  15.458  1.00  0.00    -0.155 N 
HETATM   13  C1  UNL     1      14.778   4.728  16.597  1.00  0.00     0.683 A 
ATOM     14  H2  UNL     1      15.529   5.773  14.987  1.00  0.00     0.188 HD
HETATM   15  N11 UNL     1      14.679   3.565  17.265  1.00  0.00    -0.141 N 
HETATM   16  C12 UNL     1      15.343   2.519  16.719  1.00  0.00     0.341 A 
ATOM     17  H11 UNL     1      14.138   3.476  18.126  1.00  0.00     0.189 HD
HETATM   18  N10 UNL     1      16.046   2.635  15.596  1.00  0.00    -0.273 N 
HETATM   19  O6  UNL     1      15.278   1.393  17.316  1.00  0.00    -0.246 OA
ATOM     20  H10 UNL     1      16.531   1.820  15.220  1.00  0.00     0.174 HD
BRANCH  13  21
HETATM   21  N1  UNL     1      14.156   5.767  17.083  1.00  0.00    -0.234 N 
ATOM     22  H12 UNL     1      14.501   6.692  16.829  1.00  0.00     0.174 HD
ATOM     23  H11 UNL     1      13.354   5.618  17.695  1.00  0.00     0.174 HD
ENDBRANCH  13  21
ENDBRANCH  10  11
ENDBRANCH   1  10
BRANCH   3  24
HETATM   24  N4  UNL     1      16.927   7.479  11.620  1.00  0.00    -0.284 N 
ATOM     25  H4  UNL     1      17.898   7.762  11.750  1.00  0.00     0.188 HD
BRANCH  24  26
HETATM   26  C5  UNL     1      16.121   8.263  10.984  1.00  0.00     0.141 A 
HETATM   27  C6  UNL     1      15.844   9.547  11.395  1.00  0.00     0.157 A 
HETATM   28  N5  UNL     1      15.003  10.336  10.711  1.00  0.00    -0.304 N 
HETATM   29  N6  UNL     1      14.391   9.925   9.603  1.00  0.00    -0.252 N 
ATOM     30  H5  UNL     1      14.826  11.281  11.051  1.00  0.00     0.186 HD
HETATM   31  C7  UNL     1      14.654   8.673   9.190  1.00  0.00     0.340 A 
ATOM     32  H6  UNL     1      13.751  10.532   9.090  1.00  0.00     0.191 HD
HETATM   33  O2  UNL     1      14.114   8.211   8.149  1.00  0.00    -0.245 OA
HETATM   34  N7  UNL     1      15.493   7.860   9.855  1.00  0.00    -0.291 N 
ATOM     35  H7  UNL     1      15.659   6.918   9.500  1.00  0.00     0.172 HD
ENDBRANCH  24  26
ENDBRANCH   3  24
BRANCH   5  36
HETATM   36  C9  UNL     1      18.462   5.586   9.908  1.00  0.00     0.193 C 
BRANCH  36  37
HETATM   37  O3  UNL     1      17.528   5.886   8.963  1.00  0.00    -0.399 OA
ATOM     38  H3  UNL     1      17.721   6.631   8.406  1.00  0.00     0.209 HD
ENDBRANCH  36  37
ENDBRANCH   5  36
BRANCH   8  39
HETATM   39  C11 UNL     1      17.876   0.499  11.095  1.00  0.00     0.268 C 
BRANCH  39  40
HETATM   40  O5  UNL     1      18.271  -0.617  11.786  1.00  0.00    -0.392 OA
ATOM     41  H5  UNL     1      19.218  -0.662  11.835  1.00  0.00     0.210 HD
ENDBRANCH  39  40
ENDBRANCH   8  39
TORSDOF 9
ENDMDL
MODEL 5
REMARK VINA RESULT: -8.144456372      2.069      5.068
REMARK  9 active torsions:
REMARK  status: ('A' for Active; 'I' for Inactive)
REMARK    1  A    between atoms: N1_1  and  C1_4 
REMARK    2  A    between atoms: C2_7  and  O1_8 
REMARK    3  A    between atoms: O1_8  and  C3_9 
REMARK    4  A    between atoms: N3_11  and  N4_13 
REMARK    5  A    between atoms: N4_13  and  C5_15 
REMARK    6  A    between atoms: C8_25  and  C9_26 
REMARK    7  A    between atoms: C9_26  and  O3_27 
REMARK       I    between atoms: N9_30  and  C10_31 
REMARK    8  A    between atoms: C10_31  and  C11_33 
REMARK    9  A    between atoms: C11_33  and  O5_34 
ROOT
HETATM    1  C3  UNL     1      16.471   3.839  12.473  1.00  0.00     0.303 C 
HETATM    2  C4  UNL     1      17.077   5.090  11.871  1.00  0.00     0.077 C 
HETATM    3  N3  UNL     1      16.653   6.253  12.158  1.00  0.00    -0.301 N 
ATOM      4  H3  UNL     1      15.879   6.304  12.820  1.00  0.00     0.186 HD
HETATM    5  C8  UNL     1      18.139   4.581  10.995  1.00  0.00     0.174 C 
HETATM    6  N8  UNL     1      17.543   3.374  10.491  1.00  0.00    -0.120 NA
HETATM    7  N9  UNL     1      17.072   2.792  11.668  1.00  0.00    -0.227 N 
HETATM    8  C10 UNL     1      17.183   1.423  11.974  1.00  0.00     0.261 C 
HETATM    9  O4  UNL     1      16.729   0.992  13.059  1.00  0.00    -0.269 OA
ENDROOT
BRANCH   1  10
HETATM   10  O1  UNL     1      16.918   3.817  13.790  1.00  0.00    -0.288 OA
BRANCH  10  11
HETATM   11  C2  UNL     1      16.156   3.776  14.947  1.00  0.00     0.244 A 
HETATM   12  N2  UNL     1      15.508   4.842  15.431  1.00  0.00    -0.155 N 
HETATM   13  C1  UNL     1      14.788   4.719  16.563  1.00  0.00     0.683 A 
ATOM     14  H2  UNL     1      15.559   5.739  14.948  1.00  0.00     0.188 HD
HETATM   15  N11 UNL     1      14.679   3.565  17.247  1.00  0.00    -0.141 N 
HETATM   16  C12 UNL     1      15.349   2.512  16.724  1.00  0.00     0.341 A 
ATOM     17  H11 UNL     1      14.128   3.490  18.102  1.00  0.00     0.189 HD
HETATM   18  N10 UNL     1      16.066   2.611  15.608  1.00  0.00    -0.273 N 
HETATM   19  O6  UNL     1      15.276   1.394  17.337  1.00  0.00    -0.246 OA
ATOM     20  H10 UNL     1      16.554   1.790  15.250  1.00  0.00     0.174 HD
BRANCH  13  21
HETATM   21  N1  UNL     1      14.160   5.765  17.027  1.00  0.00    -0.234 N 
ATOM     22  H12 UNL     1      14.635   6.667  16.978  1.00  0.00     0.174 HD
ATOM     23  H11 UNL     1      13.226   5.646  17.418  1.00  0.00     0.174 HD
ENDBRANCH  13  21
ENDBRANCH  10  11
ENDBRANCH   1  10
BRANCH   3  24
HETATM   24  N4  UNL     1      17.125   7.451  11.674  1.00  0.00    -0.284 N 
ATOM     25  H4  UNL     1      18.132   7.612  11.636  1.00  0.00     0.188 HD
BRANCH  24  26
HETATM   26  C5  UNL     1      16.322   8.377  11.268  1.00  0.00     0.141 A 
HETATM   27  C6  UNL     1      16.600   9.192  10.194  1.00  0.00     0.157 A 
HETATM   28  N5  UNL     1      15.743  10.145   9.797  1.00  0.00    -0.304 N 
HETATM   29  N6  UNL     1      14.583  10.356  10.415  1.00  0.00    -0.252 N 
ATOM     30  H5  UNL     1      15.989  10.726   8.995  1.00  0.00     0.186 HD
HETATM   31  C7  UNL     1      14.301   9.567  11.465  1.00  0.00     0.340 A 
ATOM     32  H6  UNL     1      13.939  11.085  10.107  1.00  0.00     0.191 HD
HETATM   33  O2  UNL     1      13.222   9.705  12.103  1.00  0.00    -0.245 OA
HETATM   34  N7  UNL     1      15.139   8.604  11.885  1.00  0.00    -0.291 N 
ATOM     35  H7  UNL     1      14.878   8.031  12.688  1.00  0.00     0.172 HD
ENDBRANCH  24  26
ENDBRANCH   3  24
BRANCH   5  36
HETATM   36  C9  UNL     1      18.608   5.526   9.953  1.00  0.00     0.193 C 
BRANCH  36  37
HETATM   37  O3  UNL     1      17.679   5.918   9.037  1.00  0.00    -0.399 OA
ATOM     38  H3  UNL     1      18.016   6.334   8.252  1.00  0.00     0.209 HD
ENDBRANCH  36  37
ENDBRANCH   5  36
BRANCH   8  39
HETATM   39  C11 UNL     1      17.822   0.449  11.065  1.00  0.00     0.268 C 
BRANCH  39  40
HETATM   40  O5  UNL     1      18.300  -0.627  11.768  1.00  0.00    -0.392 OA
ATOM     41  H5  UNL     1      18.107  -1.437  11.313  1.00  0.00     0.210 HD
ENDBRANCH  39  40
ENDBRANCH   8  39
TORSDOF 9
ENDMDL
