MODEL 1
REMARK VINA RESULT: -7.522512553      0.000      0.000
REMARK  12 active torsions:
REMARK  status: ('A' for Active; 'I' for Inactive)
REMARK    1  A    between atoms: O1_2  and  C2_3 
REMARK    2  A    between atoms: C2_3  and  O3_5 
REMARK    3  A    between atoms: O3_5  and  C3_6 
REMARK    4  A    between atoms: N1_8  and  C5_9 
REMARK    5  A    between atoms: C8_15  and  N3_16 
REMARK    6  A    between atoms: C9_21  and  O5_22 
REMARK    7  A    between atoms: C9_21  and  C10_24 
REMARK       I    between atoms: C10_24  and  N5_26 
REMARK    8  A    between atoms: N5_26  and  C11_28 
REMARK    9  A    between atoms: C11_28  and  C12_29 
REMARK       I    between atoms: C12_29  and  N6_31 
REMARK   10  A    between atoms: N6_31  and  N7_33 
REMARK   11  A    between atoms: N7_33  and  N8_34 
REMARK   12  A    between atoms: C13_37  and  O8_38 
ROOT
HETATM    1  C3  UNL     1      18.225   4.001  11.436  1.00  0.00     0.186 C 
HETATM    2  C4  UNL     1      16.951   4.716  11.056  1.00  0.00     0.163 C 
HETATM    3  N1  UNL     1      17.218   6.131  11.207  1.00  0.00    -0.322 N 
HETATM    4  C9  UNL     1      18.384   6.275  12.036  1.00  0.00     0.247 C 
HETATM    5  C13 UNL     1      19.224   5.108  11.581  1.00  0.00     0.215 C 
ENDROOT
BRANCH   4   6
HETATM    6  O5  UNL     1      19.052   7.487  11.782  1.00  0.00    -0.361 OA
ATOM      7  H5  UNL     1      19.838   7.569  12.309  1.00  0.00     0.213 HD
ENDBRANCH   4   6
BRANCH   4   8
HETATM    8  C10 UNL     1      18.011   6.189  13.473  1.00  0.00     0.277 C 
HETATM    9  O6  UNL     1      18.863   6.147  14.386  1.00  0.00    -0.268 OA
HETATM   10  N5  UNL     1      16.647   6.152  13.830  1.00  0.00    -0.348 N 
ATOM     11  H5  UNL     1      15.933   6.189  13.102  1.00  0.00     0.163 HD
BRANCH  10  12
HETATM   12  C11 UNL     1      16.243   6.060  15.238  1.00  0.00     0.226 C 
BRANCH  12  13
HETATM   13  C12 UNL     1      16.077   4.636  15.623  1.00  0.00     0.252 C 
HETATM   14  O7  UNL     1      14.977   4.033  15.559  1.00  0.00    -0.270 OA
HETATM   15  N6  UNL     1      17.191   3.908  16.083  1.00  0.00    -0.253 N 
ATOM     16  H6  UNL     1      18.091   4.386  16.137  1.00  0.00     0.187 HD
BRANCH  15  17
HETATM   17  N7  UNL     1      17.133   2.567  16.470  1.00  0.00    -0.027 NA
BRANCH  17  18
HETATM   18  N8  UNL     1      16.905   1.707  15.396  1.00  0.00    -0.329 N 
ATOM     19  H82 UNL     1      17.286   1.872  14.465  1.00  0.00     0.174 HD
ATOM     20  H81 UNL     1      16.321   0.909  15.648  1.00  0.00     0.174 HD
ENDBRANCH  17  18
ENDBRANCH  15  17
ENDBRANCH  12  13
ENDBRANCH  10  12
ENDBRANCH   4   8
BRANCH   3  21
HETATM   21  C5  UNL     1      16.450   7.144  10.629  1.00  0.00     0.127 A 
HETATM   22  C6  UNL     1      16.023   8.284  11.260  1.00  0.00     0.123 A 
HETATM   23  C7  UNL     1      15.277   9.214  10.583  1.00  0.00     0.263 A 
HETATM   24  O4  UNL     1      14.872  10.267  11.132  1.00  0.00    -0.268 OA
HETATM   25  N2  UNL     1      14.981   8.978   9.296  1.00  0.00    -0.156 N 
HETATM   26  C8  UNL     1      15.376   7.881   8.646  1.00  0.00     0.680 A 
ATOM     27  H2  UNL     1      14.428   9.670   8.790  1.00  0.00     0.187 HD
HETATM   28  N4  UNL     1      16.102   6.987   9.323  1.00  0.00    -0.177 N 
ATOM     29  H4  UNL     1      16.410   6.145   8.837  1.00  0.00     0.185 HD
BRANCH  26  30
HETATM   30  N3  UNL     1      15.063   7.694   7.392  1.00  0.00    -0.234 N 
ATOM     31  H32 UNL     1      14.408   8.311   6.910  1.00  0.00     0.174 HD
ATOM     32  H31 UNL     1      15.467   6.923   6.860  1.00  0.00     0.174 HD
ENDBRANCH  26  30
ENDBRANCH   3  21
BRANCH   5  33
HETATM   33  O8  UNL     1      20.237   4.804  12.482  1.00  0.00    -0.387 OA
ATOM     34  H8  UNL     1      21.051   5.255  12.287  1.00  0.00     0.210 HD
ENDBRANCH   5  33
BRANCH   1  35
HETATM   35  O3  UNL     1      18.623   3.091  10.414  1.00  0.00    -0.288 OA
BRANCH  35  36
HETATM   36  C2  UNL     1      18.161   1.812  10.329  1.00  0.00     0.406 C 
HETATM   37  O2  UNL     1      17.183   1.524   9.565  1.00  0.00    -0.229 OA
BRANCH  36  38
HETATM   38  O1  UNL     1      18.717   0.776  11.055  1.00  0.00    -0.303 OA
HETATM   39  C1  UNL     1      18.095  -0.414  11.417  1.00  0.00     0.215 C 
ENDBRANCH  36  38
ENDBRANCH  35  36
ENDBRANCH   1  35
TORSDOF 12
ENDMDL
MODEL 2
REMARK VINA RESULT: -7.293266562      1.783      2.591
REMARK  12 active torsions:
REMARK  status: ('A' for Active; 'I' for Inactive)
REMARK    1  A    between atoms: O1_2  and  C2_3 
REMARK    2  A    between atoms: C2_3  and  O3_5 
REMARK    3  A    between atoms: O3_5  and  C3_6 
REMARK    4  A    between atoms: N1_8  and  C5_9 
REMARK    5  A    between atoms: C8_15  and  N3_16 
REMARK    6  A    between atoms: C9_21  and  O5_22 
REMARK    7  A    between atoms: C9_21  and  C10_24 
REMARK       I    between atoms: C10_24  and  N5_26 
REMARK    8  A    between atoms: N5_26  and  C11_28 
REMARK    9  A    between atoms: C11_28  and  C12_29 
REMARK       I    between atoms: C12_29  and  N6_31 
REMARK   10  A    between atoms: N6_31  and  N7_33 
REMARK   11  A    between atoms: N7_33  and  N8_34 
REMARK   12  A    between atoms: C13_37  and  O8_38 
ROOT
HETATM    1  C3  UNL     1      18.377   4.888  12.109  1.00  0.00     0.186 C 
HETATM    2  C4  UNL     1      17.396   5.339  11.055  1.00  0.00     0.163 C 
HETATM    3  N1  UNL     1      16.840   6.590  11.526  1.00  0.00    -0.322 N 
HETATM    4  C9  UNL     1      17.095   6.684  12.938  1.00  0.00     0.247 C 
HETATM    5  C13 UNL     1      18.465   6.060  13.039  1.00  0.00     0.215 C 
ENDROOT
BRANCH   4   6
HETATM    6  O5  UNL     1      17.136   8.023  13.368  1.00  0.00    -0.361 OA
ATOM      7  H5  UNL     1      16.512   8.185  14.065  1.00  0.00     0.213 HD
ENDBRANCH   4   6
BRANCH   4   8
HETATM    8  C10 UNL     1      16.064   5.933  13.702  1.00  0.00     0.277 C 
HETATM    9  O6  UNL     1      15.356   5.047  13.179  1.00  0.00    -0.268 OA
HETATM   10  N5  UNL     1      15.869   6.225  15.069  1.00  0.00    -0.348 N 
ATOM     11  H5  UNL     1      16.439   6.942  15.518  1.00  0.00     0.163 HD
BRANCH  10  12
HETATM   12  C11 UNL     1      14.856   5.507  15.851  1.00  0.00     0.226 C 
BRANCH  12  13
HETATM   13  C12 UNL     1      15.387   4.185  16.271  1.00  0.00     0.252 C 
HETATM   14  O7  UNL     1      14.673   3.294  16.793  1.00  0.00    -0.270 OA
HETATM   15  N6  UNL     1      16.753   3.895  16.081  1.00  0.00    -0.253 N 
ATOM     16  H6  UNL     1      17.343   4.609  15.655  1.00  0.00     0.187 HD
BRANCH  15  17
HETATM   17  N7  UNL     1      17.343   2.682  16.445  1.00  0.00    -0.027 NA
BRANCH  17  18
HETATM   18  N8  UNL     1      17.017   1.643  15.575  1.00  0.00    -0.329 N 
ATOM     19  H82 UNL     1      16.225   1.687  14.935  1.00  0.00     0.174 HD
ATOM     20  H81 UNL     1      17.653   0.848  15.655  1.00  0.00     0.174 HD
ENDBRANCH  17  18
ENDBRANCH  15  17
ENDBRANCH  12  13
ENDBRANCH  10  12
ENDBRANCH   4   8
BRANCH   3  21
HETATM   21  C5  UNL     1      16.177   7.514  10.715  1.00  0.00     0.127 A 
HETATM   22  C6  UNL     1      16.100   7.469   9.346  1.00  0.00     0.123 A 
HETATM   23  C7  UNL     1      15.411   8.434   8.659  1.00  0.00     0.263 A 
HETATM   24  O4  UNL     1      15.322   8.420   7.408  1.00  0.00    -0.268 OA
HETATM   25  N2  UNL     1      14.820   9.414   9.358  1.00  0.00    -0.156 N 
HETATM   26  C8  UNL     1      14.872   9.495  10.689  1.00  0.00     0.680 A 
ATOM     27  H2  UNL     1      14.306  10.133   8.847  1.00  0.00     0.187 HD
HETATM   28  N4  UNL     1      15.548   8.545  11.342  1.00  0.00    -0.177 N 
ATOM     29  H4  UNL     1      15.595   8.596  12.359  1.00  0.00     0.185 HD
BRANCH  26  30
HETATM   30  N3  UNL     1      14.281  10.469  11.326  1.00  0.00    -0.234 N 
ATOM     31  H32 UNL     1      14.216  11.405  10.925  1.00  0.00     0.174 HD
ATOM     32  H31 UNL     1      13.868  10.319  12.247  1.00  0.00     0.174 HD
ENDBRANCH  26  30
ENDBRANCH   3  21
BRANCH   5  33
HETATM   33  O8  UNL     1      18.783   5.692  14.340  1.00  0.00    -0.387 OA
ATOM     34  H8  UNL     1      19.543   6.152  14.678  1.00  0.00     0.210 HD
ENDBRANCH   5  33
BRANCH   1  35
HETATM   35  O3  UNL     1      19.649   4.603  11.534  1.00  0.00    -0.288 OA
BRANCH  35  36
HETATM   36  C2  UNL     1      19.831   3.703  10.527  1.00  0.00     0.406 C 
HETATM   37  O2  UNL     1      19.750   2.451  10.753  1.00  0.00    -0.229 OA
BRANCH  36  38
HETATM   38  O1  UNL     1      20.110   4.090   9.231  1.00  0.00    -0.303 OA
HETATM   39  C1  UNL     1      20.472   5.363   8.802  1.00  0.00     0.215 C 
ENDBRANCH  36  38
ENDBRANCH  35  36
ENDBRANCH   1  35
TORSDOF 12
ENDMDL
MODEL 3
REMARK VINA RESULT: -7.285489710      2.741      6.095
REMARK  12 active torsions:
REMARK  status: ('A' for Active; 'I' for Inactive)
REMARK    1  A    between atoms: O1_2  and  C2_3 
REMARK    2  A    between atoms: C2_3  and  O3_5 
REMARK    3  A    between atoms: O3_5  and  C3_6 
REMARK    4  A    between atoms: N1_8  and  C5_9 
REMARK    5  A    between atoms: C8_15  and  N3_16 
REMARK    6  A    between atoms: C9_21  and  O5_22 
REMARK    7  A    between atoms: C9_21  and  C10_24 
REMARK       I    between atoms: C10_24  and  N5_26 
REMARK    8  A    between atoms: N5_26  and  C11_28 
REMARK    9  A    between atoms: C11_28  and  C12_29 
REMARK       I    between atoms: C12_29  and  N6_31 
REMARK   10  A    between atoms: N6_31  and  N7_33 
REMARK   11  A    between atoms: N7_33  and  N8_34 
REMARK   12  A    between atoms: C13_37  and  O8_38 
ROOT
HETATM    1  C3  UNL     1      16.570   4.277  13.621  1.00  0.00     0.186 C 
HETATM    2  C4  UNL     1      17.285   4.120  12.301  1.00  0.00     0.163 C 
HETATM    3  N1  UNL     1      18.200   5.236  12.199  1.00  0.00    -0.322 N 
HETATM    4  C9  UNL     1      17.778   6.242  13.137  1.00  0.00     0.247 C 
HETATM    5  C13 UNL     1      17.306   5.396  14.293  1.00  0.00     0.215 C 
ENDROOT
BRANCH   4   6
HETATM    6  O5  UNL     1      18.851   7.059  13.536  1.00  0.00    -0.361 OA
ATOM      7  H5  UNL     1      18.605   7.976  13.550  1.00  0.00     0.213 HD
ENDBRANCH   4   6
BRANCH   4   8
HETATM    8  C10 UNL     1      16.693   7.073  12.550  1.00  0.00     0.277 C 
HETATM    9  O6  UNL     1      15.533   7.083  13.013  1.00  0.00    -0.268 OA
HETATM   10  N5  UNL     1      16.974   7.884  11.431  1.00  0.00    -0.348 N 
ATOM     11  H5  UNL     1      17.916   7.895  11.039  1.00  0.00     0.163 HD
BRANCH  10  12
HETATM   12  C11 UNL     1      15.925   8.712  10.824  1.00  0.00     0.226 C 
BRANCH  12  13
HETATM   13  C12 UNL     1      15.276   7.969   9.715  1.00  0.00     0.252 C 
HETATM   14  O7  UNL     1      15.571   6.786   9.417  1.00  0.00    -0.270 OA
HETATM   15  N6  UNL     1      14.276   8.601   8.949  1.00  0.00    -0.253 N 
ATOM     16  H6  UNL     1      14.025   9.562   9.183  1.00  0.00     0.187 HD
BRANCH  15  17
HETATM   17  N7  UNL     1      13.610   7.986   7.886  1.00  0.00    -0.027 NA
BRANCH  17  18
HETATM   18  N8  UNL     1      14.457   7.696   6.817  1.00  0.00    -0.329 N 
ATOM     19  H82 UNL     1      15.174   8.343   6.489  1.00  0.00     0.174 HD
ATOM     20  H81 UNL     1      14.277   6.778   6.409  1.00  0.00     0.174 HD
ENDBRANCH  17  18
ENDBRANCH  15  17
ENDBRANCH  12  13
ENDBRANCH  10  12
ENDBRANCH   4   8
BRANCH   3  21
HETATM   21  C5  UNL     1      19.290   5.286  11.327  1.00  0.00     0.127 A 
HETATM   22  C6  UNL     1      19.247   5.056   9.976  1.00  0.00     0.123 A 
HETATM   23  C7  UNL     1      20.388   5.142   9.221  1.00  0.00     0.263 A 
HETATM   24  O4  UNL     1      20.380   4.939   7.983  1.00  0.00    -0.268 OA
HETATM   25  N2  UNL     1      21.537   5.454   9.837  1.00  0.00    -0.156 N 
HETATM   26  C8  UNL     1      21.622   5.683  11.150  1.00  0.00     0.680 A 
ATOM     27  H2  UNL     1      22.387   5.520   9.277  1.00  0.00     0.187 HD
HETATM   28  N4  UNL     1      20.500   5.595  11.869  1.00  0.00    -0.177 N 
ATOM     29  H4  UNL     1      20.552   5.768  12.872  1.00  0.00     0.185 HD
BRANCH  26  30
HETATM   30  N3  UNL     1      22.765   5.983  11.706  1.00  0.00    -0.234 N 
ATOM     31  H32 UNL     1      23.563   5.349  11.658  1.00  0.00     0.174 HD
ATOM     32  H31 UNL     1      22.889   6.863  12.206  1.00  0.00     0.174 HD
ENDBRANCH  26  30
ENDBRANCH   3  21
BRANCH   5  33
HETATM   33  O8  UNL     1      16.506   6.111  15.177  1.00  0.00    -0.387 OA
ATOM     34  H8  UNL     1      16.777   6.010  16.082  1.00  0.00     0.210 HD
ENDBRANCH   5  33
BRANCH   1  35
HETATM   35  O3  UNL     1      16.655   3.081  14.393  1.00  0.00    -0.288 OA
BRANCH  35  36
HETATM   36  C2  UNL     1      16.351   3.023  15.719  1.00  0.00     0.406 C 
HETATM   37  O2  UNL     1      17.175   2.522  16.553  1.00  0.00    -0.229 OA
BRANCH  36  38
HETATM   38  O1  UNL     1      15.154   3.492  16.224  1.00  0.00    -0.303 OA
HETATM   39  C1  UNL     1      14.268   2.801  17.044  1.00  0.00     0.215 C 
ENDBRANCH  36  38
ENDBRANCH  35  36
ENDBRANCH   1  35
TORSDOF 12
ENDMDL
MODEL 4
REMARK VINA RESULT: -7.256604744      2.520      5.065
REMARK  12 active torsions:
REMARK  status: ('A' for Active; 'I' for Inactive)
REMARK    1  A    between atoms: O1_2  and  C2_3 
REMARK    2  A    between atoms: C2_3  and  O3_5 
REMARK    3  A    between atoms: O3_5  and  C3_6 
REMARK    4  A    between atoms: N1_8  and  C5_9 
REMARK    5  A    between atoms: C8_15  and  N3_16 
REMARK    6  A    between atoms: C9_21  and  O5_22 
REMARK    7  A    between atoms: C9_21  and  C10_24 
REMARK       I    between atoms: C10_24  and  N5_26 
REMARK    8  A    between atoms: N5_26  and  C11_28 
REMARK    9  A    between atoms: C11_28  and  C12_29 
REMARK       I    between atoms: C12_29  and  N6_31 
REMARK   10  A    between atoms: N6_31  and  N7_33 
REMARK   11  A    between atoms: N7_33  and  N8_34 
REMARK   12  A    between atoms: C13_37  and  O8_38 
ROOT
HETATM    1  C3  UNL     1      16.945   3.813  13.720  1.00  0.00     0.186 C 
HETATM    2  C4  UNL     1      17.152   5.248  13.303  1.00  0.00     0.163 C 
HETATM    3  N1  UNL     1      16.901   5.297  11.878  1.00  0.00    -0.322 N 
HETATM    4  C9  UNL     1      16.982   3.955  11.368  1.00  0.00     0.247 C 
HETATM    5  C13 UNL     1      16.369   3.166  12.498  1.00  0.00     0.215 C 
ENDROOT
BRANCH   4   6
HETATM    6  O5  UNL     1      16.220   3.801  10.195  1.00  0.00    -0.361 OA
ATOM      7  H5  UNL     1      15.671   3.027  10.235  1.00  0.00     0.213 HD
ENDBRANCH   4   6
BRANCH   4   8
HETATM    8  C10 UNL     1      18.399   3.584  11.109  1.00  0.00     0.277 C 
HETATM    9  O6  UNL     1      18.755   2.405  10.899  1.00  0.00    -0.268 OA
HETATM   10  N5  UNL     1      19.385   4.592  11.099  1.00  0.00    -0.348 N 
ATOM     11  H5  UNL     1      19.116   5.563  11.265  1.00  0.00     0.163 HD
BRANCH  10  12
HETATM   12  C11 UNL     1      20.793   4.261  10.853  1.00  0.00     0.226 C 
BRANCH  12  13
HETATM   13  C12 UNL     1      21.605   5.504  10.829  1.00  0.00     0.252 C 
HETATM   14  O7  UNL     1      22.382   5.796   9.886  1.00  0.00    -0.270 OA
HETATM   15  N6  UNL     1      21.515   6.413  11.901  1.00  0.00    -0.253 N 
ATOM     16  H6  UNL     1      20.884   6.189  12.672  1.00  0.00     0.187 HD
BRANCH  15  17
HETATM   17  N7  UNL     1      22.240   7.605  11.969  1.00  0.00    -0.027 NA
BRANCH  17  18
HETATM   18  N8  UNL     1      23.601   7.395  12.184  1.00  0.00    -0.329 N 
ATOM     19  H82 UNL     1      23.987   6.485  12.436  1.00  0.00     0.174 HD
ATOM     20  H81 UNL     1      24.155   8.243  12.062  1.00  0.00     0.174 HD
ENDBRANCH  17  18
ENDBRANCH  15  17
ENDBRANCH  12  13
ENDBRANCH  10  12
ENDBRANCH   4   8
BRANCH   3  21
HETATM   21  C5  UNL     1      16.632   6.467  11.164  1.00  0.00     0.127 A 
HETATM   22  C6  UNL     1      16.337   7.690  11.711  1.00  0.00     0.123 A 
HETATM   23  C7  UNL     1      16.098   8.771  10.902  1.00  0.00     0.263 A 
HETATM   24  O4  UNL     1      15.828   9.902  11.372  1.00  0.00    -0.268 OA
HETATM   25  N2  UNL     1      16.161   8.599   9.574  1.00  0.00    -0.156 N 
HETATM   26  C8  UNL     1      16.442   7.426   9.002  1.00  0.00     0.680 A 
ATOM     27  H2  UNL     1      15.984   9.403   8.971  1.00  0.00     0.187 HD
HETATM   28  N4  UNL     1      16.672   6.384   9.806  1.00  0.00    -0.177 N 
ATOM     29  H4  UNL     1      16.888   5.482   9.382  1.00  0.00     0.185 HD
BRANCH  26  30
HETATM   30  N3  UNL     1      16.491   7.306   7.703  1.00  0.00    -0.234 N 
ATOM     31  H32 UNL     1      15.884   7.857   7.095  1.00  0.00     0.174 HD
ATOM     32  H31 UNL     1      17.139   6.655   7.260  1.00  0.00     0.174 HD
ENDBRANCH  26  30
ENDBRANCH   3  21
BRANCH   5  33
HETATM   33  O8  UNL     1      16.666   1.811  12.416  1.00  0.00    -0.387 OA
ATOM     34  H8  UNL     1      17.568   1.645  12.167  1.00  0.00     0.210 HD
ENDBRANCH   5  33
BRANCH   1  35
HETATM   35  O3  UNL     1      16.037   3.725  14.815  1.00  0.00    -0.288 OA
BRANCH  35  36
HETATM   36  C2  UNL     1      16.117   2.767  15.780  1.00  0.00     0.406 C 
HETATM   37  O2  UNL     1      17.250   2.364  16.202  1.00  0.00    -0.229 OA
BRANCH  36  38
HETATM   38  O1  UNL     1      14.996   2.189  16.342  1.00  0.00    -0.303 OA
HETATM   39  C1  UNL     1      13.983   2.841  17.037  1.00  0.00     0.215 C 
ENDBRANCH  36  38
ENDBRANCH  35  36
ENDBRANCH   1  35
TORSDOF 12
ENDMDL
MODEL 5
REMARK VINA RESULT: -7.249983007      1.633      2.166
REMARK  12 active torsions:
REMARK  status: ('A' for Active; 'I' for Inactive)
REMARK    1  A    between atoms: O1_2  and  C2_3 
REMARK    2  A    between atoms: C2_3  and  O3_5 
REMARK    3  A    between atoms: O3_5  and  C3_6 
REMARK    4  A    between atoms: N1_8  and  C5_9 
REMARK    5  A    between atoms: C8_15  and  N3_16 
REMARK    6  A    between atoms: C9_21  and  O5_22 
REMARK    7  A    between atoms: C9_21  and  C10_24 
REMARK       I    between atoms: C10_24  and  N5_26 
REMARK    8  A    between atoms: N5_26  and  C11_28 
REMARK    9  A    between atoms: C11_28  and  C12_29 
REMARK       I    between atoms: C12_29  and  N6_31 
REMARK   10  A    between atoms: N6_31  and  N7_33 
REMARK   11  A    between atoms: N7_33  and  N8_34 
REMARK   12  A    between atoms: C13_37  and  O8_38 
ROOT
HETATM    1  C3  UNL     1      18.149   5.090  12.081  1.00  0.00     0.186 C 
HETATM    2  C4  UNL     1      17.202   5.352  10.936  1.00  0.00     0.163 C 
HETATM    3  N1  UNL     1      16.865   6.758  11.001  1.00  0.00    -0.322 N 
HETATM    4  C9  UNL     1      17.196   7.233  12.318  1.00  0.00     0.247 C 
HETATM    5  C13 UNL     1      18.457   6.458  12.609  1.00  0.00     0.215 C 
ENDROOT
BRANCH   4   6
HETATM    6  O5  UNL     1      17.460   8.614  12.318  1.00  0.00    -0.361 OA
ATOM      7  H5  UNL     1      16.795   9.096  12.795  1.00  0.00     0.213 HD
ENDBRANCH   4   6
BRANCH   4   8
HETATM    8  C10 UNL     1      16.097   6.921  13.271  1.00  0.00     0.277 C 
HETATM    9  O6  UNL     1      14.970   7.456  13.192  1.00  0.00    -0.268 OA
HETATM   10  N5  UNL     1      16.324   5.990  14.305  1.00  0.00    -0.348 N 
ATOM     11  H5  UNL     1      17.235   5.538  14.386  1.00  0.00     0.163 HD
BRANCH  10  12
HETATM   12  C11 UNL     1      15.264   5.664  15.266  1.00  0.00     0.226 C 
BRANCH  12  13
HETATM   13  C12 UNL     1      15.536   4.343  15.886  1.00  0.00     0.252 C 
HETATM   14  O7  UNL     1      14.641   3.635  16.411  1.00  0.00    -0.270 OA
HETATM   15  N6  UNL     1      16.852   3.839  15.896  1.00  0.00    -0.253 N 
ATOM     16  H6  UNL     1      17.588   4.403  15.470  1.00  0.00     0.187 HD
BRANCH  15  17
HETATM   17  N7  UNL     1      17.205   2.609  16.457  1.00  0.00    -0.027 NA
BRANCH  17  18
HETATM   18  N8  UNL     1      17.007   1.542  15.582  1.00  0.00    -0.329 N 
ATOM     19  H82 UNL     1      16.191   1.470  14.975  1.00  0.00     0.174 HD
ATOM     20  H81 UNL     1      17.761   0.856  15.620  1.00  0.00     0.174 HD
ENDBRANCH  17  18
ENDBRANCH  15  17
ENDBRANCH  12  13
ENDBRANCH  10  12
ENDBRANCH   4   8
BRANCH   3  21
HETATM   21  C5  UNL     1      16.316   7.487   9.944  1.00  0.00     0.127 A 
HETATM   22  C6  UNL     1      16.765   7.483   8.648  1.00  0.00     0.123 A 
HETATM   23  C7  UNL     1      16.134   8.238   7.693  1.00  0.00     0.263 A 
HETATM   24  O4  UNL     1      16.521   8.254   6.500  1.00  0.00    -0.268 OA
HETATM   25  N2  UNL     1      15.076   8.975   8.061  1.00  0.00    -0.156 N 
HETATM   26  C8  UNL     1      14.609   9.009   9.311  1.00  0.00     0.680 A 
ATOM     27  H2  UNL     1      14.606   9.537   7.351  1.00  0.00     0.187 HD
HETATM   28  N4  UNL     1      15.236   8.266  10.227  1.00  0.00    -0.177 N 
ATOM     29  H4  UNL     1      14.889   8.283  11.185  1.00  0.00     0.185 HD
BRANCH  26  30
HETATM   30  N3  UNL     1      13.575   9.743   9.622  1.00  0.00    -0.234 N 
ATOM     31  H32 UNL     1      13.518  10.724   9.350  1.00  0.00     0.174 HD
ATOM     32  H31 UNL     1      12.793   9.352  10.148  1.00  0.00     0.174 HD
ENDBRANCH  26  30
ENDBRANCH   3  21
BRANCH   5  33
HETATM   33  O8  UNL     1      18.773   6.454  13.962  1.00  0.00    -0.387 OA
ATOM     34  H8  UNL     1      18.172   6.976  14.482  1.00  0.00     0.210 HD
ENDBRANCH   5  33
BRANCH   1  35
HETATM   35  O3  UNL     1      19.335   4.445  11.625  1.00  0.00    -0.288 OA
BRANCH  35  36
HETATM   36  C2  UNL     1      19.329   3.373  10.783  1.00  0.00     0.406 C 
HETATM   37  O2  UNL     1      19.836   3.461   9.617  1.00  0.00    -0.229 OA
BRANCH  36  38
HETATM   38  O1  UNL     1      18.782   2.157  11.140  1.00  0.00    -0.303 OA
HETATM   39  C1  UNL     1      17.582   1.618  10.686  1.00  0.00     0.215 C 
ENDBRANCH  36  38
ENDBRANCH  35  36
ENDBRANCH   1  35
TORSDOF 12
ENDMDL
