MODEL 1
REMARK VINA RESULT: -7.227864943      0.000      0.000
REMARK  9 active torsions:
REMARK  status: ('A' for Active; 'I' for Inactive)
REMARK    1  A    between atoms: C1_4  and  C2_5 
REMARK    2  A    between atoms: C1_4  and  N6_17 
REMARK       I    between atoms: N2_6  and  C3_8 
REMARK    3  A    between atoms: C3_8  and  C4_10 
REMARK    4  A    between atoms: N4_12  and  N5_14 
REMARK    5  A    between atoms: N6_17  and  C5_19 
REMARK    6  A    between atoms: N7_24  and  N8_25 
REMARK    7  A    between atoms: N8_25  and  C7_27 
REMARK    8  A    between atoms: C10_35  and  C11_36 
REMARK    9  A    between atoms: C11_36  and  O4_37 
ROOT
HETATM    1  C5  UNL     1      18.705   5.819  11.262  1.00  0.00     0.105 C 
HETATM    2  C6  UNL     1      17.624   4.937  10.660  1.00  0.00     0.184 C 
HETATM    3  S1  UNL     1      16.873   4.009  11.979  1.00  0.00     0.230 S 
HETATM    4  O2  UNL     1      15.519   3.568  11.507  1.00  0.00    -0.210 OA
HETATM    5  O3  UNL     1      17.754   2.844  12.316  1.00  0.00    -0.210 OA
HETATM    6  N7  UNL     1      16.771   5.092  13.308  1.00  0.00    -0.118 NA
HETATM    7  C9  UNL     1      16.763   6.433  12.755  1.00  0.00     0.141 C 
HETATM    8  C10 UNL     1      18.193   6.724  12.323  1.00  0.00     0.049 C 
ENDROOT
BRANCH   1   9
HETATM    9  N6  UNL     1      19.315   6.609  10.212  1.00  0.00    -0.369 N 
ATOM     10  H6  UNL     1      20.126   6.247   9.710  1.00  0.00     0.161 HD
BRANCH   9  11
HETATM   11  C1  UNL     1      18.793   7.884   9.878  1.00  0.00     0.110 C 
HETATM   12  N1  UNL     1      19.417   8.951  10.259  1.00  0.00    -0.385 N 
ATOM     13  H12 UNL     1      19.041   9.868  10.019  1.00  0.00     0.157 HD
ATOM     14  H11 UNL     1      20.283   8.899  10.796  1.00  0.00     0.157 HD
BRANCH  11  15
HETATM   15  C2  UNL     1      17.560   7.957   9.115  1.00  0.00     0.139 C 
HETATM   16  N2  UNL     1      16.474   8.320   9.689  1.00  0.00    -0.327 N 
HETATM   17  C3  UNL     1      15.288   8.383   8.922  1.00  0.00     0.287 C 
ATOM     18  H2  UNL     1      16.465   8.558  10.681  1.00  0.00     0.168 HD
HETATM   19  O1  UNL     1      14.305   7.691   9.253  1.00  0.00    -0.264 OA
BRANCH  17  20
HETATM   20  C4  UNL     1      15.236   9.251   7.766  1.00  0.00     0.199 C 
HETATM   21  N3  UNL     1      15.554  10.645   7.900  1.00  0.00    -0.075 NA
HETATM   22  N4  UNL     1      14.911   8.841   6.577  1.00  0.00    -0.290 N 
ATOM     23  H4  UNL     1      14.887   9.485   5.787  1.00  0.00     0.187 HD
BRANCH  22  24
HETATM   24  N5  UNL     1      14.600   7.500   6.414  1.00  0.00    -0.344 N 
ATOM     25  H52 UNL     1      14.202   6.971   7.191  1.00  0.00     0.176 HD
ATOM     26  H51 UNL     1      14.779   7.074   5.506  1.00  0.00     0.176 HD
ENDBRANCH  22  24
ENDBRANCH  17  20
ENDBRANCH  11  15
ENDBRANCH   9  11
ENDBRANCH   1   9
BRANCH   8  27
HETATM   27  C11 UNL     1      19.046   6.640  13.592  1.00  0.00     0.172 C 
BRANCH  27  28
HETATM   28  O4  UNL     1      19.984   5.636  13.550  1.00  0.00    -0.400 OA
ATOM     29  H4  UNL     1      20.629   5.697  14.245  1.00  0.00     0.209 HD
ENDBRANCH  27  28
ENDBRANCH   8  27
BRANCH   6  30
HETATM   30  N8  UNL     1      15.735   4.837  14.169  1.00  0.00    -0.276 N 
ATOM     31  H8  UNL     1      14.832   5.264  13.959  1.00  0.00     0.185 HD
BRANCH  30  32
HETATM   32  C7  UNL     1      15.822   4.021  15.337  1.00  0.00     0.203 A 
HETATM   33  N9  UNL     1      15.161   4.101  16.442  1.00  0.00    -0.345 N 
HETATM   34  C8  UNL     1      15.546   3.087  17.375  1.00  0.00     0.259 A 
ATOM     35  H9  UNL     1      14.447   4.804  16.628  1.00  0.00     0.163 HD
HETATM   36  N10 UNL     1      16.488   2.263  16.686  1.00  0.00    -0.119 NA
HETATM   37  N11 UNL     1      16.712   2.920  15.471  1.00  0.00    -0.273 N 
ATOM     38  H11 UNL     1      17.411   2.648  14.781  1.00  0.00     0.185 HD
ENDBRANCH  30  32
ENDBRANCH   6  30
TORSDOF 9
ENDMDL
MODEL 2
REMARK VINA RESULT: -7.193627838      1.077      1.119
REMARK  9 active torsions:
REMARK  status: ('A' for Active; 'I' for Inactive)
REMARK    1  A    between atoms: C1_4  and  C2_5 
REMARK    2  A    between atoms: C1_4  and  N6_17 
REMARK       I    between atoms: N2_6  and  C3_8 
REMARK    3  A    between atoms: C3_8  and  C4_10 
REMARK    4  A    between atoms: N4_12  and  N5_14 
REMARK    5  A    between atoms: N6_17  and  C5_19 
REMARK    6  A    between atoms: N7_24  and  N8_25 
REMARK    7  A    between atoms: N8_25  and  C7_27 
REMARK    8  A    between atoms: C10_35  and  C11_36 
REMARK    9  A    between atoms: C11_36  and  O4_37 
ROOT
HETATM    1  C5  UNL     1      19.054   6.274  11.320  1.00  0.00     0.105 C 
HETATM    2  C6  UNL     1      18.562   5.224  10.338  1.00  0.00     0.184 C 
HETATM    3  S1  UNL     1      18.325   3.703  11.230  1.00  0.00     0.230 S 
HETATM    4  O2  UNL     1      17.375   2.857  10.435  1.00  0.00    -0.210 OA
HETATM    5  O3  UNL     1      19.654   3.033  11.410  1.00  0.00    -0.210 OA
HETATM    6  N7  UNL     1      17.667   4.155  12.750  1.00  0.00    -0.118 NA
HETATM    7  C9  UNL     1      17.018   5.439  12.561  1.00  0.00     0.141 C 
HETATM    8  C10 UNL     1      18.134   6.470  12.470  1.00  0.00     0.049 C 
ENDROOT
BRANCH   1   9
HETATM    9  N6  UNL     1      19.227   7.533  10.625  1.00  0.00    -0.369 N 
ATOM     10  H6  UNL     1      20.103   7.728  10.141  1.00  0.00     0.161 HD
BRANCH   9  11
HETATM   11  C1  UNL     1      18.188   8.495  10.615  1.00  0.00     0.110 C 
HETATM   12  N1  UNL     1      18.186   9.445  11.494  1.00  0.00    -0.385 N 
ATOM     13  H12 UNL     1      17.437  10.138  11.487  1.00  0.00     0.157 HD
ATOM     14  H11 UNL     1      18.919   9.521  12.198  1.00  0.00     0.157 HD
BRANCH  11  15
HETATM   15  C2  UNL     1      17.144   8.387   9.612  1.00  0.00     0.139 C 
HETATM   16  N2  UNL     1      15.915   8.508   9.955  1.00  0.00    -0.327 N 
HETATM   17  C3  UNL     1      14.918   8.399   8.958  1.00  0.00     0.287 C 
ATOM     18  H2  UNL     1      15.661   8.679  10.927  1.00  0.00     0.168 HD
HETATM   19  O1  UNL     1      14.041   7.519   9.061  1.00  0.00    -0.264 OA
BRANCH  17  20
HETATM   20  C4  UNL     1      14.933   9.312   7.836  1.00  0.00     0.199 C 
HETATM   21  N3  UNL     1      15.013  10.728   8.064  1.00  0.00    -0.075 NA
HETATM   22  N4  UNL     1      14.878   8.925   6.597  1.00  0.00    -0.290 N 
ATOM     23  H4  UNL     1      14.892   9.601   5.834  1.00  0.00     0.187 HD
BRANCH  22  24
HETATM   24  N5  UNL     1      14.801   7.565   6.345  1.00  0.00    -0.344 N 
ATOM     25  H52 UNL     1      14.962   6.895   7.097  1.00  0.00     0.176 HD
ATOM     26  H51 UNL     1      14.580   7.266   5.395  1.00  0.00     0.176 HD
ENDBRANCH  22  24
ENDBRANCH  17  20
ENDBRANCH  11  15
ENDBRANCH   9  11
ENDBRANCH   1   9
BRANCH   8  27
HETATM   27  C11 UNL     1      18.882   6.406  13.804  1.00  0.00     0.172 C 
BRANCH  27  28
HETATM   28  O4  UNL     1      20.063   5.709  13.732  1.00  0.00    -0.400 OA
ATOM     29  H4  UNL     1      20.015   4.847  14.127  1.00  0.00     0.209 HD
ENDBRANCH  27  28
ENDBRANCH   8  27
BRANCH   6  30
HETATM   30  N8  UNL     1      16.865   3.204  13.327  1.00  0.00    -0.276 N 
ATOM     31  H8  UNL     1      16.467   2.490  12.716  1.00  0.00     0.185 HD
BRANCH  30  32
HETATM   32  C7  UNL     1      16.544   3.135  14.716  1.00  0.00     0.203 A 
HETATM   33  N9  UNL     1      15.912   3.985  15.453  1.00  0.00    -0.345 N 
HETATM   34  C8  UNL     1      15.795   3.542  16.808  1.00  0.00     0.259 A 
ATOM     35  H9  UNL     1      15.540   4.870  15.109  1.00  0.00     0.163 HD
HETATM   36  N10 UNL     1      16.353   2.228  16.836  1.00  0.00    -0.119 NA
HETATM   37  N11 UNL     1      16.895   2.045  15.559  1.00  0.00    -0.273 N 
ATOM     38  H11 UNL     1      17.460   1.245  15.273  1.00  0.00     0.185 HD
ENDBRANCH  30  32
ENDBRANCH   6  30
TORSDOF 9
ENDMDL
MODEL 3
REMARK VINA RESULT: -7.193196410      3.666      7.487
REMARK  9 active torsions:
REMARK  status: ('A' for Active; 'I' for Inactive)
REMARK    1  A    between atoms: C1_4  and  C2_5 
REMARK    2  A    between atoms: C1_4  and  N6_17 
REMARK       I    between atoms: N2_6  and  C3_8 
REMARK    3  A    between atoms: C3_8  and  C4_10 
REMARK    4  A    between atoms: N4_12  and  N5_14 
REMARK    5  A    between atoms: N6_17  and  C5_19 
REMARK    6  A    between atoms: N7_24  and  N8_25 
REMARK    7  A    between atoms: N8_25  and  C7_27 
REMARK    8  A    between atoms: C10_35  and  C11_36 
REMARK    9  A    between atoms: C11_36  and  O4_37 
ROOT
HETATM    1  C5  UNL     1      18.294   4.921  11.596  1.00  0.00     0.105 C 
HETATM    2  C6  UNL     1      17.907   6.117  12.452  1.00  0.00     0.184 C 
HETATM    3  S1  UNL     1      19.401   6.868  13.057  1.00  0.00     0.230 S 
HETATM    4  O2  UNL     1      19.075   8.284  13.429  1.00  0.00    -0.210 OA
HETATM    5  O3  UNL     1      19.898   6.083  14.233  1.00  0.00    -0.210 OA
HETATM    6  N7  UNL     1      20.521   6.785  11.758  1.00  0.00    -0.118 NA
HETATM    7  C9  UNL     1      19.742   6.700  10.538  1.00  0.00     0.141 C 
HETATM    8  C10 UNL     1      19.201   5.279  10.475  1.00  0.00     0.049 C 
ENDROOT
BRANCH   1   9
HETATM    9  N6  UNL     1      17.096   4.306  11.065  1.00  0.00    -0.369 N 
ATOM     10  H6  UNL     1      16.591   4.755  10.301  1.00  0.00     0.161 HD
BRANCH   9  11
HETATM   11  C1  UNL     1      16.619   3.084  11.601  1.00  0.00     0.110 C 
HETATM   12  N1  UNL     1      16.561   2.034  10.848  1.00  0.00    -0.385 N 
ATOM     13  H12 UNL     1      16.217   1.155  11.234  1.00  0.00     0.157 HD
ATOM     14  H11 UNL     1      16.854   2.062   9.872  1.00  0.00     0.157 HD
BRANCH  11  15
HETATM   15  C2  UNL     1      16.202   3.045  12.991  1.00  0.00     0.139 C 
HETATM   16  N2  UNL     1      16.903   2.401  13.850  1.00  0.00    -0.327 N 
HETATM   17  C3  UNL     1      16.476   2.379  15.197  1.00  0.00     0.287 C 
ATOM     18  H2  UNL     1      17.753   1.913  13.566  1.00  0.00     0.168 HD
HETATM   19  O1  UNL     1      16.235   1.286  15.747  1.00  0.00    -0.264 OA
BRANCH  17  20
HETATM   20  C4  UNL     1      16.325   3.626  15.915  1.00  0.00     0.199 C 
HETATM   21  N3  UNL     1      17.368   4.612  15.866  1.00  0.00    -0.075 NA
HETATM   22  N4  UNL     1      15.277   3.924  16.622  1.00  0.00    -0.290 N 
ATOM     23  H4  UNL     1      15.210   4.815  17.112  1.00  0.00     0.187 HD
BRANCH  22  24
HETATM   24  N5  UNL     1      14.253   2.993  16.689  1.00  0.00    -0.344 N 
ATOM     25  H52 UNL     1      14.457   2.026  16.942  1.00  0.00     0.176 HD
ATOM     26  H51 UNL     1      13.305   3.307  16.479  1.00  0.00     0.176 HD
ENDBRANCH  22  24
ENDBRANCH  17  20
ENDBRANCH  11  15
ENDBRANCH   9  11
ENDBRANCH   1   9
BRANCH   8  27
HETATM   27  C11 UNL     1      20.425   4.360  10.429  1.00  0.00     0.172 C 
BRANCH  27  28
HETATM   28  O4  UNL     1      21.532   4.957   9.876  1.00  0.00    -0.400 OA
ATOM     29  H4  UNL     1      21.852   4.510   9.101  1.00  0.00     0.209 HD
ENDBRANCH  27  28
ENDBRANCH   8  27
BRANCH   6  30
HETATM   30  N8  UNL     1      21.460   7.785  11.753  1.00  0.00    -0.276 N 
ATOM     31  H8  UNL     1      21.128   8.741  11.620  1.00  0.00     0.185 HD
BRANCH  30  32
HETATM   32  C7  UNL     1      22.864   7.591  11.919  1.00  0.00     0.203 A 
HETATM   33  N9  UNL     1      23.766   8.429  12.305  1.00  0.00    -0.345 N 
HETATM   34  C8  UNL     1      25.069   7.841  12.341  1.00  0.00     0.259 A 
ATOM     35  H9  UNL     1      23.571   9.398  12.555  1.00  0.00     0.163 HD
HETATM   36  N10 UNL     1      24.881   6.462  12.019  1.00  0.00    -0.119 NA
HETATM   37  N11 UNL     1      23.531   6.361  11.667  1.00  0.00    -0.273 N 
ATOM     38  H11 UNL     1      23.088   5.525  11.286  1.00  0.00     0.185 HD
ENDBRANCH  30  32
ENDBRANCH   6  30
TORSDOF 9
ENDMDL
MODEL 4
REMARK VINA RESULT: -7.144942511      2.026      2.854
REMARK  9 active torsions:
REMARK  status: ('A' for Active; 'I' for Inactive)
REMARK    1  A    between atoms: C1_4  and  C2_5 
REMARK    2  A    between atoms: C1_4  and  N6_17 
REMARK       I    between atoms: N2_6  and  C3_8 
REMARK    3  A    between atoms: C3_8  and  C4_10 
REMARK    4  A    between atoms: N4_12  and  N5_14 
REMARK    5  A    between atoms: N6_17  and  C5_19 
REMARK    6  A    between atoms: N7_24  and  N8_25 
REMARK    7  A    between atoms: N8_25  and  C7_27 
REMARK    8  A    between atoms: C10_35  and  C11_36 
REMARK    9  A    between atoms: C11_36  and  O4_37 
ROOT
HETATM    1  C5  UNL     1      16.586   6.916  11.560  1.00  0.00     0.105 C 
HETATM    2  C6  UNL     1      16.283   7.787  12.768  1.00  0.00     0.184 C 
HETATM    3  S1  UNL     1      15.770   6.725  14.099  1.00  0.00     0.230 S 
HETATM    4  O2  UNL     1      15.983   7.473  15.382  1.00  0.00    -0.210 OA
HETATM    5  O3  UNL     1      14.331   6.356  13.900  1.00  0.00    -0.210 OA
HETATM    6  N7  UNL     1      16.770   5.332  13.993  1.00  0.00    -0.118 NA
HETATM    7  C9  UNL     1      17.981   5.738  13.306  1.00  0.00     0.141 C 
HETATM    8  C10 UNL     1      17.612   5.876  11.837  1.00  0.00     0.049 C 
ENDROOT
BRANCH   1   9
HETATM    9  N6  UNL     1      17.036   7.754  10.468  1.00  0.00    -0.369 N 
ATOM     10  H6  UNL     1      17.742   8.470  10.636  1.00  0.00     0.161 HD
BRANCH   9  11
HETATM   11  C1  UNL     1      16.500   7.584   9.167  1.00  0.00     0.110 C 
HETATM   12  N1  UNL     1      16.878   6.579   8.445  1.00  0.00    -0.385 N 
ATOM     13  H12 UNL     1      16.493   6.458   7.509  1.00  0.00     0.157 HD
ATOM     14  H11 UNL     1      17.555   5.899   8.791  1.00  0.00     0.157 HD
BRANCH  11  15
HETATM   15  C2  UNL     1      15.536   8.552   8.676  1.00  0.00     0.139 C 
HETATM   16  N2  UNL     1      14.568   8.926   9.426  1.00  0.00    -0.327 N 
HETATM   17  C3  UNL     1      13.643   9.870   8.924  1.00  0.00     0.287 C 
ATOM     18  H2  UNL     1      14.466   8.550  10.369  1.00  0.00     0.168 HD
HETATM   19  O1  UNL     1      12.435   9.570   8.856  1.00  0.00    -0.264 OA
BRANCH  17  20
HETATM   20  C4  UNL     1      14.116  11.169   8.496  1.00  0.00     0.199 C 
HETATM   21  N3  UNL     1      14.629  12.099   9.463  1.00  0.00    -0.075 NA
HETATM   22  N4  UNL     1      14.108  11.562   7.258  1.00  0.00    -0.290 N 
ATOM     23  H4  UNL     1      14.452  12.487   6.999  1.00  0.00     0.187 HD
BRANCH  22  24
HETATM   24  N5  UNL     1      13.619  10.687   6.302  1.00  0.00    -0.344 N 
ATOM     25  H52 UNL     1      14.083   9.792   6.143  1.00  0.00     0.176 HD
ATOM     26  H51 UNL     1      12.793  10.968   5.773  1.00  0.00     0.176 HD
ENDBRANCH  22  24
ENDBRANCH  17  20
ENDBRANCH  11  15
ENDBRANCH   9  11
ENDBRANCH   1   9
BRANCH   8  27
HETATM   27  C11 UNL     1      17.142   4.491  11.384  1.00  0.00     0.172 C 
BRANCH  27  28
HETATM   28  O4  UNL     1      16.039   4.532  10.566  1.00  0.00    -0.400 OA
ATOM     29  H4  UNL     1      16.255   4.670   9.651  1.00  0.00     0.209 HD
ENDBRANCH  27  28
ENDBRANCH   8  27
BRANCH   6  30
HETATM   30  N8  UNL     1      16.991   4.700  15.190  1.00  0.00    -0.276 N 
ATOM     31  H8  UNL     1      17.882   4.875  15.657  1.00  0.00     0.185 HD
BRANCH  30  32
HETATM   32  C7  UNL     1      16.073   3.816  15.832  1.00  0.00     0.203 A 
HETATM   33  N9  UNL     1      14.882   4.049  16.268  1.00  0.00    -0.345 N 
HETATM   34  C8  UNL     1      14.285   2.889  16.853  1.00  0.00     0.259 A 
ATOM     35  H9  UNL     1      14.420   4.956  16.203  1.00  0.00     0.163 HD
HETATM   36  N10 UNL     1      15.218   1.827  16.648  1.00  0.00    -0.119 NA
HETATM   37  N11 UNL     1      16.349   2.448  16.107  1.00  0.00    -0.273 N 
ATOM     38  H11 UNL     1      17.242   1.987  15.935  1.00  0.00     0.185 HD
ENDBRANCH  30  32
ENDBRANCH   6  30
TORSDOF 9
ENDMDL
MODEL 5
REMARK VINA RESULT: -7.140695398      2.907      5.210
REMARK  9 active torsions:
REMARK  status: ('A' for Active; 'I' for Inactive)
REMARK    1  A    between atoms: C1_4  and  C2_5 
REMARK    2  A    between atoms: C1_4  and  N6_17 
REMARK       I    between atoms: N2_6  and  C3_8 
REMARK    3  A    between atoms: C3_8  and  C4_10 
REMARK    4  A    between atoms: N4_12  and  N5_14 
REMARK    5  A    between atoms: N6_17  and  C5_19 
REMARK    6  A    between atoms: N7_24  and  N8_25 
REMARK    7  A    between atoms: N8_25  and  C7_27 
REMARK    8  A    between atoms: C10_35  and  C11_36 
REMARK    9  A    between atoms: C11_36  and  O4_37 
ROOT
HETATM    1  C5  UNL     1      18.773   5.735  11.203  1.00  0.00     0.105 C 
HETATM    2  C6  UNL     1      17.667   4.867  10.624  1.00  0.00     0.184 C 
HETATM    3  S1  UNL     1      16.894   3.992  11.966  1.00  0.00     0.230 S 
HETATM    4  O2  UNL     1      15.528   3.578  11.507  1.00  0.00    -0.210 OA
HETATM    5  O3  UNL     1      17.743   2.812  12.330  1.00  0.00    -0.210 OA
HETATM    6  N7  UNL     1      16.824   5.110  13.269  1.00  0.00    -0.118 NA
HETATM    7  C9  UNL     1      16.852   6.437  12.684  1.00  0.00     0.141 C 
HETATM    8  C10 UNL     1      18.288   6.678  12.243  1.00  0.00     0.049 C 
ENDROOT
BRANCH   1   9
HETATM    9  N6  UNL     1      19.402   6.482  10.134  1.00  0.00    -0.369 N 
ATOM     10  H6  UNL     1      18.997   7.367   9.828  1.00  0.00     0.161 HD
BRANCH   9  11
HETATM   11  C1  UNL     1      20.576   5.992   9.510  1.00  0.00     0.110 C 
HETATM   12  N1  UNL     1      20.479   5.272   8.439  1.00  0.00    -0.385 N 
ATOM     13  H12 UNL     1      21.324   4.919   7.990  1.00  0.00     0.157 HD
ATOM     14  H11 UNL     1      19.573   5.048   8.028  1.00  0.00     0.157 HD
BRANCH  11  15
HETATM   15  C2  UNL     1      21.865   6.311  10.095  1.00  0.00     0.139 C 
HETATM   16  N2  UNL     1      22.897   6.422   9.344  1.00  0.00    -0.327 N 
HETATM   17  C3  UNL     1      24.141   6.734   9.940  1.00  0.00     0.287 C 
ATOM     18  H2  UNL     1      22.823   6.288   8.336  1.00  0.00     0.168 HD
HETATM   19  O1  UNL     1      25.101   5.951   9.803  1.00  0.00    -0.264 OA
BRANCH  17  20
HETATM   20  C4  UNL     1      24.277   7.959  10.699  1.00  0.00     0.199 C 
HETATM   21  N3  UNL     1      24.023   9.225  10.070  1.00  0.00    -0.075 NA
HETATM   22  N4  UNL     1      24.625   7.991  11.950  1.00  0.00    -0.290 N 
ATOM     23  H4  UNL     1      24.709   8.876  12.449  1.00  0.00     0.187 HD
BRANCH  22  24
HETATM   24  N5  UNL     1      24.878   6.786  12.585  1.00  0.00    -0.344 N 
ATOM     25  H52 UNL     1      24.782   6.712  13.598  1.00  0.00     0.176 HD
ATOM     26  H51 UNL     1      25.158   5.991  12.010  1.00  0.00     0.176 HD
ENDBRANCH  22  24
ENDBRANCH  17  20
ENDBRANCH  11  15
ENDBRANCH   9  11
ENDBRANCH   1   9
BRANCH   8  27
HETATM   27  C11 UNL     1      19.141   6.601  13.512  1.00  0.00     0.172 C 
BRANCH  27  28
HETATM   28  O4  UNL     1      20.055   5.575  13.491  1.00  0.00    -0.400 OA
ATOM     29  H4  UNL     1      19.974   4.985  14.230  1.00  0.00     0.209 HD
ENDBRANCH  27  28
ENDBRANCH   8  27
BRANCH   6  30
HETATM   30  N8  UNL     1      15.783   4.904  14.138  1.00  0.00    -0.276 N 
ATOM     31  H8  UNL     1      14.890   5.345  13.916  1.00  0.00     0.185 HD
BRANCH  30  32
HETATM   32  C7  UNL     1      15.853   4.120  15.328  1.00  0.00     0.203 A 
HETATM   33  N9  UNL     1      15.176   4.229  16.421  1.00  0.00    -0.345 N 
HETATM   34  C8  UNL     1      15.546   3.242  17.386  1.00  0.00     0.259 A 
ATOM     35  H9  UNL     1      14.460   4.938  16.577  1.00  0.00     0.163 HD
HETATM   36  N10 UNL     1      16.498   2.399  16.734  1.00  0.00    -0.119 NA
HETATM   37  N11 UNL     1      16.740   3.023  15.505  1.00  0.00    -0.273 N 
ATOM     38  H11 UNL     1      17.450   2.732  14.833  1.00  0.00     0.185 HD
ENDBRANCH  30  32
ENDBRANCH   6  30
TORSDOF 9
ENDMDL
