MODEL 1
REMARK VINA RESULT: -7.793047880      0.000      0.000
REMARK  11 active torsions:
REMARK  status: ('A' for Active; 'I' for Inactive)
REMARK    1  A    between atoms: C4_7  and  O2_8 
REMARK    2  A    between atoms: O2_8  and  C5_9 
REMARK    3  A    between atoms: C6_12  and  N3_13 
REMARK    4  A    between atoms: N5_17  and  C9_18 
REMARK    5  A    between atoms: C9_18  and  O3_19 
REMARK    6  A    between atoms: C9_18  and  C10_21 
REMARK    7  A    between atoms: C10_21  and  O4_22 
REMARK    8  A    between atoms: C10_21  and  C11_24 
REMARK    9  A    between atoms: C11_24  and  O5_25 
REMARK   10  A    between atoms: C11_24  and  C12_27 
REMARK   11  A    between atoms: C12_27  and  O6_29 
ROOT
HETATM    1  N3  UNL     1      17.759   5.576  12.884  1.00  0.00    -0.273 N 
HETATM    2  C7  UNL     1      17.001   6.768  12.558  1.00  0.00     0.164 C 
HETATM    3  C8  UNL     1      16.273   7.079  13.825  1.00  0.00     0.152 C 
HETATM    4  N4  UNL     1      17.008   6.366  14.824  1.00  0.00    -0.141 NA
HETATM    5  N5  UNL     1      17.476   5.178  14.198  1.00  0.00    -0.108 NA
ENDROOT
BRANCH   1   6
HETATM    6  C6  UNL     1      18.651   4.955  11.943  1.00  0.00     0.188 A 
HETATM    7  N2  UNL     1      19.935   4.918  11.992  1.00  0.00    -0.328 N 
HETATM    8  C5  UNL     1      20.513   4.214  10.889  1.00  0.00     0.337 A 
ATOM      9  H2  UNL     1      20.484   5.345  12.737  1.00  0.00     0.165 HD
HETATM   10  N6  UNL     1      19.392   3.782  10.087  1.00  0.00    -0.311 N 
HETATM   11  C14 UNL     1      18.223   4.245  10.747  1.00  0.00     0.289 A 
ATOM     12  H6  UNL     1      19.432   3.249   9.218  1.00  0.00     0.167 HD
HETATM   13  O7  UNL     1      17.016   4.093  10.396  1.00  0.00    -0.264 OA
BRANCH   8  14
HETATM   14  O2  UNL     1      21.379   5.025  10.148  1.00  0.00    -0.310 OA
BRANCH  14  15
HETATM   15  C4  UNL     1      22.100   5.804  11.019  1.00  0.00     0.359 C 
HETATM   16  C3  UNL     1      23.447   6.173  10.505  1.00  0.00     0.275 C 
HETATM   17  N1  UNL     1      23.752   7.426  11.140  1.00  0.00    -0.331 N 
HETATM   18  O1  UNL     1      24.157   5.523   9.692  1.00  0.00    -0.268 OA
HETATM   19  C2  UNL     1      22.519   7.795  11.848  1.00  0.00     0.223 C 
ATOM     20  H1  UNL     1      24.631   7.944  11.107  1.00  0.00     0.165 HD
HETATM   21  C1  UNL     1      22.363   9.290  11.691  1.00  0.00     0.063 C 
HETATM   22  O8  UNL     1      21.528   7.086  11.180  1.00  0.00    -0.328 OA
ENDBRANCH  14  15
ENDBRANCH   8  14
ENDBRANCH   1   6
BRANCH   5  23
HETATM   23  C9  UNL     1      16.417   4.183  14.161  1.00  0.00     0.262 C 
BRANCH  23  24
HETATM   24  O3  UNL     1      17.032   3.003  13.757  1.00  0.00    -0.375 OA
ATOM     25  H3  UNL     1      16.673   2.326  14.319  1.00  0.00     0.211 HD
ENDBRANCH  23  24
BRANCH  23  26
HETATM   26  C10 UNL     1      15.756   4.027  15.514  1.00  0.00     0.195 C 
BRANCH  26  27
HETATM   27  O4  UNL     1      14.482   4.519  15.594  1.00  0.00    -0.389 OA
ATOM     28  H4  UNL     1      14.201   4.762  16.468  1.00  0.00     0.210 HD
ENDBRANCH  26  27
BRANCH  26  29
HETATM   29  C11 UNL     1      15.948   2.687  16.142  1.00  0.00     0.179 C 
BRANCH  29  30
HETATM   30  O5  UNL     1      17.316   2.621  16.525  1.00  0.00    -0.390 OA
ATOM     31  H5  UNL     1      17.448   1.752  16.887  1.00  0.00     0.210 HD
ENDBRANCH  29  30
BRANCH  29  32
HETATM   32  C12 UNL     1      15.171   2.434  17.401  1.00  0.00     0.145 C 
HETATM   33  C13 UNL     1      15.123   3.600  18.353  1.00  0.00     0.042 C 
BRANCH  32  34
HETATM   34  O6  UNL     1      13.835   2.222  16.977  1.00  0.00    -0.393 OA
ATOM     35  H6  UNL     1      13.309   2.809  17.507  1.00  0.00     0.210 HD
ENDBRANCH  32  34
ENDBRANCH  29  32
ENDBRANCH  26  29
ENDBRANCH  23  26
ENDBRANCH   5  23
TORSDOF 11
ENDMDL
MODEL 2
REMARK VINA RESULT: -7.789118574      2.125      6.989
REMARK  11 active torsions:
REMARK  status: ('A' for Active; 'I' for Inactive)
REMARK    1  A    between atoms: C4_7  and  O2_8 
REMARK    2  A    between atoms: O2_8  and  C5_9 
REMARK    3  A    between atoms: C6_12  and  N3_13 
REMARK    4  A    between atoms: N5_17  and  C9_18 
REMARK    5  A    between atoms: C9_18  and  O3_19 
REMARK    6  A    between atoms: C9_18  and  C10_21 
REMARK    7  A    between atoms: C10_21  and  O4_22 
REMARK    8  A    between atoms: C10_21  and  C11_24 
REMARK    9  A    between atoms: C11_24  and  O5_25 
REMARK   10  A    between atoms: C11_24  and  C12_27 
REMARK   11  A    between atoms: C12_27  and  O6_29 
ROOT
HETATM    1  N3  UNL     1      19.015   6.844  12.788  1.00  0.00    -0.273 N 
HETATM    2  C7  UNL     1      20.011   7.713  13.382  1.00  0.00     0.164 C 
HETATM    3  C8  UNL     1      20.950   7.994  12.254  1.00  0.00     0.152 C 
HETATM    4  N4  UNL     1      20.186   7.674  11.088  1.00  0.00    -0.141 NA
HETATM    5  N5  UNL     1      19.347   6.585  11.451  1.00  0.00    -0.108 NA
ENDROOT
BRANCH   1   6
HETATM    6  C6  UNL     1      17.879   6.363  13.528  1.00  0.00     0.188 A 
HETATM    7  N2  UNL     1      17.818   5.318  14.274  1.00  0.00    -0.328 N 
HETATM    8  C5  UNL     1      16.528   5.132  14.865  1.00  0.00     0.337 A 
ATOM      9  H2  UNL     1      18.605   4.689  14.429  1.00  0.00     0.165 HD
HETATM   10  N6  UNL     1      15.730   6.236  14.384  1.00  0.00    -0.311 N 
HETATM   11  C14 UNL     1      16.575   7.010  13.546  1.00  0.00     0.289 A 
ATOM     12  H6  UNL     1      14.751   6.422  14.604  1.00  0.00     0.167 HD
HETATM   13  O7  UNL     1      16.290   8.068  12.914  1.00  0.00    -0.264 OA
BRANCH   8  14
HETATM   14  O2  UNL     1      15.961   3.905  14.503  1.00  0.00    -0.310 OA
BRANCH  14  15
HETATM   15  C4  UNL     1      15.358   3.360  15.610  1.00  0.00     0.359 C 
HETATM   16  C3  UNL     1      16.283   2.549  16.446  1.00  0.00     0.275 C 
HETATM   17  N1  UNL     1      15.745   2.634  17.777  1.00  0.00    -0.331 N 
HETATM   18  O1  UNL     1      17.310   1.926  16.064  1.00  0.00    -0.268 OA
HETATM   19  C2  UNL     1      14.651   3.608  17.674  1.00  0.00     0.223 C 
ATOM     20  H1  UNL     1      16.056   2.130  18.608  1.00  0.00     0.165 HD
HETATM   21  C1  UNL     1      14.695   4.440  18.936  1.00  0.00     0.063 C 
HETATM   22  O8  UNL     1      14.970   4.348  16.542  1.00  0.00    -0.328 OA
ENDBRANCH  14  15
ENDBRANCH   8  14
ENDBRANCH   1   6
BRANCH   5  23
HETATM   23  C9  UNL     1      20.095   5.339  11.395  1.00  0.00     0.262 C 
BRANCH  23  24
HETATM   24  O3  UNL     1      20.248   4.940  12.720  1.00  0.00    -0.375 OA
ATOM     25  H3  UNL     1      21.178   5.013  12.899  1.00  0.00     0.211 HD
ENDBRANCH  23  24
BRANCH  23  26
HETATM   26  C10 UNL     1      19.364   4.290  10.584  1.00  0.00     0.195 C 
BRANCH  26  27
HETATM   27  O4  UNL     1      19.843   4.104   9.317  1.00  0.00    -0.389 OA
ATOM     28  H4  UNL     1      19.851   3.201   9.021  1.00  0.00     0.210 HD
ENDBRANCH  26  27
BRANCH  26  29
HETATM   29  C11 UNL     1      19.064   3.032  11.330  1.00  0.00     0.179 C 
BRANCH  29  30
HETATM   30  O5  UNL     1      18.045   3.359  12.266  1.00  0.00    -0.390 OA
ATOM     31  H5  UNL     1      17.865   2.562  12.751  1.00  0.00     0.210 HD
ENDBRANCH  29  30
BRANCH  29  32
HETATM   32  C12 UNL     1      18.507   1.902  10.514  1.00  0.00     0.145 C 
HETATM   33  C13 UNL     1      18.119   0.685  11.311  1.00  0.00     0.042 C 
BRANCH  32  34
HETATM   34  O6  UNL     1      17.305   2.404   9.956  1.00  0.00    -0.393 OA
ATOM     35  H6  UNL     1      17.337   2.163   9.038  1.00  0.00     0.210 HD
ENDBRANCH  32  34
ENDBRANCH  29  32
ENDBRANCH  26  29
ENDBRANCH  23  26
ENDBRANCH   5  23
TORSDOF 11
ENDMDL
MODEL 3
REMARK VINA RESULT: -7.782798605      2.175      4.289
REMARK  11 active torsions:
REMARK  status: ('A' for Active; 'I' for Inactive)
REMARK    1  A    between atoms: C4_7  and  O2_8 
REMARK    2  A    between atoms: O2_8  and  C5_9 
REMARK    3  A    between atoms: C6_12  and  N3_13 
REMARK    4  A    between atoms: N5_17  and  C9_18 
REMARK    5  A    between atoms: C9_18  and  O3_19 
REMARK    6  A    between atoms: C9_18  and  C10_21 
REMARK    7  A    between atoms: C10_21  and  O4_22 
REMARK    8  A    between atoms: C10_21  and  C11_24 
REMARK    9  A    between atoms: C11_24  and  O5_25 
REMARK   10  A    between atoms: C11_24  and  C12_27 
REMARK   11  A    between atoms: C12_27  and  O6_29 
ROOT
HETATM    1  N3  UNL     1      17.562   5.887  12.866  1.00  0.00    -0.273 N 
HETATM    2  C7  UNL     1      16.695   7.002  12.541  1.00  0.00     0.164 C 
HETATM    3  C8  UNL     1      15.958   7.259  13.815  1.00  0.00     0.152 C 
HETATM    4  N4  UNL     1      16.768   6.626  14.810  1.00  0.00    -0.141 NA
HETATM    5  N5  UNL     1      17.334   5.479  14.188  1.00  0.00    -0.108 NA
ENDROOT
BRANCH   1   6
HETATM    6  C6  UNL     1      18.495   5.340  11.919  1.00  0.00     0.188 A 
HETATM    7  N2  UNL     1      18.247   4.934  10.725  1.00  0.00    -0.328 N 
HETATM    8  C5  UNL     1      19.411   4.445  10.052  1.00  0.00     0.337 A 
ATOM      9  H2  UNL     1      17.320   4.957  10.302  1.00  0.00     0.165 HD
HETATM   10  N6  UNL     1      20.488   4.593  11.003  1.00  0.00    -0.311 N 
HETATM   11  C14 UNL     1      19.916   5.155  12.175  1.00  0.00     0.289 A 
ATOM     12  H6  UNL     1      21.467   4.343  10.861  1.00  0.00     0.167 HD
HETATM   13  O7  UNL     1      20.494   5.454  13.260  1.00  0.00    -0.264 OA
BRANCH   8  14
HETATM   14  O2  UNL     1      19.266   3.110   9.660  1.00  0.00    -0.310 OA
BRANCH  14  15
HETATM   15  C4  UNL     1      18.703   2.409  10.699  1.00  0.00     0.359 C 
HETATM   16  C3  UNL     1      17.243   2.174  10.530  1.00  0.00     0.275 C 
HETATM   17  N1  UNL     1      16.980   0.960  11.254  1.00  0.00    -0.331 N 
HETATM   18  O1  UNL     1      16.425   2.888   9.891  1.00  0.00    -0.268 OA
HETATM   19  C2  UNL     1      18.306   0.474  11.659  1.00  0.00     0.223 C 
ATOM     20  H1  UNL     1      16.074   0.531  11.444  1.00  0.00     0.165 HD
HETATM   21  C1  UNL     1      18.277  -1.031  11.510  1.00  0.00     0.063 C 
HETATM   22  O8  UNL     1      19.172   1.078  10.755  1.00  0.00    -0.328 OA
ENDBRANCH  14  15
ENDBRANCH   8  14
ENDBRANCH   1   6
BRANCH   5  23
HETATM   23  C9  UNL     1      16.368   4.392  14.174  1.00  0.00     0.262 C 
BRANCH  23  24
HETATM   24  O3  UNL     1      17.069   3.281  13.714  1.00  0.00    -0.375 OA
ATOM     25  H3  UNL     1      17.496   3.565  12.915  1.00  0.00     0.211 HD
ENDBRANCH  23  24
BRANCH  23  26
HETATM   26  C10 UNL     1      15.788   4.148  15.551  1.00  0.00     0.195 C 
BRANCH  26  27
HETATM   27  O4  UNL     1      14.535   4.660  15.748  1.00  0.00    -0.389 OA
ATOM     28  H4  UNL     1      14.185   4.535  16.622  1.00  0.00     0.210 HD
ENDBRANCH  26  27
BRANCH  26  29
HETATM   29  C11 UNL     1      15.985   2.761  16.065  1.00  0.00     0.179 C 
BRANCH  29  30
HETATM   30  O5  UNL     1      17.338   2.684  16.493  1.00  0.00    -0.390 OA
ATOM     31  H5  UNL     1      17.357   2.053  17.203  1.00  0.00     0.210 HD
ENDBRANCH  29  30
BRANCH  29  32
HETATM   32  C12 UNL     1      15.167   2.384  17.267  1.00  0.00     0.145 C 
HETATM   33  C13 UNL     1      15.109   3.437  18.341  1.00  0.00     0.042 C 
BRANCH  32  34
HETATM   34  O6  UNL     1      13.841   2.244  16.785  1.00  0.00    -0.393 OA
ATOM     35  H6  UNL     1      13.699   3.000  16.226  1.00  0.00     0.210 HD
ENDBRANCH  32  34
ENDBRANCH  29  32
ENDBRANCH  26  29
ENDBRANCH  23  26
ENDBRANCH   5  23
TORSDOF 11
ENDMDL
MODEL 4
REMARK VINA RESULT: -7.657820843      3.111      5.268
REMARK  11 active torsions:
REMARK  status: ('A' for Active; 'I' for Inactive)
REMARK    1  A    between atoms: C4_7  and  O2_8 
REMARK    2  A    between atoms: O2_8  and  C5_9 
REMARK    3  A    between atoms: C6_12  and  N3_13 
REMARK    4  A    between atoms: N5_17  and  C9_18 
REMARK    5  A    between atoms: C9_18  and  O3_19 
REMARK    6  A    between atoms: C9_18  and  C10_21 
REMARK    7  A    between atoms: C10_21  and  O4_22 
REMARK    8  A    between atoms: C10_21  and  C11_24 
REMARK    9  A    between atoms: C11_24  and  O5_25 
REMARK   10  A    between atoms: C11_24  and  C12_27 
REMARK   11  A    between atoms: C12_27  and  O6_29 
ROOT
HETATM    1  N3  UNL     1      17.383   3.113  11.329  1.00  0.00    -0.273 N 
HETATM    2  C7  UNL     1      18.191   1.980  10.925  1.00  0.00     0.164 C 
HETATM    3  C8  UNL     1      17.663   0.857  11.758  1.00  0.00     0.152 C 
HETATM    4  N4  UNL     1      16.374   1.319  12.173  1.00  0.00    -0.141 NA
HETATM    5  N5  UNL     1      16.493   2.726  12.340  1.00  0.00    -0.108 NA
ENDROOT
BRANCH   1   6
HETATM    6  C6  UNL     1      17.531   4.412  10.729  1.00  0.00     0.188 A 
HETATM    7  N2  UNL     1      16.692   5.386  10.757  1.00  0.00    -0.328 N 
HETATM    8  C5  UNL     1      17.158   6.542  10.056  1.00  0.00     0.337 A 
ATOM      9  H2  UNL     1      15.789   5.339  11.229  1.00  0.00     0.165 HD
HETATM   10  N6  UNL     1      18.461   6.176   9.549  1.00  0.00    -0.311 N 
HETATM   11  C14 UNL     1      18.697   4.841   9.971  1.00  0.00     0.289 A 
ATOM     12  H6  UNL     1      19.088   6.762   8.997  1.00  0.00     0.167 HD
HETATM   13  O7  UNL     1      19.714   4.121   9.751  1.00  0.00    -0.264 OA
BRANCH   8  14
HETATM   14  O2  UNL     1      16.297   6.903   9.015  1.00  0.00    -0.310 OA
BRANCH  14  15
HETATM   15  C4  UNL     1      15.734   8.119   9.316  1.00  0.00     0.359 C 
HETATM   16  C3  UNL     1      14.423   8.344   8.650  1.00  0.00     0.275 C 
HETATM   17  N1  UNL     1      13.715   9.239   9.525  1.00  0.00    -0.331 N 
HETATM   18  O1  UNL     1      14.028   7.853   7.558  1.00  0.00    -0.268 OA
HETATM   19  C2  UNL     1      14.572   9.353  10.713  1.00  0.00     0.223 C 
ATOM     20  H1  UNL     1      12.816   9.693   9.358  1.00  0.00     0.165 HD
HETATM   21  C1  UNL     1      13.647   9.382  11.909  1.00  0.00     0.063 C 
HETATM   22  O8  UNL     1      15.350   8.202  10.673  1.00  0.00    -0.328 OA
ENDBRANCH  14  15
ENDBRANCH   8  14
ENDBRANCH   1   6
BRANCH   5  23
HETATM   23  C9  UNL     1      17.098   3.026  13.627  1.00  0.00     0.262 C 
BRANCH  23  24
HETATM   24  O3  UNL     1      17.178   4.414  13.684  1.00  0.00    -0.375 OA
ATOM     25  H3  UNL     1      16.829   4.652  14.535  1.00  0.00     0.211 HD
ENDBRANCH  23  24
BRANCH  23  26
HETATM   26  C10 UNL     1      16.273   2.473  14.770  1.00  0.00     0.195 C 
BRANCH  26  27
HETATM   27  O4  UNL     1      16.604   1.204  15.158  1.00  0.00    -0.389 OA
ATOM     28  H4  UNL     1      15.872   0.670  15.445  1.00  0.00     0.210 HD
ENDBRANCH  26  27
BRANCH  26  29
HETATM   29  C11 UNL     1      16.053   3.433  15.891  1.00  0.00     0.179 C 
BRANCH  29  30
HETATM   30  O5  UNL     1      15.087   4.369  15.430  1.00  0.00    -0.390 OA
ATOM     31  H5  UNL     1      15.052   5.057  16.083  1.00  0.00     0.210 HD
ENDBRANCH  29  30
BRANCH  29  32
HETATM   32  C12 UNL     1      15.473   2.852  17.148  1.00  0.00     0.145 C 
HETATM   33  C13 UNL     1      14.862   3.862  18.083  1.00  0.00     0.042 C 
BRANCH  32  34
HETATM   34  O6  UNL     1      14.408   2.023  16.718  1.00  0.00    -0.393 OA
ATOM     35  H6  UNL     1      13.617   2.506  16.925  1.00  0.00     0.210 HD
ENDBRANCH  32  34
ENDBRANCH  29  32
ENDBRANCH  26  29
ENDBRANCH  23  26
ENDBRANCH   5  23
TORSDOF 11
ENDMDL
MODEL 5
REMARK VINA RESULT: -7.482253429      1.807      2.308
REMARK  11 active torsions:
REMARK  status: ('A' for Active; 'I' for Inactive)
REMARK    1  A    between atoms: C4_7  and  O2_8 
REMARK    2  A    between atoms: O2_8  and  C5_9 
REMARK    3  A    between atoms: C6_12  and  N3_13 
REMARK    4  A    between atoms: N5_17  and  C9_18 
REMARK    5  A    between atoms: C9_18  and  O3_19 
REMARK    6  A    between atoms: C9_18  and  C10_21 
REMARK    7  A    between atoms: C10_21  and  O4_22 
REMARK    8  A    between atoms: C10_21  and  C11_24 
REMARK    9  A    between atoms: C11_24  and  O5_25 
REMARK   10  A    between atoms: C11_24  and  C12_27 
REMARK   11  A    between atoms: C12_27  and  O6_29 
ROOT
HETATM    1  N3  UNL     1      17.652   5.337  12.656  1.00  0.00    -0.273 N 
HETATM    2  C7  UNL     1      16.858   6.470  12.225  1.00  0.00     0.164 C 
HETATM    3  C8  UNL     1      16.155   6.900  13.471  1.00  0.00     0.152 C 
HETATM    4  N4  UNL     1      16.932   6.315  14.520  1.00  0.00    -0.141 NA
HETATM    5  N5  UNL     1      17.413   5.077  14.013  1.00  0.00    -0.108 NA
ENDROOT
BRANCH   1   6
HETATM    6  C6  UNL     1      18.536   4.637  11.763  1.00  0.00     0.188 A 
HETATM    7  N2  UNL     1      19.780   4.879  11.546  1.00  0.00    -0.328 N 
HETATM    8  C5  UNL     1      20.361   3.986  10.592  1.00  0.00     0.337 A 
ATOM      9  H2  UNL     1      20.297   5.628  12.006  1.00  0.00     0.165 HD
HETATM   10  N6  UNL     1      19.290   3.098  10.203  1.00  0.00    -0.311 N 
HETATM   11  C14 UNL     1      18.144   3.505  10.937  1.00  0.00     0.289 A 
ATOM     12  H6  UNL     1      19.345   2.331   9.533  1.00  0.00     0.167 HD
HETATM   13  O7  UNL     1      16.981   3.006  10.909  1.00  0.00    -0.264 OA
BRANCH   8  14
HETATM   14  O2  UNL     1      20.876   4.668   9.485  1.00  0.00    -0.310 OA
BRANCH  14  15
HETATM   15  C4  UNL     1      20.153   5.822   9.309  1.00  0.00     0.359 C 
HETATM   16  C3  UNL     1      20.897   6.876   8.567  1.00  0.00     0.275 C 
HETATM   17  N1  UNL     1      19.878   7.656   7.916  1.00  0.00    -0.331 N 
HETATM   18  O1  UNL     1      22.145   7.043   8.524  1.00  0.00    -0.268 OA
HETATM   19  C2  UNL     1      18.630   6.927   8.176  1.00  0.00     0.223 C 
ATOM     20  H1  UNL     1      19.997   8.523   7.391  1.00  0.00     0.165 HD
HETATM   21  C1  UNL     1      17.810   7.013   6.908  1.00  0.00     0.063 C 
HETATM   22  O8  UNL     1      19.052   5.630   8.445  1.00  0.00    -0.328 OA
ENDBRANCH  14  15
ENDBRANCH   8  14
ENDBRANCH   1   6
BRANCH   5  23
HETATM   23  C9  UNL     1      16.377   4.062  14.111  1.00  0.00     0.262 C 
BRANCH  23  24
HETATM   24  O3  UNL     1      16.998   2.866  13.765  1.00  0.00    -0.375 OA
ATOM     25  H3  UNL     1      16.443   2.477  13.099  1.00  0.00     0.211 HD
ENDBRANCH  23  24
BRANCH  23  26
HETATM   26  C10 UNL     1      15.795   3.997  15.508  1.00  0.00     0.195 C 
BRANCH  26  27
HETATM   27  O4  UNL     1      14.567   4.583  15.648  1.00  0.00    -0.389 OA
ATOM     28  H4  UNL     1      14.558   5.370  16.180  1.00  0.00     0.210 HD
ENDBRANCH  26  27
BRANCH  26  29
HETATM   29  C11 UNL     1      15.934   2.668  16.172  1.00  0.00     0.179 C 
BRANCH  29  30
HETATM   30  O5  UNL     1      17.292   2.567  16.579  1.00  0.00    -0.390 OA
ATOM     31  H5  UNL     1      17.812   2.634  15.787  1.00  0.00     0.210 HD
ENDBRANCH  29  30
BRANCH  29  32
HETATM   32  C12 UNL     1      15.129   2.473  17.425  1.00  0.00     0.145 C 
HETATM   33  C13 UNL     1      15.089   3.670  18.337  1.00  0.00     0.042 C 
BRANCH  32  34
HETATM   34  O6  UNL     1      13.797   2.274  16.983  1.00  0.00    -0.393 OA
ATOM     35  H6  UNL     1      13.250   2.567  17.703  1.00  0.00     0.210 HD
ENDBRANCH  32  34
ENDBRANCH  29  32
ENDBRANCH  26  29
ENDBRANCH  23  26
ENDBRANCH   5  23
TORSDOF 11
ENDMDL
