MODEL 1
REMARK VINA RESULT: -8.496248342      0.000      0.000
REMARK  4 active torsions:
REMARK  status: ('A' for Active; 'I' for Inactive)
REMARK       I    between atoms: C1_2  and  N1_4 
REMARK    1  A    between atoms: N1_4  and  N2_6 
REMARK    2  A    between atoms: C2_8  and  C3_9 
REMARK    3  A    between atoms: C6_12  and  C7_13 
REMARK    4  A    between atoms: N4_22  and  S1_23 
ROOT
HETATM    1  C3  UNL     1      18.869   5.760  12.695  1.00  0.00     0.011 A 
HETATM    2  C4  UNL     1      18.710   6.365  13.907  1.00  0.00     0.016 A 
HETATM    3  C5  UNL     1      17.823   5.893  14.895  1.00  0.00     0.015 A 
HETATM    4  C6  UNL     1      17.076   4.778  14.648  1.00  0.00     0.005 A 
HETATM    5  C13 UNL     1      17.211   4.137  13.428  1.00  0.00     0.090 A 
HETATM    6  N3  UNL     1      16.613   3.042  12.928  1.00  0.00    -0.266 N 
ATOM      7  H3  UNL     1      15.914   2.470  13.403  1.00  0.00     0.190 HD
HETATM    8  N4  UNL     1      17.081   2.841  11.727  1.00  0.00    -0.101 N 
HETATM    9  N5  UNL     1      17.960   3.768  11.439  1.00  0.00    -0.266 N 
ATOM     10  H5  UNL     1      18.475   3.840  10.561  1.00  0.00     0.190 HD
HETATM   11  C14 UNL     1      18.078   4.609  12.477  1.00  0.00     0.091 A 
ENDROOT
BRANCH   1  12
HETATM   12  C2  UNL     1      19.759   6.197  11.647  1.00  0.00     0.121 C 
HETATM   13  N2  UNL     1      19.523   6.952  10.712  1.00  0.00    -0.306 N 
ATOM     14  H2  UNL     1      20.338   7.093  10.114  1.00  0.00     0.186 HD
BRANCH  13  15
HETATM   15  N1  UNL     1      18.457   7.634  10.285  1.00  0.00    -0.244 N 
HETATM   16  C1  UNL     1      17.376   7.088   9.509  1.00  0.00     0.303 C 
HETATM   17  O1  UNL     1      17.466   5.864   9.222  1.00  0.00    -0.628 OA
HETATM   18  O2  UNL     1      16.294   7.825   9.090  1.00  0.00    -0.628 OA
ATOM     19  H1  UNL     1      18.406   8.622  10.530  1.00  0.00     0.193 HD
ENDBRANCH  13  15
ENDBRANCH   1  12
BRANCH   4  20
HETATM   20  C7  UNL     1      16.156   4.261  15.633  1.00  0.00    -0.024 A 
HETATM   21  C8  UNL     1      16.504   3.135  16.381  1.00  0.00     0.012 A 
HETATM   22  C9  UNL     1      15.656   2.609  17.333  1.00  0.00     0.001 A 
HETATM   23  C10 UNL     1      14.443   3.223  17.533  1.00  0.00     0.000 A 
HETATM   24  C11 UNL     1      14.048   4.339  16.822  1.00  0.00     0.001 A 
HETATM   25  C12 UNL     1      14.917   4.841  15.879  1.00  0.00     0.012 A 
ENDBRANCH   4  20
BRANCH   8  26
HETATM   26  S1  UNL     1      16.595   1.537  10.697  1.00  0.00     0.395 S 
HETATM   27  O3  UNL     1      16.337   2.097   9.135  1.00  0.00    -0.184 OA
HETATM   28  O4  UNL     1      17.781   0.358  10.646  1.00  0.00    -0.184 OA
ENDBRANCH   8  26
TORSDOF 4
ENDMDL
MODEL 2
REMARK VINA RESULT: -8.409818633      1.099      1.501
REMARK  4 active torsions:
REMARK  status: ('A' for Active; 'I' for Inactive)
REMARK       I    between atoms: C1_2  and  N1_4 
REMARK    1  A    between atoms: N1_4  and  N2_6 
REMARK    2  A    between atoms: C2_8  and  C3_9 
REMARK    3  A    between atoms: C6_12  and  C7_13 
REMARK    4  A    between atoms: N4_22  and  S1_23 
ROOT
HETATM    1  C3  UNL     1      18.126   5.822  12.186  1.00  0.00     0.011 A 
HETATM    2  C4  UNL     1      17.862   6.571  13.295  1.00  0.00     0.016 A 
HETATM    3  C5  UNL     1      17.206   6.061  14.432  1.00  0.00     0.015 A 
HETATM    4  C6  UNL     1      16.806   4.755  14.446  1.00  0.00     0.005 A 
HETATM    5  C13 UNL     1      17.058   3.964  13.338  1.00  0.00     0.090 A 
HETATM    6  N3  UNL     1      16.781   2.674  13.085  1.00  0.00    -0.266 N 
ATOM      7  H3  UNL     1      16.307   2.027  13.716  1.00  0.00     0.190 HD
HETATM    8  N4  UNL     1      17.224   2.395  11.890  1.00  0.00    -0.101 N 
HETATM    9  N5  UNL     1      17.776   3.460  11.367  1.00  0.00    -0.266 N 
ATOM     10  H5  UNL     1      18.200   3.510  10.441  1.00  0.00     0.190 HD
HETATM   11  C14 UNL     1      17.697   4.477  12.239  1.00  0.00     0.091 A 
ENDROOT
BRANCH   1  12
HETATM   12  C2  UNL     1      18.793   6.290  10.994  1.00  0.00     0.121 C 
HETATM   13  N2  UNL     1      18.295   6.660   9.939  1.00  0.00    -0.306 N 
ATOM     14  H2  UNL     1      19.000   6.942   9.257  1.00  0.00     0.186 HD
BRANCH  13  15
HETATM   15  N1  UNL     1      17.054   6.785   9.464  1.00  0.00    -0.244 N 
HETATM   16  C1  UNL     1      16.142   7.850   9.787  1.00  0.00     0.303 C 
HETATM   17  O1  UNL     1      16.575   8.723  10.586  1.00  0.00    -0.628 OA
HETATM   18  O2  UNL     1      14.870   7.943   9.275  1.00  0.00    -0.628 OA
ATOM     19  H1  UNL     1      16.725   6.067   8.819  1.00  0.00     0.193 HD
ENDBRANCH  13  15
ENDBRANCH   1  12
BRANCH   4  20
HETATM   20  C7  UNL     1      16.131   4.193  15.592  1.00  0.00    -0.024 A 
HETATM   21  C8  UNL     1      14.874   4.677  15.960  1.00  0.00     0.012 A 
HETATM   22  C9  UNL     1      14.193   4.168  17.046  1.00  0.00     0.001 A 
HETATM   23  C10 UNL     1      14.785   3.162  17.771  1.00  0.00     0.000 A 
HETATM   24  C11 UNL     1      16.026   2.645  17.451  1.00  0.00     0.001 A 
HETATM   25  C12 UNL     1      16.679   3.174  16.360  1.00  0.00     0.012 A 
ENDBRANCH   4  20
BRANCH   8  26
HETATM   26  S1  UNL     1      17.087   0.840  11.139  1.00  0.00     0.395 S 
HETATM   27  O3  UNL     1      17.366   0.967   9.488  1.00  0.00    -0.184 OA
HETATM   28  O4  UNL     1      18.206  -0.222  11.784  1.00  0.00    -0.184 OA
ENDBRANCH   8  26
TORSDOF 4
ENDMDL
MODEL 3
REMARK VINA RESULT: -8.186880384      1.292      1.420
REMARK  4 active torsions:
REMARK  status: ('A' for Active; 'I' for Inactive)
REMARK       I    between atoms: C1_2  and  N1_4 
REMARK    1  A    between atoms: N1_4  and  N2_6 
REMARK    2  A    between atoms: C2_8  and  C3_9 
REMARK    3  A    between atoms: C6_12  and  C7_13 
REMARK    4  A    between atoms: N4_22  and  S1_23 
ROOT
HETATM    1  C3  UNL     1      17.760   6.293  11.835  1.00  0.00     0.011 A 
HETATM    2  C4  UNL     1      17.646   6.955  13.022  1.00  0.00     0.016 A 
HETATM    3  C5  UNL     1      17.100   6.370  14.182  1.00  0.00     0.015 A 
HETATM    4  C6  UNL     1      16.657   5.080  14.138  1.00  0.00     0.005 A 
HETATM    5  C13 UNL     1      16.757   4.377  12.949  1.00  0.00     0.090 A 
HETATM    6  N3  UNL     1      16.406   3.120  12.628  1.00  0.00    -0.266 N 
ATOM      7  H3  UNL     1      15.981   2.436  13.255  1.00  0.00     0.190 HD
HETATM    8  N4  UNL     1      16.705   2.928  11.373  1.00  0.00    -0.101 N 
HETATM    9  N5  UNL     1      17.235   4.018  10.877  1.00  0.00    -0.266 N 
ATOM     10  H5  UNL     1      17.557   4.132   9.915  1.00  0.00     0.190 HD
HETATM   11  C14 UNL     1      17.290   4.960  11.829  1.00  0.00     0.091 A 
ENDROOT
BRANCH   1  12
HETATM   12  C2  UNL     1      18.309   6.839  10.617  1.00  0.00     0.121 C 
HETATM   13  N2  UNL     1      17.718   7.173   9.598  1.00  0.00    -0.306 N 
ATOM     14  H2  UNL     1      18.352   7.530   8.883  1.00  0.00     0.186 HD
BRANCH  13  15
HETATM   15  N1  UNL     1      16.445   7.182   9.195  1.00  0.00    -0.244 N 
HETATM   16  C1  UNL     1      15.488   8.216   9.487  1.00  0.00     0.303 C 
HETATM   17  O1  UNL     1      15.911   9.180  10.180  1.00  0.00    -0.628 OA
HETATM   18  O2  UNL     1      14.185   8.189   9.051  1.00  0.00    -0.628 OA
ATOM     19  H1  UNL     1      16.126   6.392   8.636  1.00  0.00     0.193 HD
ENDBRANCH  13  15
ENDBRANCH   1  12
BRANCH   4  20
HETATM   20  C7  UNL     1      16.091   4.444  15.304  1.00  0.00    -0.024 A 
HETATM   21  C8  UNL     1      16.773   3.390  15.916  1.00  0.00     0.012 A 
HETATM   22  C9  UNL     1      16.269   2.755  17.031  1.00  0.00     0.001 A 
HETATM   23  C10 UNL     1      15.065   3.184  17.536  1.00  0.00     0.000 A 
HETATM   24  C11 UNL     1      14.349   4.222  16.971  1.00  0.00     0.001 A 
HETATM   25  C12 UNL     1      14.879   4.836  15.858  1.00  0.00     0.012 A 
ENDBRANCH   4  20
BRANCH   8  26
HETATM   26  S1  UNL     1      16.430   1.446  10.521  1.00  0.00     0.395 S 
HETATM   27  O3  UNL     1      16.184   1.751   8.888  1.00  0.00    -0.184 OA
HETATM   28  O4  UNL     1      17.748   0.428  10.676  1.00  0.00    -0.184 OA
ENDBRANCH   8  26
TORSDOF 4
ENDMDL
MODEL 4
REMARK VINA RESULT: -8.173385379      1.644      2.307
REMARK  4 active torsions:
REMARK  status: ('A' for Active; 'I' for Inactive)
REMARK       I    between atoms: C1_2  and  N1_4 
REMARK    1  A    between atoms: N1_4  and  N2_6 
REMARK    2  A    between atoms: C2_8  and  C3_9 
REMARK    3  A    between atoms: C6_12  and  C7_13 
REMARK    4  A    between atoms: N4_22  and  S1_23 
ROOT
HETATM    1  C3  UNL     1      17.704   6.333  11.601  1.00  0.00     0.011 A 
HETATM    2  C4  UNL     1      17.629   7.020  12.777  1.00  0.00     0.016 A 
HETATM    3  C5  UNL     1      17.141   6.454  13.971  1.00  0.00     0.015 A 
HETATM    4  C6  UNL     1      16.716   5.157  13.974  1.00  0.00     0.005 A 
HETATM    5  C13 UNL     1      16.778   4.428  12.798  1.00  0.00     0.090 A 
HETATM    6  N3  UNL     1      16.434   3.159  12.519  1.00  0.00    -0.266 N 
ATOM      7  H3  UNL     1      16.045   2.484  13.179  1.00  0.00     0.190 HD
HETATM    8  N4  UNL     1      16.684   2.943  11.257  1.00  0.00    -0.101 N 
HETATM    9  N5  UNL     1      17.176   4.029  10.716  1.00  0.00    -0.266 N 
ATOM     10  H5  UNL     1      17.456   4.126   9.740  1.00  0.00     0.190 HD
HETATM   11  C14 UNL     1      17.256   4.994  11.644  1.00  0.00     0.091 A 
ENDROOT
BRANCH   1  12
HETATM   12  C2  UNL     1      18.194   6.859  10.349  1.00  0.00     0.121 C 
HETATM   13  N2  UNL     1      19.352   6.948   9.962  1.00  0.00    -0.306 N 
ATOM     14  H2  UNL     1      19.418   7.360   9.031  1.00  0.00     0.186 HD
BRANCH  13  15
HETATM   15  N1  UNL     1      20.550   6.638  10.463  1.00  0.00    -0.244 N 
HETATM   16  C1  UNL     1      21.339   5.494  10.088  1.00  0.00     0.303 C 
HETATM   17  O1  UNL     1      20.835   4.741   9.213  1.00  0.00    -0.628 OA
HETATM   18  O2  UNL     1      22.570   5.211  10.627  1.00  0.00    -0.628 OA
ATOM     19  H1  UNL     1      20.938   7.263  11.169  1.00  0.00     0.193 HD
ENDBRANCH  13  15
ENDBRANCH   1  12
BRANCH   4  20
HETATM   20  C7  UNL     1      16.208   4.539  15.176  1.00  0.00    -0.024 A 
HETATM   21  C8  UNL     1      14.964   4.924  15.678  1.00  0.00     0.012 A 
HETATM   22  C9  UNL     1      14.441   4.360  16.822  1.00  0.00     0.001 A 
HETATM   23  C10 UNL     1      15.179   3.399  17.470  1.00  0.00     0.000 A 
HETATM   24  C11 UNL     1      16.415   2.981  17.016  1.00  0.00     0.001 A 
HETATM   25  C12 UNL     1      16.910   3.562  15.871  1.00  0.00     0.012 A 
ENDBRANCH   4  20
BRANCH   8  26
HETATM   26  S1  UNL     1      16.397   1.438  10.451  1.00  0.00     0.395 S 
HETATM   27  O3  UNL     1      16.127   1.699   8.814  1.00  0.00    -0.184 OA
HETATM   28  O4  UNL     1      17.718   0.425  10.614  1.00  0.00    -0.184 OA
ENDBRANCH   8  26
TORSDOF 4
ENDMDL
MODEL 5
REMARK VINA RESULT: -8.146596870      2.046      2.515
REMARK  4 active torsions:
REMARK  status: ('A' for Active; 'I' for Inactive)
REMARK       I    between atoms: C1_2  and  N1_4 
REMARK    1  A    between atoms: N1_4  and  N2_6 
REMARK    2  A    between atoms: C2_8  and  C3_9 
REMARK    3  A    between atoms: C6_12  and  C7_13 
REMARK    4  A    between atoms: N4_22  and  S1_23 
ROOT
HETATM    1  C3  UNL     1      18.486   5.996  12.157  1.00  0.00     0.011 A 
HETATM    2  C4  UNL     1      18.398   6.640  13.356  1.00  0.00     0.016 A 
HETATM    3  C5  UNL     1      17.683   6.128  14.457  1.00  0.00     0.015 A 
HETATM    4  C6  UNL     1      17.038   4.931  14.339  1.00  0.00     0.005 A 
HETATM    5  C13 UNL     1      17.105   4.248  13.136  1.00  0.00     0.090 A 
HETATM    6  N3  UNL     1      16.577   3.074  12.750  1.00  0.00    -0.266 N 
ATOM      7  H3  UNL     1      16.002   2.457  13.324  1.00  0.00     0.190 HD
HETATM    8  N4  UNL     1      16.929   2.864  11.511  1.00  0.00    -0.101 N 
HETATM    9  N5  UNL     1      17.664   3.861  11.089  1.00  0.00    -0.266 N 
ATOM     10  H5  UNL     1      18.068   3.943  10.156  1.00  0.00     0.190 HD
HETATM   11  C14 UNL     1      17.805   4.760  12.075  1.00  0.00     0.091 A 
ENDROOT
BRANCH   1  12
HETATM   12  C2  UNL     1      19.202   6.470  10.997  1.00  0.00     0.121 C 
HETATM   13  N2  UNL     1      20.412   6.547  10.828  1.00  0.00    -0.306 N 
ATOM     14  H2  UNL     1      20.651   6.919   9.909  1.00  0.00     0.186 HD
BRANCH  13  15
HETATM   15  N1  UNL     1      21.495   6.260  11.555  1.00  0.00    -0.244 N 
HETATM   16  C1  UNL     1      22.853   6.316  11.083  1.00  0.00     0.303 C 
HETATM   17  O1  UNL     1      23.005   6.667   9.883  1.00  0.00    -0.628 OA
HETATM   18  O2  UNL     1      23.941   6.015  11.866  1.00  0.00    -0.628 OA
ATOM     19  H1  UNL     1      21.347   5.979  12.524  1.00  0.00     0.193 HD
ENDBRANCH  13  15
ENDBRANCH   1  12
BRANCH   4  20
HETATM   20  C7  UNL     1      16.294   4.371  15.443  1.00  0.00    -0.024 A 
HETATM   21  C8  UNL     1      16.838   3.317  16.180  1.00  0.00     0.012 A 
HETATM   22  C9  UNL     1      16.162   2.754  17.241  1.00  0.00     0.001 A 
HETATM   23  C10 UNL     1      14.925   3.255  17.565  1.00  0.00     0.000 A 
HETATM   24  C11 UNL     1      14.340   4.296  16.870  1.00  0.00     0.001 A 
HETATM   25  C12 UNL     1      15.040   4.838  15.816  1.00  0.00     0.012 A 
ENDBRANCH   4  20
BRANCH   8  26
HETATM   26  S1  UNL     1      16.475   1.467  10.594  1.00  0.00     0.395 S 
HETATM   27  O3  UNL     1      16.215   1.887   8.989  1.00  0.00    -0.184 OA
HETATM   28  O4  UNL     1      17.684   0.313  10.648  1.00  0.00    -0.184 OA
ENDBRANCH   8  26
TORSDOF 4
ENDMDL
