MODEL 1
REMARK VINA RESULT: -8.017265305      0.000      0.000
REMARK  3 active torsions:
REMARK  status: ('A' for Active; 'I' for Inactive)
REMARK    1  A    between atoms: C3_4  and  N2_5 
REMARK    2  A    between atoms: C8_13  and  N4_14 
REMARK    3  A    between atoms: C13_24  and  N7_25 
ROOT
HETATM    1  N1  UNL     1      19.656   4.935   9.999  1.00  0.00    -0.191 NA
HETATM    2  C1  UNL     1      19.044   4.731  10.964  1.00  0.00     0.107 C 
HETATM    3  C2  UNL     1      18.276   4.503  12.167  1.00  0.00     0.133 A 
HETATM    4  C3  UNL     1      18.121   5.516  13.110  1.00  0.00     0.144 A 
HETATM    5  N3  UNL     1      17.387   5.206  14.194  1.00  0.00    -0.175 N 
ATOM      6  H3  UNL     1      17.266   5.939  14.893  1.00  0.00     0.186 HD
HETATM    7  C8  UNL     1      16.807   4.042  14.443  1.00  0.00     0.683 A 
HETATM    8  N6  UNL     1      16.966   3.059  13.511  1.00  0.00    -0.175 N 
ATOM      9  H6  UNL     1      16.537   2.146  13.661  1.00  0.00     0.186 HD
HETATM   10  C13 UNL     1      17.682   3.283  12.398  1.00  0.00     0.150 A 
ENDROOT
BRANCH   4  11
HETATM   11  N2  UNL     1      18.708   6.799  12.939  1.00  0.00    -0.361 N 
HETATM   12  C4  UNL     1      18.088   7.900  12.233  1.00  0.00     0.150 C 
HETATM   13  C5  UNL     1      19.032   8.559  11.259  1.00  0.00     0.187 C 
HETATM   14  O1  UNL     1      20.344   8.583  11.716  1.00  0.00    -0.388 OA
HETATM   15  C6  UNL     1      20.435   8.430  13.091  1.00  0.00     0.187 C 
HETATM   16  C7  UNL     1      20.020   7.054  13.497  1.00  0.00     0.150 C 
ENDBRANCH   4  11
BRANCH  10  17
HETATM   17  N7  UNL     1      17.827   2.257  11.452  1.00  0.00    -0.302 N 
HETATM   18  C14 UNL     1      18.724   1.158  11.136  1.00  0.00     0.143 C 
HETATM   19  C15 UNL     1      17.505   0.480  10.547  1.00  0.00     0.123 C 
HETATM   20  C16 UNL     1      17.070   1.868  10.320  1.00  0.00     0.227 C 
HETATM   21  O2  UNL     1      16.355   2.477   9.509  1.00  0.00    -0.273 OA
ENDBRANCH  10  17
BRANCH   7  22
HETATM   22  N4  UNL     1      16.044   3.828  15.624  1.00  0.00    -0.214 N 
HETATM   23  C9  UNL     1      16.314   2.632  16.401  1.00  0.00     0.168 C 
HETATM   24  C10 UNL     1      15.296   2.342  17.450  1.00  0.00     0.252 C 
HETATM   25  N5  UNL     1      14.815   3.547  18.046  1.00  0.00    -0.072 N 
HETATM   26  C11 UNL     1      14.122   4.336  17.056  1.00  0.00     0.252 C 
ATOM     27  H52 UNL     1      14.237   3.366  18.866  1.00  0.00     0.277 HD
ATOM     28  H51 UNL     1      15.559   4.073  18.505  1.00  0.00     0.277 HD
HETATM   29  C12 UNL     1      15.054   4.816  15.963  1.00  0.00     0.168 C 
ENDBRANCH   7  22
TORSDOF 3
ENDMDL
MODEL 2
REMARK VINA RESULT: -7.960505872      0.712      1.188
REMARK  3 active torsions:
REMARK  status: ('A' for Active; 'I' for Inactive)
REMARK    1  A    between atoms: C3_4  and  N2_5 
REMARK    2  A    between atoms: C8_13  and  N4_14 
REMARK    3  A    between atoms: C13_24  and  N7_25 
ROOT
HETATM    1  N1  UNL     1      19.558   5.223  10.045  1.00  0.00    -0.191 NA
HETATM    2  C1  UNL     1      18.955   4.976  11.005  1.00  0.00     0.107 C 
HETATM    3  C2  UNL     1      18.196   4.693  12.203  1.00  0.00     0.133 A 
HETATM    4  C3  UNL     1      17.971   5.689  13.149  1.00  0.00     0.144 A 
HETATM    5  N3  UNL     1      17.252   5.328  14.227  1.00  0.00    -0.175 N 
ATOM      6  H3  UNL     1      17.079   6.049  14.928  1.00  0.00     0.186 HD
HETATM    7  C8  UNL     1      16.747   4.128  14.468  1.00  0.00     0.683 A 
HETATM    8  N6  UNL     1      16.976   3.161  13.533  1.00  0.00    -0.175 N 
ATOM      9  H6  UNL     1      16.607   2.221  13.677  1.00  0.00     0.186 HD
HETATM   10  C13 UNL     1      17.683   3.436  12.425  1.00  0.00     0.150 A 
ENDROOT
BRANCH   4  11
HETATM   11  N2  UNL     1      18.473   7.009  12.986  1.00  0.00    -0.361 N 
HETATM   12  C4  UNL     1      19.772   7.457  13.441  1.00  0.00     0.150 C 
HETATM   13  C5  UNL     1      19.696   8.764  14.188  1.00  0.00     0.187 C 
HETATM   14  O1  UNL     1      18.725   9.619  13.680  1.00  0.00    -0.388 OA
HETATM   15  C6  UNL     1      18.367   9.308  12.377  1.00  0.00     0.187 C 
HETATM   16  C7  UNL     1      17.647   8.000  12.325  1.00  0.00     0.150 C 
ENDBRANCH   4  11
BRANCH  10  17
HETATM   17  N7  UNL     1      17.900   2.425  11.476  1.00  0.00    -0.302 N 
HETATM   18  C14 UNL     1      18.901   1.433  11.121  1.00  0.00     0.143 C 
HETATM   19  C15 UNL     1      17.742   0.616  10.592  1.00  0.00     0.123 C 
HETATM   20  C16 UNL     1      17.141   1.944  10.382  1.00  0.00     0.227 C 
HETATM   21  O2  UNL     1      16.325   2.461   9.603  1.00  0.00    -0.273 OA
ENDBRANCH  10  17
BRANCH   7  22
HETATM   22  N4  UNL     1      15.993   3.859  15.644  1.00  0.00    -0.214 N 
HETATM   23  C9  UNL     1      16.304   2.654  16.391  1.00  0.00     0.168 C 
HETATM   24  C10 UNL     1      15.298   2.304  17.433  1.00  0.00     0.252 C 
HETATM   25  N5  UNL     1      14.776   3.478  18.058  1.00  0.00    -0.072 N 
HETATM   26  C11 UNL     1      14.056   4.266  17.087  1.00  0.00     0.252 C 
ATOM     27  H52 UNL     1      14.205   3.257  18.873  1.00  0.00     0.277 HD
ATOM     28  H51 UNL     1      15.502   4.017  18.529  1.00  0.00     0.277 HD
HETATM   29  C12 UNL     1      14.970   4.804  16.006  1.00  0.00     0.168 C 
ENDBRANCH   7  22
TORSDOF 3
ENDMDL
MODEL 3
REMARK VINA RESULT: -7.436696617      2.069      5.668
REMARK  3 active torsions:
REMARK  status: ('A' for Active; 'I' for Inactive)
REMARK    1  A    between atoms: C3_4  and  N2_5 
REMARK    2  A    between atoms: C8_13  and  N4_14 
REMARK    3  A    between atoms: C13_24  and  N7_25 
ROOT
HETATM    1  N1  UNL     1      16.565   1.214  13.961  1.00  0.00    -0.191 NA
HETATM    2  C1  UNL     1      16.837   2.329  13.785  1.00  0.00     0.107 C 
HETATM    3  C2  UNL     1      17.177   3.720  13.593  1.00  0.00     0.133 A 
HETATM    4  C3  UNL     1      16.822   4.673  14.544  1.00  0.00     0.144 A 
HETATM    5  N3  UNL     1      17.185   5.941  14.274  1.00  0.00    -0.175 N 
ATOM      6  H3  UNL     1      16.931   6.649  14.964  1.00  0.00     0.186 HD
HETATM    7  C8  UNL     1      17.839   6.359  13.202  1.00  0.00     0.683 A 
HETATM    8  N6  UNL     1      18.181   5.415  12.279  1.00  0.00    -0.175 N 
ATOM      9  H6  UNL     1      18.685   5.692  11.436  1.00  0.00     0.186 HD
HETATM   10  C13 UNL     1      17.859   4.126  12.468  1.00  0.00     0.150 A 
ENDROOT
BRANCH   4  11
HETATM   11  N2  UNL     1      16.115   4.328  15.727  1.00  0.00    -0.361 N 
HETATM   12  C4  UNL     1      16.629   3.469  16.773  1.00  0.00     0.150 C 
HETATM   13  C5  UNL     1      15.631   2.420  17.193  1.00  0.00     0.187 C 
HETATM   14  O1  UNL     1      14.320   2.879  17.154  1.00  0.00    -0.388 OA
HETATM   15  C6  UNL     1      14.236   4.263  17.188  1.00  0.00     0.187 C 
HETATM   16  C7  UNL     1      14.780   4.855  15.930  1.00  0.00     0.150 C 
ENDBRANCH   4  11
BRANCH  10  17
HETATM   17  N7  UNL     1      18.227   3.173  11.506  1.00  0.00    -0.302 N 
HETATM   18  C14 UNL     1      19.409   2.466  11.040  1.00  0.00     0.143 C 
HETATM   19  C15 UNL     1      18.455   1.354  10.658  1.00  0.00     0.123 C 
HETATM   20  C16 UNL     1      17.504   2.469  10.513  1.00  0.00     0.227 C 
HETATM   21  O2  UNL     1      16.497   2.725   9.834  1.00  0.00    -0.273 OA
ENDBRANCH  10  17
BRANCH   7  22
HETATM   22  N4  UNL     1      18.178   7.728  13.024  1.00  0.00    -0.214 N 
HETATM   23  C9  UNL     1      18.906   8.393  14.090  1.00  0.00     0.168 C 
HETATM   24  C10 UNL     1      18.973   9.875  13.953  1.00  0.00     0.252 C 
HETATM   25  N5  UNL     1      19.105  10.259  12.583  1.00  0.00    -0.072 N 
HETATM   26  C11 UNL     1      17.924   9.864  11.852  1.00  0.00     0.252 C 
ATOM     27  H52 UNL     1      19.306  11.253  12.480  1.00  0.00     0.277 HD
ATOM     28  H51 UNL     1      19.958   9.891  12.162  1.00  0.00     0.277 HD
HETATM   29  C12 UNL     1      17.770   8.359  11.797  1.00  0.00     0.168 C 
ENDBRANCH   7  22
TORSDOF 3
ENDMDL
MODEL 4
REMARK VINA RESULT: -7.311049549      2.078      5.724
REMARK  3 active torsions:
REMARK  status: ('A' for Active; 'I' for Inactive)
REMARK    1  A    between atoms: C3_4  and  N2_5 
REMARK    2  A    between atoms: C8_13  and  N4_14 
REMARK    3  A    between atoms: C13_24  and  N7_25 
ROOT
HETATM    1  N1  UNL     1      16.600   1.087  14.168  1.00  0.00    -0.191 NA
HETATM    2  C1  UNL     1      16.798   2.172  13.809  1.00  0.00     0.107 C 
HETATM    3  C2  UNL     1      17.047   3.532  13.387  1.00  0.00     0.133 A 
HETATM    4  C3  UNL     1      16.718   4.601  14.215  1.00  0.00     0.144 A 
HETATM    5  N3  UNL     1      16.990   5.827  13.733  1.00  0.00    -0.175 N 
ATOM      6  H3  UNL     1      16.755   6.620  14.331  1.00  0.00     0.186 HD
HETATM    7  C8  UNL     1      17.534   6.107  12.559  1.00  0.00     0.683 A 
HETATM    8  N6  UNL     1      17.851   5.050  11.757  1.00  0.00    -0.175 N 
ATOM      9  H6  UNL     1      18.272   5.218  10.843  1.00  0.00     0.186 HD
HETATM   10  C13 UNL     1      17.615   3.792  12.160  1.00  0.00     0.150 A 
ENDROOT
BRANCH   4  11
HETATM   11  N2  UNL     1      16.126   4.409  15.493  1.00  0.00    -0.361 N 
HETATM   12  C4  UNL     1      16.762   3.727  16.601  1.00  0.00     0.150 C 
HETATM   13  C5  UNL     1      15.849   2.719  17.251  1.00  0.00     0.187 C 
HETATM   14  O1  UNL     1      14.520   3.125  17.263  1.00  0.00    -0.388 OA
HETATM   15  C6  UNL     1      14.379   4.496  17.107  1.00  0.00     0.187 C 
HETATM   16  C7  UNL     1      14.791   4.917  15.735  1.00  0.00     0.150 C 
ENDBRANCH   4  11
BRANCH  10  17
HETATM   17  N7  UNL     1      17.955   2.721  11.319  1.00  0.00    -0.302 N 
HETATM   18  C14 UNL     1      19.081   1.846  11.038  1.00  0.00     0.143 C 
HETATM   19  C15 UNL     1      18.041   0.820  10.643  1.00  0.00     0.123 C 
HETATM   20  C16 UNL     1      17.252   2.018  10.311  1.00  0.00     0.227 C 
HETATM   21  O2  UNL     1      16.354   2.325   9.511  1.00  0.00    -0.273 OA
ENDBRANCH  10  17
BRANCH   7  22
HETATM   22  N4  UNL     1      17.785   7.447  12.155  1.00  0.00    -0.214 N 
HETATM   23  C9  UNL     1      16.694   8.400  12.245  1.00  0.00     0.168 C 
HETATM   24  C10 UNL     1      16.952   9.692  11.547  1.00  0.00     0.252 C 
HETATM   25  N5  UNL     1      18.320  10.081  11.676  1.00  0.00    -0.072 N 
HETATM   26  C11 UNL     1      19.164   9.118  11.011  1.00  0.00     0.252 C 
ATOM     27  H52 UNL     1      18.482  11.030  11.341  1.00  0.00     0.277 HD
ATOM     28  H51 UNL     1      18.589  10.221  12.650  1.00  0.00     0.277 HD
HETATM   29  C12 UNL     1      19.107   7.760  11.680  1.00  0.00     0.168 C 
ENDBRANCH   7  22
TORSDOF 3
ENDMDL
MODEL 5
REMARK VINA RESULT: -7.268662134      2.024      4.865
REMARK  3 active torsions:
REMARK  status: ('A' for Active; 'I' for Inactive)
REMARK    1  A    between atoms: C3_4  and  N2_5 
REMARK    2  A    between atoms: C8_13  and  N4_14 
REMARK    3  A    between atoms: C13_24  and  N7_25 
ROOT
HETATM    1  N1  UNL     1      17.687   5.808   9.589  1.00  0.00    -0.191 NA
HETATM    2  C1  UNL     1      17.325   5.547  10.660  1.00  0.00     0.107 C 
HETATM    3  C2  UNL     1      16.889   5.199  11.994  1.00  0.00     0.133 A 
HETATM    4  C3  UNL     1      16.893   3.873  12.416  1.00  0.00     0.144 A 
HETATM    5  N3  UNL     1      16.471   3.653  13.675  1.00  0.00    -0.175 N 
ATOM      6  H3  UNL     1      16.470   2.685  13.998  1.00  0.00     0.186 HD
HETATM    7  C8  UNL     1      16.058   4.570  14.536  1.00  0.00     0.683 A 
HETATM    8  N6  UNL     1      16.059   5.865  14.109  1.00  0.00    -0.175 N 
ATOM      9  H6  UNL     1      15.748   6.605  14.738  1.00  0.00     0.186 HD
HETATM   10  C13 UNL     1      16.465   6.175  12.868  1.00  0.00     0.150 A 
ENDROOT
BRANCH   4  11
HETATM   11  N2  UNL     1      17.314   2.814  11.568  1.00  0.00    -0.361 N 
HETATM   12  C4  UNL     1      16.423   1.966  10.804  1.00  0.00     0.150 C 
HETATM   13  C5  UNL     1      16.760   0.504  10.952  1.00  0.00     0.187 C 
HETATM   14  O1  UNL     1      18.126   0.275  11.064  1.00  0.00    -0.388 OA
HETATM   15  C6  UNL     1      18.886   1.327  10.575  1.00  0.00     0.187 C 
HETATM   16  C7  UNL     1      18.731   2.536  11.438  1.00  0.00     0.150 C 
ENDBRANCH   4  11
BRANCH  10  17
HETATM   17  N7  UNL     1      16.462   7.516  12.454  1.00  0.00    -0.302 N 
HETATM   18  C14 UNL     1      17.382   8.629  12.294  1.00  0.00     0.143 C 
HETATM   19  C15 UNL     1      16.458   9.088  11.186  1.00  0.00     0.123 C 
HETATM   20  C16 UNL     1      15.445   8.385  11.991  1.00  0.00     0.227 C 
HETATM   21  O2  UNL     1      14.225   8.476  12.201  1.00  0.00    -0.273 OA
ENDBRANCH  10  17
BRANCH   7  22
HETATM   22  N4  UNL     1      15.640   4.222  15.850  1.00  0.00    -0.214 N 
HETATM   23  C9  UNL     1      16.305   3.110  16.504  1.00  0.00     0.168 C 
HETATM   24  C10 UNL     1      15.628   2.636  17.744  1.00  0.00     0.252 C 
HETATM   25  N5  UNL     1      15.070   3.729  18.474  1.00  0.00    -0.072 N 
HETATM   26  C11 UNL     1      14.032   4.356  17.693  1.00  0.00     0.252 C 
ATOM     27  H52 UNL     1      14.740   3.446  19.397  1.00  0.00     0.277 HD
ATOM     28  H51 UNL     1      15.783   4.396  18.772  1.00  0.00     0.277 HD
HETATM   29  C12 UNL     1      14.580   4.999  16.436  1.00  0.00     0.168 C 
ENDBRANCH   7  22
TORSDOF 3
ENDMDL
