MODEL 1
REMARK VINA RESULT: -8.937016297      0.000      0.000
REMARK  4 active torsions:
REMARK  status: ('A' for Active; 'I' for Inactive)
REMARK    1  A    between atoms: C2_5  and  C3_6 
REMARK    2  A    between atoms: C2_5  and  N4_15 
REMARK    3  A    between atoms: C8_11  and  N3_12 
REMARK       I    between atoms: N5_17  and  C10_18 
REMARK    4  A    between atoms: C10_18  and  C11_20 
ROOT
HETATM    1  N1  UNL     1      16.253   8.037  10.617  1.00  0.00    -0.172 NA
HETATM    2  C1  UNL     1      16.499   6.903  10.760  1.00  0.00     0.183 C 
HETATM    3  N2  UNL     1      16.780   5.611  10.872  1.00  0.00    -0.278 N 
ATOM      4  H2  UNL     1      17.119   5.215   9.996  1.00  0.00     0.179 HD
HETATM    5  C2  UNL     1      16.732   4.763  11.781  1.00  0.00     0.133 C 
ENDROOT
BRANCH   5   6
HETATM    6  C3  UNL     1      17.188   3.401  11.321  1.00  0.00     0.042 A 
HETATM    7  C4  UNL     1      16.253   2.386  11.152  1.00  0.00     0.018 A 
HETATM    8  C5  UNL     1      16.652   1.132  10.742  1.00  0.00     0.001 A 
HETATM    9  C6  UNL     1      17.977   0.865  10.495  1.00  0.00     0.002 A 
HETATM   10  C7  UNL     1      18.888   1.875  10.664  1.00  0.00     0.037 A 
HETATM   11  C8  UNL     1      18.488   3.174  11.085  1.00  0.00     0.116 A 
BRANCH  11  12
HETATM   12  N3  UNL     1      19.497   4.144  11.209  1.00  0.00    -0.115 N 
HETATM   13  O1  UNL     1      20.109   4.326  12.260  1.00  0.00    -0.532 OA
HETATM   14  O2  UNL     1      19.798   4.968  10.149  1.00  0.00    -0.532 OA
ENDBRANCH  11  12
ENDBRANCH   5   6
BRANCH   5  15
HETATM   15  N4  UNL     1      16.352   4.895  13.122  1.00  0.00    -0.284 N 
HETATM   16  C9  UNL     1      17.156   4.360  14.246  1.00  0.00     0.263 C 
HETATM   17  N5  UNL     1      16.194   4.024  15.271  1.00  0.00    -0.317 N 
HETATM   18  C10 UNL     1      16.491   3.259  16.441  1.00  0.00     0.322 C 
HETATM   19  C12 UNL     1      14.917   4.568  14.937  1.00  0.00     0.231 C 
HETATM   20  O3  UNL     1      17.658   2.836  16.638  1.00  0.00    -0.261 OA
HETATM   21  C13 UNL     1      15.232   5.469  13.768  1.00  0.00     0.244 C 
HETATM   22  O6  UNL     1      14.659   6.501  13.416  1.00  0.00    -0.271 OA
BRANCH  18  23
HETATM   23  C11 UNL     1      15.490   2.945  17.429  1.00  0.00     0.270 C 
HETATM   24  O4  UNL     1      15.428   3.627  18.482  1.00  0.00    -0.640 OA
HETATM   25  O5  UNL     1      14.587   1.922  17.274  1.00  0.00    -0.640 OA
ENDBRANCH  18  23
ENDBRANCH   5  15
TORSDOF 4
ENDMDL
MODEL 2
REMARK VINA RESULT: -8.517180399      1.875      2.312
REMARK  4 active torsions:
REMARK  status: ('A' for Active; 'I' for Inactive)
REMARK    1  A    between atoms: C2_5  and  C3_6 
REMARK    2  A    between atoms: C2_5  and  N4_15 
REMARK    3  A    between atoms: C8_11  and  N3_12 
REMARK       I    between atoms: N5_17  and  C10_18 
REMARK    4  A    between atoms: C10_18  and  C11_20 
ROOT
HETATM    1  N1  UNL     1      15.078   8.869  11.525  1.00  0.00    -0.172 NA
HETATM    2  C1  UNL     1      15.807   7.956  11.567  1.00  0.00     0.183 C 
HETATM    3  N2  UNL     1      16.640   6.923  11.566  1.00  0.00    -0.278 N 
ATOM      4  H2  UNL     1      17.166   6.856  10.695  1.00  0.00     0.179 HD
HETATM    5  C2  UNL     1      16.940   6.017  12.364  1.00  0.00     0.133 C 
ENDROOT
BRANCH   5   6
HETATM    6  C3  UNL     1      17.988   5.086  11.809  1.00  0.00     0.042 A 
HETATM    7  C4  UNL     1      19.257   5.576  11.519  1.00  0.00     0.018 A 
HETATM    8  C5  UNL     1      20.225   4.743  11.001  1.00  0.00     0.001 A 
HETATM    9  C6  UNL     1      19.952   3.417  10.764  1.00  0.00     0.002 A 
HETATM   10  C7  UNL     1      18.699   2.946  11.056  1.00  0.00     0.037 A 
HETATM   11  C8  UNL     1      17.692   3.796  11.592  1.00  0.00     0.116 A 
BRANCH  11  12
HETATM   12  N3  UNL     1      16.446   3.211  11.875  1.00  0.00    -0.115 N 
HETATM   13  O1  UNL     1      16.307   2.347  12.739  1.00  0.00    -0.532 OA
HETATM   14  O2  UNL     1      15.335   3.563  11.143  1.00  0.00    -0.532 OA
ENDBRANCH  11  12
ENDBRANCH   5   6
BRANCH   5  15
HETATM   15  N4  UNL     1      16.475   5.762  13.660  1.00  0.00    -0.284 N 
HETATM   16  C9  UNL     1      17.291   5.076  14.690  1.00  0.00     0.263 C 
HETATM   17  N5  UNL     1      16.337   4.375  15.519  1.00  0.00    -0.317 N 
HETATM   18  C10 UNL     1      16.683   3.391  16.495  1.00  0.00     0.322 C 
HETATM   19  C12 UNL     1      15.013   4.813  15.215  1.00  0.00     0.231 C 
HETATM   20  O3  UNL     1      17.887   3.088  16.686  1.00  0.00    -0.261 OA
HETATM   21  C13 UNL     1      15.250   6.008  14.325  1.00  0.00     0.244 C 
HETATM   22  O6  UNL     1      14.551   7.011  14.180  1.00  0.00    -0.271 OA
BRANCH  18  23
HETATM   23  C11 UNL     1      15.689   2.714  17.291  1.00  0.00     0.270 C 
HETATM   24  O4  UNL     1      15.156   3.317  18.255  1.00  0.00    -0.640 OA
HETATM   25  O5  UNL     1      15.290   1.423  17.043  1.00  0.00    -0.640 OA
ENDBRANCH  18  23
ENDBRANCH   5  15
TORSDOF 4
ENDMDL
MODEL 3
REMARK VINA RESULT: -8.387884234      2.432      5.884
REMARK  4 active torsions:
REMARK  status: ('A' for Active; 'I' for Inactive)
REMARK    1  A    between atoms: C2_5  and  C3_6 
REMARK    2  A    between atoms: C2_5  and  N4_15 
REMARK    3  A    between atoms: C8_11  and  N3_12 
REMARK       I    between atoms: N5_17  and  C10_18 
REMARK    4  A    between atoms: C10_18  and  C11_20 
ROOT
HETATM    1  N1  UNL     1      19.959   6.533  13.862  1.00  0.00    -0.172 NA
HETATM    2  C1  UNL     1      18.965   6.128  14.327  1.00  0.00     0.183 C 
HETATM    3  N2  UNL     1      17.858   5.675  14.900  1.00  0.00    -0.278 N 
ATOM      4  H2  UNL     1      17.828   5.887  15.897  1.00  0.00     0.179 HD
HETATM    5  C2  UNL     1      16.846   5.056  14.523  1.00  0.00     0.133 C 
ENDROOT
BRANCH   5   6
HETATM    6  C3  UNL     1      15.877   4.800  15.649  1.00  0.00     0.042 A 
HETATM    7  C4  UNL     1      14.913   5.754  15.955  1.00  0.00     0.018 A 
HETATM    8  C5  UNL     1      14.025   5.543  16.988  1.00  0.00     0.001 A 
HETATM    9  C6  UNL     1      14.078   4.387  17.730  1.00  0.00     0.002 A 
HETATM   10  C7  UNL     1      15.031   3.454  17.417  1.00  0.00     0.037 A 
HETATM   11  C8  UNL     1      15.952   3.661  16.353  1.00  0.00     0.116 A 
BRANCH  11  12
HETATM   12  N3  UNL     1      16.878   2.635  16.100  1.00  0.00    -0.115 N 
HETATM   13  O1  UNL     1      18.073   2.745  16.372  1.00  0.00    -0.532 OA
HETATM   14  O2  UNL     1      16.472   1.473  15.484  1.00  0.00    -0.532 OA
ENDBRANCH  11  12
ENDBRANCH   5   6
BRANCH   5  15
HETATM   15  N4  UNL     1      16.487   4.602  13.249  1.00  0.00    -0.284 N 
HETATM   16  C9  UNL     1      16.063   3.207  12.979  1.00  0.00     0.263 C 
HETATM   17  N5  UNL     1      16.487   2.941  11.624  1.00  0.00    -0.317 N 
HETATM   18  C10 UNL     1      16.500   1.647  11.019  1.00  0.00     0.322 C 
HETATM   19  C12 UNL     1      16.887   4.157  10.991  1.00  0.00     0.231 C 
HETATM   20  O3  UNL     1      16.117   0.643  11.670  1.00  0.00    -0.261 OA
HETATM   21  C13 UNL     1      16.436   5.210  11.973  1.00  0.00     0.244 C 
HETATM   22  O6  UNL     1      16.085   6.370  11.750  1.00  0.00    -0.271 OA
BRANCH  18  23
HETATM   23  C11 UNL     1      16.942   1.436   9.663  1.00  0.00     0.270 C 
HETATM   24  O4  UNL     1      18.111   1.027   9.452  1.00  0.00    -0.640 OA
HETATM   25  O5  UNL     1      16.136   1.663   8.574  1.00  0.00    -0.640 OA
ENDBRANCH  18  23
ENDBRANCH   5  15
TORSDOF 4
ENDMDL
MODEL 4
REMARK VINA RESULT: -8.328932371      2.301      4.457
REMARK  4 active torsions:
REMARK  status: ('A' for Active; 'I' for Inactive)
REMARK    1  A    between atoms: C2_5  and  C3_6 
REMARK    2  A    between atoms: C2_5  and  N4_15 
REMARK    3  A    between atoms: C8_11  and  N3_12 
REMARK       I    between atoms: N5_17  and  C10_18 
REMARK    4  A    between atoms: C10_18  and  C11_20 
ROOT
HETATM    1  N1  UNL     1      16.084   3.262  10.931  1.00  0.00    -0.172 NA
HETATM    2  C1  UNL     1      16.406   4.338  11.255  1.00  0.00     0.183 C 
HETATM    3  N2  UNL     1      16.796   5.564  11.579  1.00  0.00    -0.278 N 
ATOM      4  H2  UNL     1      17.125   6.089  10.769  1.00  0.00     0.179 HD
HETATM    5  C2  UNL     1      16.860   6.234  12.626  1.00  0.00     0.133 C 
ENDROOT
BRANCH   5   6
HETATM    6  C3  UNL     1      17.405   7.619  12.390  1.00  0.00     0.042 A 
HETATM    7  C4  UNL     1      18.665   7.953  12.873  1.00  0.00     0.018 A 
HETATM    8  C5  UNL     1      19.176   9.218  12.677  1.00  0.00     0.001 A 
HETATM    9  C6  UNL     1      18.448  10.168  12.001  1.00  0.00     0.002 A 
HETATM   10  C7  UNL     1      17.208   9.826  11.528  1.00  0.00     0.037 A 
HETATM   11  C8  UNL     1      16.672   8.524  11.723  1.00  0.00     0.116 A 
BRANCH  11  12
HETATM   12  N3  UNL     1      15.400   8.268  11.183  1.00  0.00    -0.115 N 
HETATM   13  O1  UNL     1      14.363   8.536  11.786  1.00  0.00    -0.532 OA
HETATM   14  O2  UNL     1      15.281   7.652   9.958  1.00  0.00    -0.532 OA
ENDBRANCH  11  12
ENDBRANCH   5   6
BRANCH   5  15
HETATM   15  N4  UNL     1      16.492   5.902  13.935  1.00  0.00    -0.284 N 
HETATM   16  C9  UNL     1      17.288   4.990  14.791  1.00  0.00     0.263 C 
HETATM   17  N5  UNL     1      16.323   4.345  15.651  1.00  0.00    -0.317 N 
HETATM   18  C10 UNL     1      16.604   3.215  16.479  1.00  0.00     0.322 C 
HETATM   19  C12 UNL     1      15.060   5.003  15.547  1.00  0.00     0.231 C 
HETATM   20  O3  UNL     1      17.759   2.720  16.499  1.00  0.00    -0.261 OA
HETATM   21  C13 UNL     1      15.393   6.245  14.758  1.00  0.00     0.244 C 
HETATM   22  O6  UNL     1      14.848   7.349  14.795  1.00  0.00    -0.271 OA
BRANCH  18  23
HETATM   23  C11 UNL     1      15.601   2.603  17.314  1.00  0.00     0.270 C 
HETATM   24  O4  UNL     1      15.669   2.738  18.561  1.00  0.00    -0.640 OA
HETATM   25  O5  UNL     1      14.558   1.868  16.805  1.00  0.00    -0.640 OA
ENDBRANCH  18  23
ENDBRANCH   5  15
TORSDOF 4
ENDMDL
MODEL 5
REMARK VINA RESULT: -8.155622135      1.896      3.855
REMARK  4 active torsions:
REMARK  status: ('A' for Active; 'I' for Inactive)
REMARK    1  A    between atoms: C2_5  and  C3_6 
REMARK    2  A    between atoms: C2_5  and  N4_15 
REMARK    3  A    between atoms: C8_11  and  N3_12 
REMARK       I    between atoms: N5_17  and  C10_18 
REMARK    4  A    between atoms: C10_18  and  C11_20 
ROOT
HETATM    1  N1  UNL     1      16.070   2.956  10.980  1.00  0.00    -0.172 NA
HETATM    2  C1  UNL     1      16.336   4.063  11.243  1.00  0.00     0.183 C 
HETATM    3  N2  UNL     1      16.660   5.324  11.498  1.00  0.00    -0.278 N 
ATOM      4  H2  UNL     1      16.946   5.824  10.656  1.00  0.00     0.179 HD
HETATM    5  C2  UNL     1      16.703   6.049  12.508  1.00  0.00     0.133 C 
ENDROOT
BRANCH   5   6
HETATM    6  C3  UNL     1      17.165   7.449  12.193  1.00  0.00     0.042 A 
HETATM    7  C4  UNL     1      16.240   8.399  11.773  1.00  0.00     0.018 A 
HETATM    8  C5  UNL     1      16.644   9.681  11.469  1.00  0.00     0.001 A 
HETATM    9  C6  UNL     1      17.966  10.040  11.577  1.00  0.00     0.002 A 
HETATM   10  C7  UNL     1      18.868   9.096  11.993  1.00  0.00     0.037 A 
HETATM   11  C8  UNL     1      18.461   7.770  12.310  1.00  0.00     0.116 A 
BRANCH  11  12
HETATM   12  N3  UNL     1      19.460   6.883  12.747  1.00  0.00    -0.115 N 
HETATM   13  O1  UNL     1      20.012   7.000  13.840  1.00  0.00    -0.532 OA
HETATM   14  O2  UNL     1      19.889   5.867  11.925  1.00  0.00    -0.532 OA
ENDBRANCH  11  12
ENDBRANCH   5   6
BRANCH   5  15
HETATM   15  N4  UNL     1      16.375   5.765  13.839  1.00  0.00    -0.284 N 
HETATM   16  C9  UNL     1      17.197   4.884  14.703  1.00  0.00     0.263 C 
HETATM   17  N5  UNL     1      16.260   4.271  15.615  1.00  0.00    -0.317 N 
HETATM   18  C10 UNL     1      16.567   3.171  16.474  1.00  0.00     0.322 C 
HETATM   19  C12 UNL     1      14.994   4.925  15.526  1.00  0.00     0.231 C 
HETATM   20  O3  UNL     1      17.723   2.677  16.476  1.00  0.00    -0.261 OA
HETATM   21  C13 UNL     1      15.302   6.138  14.683  1.00  0.00     0.244 C 
HETATM   22  O6  UNL     1      14.758   7.243  14.696  1.00  0.00    -0.271 OA
BRANCH  18  23
HETATM   23  C11 UNL     1      15.590   2.590  17.360  1.00  0.00     0.270 C 
HETATM   24  O4  UNL     1      15.677   2.798  18.596  1.00  0.00    -0.640 OA
HETATM   25  O5  UNL     1      14.553   1.808  16.914  1.00  0.00    -0.640 OA
ENDBRANCH  18  23
ENDBRANCH   5  15
TORSDOF 4
ENDMDL
