MODEL 1
REMARK VINA RESULT: -8.475643530      0.000      0.000
REMARK  6 active torsions:
REMARK  status: ('A' for Active; 'I' for Inactive)
REMARK    1  A    between atoms: O1_1  and  N1_3 
REMARK    2  A    between atoms: N2_6  and  C3_7 
REMARK    3  A    between atoms: C3_7  and  C4_12 
REMARK    4  A    between atoms: N3_8  and  O2_10 
REMARK    5  A    between atoms: N5_16  and  C6_17 
REMARK    6  A    between atoms: C11_22  and  N6_23 
ROOT
HETATM    1  C4  UNL     1      17.779   4.186  12.314  1.00  0.00     0.112 A 
HETATM    2  C5  UNL     1      16.567   4.594  11.811  1.00  0.00     0.144 A 
HETATM    3  N4  UNL     1      15.700   4.703  12.862  1.00  0.00    -0.288 N 
ATOM      4  H4  UNL     1      14.723   4.987  12.803  1.00  0.00     0.188 HD
HETATM    5  N5  UNL     1      16.353   4.372  13.978  1.00  0.00    -0.194 N 
HETATM    6  N7  UNL     1      17.583   4.068  13.643  1.00  0.00    -0.274 N 
ATOM      7  H7  UNL     1      18.303   3.778  14.305  1.00  0.00     0.189 HD
ENDROOT
BRANCH   1   8
HETATM    8  C3  UNL     1      18.984   3.944  11.540  1.00  0.00     0.153 C 
HETATM    9  N3  UNL     1      19.310   2.763  11.095  1.00  0.00    -0.251 N 
ATOM     10  H3  UNL     1      20.165   2.643  10.552  1.00  0.00     0.196 HD
BRANCH   8  11
HETATM   11  N2  UNL     1      19.903   4.966  11.201  1.00  0.00    -0.354 N 
HETATM   12  C2  UNL     1      19.694   6.298  11.682  1.00  0.00     0.147 C 
HETATM   13  C1  UNL     1      20.955   6.946  12.204  1.00  0.00     0.179 C 
HETATM   14  N1  UNL     1      21.954   6.905  11.134  1.00  0.00    -0.226 N 
HETATM   15  C13 UNL     1      22.101   5.671  10.447  1.00  0.00     0.261 C 
HETATM   16  C12 UNL     1      21.038   4.647  10.376  1.00  0.00     0.229 C 
HETATM   17  O5  UNL     1      23.192   5.444   9.872  1.00  0.00    -0.269 OA
BRANCH  14  18
HETATM   18  O1  UNL     1      22.707   7.952  10.794  1.00  0.00    -0.285 OA
ATOM     19  H1  UNL     1      23.648   7.981  10.921  1.00  0.00     0.245 HD
ENDBRANCH  14  18
ENDBRANCH   8  11
BRANCH   9  20
HETATM   20  O2  UNL     1      18.517   1.700  11.349  1.00  0.00    -0.288 OA
ATOM     21  H2  UNL     1      18.073   1.255  10.637  1.00  0.00     0.244 HD
ENDBRANCH   9  20
ENDBRANCH   1   8
BRANCH   5  22
HETATM   22  C6  UNL     1      15.706   4.383  15.243  1.00  0.00     0.107 A 
HETATM   23  C7  UNL     1      14.821   5.408  15.577  1.00  0.00     0.036 A 
HETATM   24  C8  UNL     1      14.176   5.449  16.792  1.00  0.00     0.003 A 
HETATM   25  C9  UNL     1      14.401   4.452  17.711  1.00  0.00     0.003 A 
HETATM   26  C10 UNL     1      15.265   3.422  17.425  1.00  0.00     0.038 A 
HETATM   27  C11 UNL     1      15.915   3.397  16.182  1.00  0.00     0.133 A 
BRANCH  27  28
HETATM   28  N6  UNL     1      16.805   2.335  15.879  1.00  0.00    -0.113 N 
HETATM   29  O3  UNL     1      17.960   2.361  16.312  1.00  0.00    -0.532 OA
HETATM   30  O4  UNL     1      16.393   1.281  15.118  1.00  0.00    -0.532 OA
ENDBRANCH  27  28
ENDBRANCH   5  22
TORSDOF 6
ENDMDL
MODEL 2
REMARK VINA RESULT: -8.362858920      1.353      1.892
REMARK  6 active torsions:
REMARK  status: ('A' for Active; 'I' for Inactive)
REMARK    1  A    between atoms: O1_1  and  N1_3 
REMARK    2  A    between atoms: N2_6  and  C3_7 
REMARK    3  A    between atoms: C3_7  and  C4_12 
REMARK    4  A    between atoms: N3_8  and  O2_10 
REMARK    5  A    between atoms: N5_16  and  C6_17 
REMARK    6  A    between atoms: C11_22  and  N6_23 
ROOT
HETATM    1  C4  UNL     1      17.658   4.658  12.247  1.00  0.00     0.112 A 
HETATM    2  C5  UNL     1      17.506   3.300  12.402  1.00  0.00     0.144 A 
HETATM    3  N4  UNL     1      16.786   3.094  13.544  1.00  0.00    -0.288 N 
ATOM      4  H4  UNL     1      16.514   2.187  13.923  1.00  0.00     0.188 HD
HETATM    5  N5  UNL     1      16.502   4.283  14.080  1.00  0.00    -0.194 N 
HETATM    6  N7  UNL     1      17.023   5.203  13.304  1.00  0.00    -0.274 N 
ATOM      7  H7  UNL     1      16.955   6.205  13.479  1.00  0.00     0.189 HD
ENDROOT
BRANCH   1   8
HETATM    8  C3  UNL     1      18.362   5.317  11.162  1.00  0.00     0.153 C 
HETATM    9  N3  UNL     1      17.749   5.841  10.138  1.00  0.00    -0.251 N 
ATOM     10  H3  UNL     1      18.287   6.296   9.401  1.00  0.00     0.196 HD
BRANCH   8  11
HETATM   11  N2  UNL     1      19.772   5.449  11.123  1.00  0.00    -0.354 N 
HETATM   12  C2  UNL     1      20.542   4.595  10.272  1.00  0.00     0.147 C 
HETATM   13  C1  UNL     1      21.619   5.331   9.509  1.00  0.00     0.179 C 
HETATM   14  N1  UNL     1      22.461   6.028  10.485  1.00  0.00    -0.226 N 
HETATM   15  C13 UNL     1      21.787   6.749  11.507  1.00  0.00     0.261 C 
HETATM   16  C12 UNL     1      20.409   6.445  11.944  1.00  0.00     0.229 C 
HETATM   17  O5  UNL     1      22.399   7.691  12.063  1.00  0.00    -0.269 OA
BRANCH  14  18
HETATM   18  O1  UNL     1      23.794   6.010  10.449  1.00  0.00    -0.285 OA
ATOM     19  H1  UNL     1      24.336   6.659  10.881  1.00  0.00     0.245 HD
ENDBRANCH  14  18
ENDBRANCH   8  11
BRANCH   9  20
HETATM   20  O2  UNL     1      16.402   5.783  10.052  1.00  0.00    -0.288 OA
ATOM     21  H2  UNL     1      15.864   6.234  10.691  1.00  0.00     0.244 HD
ENDBRANCH   9  20
ENDBRANCH   1   8
BRANCH   5  22
HETATM   22  C6  UNL     1      15.763   4.391  15.289  1.00  0.00     0.107 A 
HETATM   23  C7  UNL     1      14.872   5.446  15.481  1.00  0.00     0.036 A 
HETATM   24  C8  UNL     1      14.139   5.581  16.638  1.00  0.00     0.003 A 
HETATM   25  C9  UNL     1      14.280   4.651  17.641  1.00  0.00     0.003 A 
HETATM   26  C10 UNL     1      15.146   3.594  17.494  1.00  0.00     0.038 A 
HETATM   27  C11 UNL     1      15.886   3.473  16.308  1.00  0.00     0.133 A 
BRANCH  27  28
HETATM   28  N6  UNL     1      16.779   2.383  16.150  1.00  0.00    -0.113 N 
HETATM   29  O3  UNL     1      17.970   2.517  16.447  1.00  0.00    -0.532 OA
HETATM   30  O4  UNL     1      16.333   1.184  15.676  1.00  0.00    -0.532 OA
ENDBRANCH  27  28
ENDBRANCH   5  22
TORSDOF 6
ENDMDL
MODEL 3
REMARK VINA RESULT: -8.339764814      0.666      1.301
REMARK  6 active torsions:
REMARK  status: ('A' for Active; 'I' for Inactive)
REMARK    1  A    between atoms: O1_1  and  N1_3 
REMARK    2  A    between atoms: N2_6  and  C3_7 
REMARK    3  A    between atoms: C3_7  and  C4_12 
REMARK    4  A    between atoms: N3_8  and  O2_10 
REMARK    5  A    between atoms: N5_16  and  C6_17 
REMARK    6  A    between atoms: C11_22  and  N6_23 
ROOT
HETATM    1  C4  UNL     1      17.865   4.205  12.392  1.00  0.00     0.112 A 
HETATM    2  C5  UNL     1      16.742   4.830  11.904  1.00  0.00     0.144 A 
HETATM    3  N4  UNL     1      15.858   4.958  12.938  1.00  0.00    -0.288 N 
ATOM      4  H4  UNL     1      14.933   5.383  12.885  1.00  0.00     0.188 HD
HETATM    5  N5  UNL     1      16.415   4.430  14.031  1.00  0.00    -0.194 N 
HETATM    6  N7  UNL     1      17.603   3.987  13.697  1.00  0.00    -0.274 N 
ATOM      7  H7  UNL     1      18.249   3.534  14.344  1.00  0.00     0.189 HD
ENDROOT
BRANCH   1   8
HETATM    8  C3  UNL     1      19.053   3.871  11.627  1.00  0.00     0.153 C 
HETATM    9  N3  UNL     1      19.271   2.678  11.150  1.00  0.00    -0.251 N 
ATOM     10  H3  UNL     1      20.120   2.491  10.616  1.00  0.00     0.196 HD
BRANCH   8  11
HETATM   11  N2  UNL     1      20.072   4.809  11.333  1.00  0.00    -0.354 N 
HETATM   12  C2  UNL     1      20.786   4.717  10.096  1.00  0.00     0.147 C 
HETATM   13  C1  UNL     1      20.974   6.054   9.417  1.00  0.00     0.179 C 
HETATM   14  N1  UNL     1      21.643   6.946  10.365  1.00  0.00    -0.226 N 
HETATM   15  C13 UNL     1      21.135   6.963  11.692  1.00  0.00     0.261 C 
HETATM   16  C12 UNL     1      20.374   5.844  12.286  1.00  0.00     0.229 C 
HETATM   17  O5  UNL     1      21.347   7.982  12.391  1.00  0.00    -0.269 OA
BRANCH  14  18
HETATM   18  O1  UNL     1      22.679   7.719  10.038  1.00  0.00    -0.285 OA
ATOM     19  H1  UNL     1      23.019   8.403  10.604  1.00  0.00     0.245 HD
ENDBRANCH  14  18
ENDBRANCH   8  11
BRANCH   9  20
HETATM   20  O2  UNL     1      18.375   1.689  11.360  1.00  0.00    -0.288 OA
ATOM     21  H2  UNL     1      18.521   0.827  10.989  1.00  0.00     0.244 HD
ENDBRANCH   9  20
ENDBRANCH   1   8
BRANCH   5  22
HETATM   22  C6  UNL     1      15.727   4.409  15.274  1.00  0.00     0.107 A 
HETATM   23  C7  UNL     1      14.836   5.429  15.606  1.00  0.00     0.036 A 
HETATM   24  C8  UNL     1      14.151   5.439  16.800  1.00  0.00     0.003 A 
HETATM   25  C9  UNL     1      14.343   4.418  17.700  1.00  0.00     0.003 A 
HETATM   26  C10 UNL     1      15.213   3.392  17.414  1.00  0.00     0.038 A 
HETATM   27  C11 UNL     1      15.902   3.398  16.192  1.00  0.00     0.133 A 
BRANCH  27  28
HETATM   28  N6  UNL     1      16.798   2.341  15.890  1.00  0.00    -0.113 N 
HETATM   29  O3  UNL     1      17.950   2.367  16.333  1.00  0.00    -0.532 OA
HETATM   30  O4  UNL     1      16.396   1.291  15.117  1.00  0.00    -0.532 OA
ENDBRANCH  27  28
ENDBRANCH   5  22
TORSDOF 6
ENDMDL
MODEL 4
REMARK VINA RESULT: -8.300037731      1.847      2.212
REMARK  6 active torsions:
REMARK  status: ('A' for Active; 'I' for Inactive)
REMARK    1  A    between atoms: O1_1  and  N1_3 
REMARK    2  A    between atoms: N2_6  and  C3_7 
REMARK    3  A    between atoms: C3_7  and  C4_12 
REMARK    4  A    between atoms: N3_8  and  O2_10 
REMARK    5  A    between atoms: N5_16  and  C6_17 
REMARK    6  A    between atoms: C11_22  and  N6_23 
ROOT
HETATM    1  C4  UNL     1      18.272   5.053  12.749  1.00  0.00     0.112 A 
HETATM    2  C5  UNL     1      17.461   4.092  12.194  1.00  0.00     0.144 A 
HETATM    3  N4  UNL     1      16.489   3.795  13.107  1.00  0.00    -0.288 N 
ATOM      4  H4  UNL     1      15.738   3.116  12.981  1.00  0.00     0.188 HD
HETATM    5  N5  UNL     1      16.691   4.546  14.192  1.00  0.00    -0.194 N 
HETATM    6  N7  UNL     1      17.749   5.287  13.970  1.00  0.00    -0.274 N 
ATOM      7  H7  UNL     1      18.129   5.958  14.638  1.00  0.00     0.189 HD
ENDROOT
BRANCH   1   8
HETATM    8  C3  UNL     1      19.433   5.654  12.119  1.00  0.00     0.153 C 
HETATM    9  N3  UNL     1      20.428   6.150  12.800  1.00  0.00    -0.251 N 
ATOM     10  H3  UNL     1      21.224   6.560  12.312  1.00  0.00     0.196 HD
BRANCH   8  11
HETATM   11  N2  UNL     1      19.586   5.751  10.714  1.00  0.00    -0.354 N 
HETATM   12  C2  UNL     1      18.632   6.490   9.945  1.00  0.00     0.147 C 
HETATM   13  C1  UNL     1      19.269   7.381   8.905  1.00  0.00     0.179 C 
HETATM   14  N1  UNL     1      20.118   6.542   8.057  1.00  0.00    -0.226 N 
HETATM   15  C13 UNL     1      20.969   5.619   8.722  1.00  0.00     0.261 C 
HETATM   16  C12 UNL     1      20.705   5.103  10.081  1.00  0.00     0.229 C 
HETATM   17  O5  UNL     1      21.994   5.223   8.119  1.00  0.00    -0.269 OA
BRANCH  14  18
HETATM   18  O1  UNL     1      20.122   6.613   6.725  1.00  0.00    -0.285 OA
ATOM     19  H1  UNL     1      20.846   6.968   6.223  1.00  0.00     0.245 HD
ENDBRANCH  14  18
ENDBRANCH   8  11
BRANCH   9  20
HETATM   20  O2  UNL     1      20.407   6.121  14.150  1.00  0.00    -0.288 OA
ATOM     21  H2  UNL     1      19.586   5.999  14.611  1.00  0.00     0.244 HD
ENDBRANCH   9  20
ENDBRANCH   1   8
BRANCH   5  22
HETATM   22  C6  UNL     1      15.837   4.453  15.324  1.00  0.00     0.107 A 
HETATM   23  C7  UNL     1      14.917   5.464  15.601  1.00  0.00     0.036 A 
HETATM   24  C8  UNL     1      14.073   5.406  16.687  1.00  0.00     0.003 A 
HETATM   25  C9  UNL     1      14.131   4.323  17.531  1.00  0.00     0.003 A 
HETATM   26  C10 UNL     1      15.023   3.303  17.296  1.00  0.00     0.038 A 
HETATM   27  C11 UNL     1      15.875   3.379  16.185  1.00  0.00     0.133 A 
BRANCH  27  28
HETATM   28  N6  UNL     1      16.795   2.329  15.936  1.00  0.00    -0.113 N 
HETATM   29  O3  UNL     1      17.924   2.371  16.433  1.00  0.00    -0.532 OA
HETATM   30  O4  UNL     1      16.441   1.268  15.155  1.00  0.00    -0.532 OA
ENDBRANCH  27  28
ENDBRANCH   5  22
TORSDOF 6
ENDMDL
MODEL 5
REMARK VINA RESULT: -8.182311400      2.048      2.718
REMARK  6 active torsions:
REMARK  status: ('A' for Active; 'I' for Inactive)
REMARK    1  A    between atoms: O1_1  and  N1_3 
REMARK    2  A    between atoms: N2_6  and  C3_7 
REMARK    3  A    between atoms: C3_7  and  C4_12 
REMARK    4  A    between atoms: N3_8  and  O2_10 
REMARK    5  A    between atoms: N5_16  and  C6_17 
REMARK    6  A    between atoms: C11_22  and  N6_23 
ROOT
HETATM    1  C4  UNL     1      17.736   4.290  12.262  1.00  0.00     0.112 A 
HETATM    2  C5  UNL     1      17.627   2.919  12.300  1.00  0.00     0.144 A 
HETATM    3  N4  UNL     1      16.953   2.592  13.443  1.00  0.00    -0.288 N 
ATOM      4  H4  UNL     1      16.719   1.648  13.749  1.00  0.00     0.188 HD
HETATM    5  N5  UNL     1      16.655   3.720  14.091  1.00  0.00    -0.194 N 
HETATM    6  N7  UNL     1      17.123   4.720  13.383  1.00  0.00    -0.274 N 
ATOM      7  H7  UNL     1      17.035   5.701  13.647  1.00  0.00     0.189 HD
ENDROOT
BRANCH   1   8
HETATM    8  C3  UNL     1      18.384   5.062  11.217  1.00  0.00     0.153 C 
HETATM    9  N3  UNL     1      17.724   5.621  10.242  1.00  0.00    -0.251 N 
ATOM     10  H3  UNL     1      18.224   6.157   9.531  1.00  0.00     0.196 HD
BRANCH   8  11
HETATM   11  N2  UNL     1      19.783   5.275  11.168  1.00  0.00    -0.354 N 
HETATM   12  C2  UNL     1      20.593   4.484  10.293  1.00  0.00     0.147 C 
HETATM   13  C1  UNL     1      21.618   5.294   9.536  1.00  0.00     0.179 C 
HETATM   14  N1  UNL     1      22.428   6.019  10.518  1.00  0.00    -0.226 N 
HETATM   15  C13 UNL     1      21.725   6.681  11.560  1.00  0.00     0.261 C 
HETATM   16  C12 UNL     1      20.370   6.290  12.003  1.00  0.00     0.229 C 
HETATM   17  O5  UNL     1      22.287   7.645  12.130  1.00  0.00    -0.269 OA
BRANCH  14  18
HETATM   18  O1  UNL     1      23.759   6.078  10.470  1.00  0.00    -0.285 OA
ATOM     19  H1  UNL     1      24.252   6.875  10.624  1.00  0.00     0.245 HD
ENDBRANCH  14  18
ENDBRANCH   8  11
BRANCH   9  20
HETATM   20  O2  UNL     1      16.382   5.494  10.170  1.00  0.00    -0.288 OA
ATOM     21  H2  UNL     1      15.819   6.175  10.519  1.00  0.00     0.244 HD
ENDBRANCH   9  20
ENDBRANCH   1   8
BRANCH   5  22
HETATM   22  C6  UNL     1      15.956   3.700  15.328  1.00  0.00     0.107 A 
HETATM   23  C7  UNL     1      16.098   2.624  16.203  1.00  0.00     0.036 A 
HETATM   24  C8  UNL     1      15.439   2.572  17.410  1.00  0.00     0.003 A 
HETATM   25  C9  UNL     1      14.612   3.608  17.774  1.00  0.00     0.003 A 
HETATM   26  C10 UNL     1      14.442   4.689  16.942  1.00  0.00     0.038 A 
HETATM   27  C11 UNL     1      15.122   4.725  15.715  1.00  0.00     0.133 A 
BRANCH  27  28
HETATM   28  N6  UNL     1      14.953   5.839  14.854  1.00  0.00    -0.113 N 
HETATM   29  O3  UNL     1      15.477   6.920  15.139  1.00  0.00    -0.532 OA
HETATM   30  O4  UNL     1      14.221   5.725  13.709  1.00  0.00    -0.532 OA
ENDBRANCH  27  28
ENDBRANCH   5  22
TORSDOF 6
ENDMDL
