MODEL 1
REMARK VINA RESULT: -8.926891459      0.000      0.000
REMARK  9 active torsions:
REMARK  status: ('A' for Active; 'I' for Inactive)
REMARK    1  A    between atoms: O1_2  and  C2_3 
REMARK    2  A    between atoms: C2_3  and  C3_5 
REMARK    3  A    between atoms: C3_5  and  C4_6 
REMARK    4  A    between atoms: C8_10  and  O3_11 
REMARK    5  A    between atoms: O3_11  and  C9_12 
REMARK    6  A    between atoms: C13_16  and  O4_17 
REMARK    7  A    between atoms: C25_32  and  O6_34 
REMARK    8  A    between atoms: C28_37  and  O7_38 
REMARK    9  A    between atoms: O7_38  and  C29_39 
ROOT
HETATM    1  C4  UNL     1      34.705   5.183 -20.046  1.00  0.00    -0.010 C 
HETATM    2  C5  UNL     1      35.199   4.273 -19.184  1.00  0.00    -0.065 C 
HETATM    3  C6  UNL     1      36.232   3.402 -19.751  1.00  0.00     0.043 C 
HETATM    4  C7  UNL     1      35.664   2.501 -20.860  1.00  0.00     0.065 C 
HETATM    5  C8  UNL     1      35.725   1.023 -20.436  1.00  0.00     0.264 C 
HETATM    6  O5  UNL     1      34.618   0.617 -19.782  1.00  0.00    -0.326 OA
HETATM    7  C25 UNL     1      34.736   0.355 -18.402  1.00  0.00     0.163 C 
HETATM    8  C26 UNL     1      36.105  -0.131 -18.030  1.00  0.00     0.079 C 
HETATM    9  C27 UNL     1      34.108   1.421 -17.622  1.00  0.00     0.101 C 
HETATM   10  C28 UNL     1      34.768   2.112 -16.518  1.00  0.00     0.144 C 
HETATM   11  C31 UNL     1      35.211   3.540 -16.735  1.00  0.00     0.034 C 
HETATM   12  C32 UNL     1      36.704   3.735 -16.658  1.00  0.00     0.017 C 
HETATM   13  C33 UNL     1      34.631   4.300 -17.839  1.00  0.00    -0.013 C 
ENDROOT
BRANCH   5  14
HETATM   14  O3  UNL     1      35.706   0.339 -21.681  1.00  0.00    -0.351 OA
BRANCH  14  15
HETATM   15  C9  UNL     1      35.934  -1.005 -21.574  1.00  0.00     0.157 C 
HETATM   16  C10 UNL     1      35.868  -1.752 -22.859  1.00  0.00    -0.056 C 
HETATM   17  C11 UNL     1      34.774  -1.458 -23.848  1.00  0.00     0.046 C 
HETATM   18  C12 UNL     1      36.726  -2.696 -23.229  1.00  0.00     0.010 C 
HETATM   19  C13 UNL     1      37.886  -3.149 -22.411  1.00  0.00     0.146 C 
HETATM   20  C14 UNL     1      37.678  -2.647 -21.025  1.00  0.00     0.028 C 
HETATM   21  C15 UNL     1      38.724  -3.036 -20.041  1.00  0.00    -0.011 C 
HETATM   22  C24 UNL     1      37.362  -1.166 -21.028  1.00  0.00     0.026 C 
HETATM   23  C16 UNL     1      38.413  -4.425 -19.462  1.00  0.00     0.010 C 
HETATM   24  C17 UNL     1      40.128  -2.965 -20.506  1.00  0.00     0.009 C 
HETATM   25  C18 UNL     1      40.852  -1.714 -19.992  1.00  0.00     0.037 C 
HETATM   26  C19 UNL     1      40.524  -0.521 -20.767  1.00  0.00    -0.046 C 
HETATM   27  C20 UNL     1      41.442  -0.101 -21.635  1.00  0.00     0.092 C 
HETATM   28  C22 UNL     1      39.325   0.375 -20.800  1.00  0.00     0.037 C 
HETATM   29  C21 UNL     1      42.731  -0.833 -21.786  1.00  0.00     0.082 C 
HETATM   30  F1  UNL     1      41.240   1.001 -22.407  1.00  0.00    -0.211 F 
HETATM   31  C23 UNL     1      38.336  -0.314 -21.751  1.00  0.00     0.012 C 
BRANCH  19  32
HETATM   32  O4  UNL     1      37.860  -4.554 -22.429  1.00  0.00    -0.391 OA
ATOM     33  H4  UNL     1      38.724  -4.842 -22.158  1.00  0.00     0.210 HD
ENDBRANCH  19  32
ENDBRANCH  14  15
ENDBRANCH   5  14
BRANCH   7  34
HETATM   34  O6  UNL     1      33.979  -0.861 -18.300  1.00  0.00    -0.365 OA
ATOM     35  H6  UNL     1      34.096  -1.062 -17.379  1.00  0.00     0.213 HD
ENDBRANCH   7  34
BRANCH   1  36
HETATM   36  C3  UNL     1      33.651   6.169 -19.690  1.00  0.00     0.138 C 
BRANCH  36  37
HETATM   37  C2  UNL     1      34.011   7.459 -20.336  1.00  0.00     0.261 C 
HETATM   38  O2  UNL     1      34.612   8.379 -19.721  1.00  0.00    -0.265 OA
BRANCH  37  39
HETATM   39  O1  UNL     1      33.696   7.724 -21.678  1.00  0.00    -0.326 OA
HETATM   40  C1  UNL     1      32.398   7.423 -22.183  1.00  0.00     0.213 C 
ENDBRANCH  37  39
ENDBRANCH  36  37
ENDBRANCH   1  36
BRANCH  10  41
HETATM   41  O7  UNL     1      35.893   1.475 -15.935  1.00  0.00    -0.315 OA
BRANCH  41  42
HETATM   42  C29 UNL     1      35.954   0.931 -14.683  1.00  0.00     0.255 C 
HETATM   43  C30 UNL     1      37.192   1.106 -13.884  1.00  0.00     0.126 C 
HETATM   44  O8  UNL     1      34.952   0.303 -14.259  1.00  0.00    -0.266 OA
ENDBRANCH  41  42
ENDBRANCH  10  41
TORSDOF 9
ENDMDL
MODEL 2
REMARK VINA RESULT: -8.849088943      4.166      8.740
REMARK  9 active torsions:
REMARK  status: ('A' for Active; 'I' for Inactive)
REMARK    1  A    between atoms: O1_2  and  C2_3 
REMARK    2  A    between atoms: C2_3  and  C3_5 
REMARK    3  A    between atoms: C3_5  and  C4_6 
REMARK    4  A    between atoms: C8_10  and  O3_11 
REMARK    5  A    between atoms: O3_11  and  C9_12 
REMARK    6  A    between atoms: C13_16  and  O4_17 
REMARK    7  A    between atoms: C25_32  and  O6_34 
REMARK    8  A    between atoms: C28_37  and  O7_38 
REMARK    9  A    between atoms: O7_38  and  C29_39 
ROOT
HETATM    1  C4  UNL     1      39.779   1.883 -13.329  1.00  0.00    -0.010 C 
HETATM    2  C5  UNL     1      40.231   2.418 -14.480  1.00  0.00    -0.065 C 
HETATM    3  C6  UNL     1      39.420   3.526 -14.992  1.00  0.00     0.043 C 
HETATM    4  C7  UNL     1      38.014   3.055 -15.400  1.00  0.00     0.065 C 
HETATM    5  C8  UNL     1      37.814   3.211 -16.917  1.00  0.00     0.264 C 
HETATM    6  O5  UNL     1      38.190   2.118 -17.612  1.00  0.00    -0.326 OA
HETATM    7  C25 UNL     1      39.354   2.217 -18.401  1.00  0.00     0.163 C 
HETATM    8  C26 UNL     1      39.576   3.606 -18.919  1.00  0.00     0.079 C 
HETATM    9  C27 UNL     1      40.461   1.493 -17.775  1.00  0.00     0.101 C 
HETATM   10  C28 UNL     1      41.783   2.070 -17.552  1.00  0.00     0.144 C 
HETATM   11  C31 UNL     1      42.180   2.415 -16.136  1.00  0.00     0.034 C 
HETATM   12  C32 UNL     1      42.408   3.887 -15.906  1.00  0.00     0.017 C 
HETATM   13  C33 UNL     1      41.441   1.813 -15.029  1.00  0.00    -0.013 C 
ENDROOT
BRANCH   5  14
HETATM   14  O3  UNL     1      36.401   3.276 -17.043  1.00  0.00    -0.351 OA
BRANCH  14  15
HETATM   15  C9  UNL     1      35.910   2.581 -18.113  1.00  0.00     0.157 C 
HETATM   16  C10 UNL     1      34.855   1.588 -17.780  1.00  0.00    -0.056 C 
HETATM   17  C11 UNL     1      35.005   0.702 -16.574  1.00  0.00     0.046 C 
HETATM   18  C12 UNL     1      33.741   1.403 -18.481  1.00  0.00     0.010 C 
HETATM   19  C13 UNL     1      33.382   2.167 -19.709  1.00  0.00     0.146 C 
HETATM   20  C14 UNL     1      34.614   2.855 -20.183  1.00  0.00     0.028 C 
HETATM   21  C15 UNL     1      34.463   3.644 -21.436  1.00  0.00    -0.011 C 
HETATM   22  C24 UNL     1      35.276   3.618 -19.055  1.00  0.00     0.026 C 
HETATM   23  C16 UNL     1      34.638   2.732 -22.659  1.00  0.00     0.010 C 
HETATM   24  C17 UNL     1      33.231   4.456 -21.560  1.00  0.00     0.009 C 
HETATM   25  C18 UNL     1      33.478   5.943 -21.272  1.00  0.00     0.037 C 
HETATM   26  C19 UNL     1      33.536   6.233 -19.843  1.00  0.00    -0.046 C 
HETATM   27  C20 UNL     1      32.463   6.808 -19.304  1.00  0.00     0.092 C 
HETATM   28  C22 UNL     1      34.590   6.014 -18.801  1.00  0.00     0.037 C 
HETATM   29  C21 UNL     1      31.275   7.127 -20.146  1.00  0.00     0.082 C 
HETATM   30  F1  UNL     1      32.411   7.122 -17.982  1.00  0.00    -0.211 F 
HETATM   31  C23 UNL     1      34.395   4.566 -18.332  1.00  0.00     0.012 C 
BRANCH  19  32
HETATM   32  O4  UNL     1      32.957   1.220 -20.655  1.00  0.00    -0.391 OA
ATOM     33  H4  UNL     1      33.727   0.981 -21.160  1.00  0.00     0.210 HD
ENDBRANCH  19  32
ENDBRANCH  14  15
ENDBRANCH   5  14
BRANCH   7  34
HETATM   34  O6  UNL     1      38.921   1.548 -19.595  1.00  0.00    -0.365 OA
ATOM     35  H6  UNL     1      38.731   2.292 -20.153  1.00  0.00     0.213 HD
ENDBRANCH   7  34
BRANCH   1  36
HETATM   36  C3  UNL     1      40.442   0.751 -12.630  1.00  0.00     0.138 C 
BRANCH  36  37
HETATM   37  C2  UNL     1      40.354   1.017 -11.170  1.00  0.00     0.261 C 
HETATM   38  O2  UNL     1      41.194   1.730 -10.559  1.00  0.00    -0.265 OA
BRANCH  37  39
HETATM   39  O1  UNL     1      39.321   0.481 -10.384  1.00  0.00    -0.326 OA
HETATM   40  C1  UNL     1      38.764  -0.791 -10.703  1.00  0.00     0.213 C 
ENDBRANCH  37  39
ENDBRANCH  36  37
ENDBRANCH   1  36
BRANCH  10  41
HETATM   41  O7  UNL     1      42.123   3.222 -18.308  1.00  0.00    -0.315 OA
BRANCH  41  42
HETATM   42  C29 UNL     1      43.001   3.271 -19.353  1.00  0.00     0.255 C 
HETATM   43  C30 UNL     1      43.961   2.155 -19.536  1.00  0.00     0.126 C 
HETATM   44  O8  UNL     1      42.957   4.266 -20.119  1.00  0.00    -0.266 OA
ENDBRANCH  41  42
ENDBRANCH  10  41
TORSDOF 9
ENDMDL
MODEL 3
REMARK VINA RESULT: -8.810600400      4.408      7.712
REMARK  9 active torsions:
REMARK  status: ('A' for Active; 'I' for Inactive)
REMARK    1  A    between atoms: O1_2  and  C2_3 
REMARK    2  A    between atoms: C2_3  and  C3_5 
REMARK    3  A    between atoms: C3_5  and  C4_6 
REMARK    4  A    between atoms: C8_10  and  O3_11 
REMARK    5  A    between atoms: O3_11  and  C9_12 
REMARK    6  A    between atoms: C13_16  and  O4_17 
REMARK    7  A    between atoms: C25_32  and  O6_34 
REMARK    8  A    between atoms: C28_37  and  O7_38 
REMARK    9  A    between atoms: O7_38  and  C29_39 
ROOT
HETATM    1  C4  UNL     1      41.462   4.289 -18.058  1.00  0.00    -0.010 C 
HETATM    2  C5  UNL     1      41.110   3.278 -17.240  1.00  0.00    -0.065 C 
HETATM    3  C6  UNL     1      39.943   2.514 -17.689  1.00  0.00     0.043 C 
HETATM    4  C7  UNL     1      38.669   3.375 -17.683  1.00  0.00     0.065 C 
HETATM    5  C8  UNL     1      37.666   2.842 -16.644  1.00  0.00     0.264 C 
HETATM    6  O5  UNL     1      37.831   3.391 -15.424  1.00  0.00    -0.326 OA
HETATM    7  C25 UNL     1      38.348   2.566 -14.404  1.00  0.00     0.163 C 
HETATM    8  C26 UNL     1      37.967   1.128 -14.586  1.00  0.00     0.079 C 
HETATM    9  C27 UNL     1      39.739   2.917 -14.116  1.00  0.00     0.101 C 
HETATM   10  C28 UNL     1      40.824   1.942 -14.062  1.00  0.00     0.144 C 
HETATM   11  C31 UNL     1      41.832   1.934 -15.187  1.00  0.00     0.034 C 
HETATM   12  C32 UNL     1      41.838   0.660 -15.994  1.00  0.00     0.017 C 
HETATM   13  C33 UNL     1      41.938   3.109 -16.049  1.00  0.00    -0.013 C 
ENDROOT
BRANCH   5  14
HETATM   14  O3  UNL     1      36.425   3.341 -17.123  1.00  0.00    -0.351 OA
BRANCH  14  15
HETATM   15  C9  UNL     1      35.919   2.637 -18.180  1.00  0.00     0.157 C 
HETATM   16  C10 UNL     1      34.868   1.647 -17.823  1.00  0.00    -0.056 C 
HETATM   17  C11 UNL     1      35.034   0.772 -16.611  1.00  0.00     0.046 C 
HETATM   18  C12 UNL     1      33.744   1.457 -18.506  1.00  0.00     0.010 C 
HETATM   19  C13 UNL     1      33.368   2.210 -19.736  1.00  0.00     0.146 C 
HETATM   20  C14 UNL     1      34.594   2.892 -20.234  1.00  0.00     0.028 C 
HETATM   21  C15 UNL     1      34.426   3.670 -21.492  1.00  0.00    -0.011 C 
HETATM   22  C24 UNL     1      35.272   3.666 -19.123  1.00  0.00     0.026 C 
HETATM   23  C16 UNL     1      34.584   2.745 -22.709  1.00  0.00     0.010 C 
HETATM   24  C17 UNL     1      33.193   4.482 -21.606  1.00  0.00     0.009 C 
HETATM   25  C18 UNL     1      33.445   5.971 -21.336  1.00  0.00     0.037 C 
HETATM   26  C19 UNL     1      33.524   6.274 -19.911  1.00  0.00    -0.046 C 
HETATM   27  C20 UNL     1      32.458   6.855 -19.362  1.00  0.00     0.092 C 
HETATM   28  C22 UNL     1      34.591   6.064 -18.882  1.00  0.00     0.037 C 
HETATM   29  C21 UNL     1      31.259   7.166 -20.190  1.00  0.00     0.082 C 
HETATM   30  F1  UNL     1      32.425   7.181 -18.043  1.00  0.00    -0.211 F 
HETATM   31  C23 UNL     1      34.402   4.620 -18.396  1.00  0.00     0.012 C 
BRANCH  19  32
HETATM   32  O4  UNL     1      32.930   1.254 -20.668  1.00  0.00    -0.391 OA
ATOM     33  H4  UNL     1      32.364   1.713 -21.277  1.00  0.00     0.210 HD
ENDBRANCH  19  32
ENDBRANCH  14  15
ENDBRANCH   5  14
BRANCH   7  34
HETATM   34  O6  UNL     1      37.495   2.937 -13.310  1.00  0.00    -0.365 OA
ATOM     35  H6  UNL     1      37.414   3.871 -13.461  1.00  0.00     0.213 HD
ENDBRANCH   7  34
BRANCH   1  36
HETATM   36  C3  UNL     1      42.612   5.195 -17.801  1.00  0.00     0.138 C 
BRANCH  36  37
HETATM   37  C2  UNL     1      42.599   6.241 -18.858  1.00  0.00     0.261 C 
HETATM   38  O2  UNL     1      42.919   6.000 -20.053  1.00  0.00    -0.265 OA
BRANCH  37  39
HETATM   39  O1  UNL     1      42.227   7.566 -18.579  1.00  0.00    -0.326 OA
HETATM   40  C1  UNL     1      43.077   8.644 -18.961  1.00  0.00     0.213 C 
ENDBRANCH  37  39
ENDBRANCH  36  37
ENDBRANCH   1  36
BRANCH  10  41
HETATM   41  O7  UNL     1      40.464   0.580 -13.897  1.00  0.00    -0.315 OA
BRANCH  41  42
HETATM   42  C29 UNL     1      40.612  -0.162 -12.759  1.00  0.00     0.255 C 
HETATM   43  C30 UNL     1      41.459   0.369 -11.662  1.00  0.00     0.126 C 
HETATM   44  O8  UNL     1      40.021  -1.269 -12.690  1.00  0.00    -0.266 OA
ENDBRANCH  41  42
ENDBRANCH  10  41
TORSDOF 9
ENDMDL
MODEL 4
REMARK VINA RESULT: -8.805012500      3.244      6.238
REMARK  9 active torsions:
REMARK  status: ('A' for Active; 'I' for Inactive)
REMARK    1  A    between atoms: O1_2  and  C2_3 
REMARK    2  A    between atoms: C2_3  and  C3_5 
REMARK    3  A    between atoms: C3_5  and  C4_6 
REMARK    4  A    between atoms: C8_10  and  O3_11 
REMARK    5  A    between atoms: O3_11  and  C9_12 
REMARK    6  A    between atoms: C13_16  and  O4_17 
REMARK    7  A    between atoms: C25_32  and  O6_34 
REMARK    8  A    between atoms: C28_37  and  O7_38 
REMARK    9  A    between atoms: O7_38  and  C29_39 
ROOT
HETATM    1  C4  UNL     1      34.556   5.236 -20.491  1.00  0.00    -0.010 C 
HETATM    2  C5  UNL     1      34.743   3.928 -20.750  1.00  0.00    -0.065 C 
HETATM    3  C6  UNL     1      35.556   3.224 -19.755  1.00  0.00     0.043 C 
HETATM    4  C7  UNL     1      37.002   3.746 -19.736  1.00  0.00     0.065 C 
HETATM    5  C8  UNL     1      37.977   2.646 -20.193  1.00  0.00     0.264 C 
HETATM    6  O5  UNL     1      38.181   2.646 -21.526  1.00  0.00    -0.326 OA
HETATM    7  C25 UNL     1      37.635   1.579 -22.268  1.00  0.00     0.163 C 
HETATM    8  C26 UNL     1      37.561   0.310 -21.473  1.00  0.00     0.079 C 
HETATM    9  C27 UNL     1      36.467   2.027 -23.027  1.00  0.00     0.101 C 
HETATM   10  C28 UNL     1      35.177   1.342 -23.007  1.00  0.00     0.144 C 
HETATM   11  C31 UNL     1      34.033   2.001 -22.274  1.00  0.00     0.034 C 
HETATM   12  C32 UNL     1      33.534   1.215 -21.088  1.00  0.00     0.017 C 
HETATM   13  C33 UNL     1      34.115   3.427 -21.970  1.00  0.00    -0.013 C 
ENDROOT
BRANCH   5  14
HETATM   14  O3  UNL     1      39.208   3.060 -19.618  1.00  0.00    -0.351 OA
BRANCH  14  15
HETATM   15  C9  UNL     1      39.972   2.027 -19.150  1.00  0.00     0.157 C 
HETATM   16  C10 UNL     1      41.372   2.393 -18.806  1.00  0.00    -0.056 C 
HETATM   17  C11 UNL     1      42.163   3.290 -19.717  1.00  0.00     0.046 C 
HETATM   18  C12 UNL     1      42.015   1.982 -17.718  1.00  0.00     0.010 C 
HETATM   19  C13 UNL     1      41.429   1.091 -16.678  1.00  0.00     0.146 C 
HETATM   20  C14 UNL     1      40.201   0.478 -17.255  1.00  0.00     0.028 C 
HETATM   21  C15 UNL     1      39.491  -0.484 -16.370  1.00  0.00    -0.011 C 
HETATM   22  C24 UNL     1      39.300   1.536 -17.856  1.00  0.00     0.026 C 
HETATM   23  C16 UNL     1      40.114  -1.883 -16.503  1.00  0.00     0.010 C 
HETATM   24  C17 UNL     1      39.363  -0.100 -14.945  1.00  0.00     0.009 C 
HETATM   25  C18 UNL     1      37.966   0.436 -14.606  1.00  0.00     0.037 C 
HETATM   26  C19 UNL     1      37.791   1.828 -15.006  1.00  0.00    -0.046 C 
HETATM   27  C20 UNL     1      37.843   2.741 -14.038  1.00  0.00     0.092 C 
HETATM   28  C22 UNL     1      37.553   2.485 -16.331  1.00  0.00     0.037 C 
HETATM   29  C21 UNL     1      38.073   2.330 -12.625  1.00  0.00     0.082 C 
HETATM   30  F1  UNL     1      37.691   4.067 -14.300  1.00  0.00    -0.211 F 
HETATM   31  C23 UNL     1      38.948   2.655 -16.950  1.00  0.00     0.012 C 
BRANCH  19  32
HETATM   32  O4  UNL     1      42.391   0.101 -16.416  1.00  0.00    -0.391 OA
ATOM     33  H4  UNL     1      42.172  -0.267 -15.567  1.00  0.00     0.210 HD
ENDBRANCH  19  32
ENDBRANCH  14  15
ENDBRANCH   5  14
BRANCH   7  34
HETATM   34  O6  UNL     1      38.729   1.284 -23.149  1.00  0.00    -0.365 OA
ATOM     35  H6  UNL     1      38.260   0.947 -23.903  1.00  0.00     0.213 HD
ENDBRANCH   7  34
BRANCH   1  36
HETATM   36  C3  UNL     1      33.766   6.145 -21.362  1.00  0.00     0.138 C 
BRANCH  36  37
HETATM   37  C2  UNL     1      33.670   7.456 -20.668  1.00  0.00     0.261 C 
HETATM   38  O2  UNL     1      34.683   8.072 -20.242  1.00  0.00    -0.265 OA
BRANCH  37  39
HETATM   39  O1  UNL     1      32.434   8.084 -20.446  1.00  0.00    -0.326 OA
HETATM   40  C1  UNL     1      31.295   7.313 -20.075  1.00  0.00     0.213 C 
ENDBRANCH  37  39
ENDBRANCH  36  37
ENDBRANCH   1  36
BRANCH  10  41
HETATM   41  O7  UNL     1      35.165  -0.002 -22.554  1.00  0.00    -0.315 OA
BRANCH  41  42
HETATM   42  C29 UNL     1      35.000  -1.114 -23.331  1.00  0.00     0.255 C 
HETATM   43  C30 UNL     1      33.876  -2.036 -23.034  1.00  0.00     0.126 C 
HETATM   44  O8  UNL     1      35.813  -1.309 -24.269  1.00  0.00    -0.266 OA
ENDBRANCH  41  42
ENDBRANCH  10  41
TORSDOF 9
ENDMDL
MODEL 5
REMARK VINA RESULT: -8.728171204      3.344      5.081
REMARK  9 active torsions:
REMARK  status: ('A' for Active; 'I' for Inactive)
REMARK    1  A    between atoms: O1_2  and  C2_3 
REMARK    2  A    between atoms: C2_3  and  C3_5 
REMARK    3  A    between atoms: C3_5  and  C4_6 
REMARK    4  A    between atoms: C8_10  and  O3_11 
REMARK    5  A    between atoms: O3_11  and  C9_12 
REMARK    6  A    between atoms: C13_16  and  O4_17 
REMARK    7  A    between atoms: C25_32  and  O6_34 
REMARK    8  A    between atoms: C28_37  and  O7_38 
REMARK    9  A    between atoms: O7_38  and  C29_39 
ROOT
HETATM    1  C4  UNL     1      40.812   4.271 -18.020  1.00  0.00    -0.010 C 
HETATM    2  C5  UNL     1      39.952   3.407 -17.447  1.00  0.00    -0.065 C 
HETATM    3  C6  UNL     1      39.361   2.437 -18.373  1.00  0.00     0.043 C 
HETATM    4  C7  UNL     1      38.462   3.125 -19.413  1.00  0.00     0.065 C 
HETATM    5  C8  UNL     1      36.997   2.693 -19.226  1.00  0.00     0.264 C 
HETATM    6  O5  UNL     1      36.319   3.487 -18.373  1.00  0.00    -0.326 OA
HETATM    7  C25 UNL     1      35.969   2.947 -17.119  1.00  0.00     0.163 C 
HETATM    8  C26 UNL     1      35.744   1.466 -17.179  1.00  0.00     0.079 C 
HETATM    9  C27 UNL     1      36.814   3.508 -16.065  1.00  0.00     0.101 C 
HETATM   10  C28 UNL     1      37.528   2.698 -15.082  1.00  0.00     0.144 C 
HETATM   11  C31 UNL     1      39.030   2.588 -15.207  1.00  0.00     0.034 C 
HETATM   12  C32 UNL     1      39.519   1.190 -15.489  1.00  0.00     0.017 C 
HETATM   13  C33 UNL     1      39.747   3.574 -16.011  1.00  0.00    -0.013 C 
ENDROOT
BRANCH   5  14
HETATM   14  O3  UNL     1      36.432   2.938 -20.507  1.00  0.00    -0.351 OA
BRANCH  14  15
HETATM   15  C9  UNL     1      35.390   2.109 -20.817  1.00  0.00     0.157 C 
HETATM   16  C10 UNL     1      34.370   2.702 -21.722  1.00  0.00    -0.056 C 
HETATM   17  C11 UNL     1      33.901   4.115 -21.509  1.00  0.00     0.046 C 
HETATM   18  C12 UNL     1      33.811   2.070 -22.748  1.00  0.00     0.010 C 
HETATM   19  C13 UNL     1      34.124   0.669 -23.147  1.00  0.00     0.146 C 
HETATM   20  C14 UNL     1      34.845   0.031 -22.011  1.00  0.00     0.028 C 
HETATM   21  C15 UNL     1      35.209  -1.398 -22.207  1.00  0.00    -0.011 C 
HETATM   22  C24 UNL     1      35.996   0.898 -21.547  1.00  0.00     0.026 C 
HETATM   23  C16 UNL     1      34.029  -2.302 -21.817  1.00  0.00     0.010 C 
HETATM   24  C17 UNL     1      35.735  -1.768 -23.542  1.00  0.00     0.009 C 
HETATM   25  C18 UNL     1      37.262  -1.921 -23.547  1.00  0.00     0.037 C 
HETATM   26  C19 UNL     1      37.950  -0.637 -23.622  1.00  0.00    -0.046 C 
HETATM   27  C20 UNL     1      38.467  -0.302 -24.803  1.00  0.00     0.092 C 
HETATM   28  C22 UNL     1      38.216   0.437 -22.613  1.00  0.00     0.037 C 
HETATM   29  C21 UNL     1      38.331  -1.215 -25.973  1.00  0.00     0.082 C 
HETATM   30  F1  UNL     1      39.130   0.871 -24.983  1.00  0.00    -0.211 F 
HETATM   31  C23 UNL     1      36.949   1.304 -22.607  1.00  0.00     0.012 C 
BRANCH  19  32
HETATM   32  O4  UNL     1      32.890   0.032 -23.360  1.00  0.00    -0.391 OA
ATOM     33  H4  UNL     1      33.031  -0.891 -23.185  1.00  0.00     0.210 HD
ENDBRANCH  19  32
ENDBRANCH  14  15
ENDBRANCH   5  14
BRANCH   7  34
HETATM   34  O6  UNL     1      34.620   3.422 -16.995  1.00  0.00    -0.365 OA
ATOM     35  H6  UNL     1      34.304   3.281 -17.879  1.00  0.00     0.213 HD
ENDBRANCH   7  34
BRANCH   1  36
HETATM   36  C3  UNL     1      41.527   5.339 -17.273  1.00  0.00     0.138 C 
BRANCH  36  37
HETATM   37  C2  UNL     1      42.326   6.113 -18.260  1.00  0.00     0.261 C 
HETATM   38  O2  UNL     1      42.352   5.824 -19.486  1.00  0.00    -0.265 OA
BRANCH  37  39
HETATM   39  O1  UNL     1      43.102   7.219 -17.875  1.00  0.00    -0.326 OA
HETATM   40  C1  UNL     1      43.046   8.429 -18.625  1.00  0.00     0.213 C 
ENDBRANCH  37  39
ENDBRANCH  36  37
ENDBRANCH   1  36
BRANCH  10  41
HETATM   41  O7  UNL     1      37.087   1.362 -14.900  1.00  0.00    -0.315 OA
BRANCH  41  42
HETATM   42  C29 UNL     1      36.456   0.865 -13.795  1.00  0.00     0.255 C 
HETATM   43  C30 UNL     1      37.174   0.868 -12.497  1.00  0.00     0.126 C 
HETATM   44  O8  UNL     1      35.287   0.423 -13.927  1.00  0.00    -0.266 OA
ENDBRANCH  41  42
ENDBRANCH  10  41
TORSDOF 9
ENDMDL
