MODEL 1
REMARK VINA RESULT: -11.012708432      0.000      0.000
REMARK  6 active torsions:
REMARK  status: ('A' for Active; 'I' for Inactive)
REMARK    1  A    between atoms: C6_7  and  N1_8 
REMARK    2  A    between atoms: N1_8  and  C7_10 
REMARK    3  A    between atoms: C14_21  and  C15_22 
REMARK    4  A    between atoms: C15_22  and  N4_23 
REMARK    5  A    between atoms: N5_26  and  C18_27 
REMARK    6  A    between atoms: C18_27  and  N6_28 
ROOT
HETATM    1 CL1  UNL     1      31.614   7.935 -23.403  1.00  0.00    -0.076 Cl
HETATM    2  C1  UNL     1      32.265   7.216 -21.931  1.00  0.00     0.076 A 
HETATM    3  C2  UNL     1      32.874   6.005 -21.775  1.00  0.00     0.044 A 
HETATM    4  C3  UNL     1      33.288   5.685 -20.529  1.00  0.00    -0.016 A 
HETATM    5  C4  UNL     1      33.935   4.504 -20.128  1.00  0.00     0.029 A 
HETATM    6  C5  UNL     1      34.306   4.299 -18.817  1.00  0.00     0.019 A 
HETATM    7  C6  UNL     1      34.954   3.081 -18.492  1.00  0.00     0.058 A 
HETATM    8  C14 UNL     1      35.305   2.928 -17.167  1.00  0.00     0.022 A 
HETATM    9  C27 UNL     1      35.030   3.915 -16.233  1.00  0.00     0.103 A 
HETATM   10  N9  UNL     1      34.412   5.056 -16.587  1.00  0.00    -0.364 N 
ATOM     11  H9  UNL     1      34.216   5.774 -15.890  1.00  0.00     0.165 HD
HETATM   12  C28 UNL     1      34.063   5.236 -17.843  1.00  0.00     0.045 A 
HETATM   13  C29 UNL     1      33.429   6.408 -18.209  1.00  0.00     0.050 A 
HETATM   14  C30 UNL     1      33.062   6.592 -19.539  1.00  0.00     0.019 A 
HETATM   15  S1  UNL     1      32.283   7.870 -20.357  1.00  0.00    -0.077 SA
ENDROOT
BRANCH   8  16
HETATM   16  C15 UNL     1      36.023   1.709 -16.739  1.00  0.00     0.100 C 
BRANCH  16  17
HETATM   17  N4  UNL     1      37.107   1.817 -15.888  1.00  0.00    -0.386 N 
HETATM   18  C16 UNL     1      38.026   2.865 -15.920  1.00  0.00     0.152 C 
HETATM   19  C17 UNL     1      38.708   3.083 -14.564  1.00  0.00     0.294 C 
HETATM   20  N5  UNL     1      39.297   1.881 -14.041  1.00  0.00     0.109 N 
HETATM   21  C25 UNL     1      39.103   0.801 -14.940  1.00  0.00     0.294 C 
HETATM   22  C26 UNL     1      37.655   0.602 -15.380  1.00  0.00     0.152 C 
BRANCH  20  23
HETATM   23  C18 UNL     1      38.855   1.685 -12.700  1.00  0.00     0.403 C 
BRANCH  23  24
HETATM   24  N6  UNL     1      39.297   0.462 -12.099  1.00  0.00    -0.314 N 
HETATM   25  C19 UNL     1      38.493  -0.524 -11.684  1.00  0.00     0.185 A 
HETATM   26  N7  UNL     1      39.265  -1.493 -11.181  1.00  0.00    -0.349 N 
HETATM   27  C20 UNL     1      40.530  -1.116 -11.282  1.00  0.00     0.075 A 
ATOM     28  H7  UNL     1      38.935  -2.373 -10.786  1.00  0.00     0.166 HD
HETATM   29  C21 UNL     1      41.745  -1.706 -10.931  1.00  0.00     0.119 A 
HETATM   30  C24 UNL     1      40.573   0.129 -11.866  1.00  0.00     0.066 A 
HETATM   31  N8  UNL     1      42.917  -1.085 -11.151  1.00  0.00    -0.373 N 
HETATM   32  C22 UNL     1      42.997   0.131 -11.719  1.00  0.00     0.090 A 
ATOM     33  H8  UNL     1      43.780  -1.556 -10.876  1.00  0.00     0.164 HD
HETATM   34  C23 UNL     1      41.803   0.726 -12.072  1.00  0.00     0.049 A 
ENDBRANCH  23  24
ENDBRANCH  20  23
ENDBRANCH  16  17
ENDBRANCH   8  16
BRANCH   7  35
HETATM   35  N1  UNL     1      35.137   2.291 -19.401  1.00  0.00    -0.355 N 
ATOM     36  H1  UNL     1      36.050   2.543 -19.781  1.00  0.00     0.166 HD
BRANCH  35  37
HETATM   37  C7  UNL     1      34.738   1.261 -20.148  1.00  0.00     0.034 A 
HETATM   38  C8  UNL     1      34.131   0.151 -19.538  1.00  0.00     0.032 A 
HETATM   39  C9  UNL     1      33.706  -0.951 -20.199  1.00  0.00     0.034 A 
HETATM   40  C10 UNL     1      33.865  -1.020 -21.584  1.00  0.00     0.060 A 
HETATM   41  N2  UNL     1      33.543  -1.967 -22.483  1.00  0.00    -0.351 N 
HETATM   42  C12 UNL     1      34.451   0.037 -22.238  1.00  0.00     0.062 A 
HETATM   43  C11 UNL     1      33.920  -1.520 -23.690  1.00  0.00     0.181 A 
ATOM     44  H2  UNL     1      33.095  -2.862 -22.284  1.00  0.00     0.166 HD
HETATM   45  N3  UNL     1      34.472  -0.305 -23.553  1.00  0.00    -0.350 N 
ATOM     46  H3  UNL     1      34.845   0.267 -24.310  1.00  0.00     0.166 HD
HETATM   47  C13 UNL     1      34.875   1.143 -21.541  1.00  0.00     0.061 A 
ENDBRANCH  35  37
ENDBRANCH   7  35
TORSDOF 6
ENDMDL
MODEL 2
REMARK VINA RESULT: -10.929812856      0.967      1.181
REMARK  6 active torsions:
REMARK  status: ('A' for Active; 'I' for Inactive)
REMARK    1  A    between atoms: C6_7  and  N1_8 
REMARK    2  A    between atoms: N1_8  and  C7_10 
REMARK    3  A    between atoms: C14_21  and  C15_22 
REMARK    4  A    between atoms: C15_22  and  N4_23 
REMARK    5  A    between atoms: N5_26  and  C18_27 
REMARK    6  A    between atoms: C18_27  and  N6_28 
ROOT
HETATM    1 CL1  UNL     1      31.595   8.077 -23.314  1.00  0.00    -0.076 Cl
HETATM    2  C1  UNL     1      32.295   7.215 -21.945  1.00  0.00     0.076 A 
HETATM    3  C2  UNL     1      32.834   5.961 -21.916  1.00  0.00     0.044 A 
HETATM    4  C3  UNL     1      33.308   5.527 -20.728  1.00  0.00    -0.016 A 
HETATM    5  C4  UNL     1      33.904   4.284 -20.456  1.00  0.00     0.029 A 
HETATM    6  C5  UNL     1      34.347   3.963 -19.192  1.00  0.00     0.019 A 
HETATM    7  C6  UNL     1      34.936   2.687 -18.998  1.00  0.00     0.058 A 
HETATM    8  C14 UNL     1      35.364   2.417 -17.715  1.00  0.00     0.022 A 
HETATM    9  C27 UNL     1      35.217   3.349 -16.699  1.00  0.00     0.103 A 
HETATM   10  N9  UNL     1      34.652   4.547 -16.929  1.00  0.00    -0.364 N 
ATOM     11  H9  UNL     1      34.550   5.223 -16.171  1.00  0.00     0.165 HD
HETATM   12  C28 UNL     1      34.231   4.839 -18.141  1.00  0.00     0.045 A 
HETATM   13  C29 UNL     1      33.651   6.069 -18.380  1.00  0.00     0.050 A 
HETATM   14  C30 UNL     1      33.209   6.372 -19.664  1.00  0.00     0.019 A 
HETATM   15  S1  UNL     1      32.460   7.750 -20.335  1.00  0.00    -0.077 SA
ENDROOT
BRANCH   8  16
HETATM   16  C15 UNL     1      36.029   1.130 -17.425  1.00  0.00     0.100 C 
BRANCH  16  17
HETATM   17  N4  UNL     1      37.220   1.118 -16.722  1.00  0.00    -0.386 N 
HETATM   18  C16 UNL     1      38.387   1.747 -17.151  1.00  0.00     0.152 C 
HETATM   19  C17 UNL     1      39.314   2.114 -15.985  1.00  0.00     0.294 C 
HETATM   20  N5  UNL     1      39.600   0.992 -15.132  1.00  0.00     0.109 N 
HETATM   21  C25 UNL     1      38.956  -0.176 -15.615  1.00  0.00     0.294 C 
HETATM   22  C26 UNL     1      37.462  -0.006 -15.878  1.00  0.00     0.152 C 
BRANCH  20  23
HETATM   23  C18 UNL     1      39.344   1.352 -13.778  1.00  0.00     0.403 C 
BRANCH  23  24
HETATM   24  N6  UNL     1      39.741   0.370 -12.813  1.00  0.00    -0.314 N 
HETATM   25  C19 UNL     1      38.901  -0.381 -12.092  1.00  0.00     0.185 A 
HETATM   26  N7  UNL     1      39.639  -1.173 -11.306  1.00  0.00    -0.349 N 
HETATM   27  C20 UNL     1      40.917  -0.919 -11.535  1.00  0.00     0.075 A 
ATOM     28  H7  UNL     1      39.277  -1.858 -10.642  1.00  0.00     0.166 HD
HETATM   29  C21 UNL     1      42.110  -1.427 -11.022  1.00  0.00     0.119 A 
HETATM   30  C24 UNL     1      41.005   0.064 -12.495  1.00  0.00     0.066 A 
HETATM   31  N8  UNL     1      43.305  -0.976 -11.442  1.00  0.00    -0.373 N 
HETATM   32  C22 UNL     1      43.430  -0.018 -12.378  1.00  0.00     0.090 A 
ATOM     33  H8  UNL     1      44.151  -1.377 -11.036  1.00  0.00     0.164 HD
HETATM   34  C23 UNL     1      42.257   0.493 -12.895  1.00  0.00     0.049 A 
ENDBRANCH  23  24
ENDBRANCH  20  23
ENDBRANCH  16  17
ENDBRANCH   8  16
BRANCH   7  35
HETATM   35  N1  UNL     1      35.006   1.956 -19.971  1.00  0.00    -0.355 N 
ATOM     36  H1  UNL     1      35.759   2.350 -20.534  1.00  0.00     0.166 HD
BRANCH  35  37
HETATM   37  C7  UNL     1      34.588   0.898 -20.665  1.00  0.00     0.034 A 
HETATM   38  C8  UNL     1      33.541   1.040 -21.590  1.00  0.00     0.032 A 
HETATM   39  C9  UNL     1      33.030   0.030 -22.333  1.00  0.00     0.034 A 
HETATM   40  C10 UNL     1      33.559  -1.254 -22.194  1.00  0.00     0.060 A 
HETATM   41  N2  UNL     1      33.259  -2.423 -22.788  1.00  0.00    -0.351 N 
HETATM   42  C12 UNL     1      34.587  -1.456 -21.305  1.00  0.00     0.062 A 
HETATM   43  C11 UNL     1      34.083  -3.354 -22.284  1.00  0.00     0.181 A 
ATOM     44  H2  UNL     1      32.538  -2.574 -23.494  1.00  0.00     0.166 HD
HETATM   45  N3  UNL     1      34.892  -2.778 -21.382  1.00  0.00    -0.350 N 
ATOM     46  H3  UNL     1      35.617  -3.254 -20.845  1.00  0.00     0.166 HD
HETATM   47  C13 UNL     1      35.085  -0.412 -20.563  1.00  0.00     0.061 A 
ENDBRANCH  35  37
ENDBRANCH   7  35
TORSDOF 6
ENDMDL
MODEL 3
REMARK VINA RESULT: -10.795970576      1.551      2.224
REMARK  6 active torsions:
REMARK  status: ('A' for Active; 'I' for Inactive)
REMARK    1  A    between atoms: C6_7  and  N1_8 
REMARK    2  A    between atoms: N1_8  and  C7_10 
REMARK    3  A    between atoms: C14_21  and  C15_22 
REMARK    4  A    between atoms: C15_22  and  N4_23 
REMARK    5  A    between atoms: N5_26  and  C18_27 
REMARK    6  A    between atoms: C18_27  and  N6_28 
ROOT
HETATM    1 CL1  UNL     1      31.609   7.968 -23.069  1.00  0.00    -0.076 Cl
HETATM    2  C1  UNL     1      32.376   7.042 -21.780  1.00  0.00     0.076 A 
HETATM    3  C2  UNL     1      32.899   5.783 -21.833  1.00  0.00     0.044 A 
HETATM    4  C3  UNL     1      33.436   5.295 -20.694  1.00  0.00    -0.016 A 
HETATM    5  C4  UNL     1      34.029   4.035 -20.508  1.00  0.00     0.029 A 
HETATM    6  C5  UNL     1      34.542   3.657 -19.287  1.00  0.00     0.019 A 
HETATM    7  C6  UNL     1      35.124   2.368 -19.180  1.00  0.00     0.058 A 
HETATM    8  C14 UNL     1      35.622   2.040 -17.936  1.00  0.00     0.022 A 
HETATM    9  C27 UNL     1      35.547   2.931 -16.876  1.00  0.00     0.103 A 
HETATM   10  N9  UNL     1      34.985   4.144 -17.023  1.00  0.00    -0.364 N 
ATOM     11  H9  UNL     1      34.937   4.789 -16.234  1.00  0.00     0.165 HD
HETATM   12  C28 UNL     1      34.499   4.490 -18.196  1.00  0.00     0.045 A 
HETATM   13  C29 UNL     1      33.922   5.736 -18.350  1.00  0.00     0.050 A 
HETATM   14  C30 UNL     1      33.410   6.096 -19.592  1.00  0.00     0.019 A 
HETATM   15  S1  UNL     1      32.642   7.509 -20.162  1.00  0.00    -0.077 SA
ENDROOT
BRANCH   8  16
HETATM   16  C15 UNL     1      36.285   0.735 -17.738  1.00  0.00     0.100 C 
BRANCH  16  17
HETATM   17  N4  UNL     1      37.598   0.693 -17.306  1.00  0.00    -0.386 N 
HETATM   18  C16 UNL     1      38.691   1.062 -18.090  1.00  0.00     0.152 C 
HETATM   19  C17 UNL     1      39.888   1.513 -17.244  1.00  0.00     0.294 C 
HETATM   20  N5  UNL     1      40.256   0.546 -16.246  1.00  0.00     0.109 N 
HETATM   21  C25 UNL     1      39.414  -0.593 -16.323  1.00  0.00     0.294 C 
HETATM   22  C26 UNL     1      37.921  -0.272 -16.307  1.00  0.00     0.152 C 
BRANCH  20  23
HETATM   23  C18 UNL     1      40.349   1.190 -14.978  1.00  0.00     0.403 C 
BRANCH  23  24
HETATM   24  N6  UNL     1      41.617   1.047 -14.327  1.00  0.00    -0.314 N 
HETATM   25  C19 UNL     1      42.754   1.629 -14.725  1.00  0.00     0.185 A 
HETATM   26  N7  UNL     1      43.718   1.262 -13.874  1.00  0.00    -0.349 N 
HETATM   27  C20 UNL     1      43.189   0.464 -12.960  1.00  0.00     0.075 A 
ATOM     28  H7  UNL     1      44.696   1.548 -13.922  1.00  0.00     0.166 HD
HETATM   29  C21 UNL     1      43.702  -0.206 -11.850  1.00  0.00     0.119 A 
HETATM   30  C24 UNL     1      41.848   0.314 -13.231  1.00  0.00     0.066 A 
HETATM   31  N8  UNL     1      42.921  -0.974 -11.069  1.00  0.00    -0.373 N 
HETATM   32  C22 UNL     1      41.608  -1.143 -11.303  1.00  0.00     0.090 A 
ATOM     33  H8  UNL     1      43.342  -1.446 -10.269  1.00  0.00     0.164 HD
HETATM   34  C23 UNL     1      41.087  -0.485 -12.398  1.00  0.00     0.049 A 
ENDBRANCH  23  24
ENDBRANCH  20  23
ENDBRANCH  16  17
ENDBRANCH   8  16
BRANCH   7  35
HETATM   35  N1  UNL     1      35.126   1.677 -20.184  1.00  0.00    -0.355 N 
ATOM     36  H1  UNL     1      35.838   2.097 -20.782  1.00  0.00     0.166 HD
BRANCH  35  37
HETATM   37  C7  UNL     1      34.663   0.645 -20.889  1.00  0.00     0.034 A 
HETATM   38  C8  UNL     1      33.676   0.855 -21.866  1.00  0.00     0.032 A 
HETATM   39  C9  UNL     1      33.126  -0.121 -22.625  1.00  0.00     0.034 A 
HETATM   40  C10 UNL     1      33.549  -1.440 -22.450  1.00  0.00     0.060 A 
HETATM   41  N2  UNL     1      33.190  -2.590 -23.049  1.00  0.00    -0.351 N 
HETATM   42  C12 UNL     1      34.515  -1.709 -21.510  1.00  0.00     0.062 A 
HETATM   43  C11 UNL     1      33.916  -3.574 -22.498  1.00  0.00     0.181 A 
ATOM     44  H2  UNL     1      32.494  -2.694 -23.788  1.00  0.00     0.166 HD
HETATM   45  N3  UNL     1      34.722  -3.051 -21.563  1.00  0.00    -0.350 N 
ATOM     46  H3  UNL     1      35.382  -3.574 -20.987  1.00  0.00     0.166 HD
HETATM   47  C13 UNL     1      35.054  -0.697 -20.753  1.00  0.00     0.061 A 
ENDBRANCH  35  37
ENDBRANCH   7  35
TORSDOF 6
ENDMDL
MODEL 4
REMARK VINA RESULT: -10.755990217      1.052      1.829
REMARK  6 active torsions:
REMARK  status: ('A' for Active; 'I' for Inactive)
REMARK    1  A    between atoms: C6_7  and  N1_8 
REMARK    2  A    between atoms: N1_8  and  C7_10 
REMARK    3  A    between atoms: C14_21  and  C15_22 
REMARK    4  A    between atoms: C15_22  and  N4_23 
REMARK    5  A    between atoms: N5_26  and  C18_27 
REMARK    6  A    between atoms: C18_27  and  N6_28 
ROOT
HETATM    1 CL1  UNL     1      31.607   8.069 -23.441  1.00  0.00    -0.076 Cl
HETATM    2  C1  UNL     1      32.261   7.315 -21.988  1.00  0.00     0.076 A 
HETATM    3  C2  UNL     1      32.850   6.091 -21.857  1.00  0.00     0.044 A 
HETATM    4  C3  UNL     1      33.271   5.744 -20.621  1.00  0.00    -0.016 A 
HETATM    5  C4  UNL     1      33.902   4.546 -20.246  1.00  0.00     0.029 A 
HETATM    6  C5  UNL     1      34.283   4.314 -18.943  1.00  0.00     0.019 A 
HETATM    7  C6  UNL     1      34.913   3.079 -18.644  1.00  0.00     0.058 A 
HETATM    8  C14 UNL     1      35.275   2.898 -17.325  1.00  0.00     0.022 A 
HETATM    9  C27 UNL     1      35.028   3.876 -16.374  1.00  0.00     0.103 A 
HETATM   10  N9  UNL     1      34.427   5.033 -16.703  1.00  0.00    -0.364 N 
ATOM     11  H9  UNL     1      34.251   5.743 -15.992  1.00  0.00     0.165 HD
HETATM   12  C28 UNL     1      34.067   5.239 -17.952  1.00  0.00     0.045 A 
HETATM   13  C29 UNL     1      33.450   6.427 -18.292  1.00  0.00     0.050 A 
HETATM   14  C30 UNL     1      33.072   6.640 -19.615  1.00  0.00     0.019 A 
HETATM   15  S1  UNL     1      32.307   7.943 -20.404  1.00  0.00    -0.077 SA
ENDROOT
BRANCH   8  16
HETATM   16  C15 UNL     1      35.975   1.661 -16.925  1.00  0.00     0.100 C 
BRANCH  16  17
HETATM   17  N4  UNL     1      37.118   1.741 -16.150  1.00  0.00    -0.386 N 
HETATM   18  C16 UNL     1      37.117   1.747 -14.756  1.00  0.00     0.152 C 
HETATM   19  C17 UNL     1      38.437   1.227 -14.171  1.00  0.00     0.294 C 
HETATM   20  N5  UNL     1      39.584   1.911 -14.702  1.00  0.00     0.109 N 
HETATM   21  C25 UNL     1      39.184   2.912 -15.625  1.00  0.00     0.294 C 
HETATM   22  C26 UNL     1      38.238   2.417 -16.717  1.00  0.00     0.152 C 
BRANCH  20  23
HETATM   23  C18 UNL     1      40.530   0.952 -15.168  1.00  0.00     0.403 C 
BRANCH  23  24
HETATM   24  N6  UNL     1      41.750   0.904 -14.418  1.00  0.00    -0.314 N 
HETATM   25  C19 UNL     1      42.868   1.571 -14.727  1.00  0.00     0.185 A 
HETATM   26  N7  UNL     1      43.786   1.275 -13.801  1.00  0.00    -0.349 N 
HETATM   27  C20 UNL     1      43.248   0.437 -12.929  1.00  0.00     0.075 A 
ATOM     28  H7  UNL     1      44.740   1.634 -13.771  1.00  0.00     0.166 HD
HETATM   29  C21 UNL     1      43.720  -0.196 -11.779  1.00  0.00     0.119 A 
HETATM   30  C24 UNL     1      41.948   0.187 -13.305  1.00  0.00     0.066 A 
HETATM   31  N8  UNL     1      42.940  -1.023 -11.061  1.00  0.00    -0.373 N 
HETATM   32  C22 UNL     1      41.666  -1.290 -11.397  1.00  0.00     0.090 A 
ATOM     33  H8  UNL     1      43.330  -1.465 -10.228  1.00  0.00     0.164 HD
HETATM   34  C23 UNL     1      41.185  -0.670 -12.532  1.00  0.00     0.049 A 
ENDBRANCH  23  24
ENDBRANCH  20  23
ENDBRANCH  16  17
ENDBRANCH   8  16
BRANCH   7  35
HETATM   35  N1  UNL     1      35.071   2.300 -19.568  1.00  0.00    -0.355 N 
ATOM     36  H1  UNL     1      35.927   2.616 -20.025  1.00  0.00     0.166 HD
BRANCH  35  37
HETATM   37  C7  UNL     1      34.683   1.242 -20.279  1.00  0.00     0.034 A 
HETATM   38  C8  UNL     1      34.088   0.147 -19.632  1.00  0.00     0.032 A 
HETATM   39  C9  UNL     1      33.675  -0.982 -20.255  1.00  0.00     0.034 A 
HETATM   40  C10 UNL     1      33.835  -1.096 -21.637  1.00  0.00     0.060 A 
HETATM   41  N2  UNL     1      33.524  -2.076 -22.503  1.00  0.00    -0.351 N 
HETATM   42  C12 UNL     1      34.410  -0.056 -22.326  1.00  0.00     0.062 A 
HETATM   43  C11 UNL     1      33.896  -1.666 -23.725  1.00  0.00     0.181 A 
ATOM     44  H2  UNL     1      33.085  -2.968 -22.274  1.00  0.00     0.166 HD
HETATM   45  N3  UNL     1      34.436  -0.442 -23.629  1.00  0.00    -0.350 N 
ATOM     46  H3  UNL     1      34.803   0.108 -24.405  1.00  0.00     0.166 HD
HETATM   47  C13 UNL     1      34.822   1.078 -21.667  1.00  0.00     0.061 A 
ENDBRANCH  35  37
ENDBRANCH   7  35
TORSDOF 6
ENDMDL
MODEL 5
REMARK VINA RESULT: -10.749353269      1.418      2.223
REMARK  6 active torsions:
REMARK  status: ('A' for Active; 'I' for Inactive)
REMARK    1  A    between atoms: C6_7  and  N1_8 
REMARK    2  A    between atoms: N1_8  and  C7_10 
REMARK    3  A    between atoms: C14_21  and  C15_22 
REMARK    4  A    between atoms: C15_22  and  N4_23 
REMARK    5  A    between atoms: N5_26  and  C18_27 
REMARK    6  A    between atoms: C18_27  and  N6_28 
ROOT
HETATM    1 CL1  UNL     1      31.604   7.973 -23.151  1.00  0.00    -0.076 Cl
HETATM    2  C1  UNL     1      32.348   7.056 -21.842  1.00  0.00     0.076 A 
HETATM    3  C2  UNL     1      32.877   5.799 -21.878  1.00  0.00     0.044 A 
HETATM    4  C3  UNL     1      33.392   5.319 -20.725  1.00  0.00    -0.016 A 
HETATM    5  C4  UNL     1      33.987   4.062 -20.521  1.00  0.00     0.029 A 
HETATM    6  C5  UNL     1      34.475   3.692 -19.288  1.00  0.00     0.019 A 
HETATM    7  C6  UNL     1      35.060   2.407 -19.163  1.00  0.00     0.058 A 
HETATM    8  C14 UNL     1      35.534   2.087 -17.907  1.00  0.00     0.022 A 
HETATM    9  C27 UNL     1      35.432   2.981 -16.853  1.00  0.00     0.103 A 
HETATM   10  N9  UNL     1      34.868   4.191 -17.018  1.00  0.00    -0.364 N 
ATOM     11  H9  UNL     1      34.800   4.839 -16.233  1.00  0.00     0.165 HD
HETATM   12  C28 UNL     1      34.405   4.530 -18.202  1.00  0.00     0.045 A 
HETATM   13  C29 UNL     1      33.826   5.772 -18.374  1.00  0.00     0.050 A 
HETATM   14  C30 UNL     1      33.339   6.125 -19.628  1.00  0.00     0.019 A 
HETATM   15  S1  UNL     1      32.577   7.531 -20.221  1.00  0.00    -0.077 SA
ENDROOT
BRANCH   8  16
HETATM   16  C15 UNL     1      36.198   0.786 -17.689  1.00  0.00     0.100 C 
BRANCH  16  17
HETATM   17  N4  UNL     1      37.503   0.752 -17.232  1.00  0.00    -0.386 N 
HETATM   18  C16 UNL     1      38.623   0.746 -18.063  1.00  0.00     0.152 C 
HETATM   19  C17 UNL     1      39.865   1.319 -17.370  1.00  0.00     0.294 C 
HETATM   20  N5  UNL     1      40.139   0.683 -16.110  1.00  0.00     0.109 N 
HETATM   21  C25 UNL     1      39.184  -0.334 -15.849  1.00  0.00     0.294 C 
HETATM   22  C26 UNL     1      37.732   0.122 -15.973  1.00  0.00     0.152 C 
BRANCH  20  23
HETATM   23  C18 UNL     1      40.305   1.679 -15.105  1.00  0.00     0.403 C 
BRANCH  23  24
HETATM   24  N6  UNL     1      40.584   1.167 -13.796  1.00  0.00    -0.314 N 
HETATM   25  C19 UNL     1      41.769   0.693 -13.394  1.00  0.00     0.185 A 
HETATM   26  N7  UNL     1      41.640   0.309 -12.119  1.00  0.00    -0.349 N 
HETATM   27  C20 UNL     1      40.395   0.540 -11.735  1.00  0.00     0.075 A 
ATOM     28  H7  UNL     1      42.377  -0.095 -11.542  1.00  0.00     0.166 HD
HETATM   29  C21 UNL     1      39.701   0.346 -10.540  1.00  0.00     0.119 A 
HETATM   30  C24 UNL     1      39.704   1.089 -12.791  1.00  0.00     0.066 A 
HETATM   31  N8  UNL     1      38.404   0.679 -10.419  1.00  0.00    -0.373 N 
HETATM   32  C22 UNL     1      37.697   1.217 -11.428  1.00  0.00     0.090 A 
ATOM     33  H8  UNL     1      37.938   0.516  -9.526  1.00  0.00     0.164 HD
HETATM   34  C23 UNL     1      38.371   1.415 -12.616  1.00  0.00     0.049 A 
ENDBRANCH  23  24
ENDBRANCH  20  23
ENDBRANCH  16  17
ENDBRANCH   8  16
BRANCH   7  35
HETATM   35  N1  UNL     1      35.088   1.711 -20.163  1.00  0.00    -0.355 N 
ATOM     36  H1  UNL     1      35.797   2.142 -20.756  1.00  0.00     0.166 HD
BRANCH  35  37
HETATM   37  C7  UNL     1      34.653   0.667 -20.869  1.00  0.00     0.034 A 
HETATM   38  C8  UNL     1      33.662   0.851 -21.847  1.00  0.00     0.032 A 
HETATM   39  C9  UNL     1      33.139  -0.140 -22.606  1.00  0.00     0.034 A 
HETATM   40  C10 UNL     1      33.596  -1.448 -22.430  1.00  0.00     0.060 A 
HETATM   41  N2  UNL     1      33.269  -2.606 -23.029  1.00  0.00    -0.351 N 
HETATM   42  C12 UNL     1      34.567  -1.690 -21.488  1.00  0.00     0.062 A 
HETATM   43  C11 UNL     1      34.018  -3.571 -22.476  1.00  0.00     0.181 A 
ATOM     44  H2  UNL     1      32.577  -2.729 -23.769  1.00  0.00     0.166 HD
HETATM   45  N3  UNL     1      34.809  -3.026 -21.540  1.00  0.00    -0.350 N 
ATOM     46  H3  UNL     1      35.482  -3.532 -20.962  1.00  0.00     0.166 HD
HETATM   47  C13 UNL     1      35.079  -0.664 -20.731  1.00  0.00     0.061 A 
ENDBRANCH  35  37
ENDBRANCH   7  35
TORSDOF 6
ENDMDL
