MODEL 1
REMARK VINA RESULT: -9.380321404      0.000      0.000
REMARK  5 active torsions:
REMARK  status: ('A' for Active; 'I' for Inactive)
REMARK    1  A    between atoms: C4_7  and  C5_8 
REMARK    2  A    between atoms: N3_12  and  C7_14 
REMARK    3  A    between atoms: C10_17  and  N4_18 
REMARK    4  A    between atoms: C17_27  and  C18_28 
REMARK    5  A    between atoms: C22_34  and  N6_35 
ROOT
HETATM    1  C5  UNL     1      38.124   0.512 -16.336  1.00  0.00     0.065 A 
HETATM    2  N2  UNL     1      38.924   0.234 -15.324  1.00  0.00    -0.335 N 
ATOM      3  H2  UNL     1      39.741  -0.362 -15.456  1.00  0.00     0.168 HD
HETATM    4  C6  UNL     1      38.645   0.745 -14.133  1.00  0.00     0.150 A 
HETATM    5  N3  UNL     1      39.303   0.595 -13.006  1.00  0.00    -0.337 N 
ATOM      6  H3  UNL     1      38.977   1.047 -12.151  1.00  0.00     0.168 HD
HETATM    7  S1  UNL     1      37.227   1.643 -14.409  1.00  0.00    -0.049 SA
HETATM    8  C17 UNL     1      37.047   1.321 -16.073  1.00  0.00     0.062 A 
ENDROOT
BRANCH   8   9
HETATM    9  C18 UNL     1      36.007   1.780 -17.023  1.00  0.00     0.053 A 
HETATM   10  C19 UNL     1      35.004   0.960 -17.488  1.00  0.00     0.033 A 
HETATM   11  C20 UNL     1      34.058   1.438 -18.375  1.00  0.00     0.036 A 
HETATM   12  C21 UNL     1      34.107   2.737 -18.801  1.00  0.00     0.093 A 
HETATM   13  N5  UNL     1      33.348   3.494 -19.647  1.00  0.00    -0.188 N 
HETATM   14  C28 UNL     1      35.119   3.541 -18.325  1.00  0.00     0.149 A 
HETATM   15  C22 UNL     1      33.854   4.738 -19.709  1.00  0.00     0.682 A 
ATOM     16  H5  UNL     1      32.525   3.167 -20.153  1.00  0.00     0.184 HD
HETATM   17  N7  UNL     1      34.926   4.742 -18.900  1.00  0.00    -0.174 N 
ATOM     18  H7  UNL     1      35.520   5.556 -18.741  1.00  0.00     0.186 HD
HETATM   19  N8  UNL     1      36.038   3.043 -17.451  1.00  0.00    -0.339 N 
ATOM     20  H8  UNL     1      36.777   3.659 -17.112  1.00  0.00     0.167 HD
BRANCH  15  21
HETATM   21  N6  UNL     1      33.333   5.820 -20.491  1.00  0.00    -0.218 N 
HETATM   22  C23 UNL     1      33.220   7.119 -19.886  1.00  0.00     0.141 C 
HETATM   23  C24 UNL     1      33.478   8.249 -20.853  1.00  0.00     0.020 C 
HETATM   24  C25 UNL     1      32.753   8.059 -22.160  1.00  0.00     0.003 C 
HETATM   25  C26 UNL     1      31.944   6.777 -22.177  1.00  0.00     0.020 C 
HETATM   26  C27 UNL     1      32.920   5.648 -21.861  1.00  0.00     0.141 C 
ENDBRANCH  15  21
ENDBRANCH   8   9
BRANCH   1  27
HETATM   27  C4  UNL     1      38.364  -0.020 -17.710  1.00  0.00     0.009 A 
HETATM   28  C3  UNL     1      39.085   0.715 -18.613  1.00  0.00     0.101 A 
HETATM   29  N1  UNL     1      39.338   0.294 -19.867  1.00  0.00    -0.373 N 
HETATM   30  C2  UNL     1      38.862  -0.900 -20.247  1.00  0.00     0.111 A 
ATOM     31  H1  UNL     1      39.880   0.870 -20.511  1.00  0.00     0.164 HD
HETATM   32  C1  UNL     1      38.126  -1.697 -19.390  1.00  0.00     0.050 A 
HETATM   33 CL1  UNL     1      37.531  -3.251 -19.949  1.00  0.00    -0.083 Cl
HETATM   34  C29 UNL     1      37.882  -1.241 -18.110  1.00  0.00     0.040 A 
ENDBRANCH   1  27
BRANCH   5  35
HETATM   35  C7  UNL     1      40.464  -0.199 -12.997  1.00  0.00     0.034 A 
HETATM   36  C8  UNL     1      40.372  -1.532 -12.703  1.00  0.00     0.032 A 
HETATM   37  C9  UNL     1      41.495  -2.304 -12.694  1.00  0.00     0.031 A 
HETATM   38  C10 UNL     1      42.728  -1.760 -12.979  1.00  0.00     0.030 A 
HETATM   39  C15 UNL     1      42.824  -0.417 -13.276  1.00  0.00     0.031 A 
HETATM   40  C16 UNL     1      41.673   0.381 -13.287  1.00  0.00     0.032 A 
BRANCH  38  41
HETATM   41  N4  UNL     1      43.897  -2.576 -12.971  1.00  0.00    -0.377 N 
HETATM   42  C11 UNL     1      45.216  -1.974 -12.974  1.00  0.00     0.149 C 
HETATM   43  C12 UNL     1      46.180  -2.990 -12.385  1.00  0.00     0.187 C 
HETATM   44  O1  UNL     1      46.230  -4.161 -13.101  1.00  0.00    -0.388 OA
HETATM   45  C13 UNL     1      45.064  -4.499 -13.742  1.00  0.00     0.187 C 
HETATM   46  C14 UNL     1      43.830  -4.020 -12.963  1.00  0.00     0.149 C 
ENDBRANCH  38  41
ENDBRANCH   5  35
TORSDOF 5
ENDMDL
MODEL 2
REMARK VINA RESULT: -9.318078707      0.954      1.134
REMARK  5 active torsions:
REMARK  status: ('A' for Active; 'I' for Inactive)
REMARK    1  A    between atoms: C4_7  and  C5_8 
REMARK    2  A    between atoms: N3_12  and  C7_14 
REMARK    3  A    between atoms: C10_17  and  N4_18 
REMARK    4  A    between atoms: C17_27  and  C18_28 
REMARK    5  A    between atoms: C22_34  and  N6_35 
ROOT
HETATM    1  C5  UNL     1      38.092   0.567 -16.372  1.00  0.00     0.065 A 
HETATM    2  N2  UNL     1      38.882   0.278 -15.356  1.00  0.00    -0.335 N 
ATOM      3  H2  UNL     1      39.712  -0.298 -15.490  1.00  0.00     0.168 HD
HETATM    4  C6  UNL     1      38.574   0.751 -14.156  1.00  0.00     0.150 A 
HETATM    5  N3  UNL     1      39.218   0.584 -13.023  1.00  0.00    -0.337 N 
ATOM      6  H3  UNL     1      38.870   1.006 -12.161  1.00  0.00     0.168 HD
HETATM    7  S1  UNL     1      37.143   1.628 -14.430  1.00  0.00    -0.049 SA
HETATM    8  C17 UNL     1      36.995   1.348 -16.105  1.00  0.00     0.062 A 
ENDROOT
BRANCH   8   9
HETATM    9  C18 UNL     1      35.961   1.812 -17.058  1.00  0.00     0.053 A 
HETATM   10  C19 UNL     1      34.958   0.995 -17.531  1.00  0.00     0.033 A 
HETATM   11  C20 UNL     1      34.017   1.478 -18.421  1.00  0.00     0.036 A 
HETATM   12  C21 UNL     1      34.071   2.777 -18.843  1.00  0.00     0.093 A 
HETATM   13  N5  UNL     1      33.318   3.539 -19.690  1.00  0.00    -0.188 N 
HETATM   14  C28 UNL     1      35.082   3.578 -18.359  1.00  0.00     0.149 A 
HETATM   15  C22 UNL     1      33.827   4.781 -19.746  1.00  0.00     0.682 A 
ATOM     16  H5  UNL     1      32.497   3.215 -20.201  1.00  0.00     0.184 HD
HETATM   17  N7  UNL     1      34.894   4.781 -18.932  1.00  0.00    -0.174 N 
ATOM     18  H7  UNL     1      35.489   5.593 -18.767  1.00  0.00     0.186 HD
HETATM   19  N8  UNL     1      35.996   3.076 -17.482  1.00  0.00    -0.339 N 
ATOM     20  H8  UNL     1      36.734   3.689 -17.138  1.00  0.00     0.167 HD
BRANCH  15  21
HETATM   21  N6  UNL     1      33.311   5.867 -20.527  1.00  0.00    -0.218 N 
HETATM   22  C23 UNL     1      33.214   7.168 -19.924  1.00  0.00     0.141 C 
HETATM   23  C24 UNL     1      33.477   8.294 -20.895  1.00  0.00     0.020 C 
HETATM   24  C25 UNL     1      32.743   8.109 -22.197  1.00  0.00     0.003 C 
HETATM   25  C26 UNL     1      31.922   6.834 -22.207  1.00  0.00     0.020 C 
HETATM   26  C27 UNL     1      32.889   5.696 -21.894  1.00  0.00     0.141 C 
ENDBRANCH  15  21
ENDBRANCH   8   9
BRANCH   1  27
HETATM   27  C4  UNL     1      38.364   0.077 -17.756  1.00  0.00     0.009 A 
HETATM   28  C3  UNL     1      37.941  -1.168 -18.136  1.00  0.00     0.101 A 
HETATM   29  N1  UNL     1      38.153  -1.671 -19.367  1.00  0.00    -0.373 N 
HETATM   30  C2  UNL     1      38.810  -0.916 -20.260  1.00  0.00     0.111 A 
ATOM     31  H1  UNL     1      37.821  -2.604 -19.615  1.00  0.00     0.164 HD
HETATM   32  C1  UNL     1      39.266   0.350 -19.947  1.00  0.00     0.050 A 
HETATM   33 CL1  UNL     1      40.119   1.288 -21.162  1.00  0.00    -0.083 Cl
HETATM   34  C29 UNL     1      39.035   0.841 -18.677  1.00  0.00     0.040 A 
ENDBRANCH   1  27
BRANCH   5  35
HETATM   35  C7  UNL     1      40.395  -0.187 -13.017  1.00  0.00     0.034 A 
HETATM   36  C8  UNL     1      40.323  -1.534 -12.785  1.00  0.00     0.032 A 
HETATM   37  C9  UNL     1      41.460  -2.284 -12.780  1.00  0.00     0.031 A 
HETATM   38  C10 UNL     1      42.689  -1.703 -13.005  1.00  0.00     0.030 A 
HETATM   39  C15 UNL     1      42.766  -0.346 -13.238  1.00  0.00     0.031 A 
HETATM   40  C16 UNL     1      41.599   0.428 -13.246  1.00  0.00     0.032 A 
BRANCH  38  41
HETATM   41  N4  UNL     1      43.874  -2.496 -13.000  1.00  0.00    -0.377 N 
HETATM   42  C11 UNL     1      45.179  -1.872 -13.099  1.00  0.00     0.149 C 
HETATM   43  C12 UNL     1      46.188  -2.833 -12.494  1.00  0.00     0.187 C 
HETATM   44  O1  UNL     1      46.231  -4.044 -13.140  1.00  0.00    -0.388 OA
HETATM   45  C13 UNL     1      45.046  -4.441 -13.707  1.00  0.00     0.187 C 
HETATM   46  C14 UNL     1      43.838  -3.938 -12.903  1.00  0.00     0.149 C 
ENDBRANCH  38  41
ENDBRANCH   5  35
TORSDOF 5
ENDMDL
MODEL 3
REMARK VINA RESULT: -9.184968311      4.027     11.954
REMARK  5 active torsions:
REMARK  status: ('A' for Active; 'I' for Inactive)
REMARK    1  A    between atoms: C4_7  and  C5_8 
REMARK    2  A    between atoms: N3_12  and  C7_14 
REMARK    3  A    between atoms: C10_17  and  N4_18 
REMARK    4  A    between atoms: C17_27  and  C18_28 
REMARK    5  A    between atoms: C22_34  and  N6_35 
ROOT
HETATM    1  C5  UNL     1      38.262   2.606 -15.744  1.00  0.00     0.065 A 
HETATM    2  N2  UNL     1      37.091   2.860 -16.296  1.00  0.00    -0.335 N 
ATOM      3  H2  UNL     1      36.998   3.584 -17.008  1.00  0.00     0.168 HD
HETATM    4  C6  UNL     1      36.037   2.157 -15.907  1.00  0.00     0.150 A 
HETATM    5  N3  UNL     1      34.794   2.249 -16.323  1.00  0.00    -0.337 N 
ATOM      6  H3  UNL     1      34.071   1.642 -15.937  1.00  0.00     0.168 HD
HETATM    7  S1  UNL     1      36.675   1.103 -14.735  1.00  0.00    -0.049 SA
HETATM    8  C17 UNL     1      38.299   1.616 -14.793  1.00  0.00     0.062 A 
ENDROOT
BRANCH   8   9
HETATM    9  C18 UNL     1      39.475   1.140 -14.029  1.00  0.00     0.053 A 
HETATM   10  C19 UNL     1      39.903   1.738 -12.865  1.00  0.00     0.033 A 
HETATM   11  C20 UNL     1      41.008   1.254 -12.190  1.00  0.00     0.036 A 
HETATM   12  C21 UNL     1      41.690   0.172 -12.672  1.00  0.00     0.093 A 
HETATM   13  N5  UNL     1      42.786  -0.529 -12.257  1.00  0.00    -0.188 N 
HETATM   14  C28 UNL     1      41.247  -0.412 -13.839  1.00  0.00     0.149 A 
HETATM   15  C22 UNL     1      43.034  -1.525 -13.125  1.00  0.00     0.682 A 
ATOM     16  H5  UNL     1      43.332  -0.328 -11.419  1.00  0.00     0.184 HD
HETATM   17  N7  UNL     1      42.089  -1.434 -14.073  1.00  0.00    -0.174 N 
ATOM     18  H7  UNL     1      42.019  -2.063 -14.874  1.00  0.00     0.186 HD
HETATM   19  N8  UNL     1      40.154   0.086 -14.483  1.00  0.00    -0.339 N 
ATOM     20  H8  UNL     1      39.845  -0.364 -15.344  1.00  0.00     0.167 HD
BRANCH  15  21
HETATM   21  N6  UNL     1      44.102  -2.477 -13.030  1.00  0.00    -0.218 N 
HETATM   22  C23 UNL     1      43.784  -3.878 -13.062  1.00  0.00     0.141 C 
HETATM   23  C24 UNL     1      44.834  -4.709 -13.760  1.00  0.00     0.020 C 
HETATM   24  C25 UNL     1      46.230  -4.355 -13.319  1.00  0.00     0.003 C 
HETATM   25  C26 UNL     1      46.231  -3.248 -12.281  1.00  0.00     0.020 C 
HETATM   26  C27 UNL     1      45.480  -2.074 -12.903  1.00  0.00     0.141 C 
ENDBRANCH  15  21
ENDBRANCH   8   9
BRANCH   1  27
HETATM   27  C4  UNL     1      39.499   3.350 -16.124  1.00  0.00     0.009 A 
HETATM   28  C3  UNL     1      39.751   4.581 -15.581  1.00  0.00     0.101 A 
HETATM   29  N1  UNL     1      40.847   5.305 -15.880  1.00  0.00    -0.373 N 
HETATM   30  C2  UNL     1      41.730   4.795 -16.750  1.00  0.00     0.111 A 
ATOM     31  H1  UNL     1      41.002   6.219 -15.454  1.00  0.00     0.164 HD
HETATM   32  C1  UNL     1      41.541   3.558 -17.338  1.00  0.00     0.050 A 
HETATM   33 CL1  UNL     1      42.736   2.946 -18.470  1.00  0.00    -0.083 Cl
HETATM   34  C29 UNL     1      40.409   2.837 -17.013  1.00  0.00     0.040 A 
ENDBRANCH   1  27
BRANCH   5  35
HETATM   35  C7  UNL     1      34.477   3.200 -17.311  1.00  0.00     0.034 A 
HETATM   36  C8  UNL     1      34.246   2.792 -18.597  1.00  0.00     0.032 A 
HETATM   37  C9  UNL     1      33.939   3.709 -19.555  1.00  0.00     0.031 A 
HETATM   38  C10 UNL     1      33.857   5.051 -19.248  1.00  0.00     0.030 A 
HETATM   39  C15 UNL     1      34.090   5.465 -17.954  1.00  0.00     0.031 A 
HETATM   40  C16 UNL     1      34.405   4.525 -16.965  1.00  0.00     0.032 A 
BRANCH  38  41
HETATM   41  N4  UNL     1      33.532   6.004 -20.257  1.00  0.00    -0.377 N 
HETATM   42  C11 UNL     1      33.530   7.422 -19.957  1.00  0.00     0.149 C 
HETATM   43  C12 UNL     1      33.737   8.163 -21.268  1.00  0.00     0.187 C 
HETATM   44  O1  UNL     1      32.752   7.908 -22.191  1.00  0.00    -0.388 OA
HETATM   45  C13 UNL     1      32.182   6.663 -22.100  1.00  0.00     0.187 C 
HETATM   46  C14 UNL     1      33.189   5.613 -21.606  1.00  0.00     0.149 C 
ENDBRANCH  38  41
ENDBRANCH   5  35
TORSDOF 5
ENDMDL
MODEL 4
REMARK VINA RESULT: -8.494456544      0.904      1.228
REMARK  5 active torsions:
REMARK  status: ('A' for Active; 'I' for Inactive)
REMARK    1  A    between atoms: C4_7  and  C5_8 
REMARK    2  A    between atoms: N3_12  and  C7_14 
REMARK    3  A    between atoms: C10_17  and  N4_18 
REMARK    4  A    between atoms: C17_27  and  C18_28 
REMARK    5  A    between atoms: C22_34  and  N6_35 
ROOT
HETATM    1  C5  UNL     1      37.931   1.003 -16.502  1.00  0.00     0.065 A 
HETATM    2  N2  UNL     1      38.602   0.640 -15.426  1.00  0.00    -0.335 N 
ATOM      3  H2  UNL     1      39.542   0.252 -15.506  1.00  0.00     0.168 HD
HETATM    4  C6  UNL     1      38.032   0.788 -14.239  1.00  0.00     0.150 A 
HETATM    5  N3  UNL     1      38.519   0.493 -13.055  1.00  0.00    -0.337 N 
ATOM      6  H3  UNL     1      37.970   0.658 -12.211  1.00  0.00     0.168 HD
HETATM    7  S1  UNL     1      36.511   1.453 -14.610  1.00  0.00    -0.049 SA
HETATM    8  C17 UNL     1      36.673   1.516 -16.306  1.00  0.00     0.062 A 
ENDROOT
BRANCH   8   9
HETATM    9  C18 UNL     1      35.721   1.993 -17.335  1.00  0.00     0.053 A 
HETATM   10  C19 UNL     1      34.837   1.159 -17.982  1.00  0.00     0.033 A 
HETATM   11  C20 UNL     1      33.969   1.656 -18.936  1.00  0.00     0.036 A 
HETATM   12  C21 UNL     1      33.977   2.987 -19.248  1.00  0.00     0.093 A 
HETATM   13  N5  UNL     1      33.270   3.769 -20.116  1.00  0.00    -0.188 N 
HETATM   14  C28 UNL     1      34.869   3.806 -18.590  1.00  0.00     0.149 A 
HETATM   15  C22 UNL     1      33.693   5.041 -20.017  1.00  0.00     0.682 A 
ATOM     16  H5  UNL     1      32.536   3.440 -20.743  1.00  0.00     0.184 HD
HETATM   17  N7  UNL     1      34.661   5.038 -19.087  1.00  0.00    -0.174 N 
ATOM     18  H7  UNL     1      35.175   5.869 -18.793  1.00  0.00     0.186 HD
HETATM   19  N8  UNL     1      35.713   3.288 -17.654  1.00  0.00    -0.339 N 
ATOM     20  H8  UNL     1      36.363   3.915 -17.180  1.00  0.00     0.167 HD
BRANCH  15  21
HETATM   21  N6  UNL     1      33.192   6.155 -20.767  1.00  0.00    -0.218 N 
HETATM   22  C23 UNL     1      32.420   5.900 -21.952  1.00  0.00     0.141 C 
HETATM   23  C24 UNL     1      31.323   6.913 -22.176  1.00  0.00     0.020 C 
HETATM   24  C25 UNL     1      31.804   8.328 -21.988  1.00  0.00     0.003 C 
HETATM   25  C26 UNL     1      33.274   8.381 -21.620  1.00  0.00     0.020 C 
HETATM   26  C27 UNL     1      33.437   7.520 -20.372  1.00  0.00     0.141 C 
ENDBRANCH  15  21
ENDBRANCH   8   9
BRANCH   1  27
HETATM   27  C4  UNL     1      38.499   0.871 -17.877  1.00  0.00     0.009 A 
HETATM   28  C3  UNL     1      39.189   1.913 -18.435  1.00  0.00     0.101 A 
HETATM   29  N1  UNL     1      39.726   1.860 -19.669  1.00  0.00    -0.373 N 
HETATM   30  C2  UNL     1      39.577   0.734 -20.382  1.00  0.00     0.111 A 
ATOM     31  H1  UNL     1      40.235   2.657 -20.051  1.00  0.00     0.164 HD
HETATM   32  C1  UNL     1      38.893  -0.358 -19.882  1.00  0.00     0.050 A 
HETATM   33 CL1  UNL     1      38.733  -1.804 -20.866  1.00  0.00    -0.083 Cl
HETATM   34  C29 UNL     1      38.352  -0.277 -18.614  1.00  0.00     0.040 A 
ENDBRANCH   1  27
BRANCH   5  35
HETATM   35  C7  UNL     1      39.812  -0.055 -12.970  1.00  0.00     0.034 A 
HETATM   36  C8  UNL     1      39.981  -1.412 -13.036  1.00  0.00     0.032 A 
HETATM   37  C9  UNL     1      41.231  -1.945 -12.955  1.00  0.00     0.031 A 
HETATM   38  C10 UNL     1      42.336  -1.136 -12.807  1.00  0.00     0.030 A 
HETATM   39  C15 UNL     1      42.171   0.232 -12.740  1.00  0.00     0.031 A 
HETATM   40  C16 UNL     1      40.887   0.785 -12.824  1.00  0.00     0.032 A 
BRANCH  38  41
HETATM   41  N4  UNL     1      43.641  -1.703 -12.727  1.00  0.00    -0.377 N 
HETATM   42  C11 UNL     1      44.811  -0.905 -13.036  1.00  0.00     0.149 C 
HETATM   43  C12 UNL     1      45.994  -1.539 -12.322  1.00  0.00     0.187 C 
HETATM   44  O1  UNL     1      46.229  -2.834 -12.717  1.00  0.00    -0.388 OA
HETATM   45  C13 UNL     1      45.113  -3.530 -13.112  1.00  0.00     0.187 C 
HETATM   46  C14 UNL     1      43.863  -3.079 -12.343  1.00  0.00     0.149 C 
ENDBRANCH  38  41
ENDBRANCH   5  35
TORSDOF 5
ENDMDL
MODEL 5
REMARK VINA RESULT: -7.502118283      4.185     11.964
REMARK  5 active torsions:
REMARK  status: ('A' for Active; 'I' for Inactive)
REMARK    1  A    between atoms: C4_7  and  C5_8 
REMARK    2  A    between atoms: N3_12  and  C7_14 
REMARK    3  A    between atoms: C10_17  and  N4_18 
REMARK    4  A    between atoms: C17_27  and  C18_28 
REMARK    5  A    between atoms: C22_34  and  N6_35 
ROOT
HETATM    1  C5  UNL     1      37.651   1.288 -17.872  1.00  0.00     0.065 A 
HETATM    2  N2  UNL     1      36.915   1.758 -18.861  1.00  0.00    -0.335 N 
ATOM      3  H2  UNL     1      36.307   2.564 -18.718  1.00  0.00     0.168 HD
HETATM    4  C6  UNL     1      36.981   1.162 -20.043  1.00  0.00     0.150 A 
HETATM    5  N3  UNL     1      36.339   1.467 -21.148  1.00  0.00    -0.337 N 
ATOM      6  H3  UNL     1      36.481   0.921 -21.998  1.00  0.00     0.168 HD
HETATM    7  S1  UNL     1      38.097  -0.095 -19.791  1.00  0.00    -0.049 SA
HETATM    8  C17 UNL     1      38.442   0.200 -18.148  1.00  0.00     0.062 A 
ENDROOT
BRANCH   8   9
HETATM    9  C18 UNL     1      39.353  -0.513 -17.225  1.00  0.00     0.053 A 
HETATM   10  C19 UNL     1      39.307  -1.876 -17.031  1.00  0.00     0.033 A 
HETATM   11  C20 UNL     1      40.181  -2.493 -16.157  1.00  0.00     0.036 A 
HETATM   12  C21 UNL     1      41.106  -1.755 -15.471  1.00  0.00     0.093 A 
HETATM   13  N5  UNL     1      42.082  -2.051 -14.563  1.00  0.00    -0.188 N 
HETATM   14  C28 UNL     1      41.137  -0.393 -15.678  1.00  0.00     0.149 A 
HETATM   15  C22 UNL     1      42.714  -0.921 -14.202  1.00  0.00     0.682 A 
ATOM     16  H5  UNL     1      42.297  -2.984 -14.212  1.00  0.00     0.184 HD
HETATM   17  N7  UNL     1      42.124   0.069 -14.891  1.00  0.00    -0.174 N 
ATOM     18  H7  UNL     1      42.392   1.051 -14.825  1.00  0.00     0.186 HD
HETATM   19  N8  UNL     1      40.262   0.189 -16.547  1.00  0.00    -0.339 N 
ATOM     20  H8  UNL     1      40.306   1.198 -16.684  1.00  0.00     0.167 HD
BRANCH  15  21
HETATM   21  N6  UNL     1      43.796  -0.824 -13.267  1.00  0.00    -0.218 N 
HETATM   22  C23 UNL     1      44.407  -2.033 -12.789  1.00  0.00     0.141 C 
HETATM   23  C24 UNL     1      45.892  -1.893 -12.548  1.00  0.00     0.020 C 
HETATM   24  C25 UNL     1      46.231  -0.634 -11.794  1.00  0.00     0.003 C 
HETATM   25  C26 UNL     1      44.994   0.180 -11.466  1.00  0.00     0.020 C 
HETATM   26  C27 UNL     1      44.289   0.445 -12.792  1.00  0.00     0.141 C 
ENDBRANCH  15  21
ENDBRANCH   8   9
BRANCH   1  27
HETATM   27  C4  UNL     1      37.638   1.899 -16.509  1.00  0.00     0.009 A 
HETATM   28  C3  UNL     1      37.991   3.211 -16.345  1.00  0.00     0.101 A 
HETATM   29  N1  UNL     1      38.000   3.823 -15.145  1.00  0.00    -0.373 N 
HETATM   30  C2  UNL     1      37.648   3.113 -14.063  1.00  0.00     0.111 A 
ATOM     31  H1  UNL     1      38.268   4.804 -15.061  1.00  0.00     0.164 HD
HETATM   32  C1  UNL     1      37.281   1.783 -14.154  1.00  0.00     0.050 A 
HETATM   33 CL1  UNL     1      36.830   0.909 -12.700  1.00  0.00    -0.083 Cl
HETATM   34  C29 UNL     1      37.280   1.181 -15.396  1.00  0.00     0.040 A 
ENDBRANCH   1  27
BRANCH   5  35
HETATM   35  C7  UNL     1      35.450   2.558 -21.139  1.00  0.00     0.034 A 
HETATM   36  C8  UNL     1      35.939   3.833 -21.236  1.00  0.00     0.032 A 
HETATM   37  C9  UNL     1      35.082   4.891 -21.228  1.00  0.00     0.031 A 
HETATM   38  C10 UNL     1      33.722   4.697 -21.122  1.00  0.00     0.030 A 
HETATM   39  C15 UNL     1      33.226   3.414 -21.024  1.00  0.00     0.031 A 
HETATM   40  C16 UNL     1      34.103   2.323 -21.033  1.00  0.00     0.032 A 
BRANCH  38  41
HETATM   41  N4  UNL     1      32.832   5.811 -21.118  1.00  0.00    -0.377 N 
HETATM   42  C11 UNL     1      32.348   6.372 -22.364  1.00  0.00     0.149 C 
HETATM   43  C12 UNL     1      31.042   7.087 -22.062  1.00  0.00     0.187 C 
HETATM   44  O1  UNL     1      31.184   8.104 -21.149  1.00  0.00    -0.388 OA
HETATM   45  C13 UNL     1      32.183   7.917 -20.226  1.00  0.00     0.187 C 
HETATM   46  C14 UNL     1      32.376   6.430 -19.893  1.00  0.00     0.149 C 
ENDBRANCH  38  41
ENDBRANCH   5  35
TORSDOF 5
ENDMDL
