MODEL 1
REMARK VINA RESULT: -8.435613587      0.000      0.000
REMARK  6 active torsions:
REMARK  status: ('A' for Active; 'I' for Inactive)
REMARK    1  A    between atoms: N1_2  and  C3_4 
REMARK    2  A    between atoms: C10_16  and  N4_17 
REMARK    3  A    between atoms: N4_17  and  C11_19 
REMARK    4  A    between atoms: N5_29  and  C18_30 
REMARK    5  A    between atoms: C18_30  and  C19_31 
REMARK       I    between atoms: C19_31  and  N6_33 
REMARK    6  A    between atoms: N6_33  and  C20_35 
ROOT
HETATM    1  C11 UNL     1      36.233   2.080 -16.249  1.00  0.00     0.058 A 
HETATM    2  C12 UNL     1      37.284   2.766 -16.772  1.00  0.00     0.062 A 
HETATM    3  C13 UNL     1      38.575   2.710 -16.183  1.00  0.00     0.056 A 
HETATM    4  C14 UNL     1      38.665   1.922 -15.070  1.00  0.00     0.036 A 
HETATM    5  C15 UNL     1      37.566   1.218 -14.543  1.00  0.00     0.047 A 
HETATM    6  C16 UNL     1      36.323   1.286 -15.128  1.00  0.00     0.062 A 
HETATM    7 CL1  UNL     1      35.018   0.397 -14.432  1.00  0.00    -0.082 Cl
HETATM    8  S2  UNL     1      40.311   2.071 -14.643  1.00  0.00    -0.058 SA
HETATM    9  C17 UNL     1      40.795   3.118 -15.892  1.00  0.00     0.146 A 
HETATM   10  S3  UNL     1      42.302   3.746 -16.189  1.00  0.00    -0.052 SA
HETATM   11  N5  UNL     1      39.680   3.315 -16.589  1.00  0.00    -0.322 N 
ENDROOT
BRANCH   1  12
HETATM   12  N4  UNL     1      34.965   2.155 -16.868  1.00  0.00    -0.340 N 
ATOM     13  H4  UNL     1      34.288   2.802 -16.463  1.00  0.00     0.167 HD
BRANCH  12  14
HETATM   14  C10 UNL     1      34.588   1.480 -17.896  1.00  0.00     0.120 A 
HETATM   15  N3  UNL     1      34.568   0.137 -17.822  1.00  0.00    -0.338 N 
HETATM   16  C9  UNL     1      34.230  -0.688 -18.797  1.00  0.00     0.182 A 
ATOM     17  H3  UNL     1      34.838  -0.283 -16.932  1.00  0.00     0.168 HD
HETATM   18  N2  UNL     1      33.879  -0.112 -19.961  1.00  0.00    -0.346 N 
HETATM   19  C8  UNL     1      33.875   1.256 -20.109  1.00  0.00     0.090 A 
ATOM     20  H2  UNL     1      33.610  -0.702 -20.749  1.00  0.00     0.167 HD
HETATM   21  S1  UNL     1      33.510   2.285 -21.415  1.00  0.00    -0.075 SA
HETATM   22  C26 UNL     1      34.222   2.122 -19.104  1.00  0.00     0.049 A 
HETATM   23  C7  UNL     1      33.797   3.790 -20.681  1.00  0.00    -0.006 A 
HETATM   24  C6  UNL     1      34.177   3.457 -19.411  1.00  0.00    -0.028 A 
HETATM   25  C27 UNL     1      33.705   5.181 -21.226  1.00  0.00     0.071 C 
HETATM   26  C5  UNL     1      34.486   4.615 -18.461  1.00  0.00     0.043 C 
HETATM   27  C4  UNL     1      33.585   5.758 -18.891  1.00  0.00     0.030 C 
HETATM   28  C3  UNL     1      34.145   6.195 -20.240  1.00  0.00     0.083 C 
BRANCH  28  29
HETATM   29  N1  UNL     1      33.725   7.526 -20.508  1.00  0.00    -0.416 N 
HETATM   30  C1  UNL     1      34.583   8.566 -20.056  1.00  0.00     0.143 C 
HETATM   31  C2  UNL     1      33.111   7.751 -21.777  1.00  0.00     0.143 C 
ENDBRANCH  28  29
ENDBRANCH  12  14
ENDBRANCH   1  12
BRANCH  11  32
HETATM   32  C18 UNL     1      39.723   4.207 -17.787  1.00  0.00     0.233 C 
BRANCH  32  33
HETATM   33  C19 UNL     1      39.844   3.416 -19.032  1.00  0.00     0.236 C 
HETATM   34  O1  UNL     1      40.958   2.992 -19.456  1.00  0.00    -0.272 OA
HETATM   35  N6  UNL     1      38.714   3.090 -19.824  1.00  0.00    -0.355 N 
ATOM     36  H6  UNL     1      37.796   3.417 -19.523  1.00  0.00     0.162 HD
BRANCH  35  37
HETATM   37  C20 UNL     1      38.807   2.302 -21.061  1.00  0.00     0.084 C 
HETATM   38  C21 UNL     1      37.577   2.496 -21.920  1.00  0.00     0.025 C 
HETATM   39  C22 UNL     1      37.173   1.270 -22.681  1.00  0.00     0.002 C 
HETATM   40  C23 UNL     1      36.923   0.083 -21.773  1.00  0.00     0.000 C 
HETATM   41  C24 UNL     1      37.461   0.385 -20.385  1.00  0.00     0.002 C 
HETATM   42  C25 UNL     1      38.894   0.850 -20.588  1.00  0.00     0.025 C 
ENDBRANCH  35  37
ENDBRANCH  32  33
ENDBRANCH  11  32
TORSDOF 6
ENDMDL
MODEL 2
REMARK VINA RESULT: -8.314722291      2.592      5.117
REMARK  6 active torsions:
REMARK  status: ('A' for Active; 'I' for Inactive)
REMARK    1  A    between atoms: N1_2  and  C3_4 
REMARK    2  A    between atoms: C10_16  and  N4_17 
REMARK    3  A    between atoms: N4_17  and  C11_19 
REMARK    4  A    between atoms: N5_29  and  C18_30 
REMARK    5  A    between atoms: C18_30  and  C19_31 
REMARK       I    between atoms: C19_31  and  N6_33 
REMARK    6  A    between atoms: N6_33  and  C20_35 
ROOT
HETATM    1  C11 UNL     1      35.087   0.296 -20.796  1.00  0.00     0.058 A 
HETATM    2  C12 UNL     1      36.437   0.381 -20.663  1.00  0.00     0.062 A 
HETATM    3  C13 UNL     1      37.300   0.310 -21.788  1.00  0.00     0.056 A 
HETATM    4  C14 UNL     1      36.667   0.153 -22.990  1.00  0.00     0.036 A 
HETATM    5  C15 UNL     1      35.268   0.067 -23.108  1.00  0.00     0.047 A 
HETATM    6  C16 UNL     1      34.449   0.138 -22.005  1.00  0.00     0.062 A 
HETATM    7 CL1  UNL     1      32.740   0.028 -22.220  1.00  0.00    -0.082 Cl
HETATM    8  S2  UNL     1      37.970   0.120 -24.093  1.00  0.00    -0.058 SA
HETATM    9  C17 UNL     1      39.241   0.306 -22.979  1.00  0.00     0.146 A 
HETATM   10  S3  UNL     1      40.871   0.382 -23.274  1.00  0.00    -0.052 SA
HETATM   11  N5  UNL     1      38.622   0.387 -21.804  1.00  0.00    -0.322 N 
ENDROOT
BRANCH   1  12
HETATM   12  N4  UNL     1      34.260   0.378 -19.653  1.00  0.00    -0.340 N 
ATOM     13  H4  UNL     1      33.294   0.069 -19.756  1.00  0.00     0.167 HD
BRANCH  12  14
HETATM   14  C10 UNL     1      34.618   0.809 -18.495  1.00  0.00     0.120 A 
HETATM   15  N3  UNL     1      35.020  -0.077 -17.566  1.00  0.00    -0.338 N 
HETATM   16  C9  UNL     1      35.391   0.210 -16.331  1.00  0.00     0.182 A 
ATOM     17  H3  UNL     1      35.039  -1.059 -17.839  1.00  0.00     0.168 HD
HETATM   18  N2  UNL     1      35.355   1.511 -15.992  1.00  0.00    -0.346 N 
HETATM   19  C8  UNL     1      34.955   2.473 -16.891  1.00  0.00     0.090 A 
ATOM     20  H2  UNL     1      35.630   1.791 -15.050  1.00  0.00     0.167 HD
HETATM   21  S1  UNL     1      34.783   4.164 -16.788  1.00  0.00    -0.075 SA
HETATM   22  C26 UNL     1      34.569   2.188 -18.176  1.00  0.00     0.049 A 
HETATM   23  C7  UNL     1      34.229   4.490 -18.361  1.00  0.00    -0.006 A 
HETATM   24  C6  UNL     1      34.190   3.255 -18.946  1.00  0.00    -0.028 A 
HETATM   25  C27 UNL     1      33.835   5.778 -19.015  1.00  0.00     0.071 C 
HETATM   26  C5  UNL     1      33.750   3.204 -20.410  1.00  0.00     0.043 C 
HETATM   27  C4  UNL     1      34.209   4.511 -21.030  1.00  0.00     0.030 C 
HETATM   28  C3  UNL     1      33.318   5.568 -20.388  1.00  0.00     0.083 C 
BRANCH  28  29
HETATM   29  N1  UNL     1      33.300   6.725 -21.213  1.00  0.00    -0.416 N 
HETATM   30  C1  UNL     1      32.222   6.831 -22.135  1.00  0.00     0.143 C 
HETATM   31  C2  UNL     1      33.695   7.949 -20.595  1.00  0.00     0.143 C 
ENDBRANCH  28  29
ENDBRANCH  12  14
ENDBRANCH   1  12
BRANCH  11  32
HETATM   32  C18 UNL     1      39.440   0.554 -20.566  1.00  0.00     0.233 C 
BRANCH  32  33
HETATM   33  C19 UNL     1      39.390   1.952 -20.083  1.00  0.00     0.236 C 
HETATM   34  O1  UNL     1      39.039   2.911 -20.830  1.00  0.00    -0.272 OA
HETATM   35  N6  UNL     1      39.735   2.297 -18.751  1.00  0.00    -0.355 N 
ATOM     36  H6  UNL     1      40.030   1.555 -18.116  1.00  0.00     0.162 HD
BRANCH  35  37
HETATM   37  C20 UNL     1      39.688   3.676 -18.246  1.00  0.00     0.084 C 
HETATM   38  C21 UNL     1      40.908   3.987 -17.407  1.00  0.00     0.025 C 
HETATM   39  C22 UNL     1      40.632   4.914 -16.262  1.00  0.00     0.002 C 
HETATM   40  C23 UNL     1      39.554   4.385 -15.338  1.00  0.00     0.000 C 
HETATM   41  C24 UNL     1      38.839   3.225 -16.006  1.00  0.00     0.002 C 
HETATM   42  C25 UNL     1      38.428   3.727 -17.381  1.00  0.00     0.025 C 
ENDBRANCH  35  37
ENDBRANCH  32  33
ENDBRANCH  11  32
TORSDOF 6
ENDMDL
MODEL 3
REMARK VINA RESULT: -8.074346068      3.563      8.753
REMARK  6 active torsions:
REMARK  status: ('A' for Active; 'I' for Inactive)
REMARK    1  A    between atoms: N1_2  and  C3_4 
REMARK    2  A    between atoms: C10_16  and  N4_17 
REMARK    3  A    between atoms: N4_17  and  C11_19 
REMARK    4  A    between atoms: N5_29  and  C18_30 
REMARK    5  A    between atoms: C18_30  and  C19_31 
REMARK       I    between atoms: C19_31  and  N6_33 
REMARK    6  A    between atoms: N6_33  and  C20_35 
ROOT
HETATM    1  C11 UNL     1      38.012   0.600 -16.283  1.00  0.00     0.058 A 
HETATM    2  C12 UNL     1      36.965   1.314 -16.777  1.00  0.00     0.062 A 
HETATM    3  C13 UNL     1      36.280   0.909 -17.953  1.00  0.00     0.056 A 
HETATM    4  C14 UNL     1      36.756  -0.234 -18.532  1.00  0.00     0.036 A 
HETATM    5  C15 UNL     1      37.842  -0.960 -18.006  1.00  0.00     0.047 A 
HETATM    6  C16 UNL     1      38.492  -0.551 -16.865  1.00  0.00     0.062 A 
HETATM    7 CL1  UNL     1      39.815  -1.488 -16.273  1.00  0.00    -0.082 Cl
HETATM    8  S2  UNL     1      35.722  -0.427 -19.876  1.00  0.00    -0.058 SA
HETATM    9  C17 UNL     1      34.746   0.944 -19.636  1.00  0.00     0.146 A 
HETATM   10  S3  UNL     1      33.463   1.473 -20.544  1.00  0.00    -0.052 SA
HETATM   11  N5  UNL     1      35.248   1.499 -18.535  1.00  0.00    -0.322 N 
ENDROOT
BRANCH   1  12
HETATM   12  N4  UNL     1      38.664   1.030 -15.106  1.00  0.00    -0.340 N 
ATOM     13  H4  UNL     1      39.546   1.529 -15.219  1.00  0.00     0.167 HD
BRANCH  12  14
HETATM   14  C10 UNL     1      38.244   0.848 -13.904  1.00  0.00     0.120 A 
HETATM   15  N3  UNL     1      36.921   0.889 -13.662  1.00  0.00    -0.338 N 
HETATM   16  C9  UNL     1      36.344   0.746 -12.483  1.00  0.00     0.182 A 
ATOM     17  H3  UNL     1      36.308   1.045 -14.463  1.00  0.00     0.168 HD
HETATM   18  N2  UNL     1      37.172   0.543 -11.442  1.00  0.00    -0.346 N 
HETATM   19  C8  UNL     1      38.536   0.489 -11.614  1.00  0.00     0.090 A 
ATOM     20  H2  UNL     1      36.781   0.427 -10.507  1.00  0.00     0.167 HD
HETATM   21  S1  UNL     1      39.838   0.270 -10.539  1.00  0.00    -0.075 SA
HETATM   22  C26 UNL     1      39.147   0.635 -12.834  1.00  0.00     0.049 A 
HETATM   23  C7  UNL     1      41.132   0.363 -11.635  1.00  0.00    -0.006 A 
HETATM   24  C6  UNL     1      40.515   0.565 -12.839  1.00  0.00    -0.028 A 
HETATM   25  C27 UNL     1      42.611   0.280 -11.418  1.00  0.00     0.071 C 
HETATM   26  C5  UNL     1      41.422   0.665 -14.066  1.00  0.00     0.043 C 
HETATM   27  C4  UNL     1      42.619  -0.220 -13.774  1.00  0.00     0.030 C 
HETATM   28  C3  UNL     1      43.371   0.512 -12.669  1.00  0.00     0.083 C 
BRANCH  28  29
HETATM   29  N1  UNL     1      44.720   0.067 -12.651  1.00  0.00    -0.416 N 
HETATM   30  C1  UNL     1      45.534   0.547 -11.588  1.00  0.00     0.143 C 
HETATM   31  C2  UNL     1      44.942  -1.294 -13.020  1.00  0.00     0.143 C 
ENDBRANCH  28  29
ENDBRANCH  12  14
ENDBRANCH   1  12
BRANCH  11  32
HETATM   32  C18 UNL     1      34.631   2.755 -18.013  1.00  0.00     0.233 C 
BRANCH  32  33
HETATM   33  C19 UNL     1      35.056   3.926 -18.811  1.00  0.00     0.236 C 
HETATM   34  O1  UNL     1      36.267   4.131 -19.115  1.00  0.00    -0.272 OA
HETATM   35  N6  UNL     1      34.128   4.890 -19.279  1.00  0.00    -0.355 N 
ATOM     36  H6  UNL     1      33.141   4.768 -19.052  1.00  0.00     0.162 HD
BRANCH  35  37
HETATM   37  C20 UNL     1      34.524   6.059 -20.078  1.00  0.00     0.084 C 
HETATM   38  C21 UNL     1      33.756   7.291 -19.654  1.00  0.00     0.025 C 
HETATM   39  C22 UNL     1      33.443   8.225 -20.783  1.00  0.00     0.002 C 
HETATM   40  C23 UNL     1      32.664   7.550 -21.893  1.00  0.00     0.000 C 
HETATM   41  C24 UNL     1      32.698   6.046 -21.693  1.00  0.00     0.002 C 
HETATM   42  C25 UNL     1      34.165   5.684 -21.516  1.00  0.00     0.025 C 
ENDBRANCH  35  37
ENDBRANCH  32  33
ENDBRANCH  11  32
TORSDOF 6
ENDMDL
MODEL 4
REMARK VINA RESULT: -7.965212191      3.640      7.334
REMARK  6 active torsions:
REMARK  status: ('A' for Active; 'I' for Inactive)
REMARK    1  A    between atoms: N1_2  and  C3_4 
REMARK    2  A    between atoms: C10_16  and  N4_17 
REMARK    3  A    between atoms: N4_17  and  C11_19 
REMARK    4  A    between atoms: N5_29  and  C18_30 
REMARK    5  A    between atoms: C18_30  and  C19_31 
REMARK       I    between atoms: C19_31  and  N6_33 
REMARK    6  A    between atoms: N6_33  and  C20_35 
ROOT
HETATM    1  C11 UNL     1      37.576   1.331 -21.309  1.00  0.00     0.058 A 
HETATM    2  C12 UNL     1      36.779   1.708 -20.273  1.00  0.00     0.062 A 
HETATM    3  C13 UNL     1      37.318   2.024 -18.998  1.00  0.00     0.056 A 
HETATM    4  C14 UNL     1      38.678   1.919 -18.906  1.00  0.00     0.036 A 
HETATM    5  C15 UNL     1      39.487   1.528 -19.989  1.00  0.00     0.047 A 
HETATM    6  C16 UNL     1      38.945   1.225 -21.217  1.00  0.00     0.062 A 
HETATM    7 CL1  UNL     1      39.994   0.753 -22.504  1.00  0.00    -0.082 Cl
HETATM    8  S2  UNL     1      38.976   2.372 -17.288  1.00  0.00    -0.058 SA
HETATM    9  C17 UNL     1      37.370   2.669 -16.815  1.00  0.00     0.146 A 
HETATM   10  S3  UNL     1      36.802   3.171 -15.340  1.00  0.00    -0.052 SA
HETATM   11  N5  UNL     1      36.665   2.410 -17.914  1.00  0.00    -0.322 N 
ENDROOT
BRANCH   1  12
HETATM   12  N4  UNL     1      37.003   1.031 -22.565  1.00  0.00    -0.340 N 
ATOM     13  H4  UNL     1      37.637   0.970 -23.362  1.00  0.00     0.167 HD
BRANCH  12  14
HETATM   14  C10 UNL     1      35.754   0.829 -22.793  1.00  0.00     0.120 A 
HETATM   15  N3  UNL     1      34.944   1.889 -22.969  1.00  0.00    -0.338 N 
HETATM   16  C9  UNL     1      33.642   1.841 -23.186  1.00  0.00     0.182 A 
ATOM     17  H3  UNL     1      35.374   2.813 -22.931  1.00  0.00     0.168 HD
HETATM   18  N2  UNL     1      33.096   0.612 -23.230  1.00  0.00    -0.346 N 
HETATM   19  C8  UNL     1      33.863  -0.517 -23.059  1.00  0.00     0.090 A 
ATOM     20  H2  UNL     1      32.093   0.516 -23.393  1.00  0.00     0.167 HD
HETATM   21  S1  UNL     1      33.500  -2.180 -23.041  1.00  0.00    -0.075 SA
HETATM   22  C26 UNL     1      35.216  -0.481 -22.836  1.00  0.00     0.049 A 
HETATM   23  C7  UNL     1      35.052  -2.808 -22.753  1.00  0.00    -0.006 A 
HETATM   24  C6  UNL     1      35.837  -1.691 -22.677  1.00  0.00    -0.028 A 
HETATM   25  C27 UNL     1      35.525  -4.218 -22.585  1.00  0.00     0.071 C 
HETATM   26  C5  UNL     1      37.332  -1.918 -22.448  1.00  0.00     0.043 C 
HETATM   27  C4  UNL     1      37.661  -3.240 -23.117  1.00  0.00     0.030 C 
HETATM   28  C3  UNL     1      36.967  -4.285 -22.252  1.00  0.00     0.083 C 
BRANCH  28  29
HETATM   29  N1  UNL     1      37.582  -5.548 -22.466  1.00  0.00    -0.416 N 
HETATM   30  C1  UNL     1      36.712  -6.666 -22.589  1.00  0.00     0.143 C 
HETATM   31  C2  UNL     1      38.715  -5.561 -23.334  1.00  0.00     0.143 C 
ENDBRANCH  28  29
ENDBRANCH  12  14
ENDBRANCH   1  12
BRANCH  11  32
HETATM   32  C18 UNL     1      35.179   2.563 -17.872  1.00  0.00     0.233 C 
BRANCH  32  33
HETATM   33  C19 UNL     1      34.785   3.970 -18.106  1.00  0.00     0.236 C 
HETATM   34  O1  UNL     1      34.619   4.790 -17.157  1.00  0.00    -0.272 OA
HETATM   35  N6  UNL     1      34.567   4.479 -19.411  1.00  0.00    -0.355 N 
ATOM     36  H6  UNL     1      34.684   3.851 -20.206  1.00  0.00     0.162 HD
BRANCH  35  37
HETATM   37  C20 UNL     1      34.181   5.873 -19.670  1.00  0.00     0.084 C 
HETATM   38  C21 UNL     1      32.742   6.119 -19.274  1.00  0.00     0.025 C 
HETATM   39  C22 UNL     1      32.032   7.099 -20.158  1.00  0.00     0.002 C 
HETATM   40  C23 UNL     1      32.050   6.683 -21.614  1.00  0.00     0.000 C 
HETATM   41  C24 UNL     1      33.052   5.559 -21.807  1.00  0.00     0.002 C 
HETATM   42  C25 UNL     1      34.348   6.047 -21.180  1.00  0.00     0.025 C 
ENDBRANCH  35  37
ENDBRANCH  32  33
ENDBRANCH  11  32
TORSDOF 6
ENDMDL
MODEL 5
REMARK VINA RESULT: -7.955667670      1.228      1.603
REMARK  6 active torsions:
REMARK  status: ('A' for Active; 'I' for Inactive)
REMARK    1  A    between atoms: N1_2  and  C3_4 
REMARK    2  A    between atoms: C10_16  and  N4_17 
REMARK    3  A    between atoms: N4_17  and  C11_19 
REMARK    4  A    between atoms: N5_29  and  C18_30 
REMARK    5  A    between atoms: C18_30  and  C19_31 
REMARK       I    between atoms: C19_31  and  N6_33 
REMARK    6  A    between atoms: N6_33  and  C20_35 
ROOT
HETATM    1  C11 UNL     1      36.321   1.379 -16.578  1.00  0.00     0.058 A 
HETATM    2  C12 UNL     1      37.431   1.742 -17.275  1.00  0.00     0.062 A 
HETATM    3  C13 UNL     1      38.724   1.689 -16.690  1.00  0.00     0.056 A 
HETATM    4  C14 UNL     1      38.754   1.249 -15.396  1.00  0.00     0.036 A 
HETATM    5  C15 UNL     1      37.594   0.877 -14.691  1.00  0.00     0.047 A 
HETATM    6  C16 UNL     1      36.350   0.936 -15.275  1.00  0.00     0.062 A 
HETATM    7 CL1  UNL     1      34.968   0.464 -14.355  1.00  0.00    -0.082 Cl
HETATM    8  S2  UNL     1      40.419   1.298 -15.026  1.00  0.00    -0.058 SA
HETATM    9  C17 UNL     1      40.988   1.869 -16.523  1.00  0.00     0.146 A 
HETATM   10  S3  UNL     1      42.550   2.183 -16.984  1.00  0.00    -0.052 SA
HETATM   11  N5  UNL     1      39.882   2.002 -17.251  1.00  0.00    -0.322 N 
ENDROOT
BRANCH   1  12
HETATM   12  N4  UNL     1      35.052   1.438 -17.196  1.00  0.00    -0.340 N 
ATOM     13  H4  UNL     1      34.384   2.112 -16.822  1.00  0.00     0.167 HD
BRANCH  12  14
HETATM   14  C10 UNL     1      34.664   0.717 -18.188  1.00  0.00     0.120 A 
HETATM   15  N3  UNL     1      34.644  -0.621 -18.053  1.00  0.00    -0.338 N 
HETATM   16  C9  UNL     1      34.295  -1.489 -18.986  1.00  0.00     0.182 A 
ATOM     17  H3  UNL     1      34.924  -1.000 -17.149  1.00  0.00     0.168 HD
HETATM   18  N2  UNL     1      33.932  -0.966 -20.171  1.00  0.00    -0.346 N 
HETATM   19  C8  UNL     1      33.927   0.393 -20.381  1.00  0.00     0.090 A 
ATOM     20  H2  UNL     1      33.654  -1.591 -20.929  1.00  0.00     0.167 HD
HETATM   21  S1  UNL     1      33.547   1.363 -21.728  1.00  0.00    -0.075 SA
HETATM   22  C26 UNL     1      34.285   1.305 -19.420  1.00  0.00     0.049 A 
HETATM   23  C7  UNL     1      33.842   2.899 -21.067  1.00  0.00    -0.006 A 
HETATM   24  C6  UNL     1      34.236   2.623 -19.787  1.00  0.00    -0.028 A 
HETATM   25  C27 UNL     1      33.745   4.264 -21.673  1.00  0.00     0.071 C 
HETATM   26  C5  UNL     1      34.556   3.824 -18.894  1.00  0.00     0.043 C 
HETATM   27  C4  UNL     1      33.651   4.947 -19.365  1.00  0.00     0.030 C 
HETATM   28  C3  UNL     1      34.196   5.322 -20.738  1.00  0.00     0.083 C 
BRANCH  28  29
HETATM   29  N1  UNL     1      33.773   6.639 -21.062  1.00  0.00    -0.416 N 
HETATM   30  C1  UNL     1      32.497   6.764 -21.676  1.00  0.00     0.143 C 
HETATM   31  C2  UNL     1      34.096   7.657 -20.115  1.00  0.00     0.143 C 
ENDBRANCH  28  29
ENDBRANCH  12  14
ENDBRANCH   1  12
BRANCH  11  32
HETATM   32  C18 UNL     1      39.996   2.498 -18.655  1.00  0.00     0.233 C 
BRANCH  32  33
HETATM   33  C19 UNL     1      39.880   1.383 -19.622  1.00  0.00     0.236 C 
HETATM   34  O1  UNL     1      40.661   0.388 -19.600  1.00  0.00    -0.272 OA
HETATM   35  N6  UNL     1      38.885   1.369 -20.632  1.00  0.00    -0.355 N 
ATOM     36  H6  UNL     1      38.238   2.156 -20.691  1.00  0.00     0.162 HD
BRANCH  35  37
HETATM   37  C20 UNL     1      38.746   0.272 -21.600  1.00  0.00     0.084 C 
HETATM   38  C21 UNL     1      39.575   0.533 -22.838  1.00  0.00     0.025 C 
HETATM   39  C22 UNL     1      38.951   0.022 -24.101  1.00  0.00     0.002 C 
HETATM   40  C23 UNL     1      37.569   0.598 -24.336  1.00  0.00     0.000 C 
HETATM   41  C24 UNL     1      37.082   1.279 -23.070  1.00  0.00     0.002 C 
HETATM   42  C25 UNL     1      37.259   0.258 -21.956  1.00  0.00     0.025 C 
ENDBRANCH  35  37
ENDBRANCH  32  33
ENDBRANCH  11  32
TORSDOF 6
ENDMDL
