MODEL 1
REMARK VINA RESULT: -9.383011908      0.000      0.000
REMARK  9 active torsions:
REMARK  status: ('A' for Active; 'I' for Inactive)
REMARK    1  A    between atoms: C2_2  and  O2_4 
REMARK    2  A    between atoms: O2_4  and  C3_5 
REMARK    3  A    between atoms: C10_13  and  C11_14 
REMARK    4  A    between atoms: C11_14  and  C12_15 
REMARK    5  A    between atoms: C12_15  and  C13_16 
REMARK    6  A    between atoms: C24_32  and  O4_33 
REMARK    7  A    between atoms: C24_32  and  C25_35 
REMARK    8  A    between atoms: C26_36  and  C27_37 
REMARK    9  A    between atoms: C30_41  and  O6_42 
ROOT
HETATM    1  C3  UNL     1      39.019   0.599 -13.747  1.00  0.00     0.144 C 
HETATM    2  C4  UNL     1      38.250   1.770 -14.394  1.00  0.00     0.039 C 
HETATM    3  C5  UNL     1      37.986   1.299 -15.819  1.00  0.00     0.003 C 
HETATM    4  C6  UNL     1      39.290   1.582 -16.574  1.00  0.00    -0.004 C 
HETATM    5  C7  UNL     1      39.132   0.967 -17.918  1.00  0.00     0.008 C 
HETATM    6  C8  UNL     1      38.012   1.666 -18.643  1.00  0.00     0.033 C 
HETATM    7  C9  UNL     1      37.139   2.516 -17.793  1.00  0.00     0.131 C 
HETATM    8  O3  UNL     1      36.024   2.881 -18.535  1.00  0.00    -0.376 OA
HETATM    9  C10 UNL     1      35.112   1.902 -18.765  1.00  0.00     0.144 C 
HETATM   10  C17 UNL     1      34.642   1.185 -17.527  1.00  0.00     0.037 C 
HETATM   11  C18 UNL     1      35.692   0.910 -16.533  1.00  0.00     0.015 C 
HETATM   12  C19 UNL     1      36.799   1.925 -16.449  1.00  0.00    -0.014 C 
HETATM   13  C20 UNL     1      36.246   3.085 -15.609  1.00  0.00     0.018 C 
HETATM   14  C21 UNL     1      40.408   1.206 -15.747  1.00  0.00     0.004 C 
HETATM   15  C22 UNL     1      41.568   0.503 -16.398  1.00  0.00     0.009 C 
HETATM   16  C23 UNL     1      42.419   0.201 -15.171  1.00  0.00     0.043 C 
HETATM   17  C24 UNL     1      41.556   0.392 -13.942  1.00  0.00     0.086 C 
HETATM   18  C31 UNL     1      40.160   0.241 -14.612  1.00  0.00     0.021 C 
HETATM   19  C32 UNL     1      40.124  -1.202 -15.053  1.00  0.00     0.022 C 
ENDROOT
BRANCH   9  20
HETATM   20  C11 UNL     1      33.885   2.578 -19.332  1.00  0.00     0.006 C 
BRANCH  20  21
HETATM   21  C12 UNL     1      33.655   2.672 -20.599  1.00  0.00     0.014 C 
BRANCH  21  22
HETATM   22  C13 UNL     1      33.652   1.527 -21.474  1.00  0.00     0.018 A 
HETATM   23  C14 UNL     1      32.725   0.541 -21.383  1.00  0.00     0.103 A 
HETATM   24  N1  UNL     1      32.748  -0.541 -22.233  1.00  0.00    -0.361 N 
HETATM   25  C15 UNL     1      33.707  -0.614 -23.166  1.00  0.00     0.181 A 
ATOM     26  H1  UNL     1      32.045  -1.277 -22.154  1.00  0.00     0.166 HD
HETATM   27  N2  UNL     1      34.639   0.343 -23.284  1.00  0.00    -0.342 N 
HETATM   28  C16 UNL     1      34.638   1.413 -22.463  1.00  0.00     0.116 A 
ATOM     29  H2  UNL     1      35.358   0.260 -24.004  1.00  0.00     0.167 HD
HETATM   30 CL1  UNL     1      35.821   2.690 -22.565  1.00  0.00    -0.064 Cl
ENDBRANCH  21  22
ENDBRANCH  20  21
ENDBRANCH   9  20
BRANCH   1  31
HETATM   31  O2  UNL     1      39.227   0.755 -12.401  1.00  0.00    -0.315 OA
BRANCH  31  32
HETATM   32  C2  UNL     1      38.450   0.193 -11.407  1.00  0.00     0.255 C 
HETATM   33  C1  UNL     1      38.751  -1.080 -10.733  1.00  0.00     0.126 C 
HETATM   34  O1  UNL     1      37.431   0.860 -11.100  1.00  0.00    -0.266 OA
ENDBRANCH  31  32
ENDBRANCH   1  31
BRANCH  17  35
HETATM   35  O4  UNL     1      41.730   1.647 -13.472  1.00  0.00    -0.385 OA
ATOM     36  H4  UNL     1      41.555   1.655 -12.539  1.00  0.00     0.211 HD
ENDBRANCH  17  35
BRANCH  17  37
HETATM   37  C25 UNL     1      41.718  -0.704 -12.973  1.00  0.00     0.012 C 
HETATM   38  C26 UNL     1      42.694  -1.003 -12.232  1.00  0.00     0.015 C 
BRANCH  38  39
HETATM   39  C27 UNL     1      44.008  -0.490 -11.978  1.00  0.00     0.024 A 
HETATM   40  C28 UNL     1      45.212  -0.812 -12.528  1.00  0.00     0.041 A 
HETATM   41  C29 UNL     1      46.179   0.005 -11.927  1.00  0.00     0.145 A 
HETATM   42  O5  UNL     1      45.578   0.754 -11.082  1.00  0.00    -0.300 OA
HETATM   43  C30 UNL     1      44.306   0.535 -11.042  1.00  0.00     0.193 A 
BRANCH  43  44
HETATM   44  O6  UNL     1      43.369   1.184 -10.228  1.00  0.00    -0.340 OA
ATOM     45  H6  UNL     1      43.105   2.092 -10.313  1.00  0.00     0.220 HD
ENDBRANCH  43  44
ENDBRANCH  38  39
ENDBRANCH  17  37
TORSDOF 9
ENDMDL
MODEL 2
REMARK VINA RESULT: -9.371675217      2.958      3.710
REMARK  9 active torsions:
REMARK  status: ('A' for Active; 'I' for Inactive)
REMARK    1  A    between atoms: C2_2  and  O2_4 
REMARK    2  A    between atoms: O2_4  and  C3_5 
REMARK    3  A    between atoms: C10_13  and  C11_14 
REMARK    4  A    between atoms: C11_14  and  C12_15 
REMARK    5  A    between atoms: C12_15  and  C13_16 
REMARK    6  A    between atoms: C24_32  and  O4_33 
REMARK    7  A    between atoms: C24_32  and  C25_35 
REMARK    8  A    between atoms: C26_36  and  C27_37 
REMARK    9  A    between atoms: C30_41  and  O6_42 
ROOT
HETATM    1  C3  UNL     1      37.177   1.391 -14.891  1.00  0.00     0.144 C 
HETATM    2  C4  UNL     1      36.634   2.659 -15.584  1.00  0.00     0.039 C 
HETATM    3  C5  UNL     1      36.735   2.341 -17.072  1.00  0.00     0.003 C 
HETATM    4  C6  UNL     1      38.198   2.624 -17.436  1.00  0.00    -0.004 C 
HETATM    5  C7  UNL     1      38.375   2.149 -18.833  1.00  0.00     0.008 C 
HETATM    6  C8  UNL     1      37.500   2.974 -19.740  1.00  0.00     0.033 C 
HETATM    7  C9  UNL     1      36.461   3.784 -19.056  1.00  0.00     0.131 C 
HETATM    8  O3  UNL     1      35.586   4.278 -20.013  1.00  0.00    -0.376 OA
HETATM    9  C10 UNL     1      34.739   3.377 -20.570  1.00  0.00     0.144 C 
HETATM   10  C17 UNL     1      33.945   2.571 -19.576  1.00  0.00     0.037 C 
HETATM   11  C18 UNL     1      34.694   2.146 -18.382  1.00  0.00     0.015 C 
HETATM   12  C19 UNL     1      35.769   3.087 -17.912  1.00  0.00    -0.014 C 
HETATM   13  C20 UNL     1      35.050   4.190 -17.123  1.00  0.00     0.018 C 
HETATM   14  C21 UNL     1      39.052   2.110 -16.396  1.00  0.00     0.004 C 
HETATM   15  C22 UNL     1      40.321   1.411 -16.801  1.00  0.00     0.009 C 
HETATM   16  C23 UNL     1      40.817   0.948 -15.438  1.00  0.00     0.043 C 
HETATM   17  C24 UNL     1      39.671   1.067 -14.455  1.00  0.00     0.086 C 
HETATM   18  C31 UNL     1      38.492   1.056 -15.471  1.00  0.00     0.021 C 
HETATM   19  C32 UNL     1      38.532  -0.333 -16.057  1.00  0.00     0.022 C 
ENDROOT
BRANCH   9  20
HETATM   20  C11 UNL     1      33.719   4.168 -21.356  1.00  0.00     0.006 C 
BRANCH  20  21
HETATM   21  C12 UNL     1      33.725   5.458 -21.418  1.00  0.00     0.014 C 
BRANCH  21  22
HETATM   22  C13 UNL     1      32.816   6.275 -20.655  1.00  0.00     0.018 A 
HETATM   23  C14 UNL     1      32.780   6.258 -19.299  1.00  0.00     0.103 A 
HETATM   24  N1  UNL     1      31.899   7.050 -18.598  1.00  0.00    -0.361 N 
HETATM   25  C15 UNL     1      31.065   7.852 -19.275  1.00  0.00     0.181 A 
ATOM     26  H1  UNL     1      31.882   7.027 -17.578  1.00  0.00     0.166 HD
HETATM   27  N2  UNL     1      31.074   7.894 -20.615  1.00  0.00    -0.342 N 
HETATM   28  C16 UNL     1      31.927   7.127 -21.325  1.00  0.00     0.116 A 
ATOM     29  H2  UNL     1      30.427   8.514 -21.104  1.00  0.00     0.167 HD
HETATM   30 CL1  UNL     1      31.988   7.136 -23.068  1.00  0.00    -0.064 Cl
ENDBRANCH  21  22
ENDBRANCH  20  21
ENDBRANCH   9  20
BRANCH   1  31
HETATM   31  O2  UNL     1      37.034   1.407 -13.528  1.00  0.00    -0.315 OA
BRANCH  31  32
HETATM   32  C2  UNL     1      36.153   0.620 -12.812  1.00  0.00     0.255 C 
HETATM   33  C1  UNL     1      34.840   0.177 -13.306  1.00  0.00     0.126 C 
HETATM   34  O1  UNL     1      36.557   0.291 -11.668  1.00  0.00    -0.266 OA
ENDBRANCH  31  32
ENDBRANCH   1  31
BRANCH  17  35
HETATM   35  O4  UNL     1      39.753   2.260 -13.826  1.00  0.00    -0.385 OA
ATOM     36  H4  UNL     1      38.939   2.422 -13.364  1.00  0.00     0.211 HD
ENDBRANCH  17  35
BRANCH  17  37
HETATM   37  C25 UNL     1      39.547  -0.123 -13.598  1.00  0.00     0.012 C 
HETATM   38  C26 UNL     1      40.348  -0.612 -12.755  1.00  0.00     0.015 C 
BRANCH  38  39
HETATM   39  C27 UNL     1      41.652  -0.298 -12.250  1.00  0.00     0.024 A 
HETATM   40  C28 UNL     1      42.847  -0.930 -12.413  1.00  0.00     0.041 A 
HETATM   41  C29 UNL     1      43.811  -0.192 -11.713  1.00  0.00     0.145 A 
HETATM   42  O5  UNL     1      43.216   0.804 -11.176  1.00  0.00    -0.300 OA
HETATM   43  C30 UNL     1      41.952   0.826 -11.435  1.00  0.00     0.193 A 
BRANCH  43  44
HETATM   44  O6  UNL     1      41.022   1.779 -11.000  1.00  0.00    -0.340 OA
ATOM     45  H6  UNL     1      40.608   1.790 -10.145  1.00  0.00     0.220 HD
ENDBRANCH  43  44
ENDBRANCH  38  39
ENDBRANCH  17  37
TORSDOF 9
ENDMDL
MODEL 3
REMARK VINA RESULT: -9.319302016      6.008     10.007
REMARK  9 active torsions:
REMARK  status: ('A' for Active; 'I' for Inactive)
REMARK    1  A    between atoms: C2_2  and  O2_4 
REMARK    2  A    between atoms: O2_4  and  C3_5 
REMARK    3  A    between atoms: C10_13  and  C11_14 
REMARK    4  A    between atoms: C11_14  and  C12_15 
REMARK    5  A    between atoms: C12_15  and  C13_16 
REMARK    6  A    between atoms: C24_32  and  O4_33 
REMARK    7  A    between atoms: C24_32  and  C25_35 
REMARK    8  A    between atoms: C26_36  and  C27_37 
REMARK    9  A    between atoms: C30_41  and  O6_42 
ROOT
HETATM    1  C3  UNL     1      36.541   2.594 -19.966  1.00  0.00     0.144 C 
HETATM    2  C4  UNL     1      36.523   1.172 -19.367  1.00  0.00     0.039 C 
HETATM    3  C5  UNL     1      36.716   0.259 -20.572  1.00  0.00     0.003 C 
HETATM    4  C6  UNL     1      35.324   0.139 -21.202  1.00  0.00    -0.004 C 
HETATM    5  C7  UNL     1      35.510  -0.593 -22.482  1.00  0.00     0.008 C 
HETATM    6  C8  UNL     1      36.006  -1.982 -22.179  1.00  0.00     0.033 C 
HETATM    7  C9  UNL     1      36.504  -2.191 -20.795  1.00  0.00     0.131 C 
HETATM    8  O3  UNL     1      37.152  -3.417 -20.741  1.00  0.00    -0.376 OA
HETATM    9  C10 UNL     1      38.361  -3.481 -21.352  1.00  0.00     0.144 C 
HETATM   10  C17 UNL     1      39.333  -2.413 -20.925  1.00  0.00     0.037 C 
HETATM   11  C18 UNL     1      38.743  -1.078 -20.732  1.00  0.00     0.015 C 
HETATM   12  C19 UNL     1      37.323  -1.053 -20.241  1.00  0.00    -0.014 C 
HETATM   13  C20 UNL     1      37.394  -1.288 -18.725  1.00  0.00     0.018 C 
HETATM   14  C21 UNL     1      34.694   1.435 -21.209  1.00  0.00     0.004 C 
HETATM   15  C22 UNL     1      33.916   1.840 -22.430  1.00  0.00     0.009 C 
HETATM   16  C23 UNL     1      33.552   3.270 -22.054  1.00  0.00     0.043 C 
HETATM   17  C24 UNL     1      34.425   3.685 -20.889  1.00  0.00     0.086 C 
HETATM   18  C31 UNL     1      35.575   2.655 -21.081  1.00  0.00     0.021 C 
HETATM   19  C32 UNL     1      36.217   3.066 -22.383  1.00  0.00     0.022 C 
ENDROOT
BRANCH   9  20
HETATM   20  C11 UNL     1      38.989  -4.790 -20.934  1.00  0.00     0.006 C 
BRANCH  20  21
HETATM   21  C12 UNL     1      38.645  -5.928 -21.437  1.00  0.00     0.014 C 
BRANCH  21  22
HETATM   22  C13 UNL     1      38.990  -6.319 -22.781  1.00  0.00     0.018 A 
HETATM   23  C14 UNL     1      40.274  -6.386 -23.215  1.00  0.00     0.103 A 
HETATM   24  N1  UNL     1      40.572  -6.762 -24.506  1.00  0.00    -0.361 N 
HETATM   25  C15 UNL     1      39.570  -7.066 -25.342  1.00  0.00     0.181 A 
ATOM     26  H1  UNL     1      41.542  -6.808 -24.820  1.00  0.00     0.166 HD
HETATM   27  N2  UNL     1      38.291  -7.010 -24.946  1.00  0.00    -0.342 N 
HETATM   28  C16 UNL     1      37.972  -6.645 -23.687  1.00  0.00     0.116 A 
ATOM     29  H2  UNL     1      37.548  -7.247 -25.605  1.00  0.00     0.167 HD
HETATM   30 CL1  UNL     1      36.328  -6.553 -23.111  1.00  0.00    -0.064 Cl
ENDBRANCH  21  22
ENDBRANCH  20  21
ENDBRANCH   9  20
BRANCH   1  31
HETATM   31  O2  UNL     1      36.532   3.588 -19.022  1.00  0.00    -0.315 OA
BRANCH  31  32
HETATM   32  C2  UNL     1      36.320   3.399 -17.671  1.00  0.00     0.255 C 
HETATM   33  C1  UNL     1      37.373   3.062 -16.700  1.00  0.00     0.126 C 
HETATM   34  O1  UNL     1      35.125   3.536 -17.305  1.00  0.00    -0.266 OA
ENDBRANCH  31  32
ENDBRANCH   1  31
BRANCH  17  35
HETATM   35  O4  UNL     1      33.760   3.454 -19.735  1.00  0.00    -0.385 OA
ATOM     36  H4  UNL     1      34.054   4.074 -19.079  1.00  0.00     0.211 HD
ENDBRANCH  17  35
BRANCH  17  37
HETATM   37  C25 UNL     1      34.987   5.034 -21.067  1.00  0.00     0.012 C 
HETATM   38  C26 UNL     1      34.468   6.168 -20.874  1.00  0.00     0.015 C 
BRANCH  38  39
HETATM   39  C27 UNL     1      33.203   6.676 -20.432  1.00  0.00     0.024 A 
HETATM   40  C28 UNL     1      32.179   7.245 -21.126  1.00  0.00     0.041 A 
HETATM   41  C29 UNL     1      31.167   7.551 -20.206  1.00  0.00     0.145 A 
HETATM   42  O5  UNL     1      31.576   7.186 -19.051  1.00  0.00    -0.300 OA
HETATM   43  C30 UNL     1      32.756   6.663 -19.084  1.00  0.00     0.193 A 
BRANCH  43  44
HETATM   44  O6  UNL     1      33.483   6.164 -17.996  1.00  0.00    -0.340 OA
ATOM     45  H6  UNL     1      34.167   6.633 -17.533  1.00  0.00     0.220 HD
ENDBRANCH  43  44
ENDBRANCH  38  39
ENDBRANCH  17  37
TORSDOF 9
ENDMDL
MODEL 4
REMARK VINA RESULT: -9.291525703      1.850      3.595
REMARK  9 active torsions:
REMARK  status: ('A' for Active; 'I' for Inactive)
REMARK    1  A    between atoms: C2_2  and  O2_4 
REMARK    2  A    between atoms: O2_4  and  C3_5 
REMARK    3  A    between atoms: C10_13  and  C11_14 
REMARK    4  A    between atoms: C11_14  and  C12_15 
REMARK    5  A    between atoms: C12_15  and  C13_16 
REMARK    6  A    between atoms: C24_32  and  O4_33 
REMARK    7  A    between atoms: C24_32  and  C25_35 
REMARK    8  A    between atoms: C26_36  and  C27_37 
REMARK    9  A    between atoms: C30_41  and  O6_42 
ROOT
HETATM    1  C3  UNL     1      39.066   2.100 -15.752  1.00  0.00     0.144 C 
HETATM    2  C4  UNL     1      38.499   1.476 -17.044  1.00  0.00     0.039 C 
HETATM    3  C5  UNL     1      37.073   2.011 -17.120  1.00  0.00     0.003 C 
HETATM    4  C6  UNL     1      36.264   1.105 -16.186  1.00  0.00    -0.004 C 
HETATM    5  C7  UNL     1      34.909   1.711 -16.093  1.00  0.00     0.008 C 
HETATM    6  C8  UNL     1      34.267   1.671 -17.454  1.00  0.00     0.033 C 
HETATM    7  C9  UNL     1      35.187   1.383 -18.584  1.00  0.00     0.131 C 
HETATM    8  O3  UNL     1      34.515   1.629 -19.773  1.00  0.00    -0.376 OA
HETATM    9  C10 UNL     1      34.299   2.934 -20.078  1.00  0.00     0.144 C 
HETATM   10  C17 UNL     1      35.534   3.795 -20.046  1.00  0.00     0.037 C 
HETATM   11  C18 UNL     1      36.465   3.504 -18.943  1.00  0.00     0.015 C 
HETATM   12  C19 UNL     1      36.526   2.069 -18.497  1.00  0.00    -0.014 C 
HETATM   13  C20 UNL     1      37.432   1.351 -19.508  1.00  0.00     0.018 C 
HETATM   14  C21 UNL     1      37.020   0.867 -14.983  1.00  0.00     0.004 C 
HETATM   15  C22 UNL     1      36.289   0.884 -13.669  1.00  0.00     0.009 C 
HETATM   16  C23 UNL     1      37.459   0.719 -12.709  1.00  0.00     0.043 C 
HETATM   17  C24 UNL     1      38.736   0.995 -13.474  1.00  0.00     0.086 C 
HETATM   18  C31 UNL     1      38.133   1.829 -14.641  1.00  0.00     0.021 C 
HETATM   19  C32 UNL     1      37.646   3.090 -13.971  1.00  0.00     0.022 C 
ENDROOT
BRANCH   9  20
HETATM   20  C11 UNL     1      33.818   2.970 -21.510  1.00  0.00     0.006 C 
BRANCH  20  21
HETATM   21  C12 UNL     1      34.551   2.607 -22.509  1.00  0.00     0.014 C 
BRANCH  21  22
HETATM   22  C13 UNL     1      34.633   1.239 -22.954  1.00  0.00     0.018 A 
HETATM   23  C14 UNL     1      33.539   0.448 -23.092  1.00  0.00     0.103 A 
HETATM   24  N1  UNL     1      33.649  -0.856 -23.519  1.00  0.00    -0.361 N 
HETATM   25  C15 UNL     1      34.864  -1.346 -23.803  1.00  0.00     0.181 A 
ATOM     26  H1  UNL     1      32.819  -1.440 -23.618  1.00  0.00     0.166 HD
HETATM   27  N2  UNL     1      35.966  -0.593 -23.678  1.00  0.00    -0.342 N 
HETATM   28  C16 UNL     1      35.884   0.688 -23.261  1.00  0.00     0.116 A 
ATOM     29  H2  UNL     1      36.878  -0.993 -23.901  1.00  0.00     0.167 HD
HETATM   30 CL1  UNL     1      37.279   1.719 -23.078  1.00  0.00    -0.064 Cl
ENDBRANCH  21  22
ENDBRANCH  20  21
ENDBRANCH   9  20
BRANCH   1  31
HETATM   31  O2  UNL     1      40.405   1.865 -15.570  1.00  0.00    -0.315 OA
BRANCH  31  32
HETATM   32  C2  UNL     1      41.398   2.820 -15.656  1.00  0.00     0.255 C 
HETATM   33  C1  UNL     1      41.166   4.239 -15.970  1.00  0.00     0.126 C 
HETATM   34  O1  UNL     1      42.558   2.388 -15.440  1.00  0.00    -0.266 OA
ENDBRANCH  31  32
ENDBRANCH   1  31
BRANCH  17  35
HETATM   35  O4  UNL     1      39.239  -0.175 -13.929  1.00  0.00    -0.385 OA
ATOM     36  H4  UNL     1      40.170  -0.070 -14.088  1.00  0.00     0.211 HD
ENDBRANCH  17  35
BRANCH  17  37
HETATM   37  C25 UNL     1      39.659   1.861 -12.723  1.00  0.00     0.012 C 
HETATM   38  C26 UNL     1      40.712   1.580 -12.089  1.00  0.00     0.015 C 
BRANCH  38  39
HETATM   39  C27 UNL     1      41.474   0.400 -11.801  1.00  0.00     0.024 A 
HETATM   40  C28 UNL     1      41.149  -0.722 -11.102  1.00  0.00     0.041 A 
HETATM   41  C29 UNL     1      42.260  -1.576 -11.138  1.00  0.00     0.145 A 
HETATM   42  O5  UNL     1      43.174  -0.988 -11.812  1.00  0.00    -0.300 OA
HETATM   43  C30 UNL     1      42.805   0.173 -12.241  1.00  0.00     0.193 A 
BRANCH  43  44
HETATM   44  O6  UNL     1      43.567   1.065 -13.006  1.00  0.00    -0.340 OA
ATOM     45  H6  UNL     1      44.216   0.816 -13.653  1.00  0.00     0.220 HD
ENDBRANCH  43  44
ENDBRANCH  38  39
ENDBRANCH  17  37
TORSDOF 9
ENDMDL
MODEL 5
REMARK VINA RESULT: -9.265660562      2.005      3.805
REMARK  9 active torsions:
REMARK  status: ('A' for Active; 'I' for Inactive)
REMARK    1  A    between atoms: C2_2  and  O2_4 
REMARK    2  A    between atoms: O2_4  and  C3_5 
REMARK    3  A    between atoms: C10_13  and  C11_14 
REMARK    4  A    between atoms: C11_14  and  C12_15 
REMARK    5  A    between atoms: C12_15  and  C13_16 
REMARK    6  A    between atoms: C24_32  and  O4_33 
REMARK    7  A    between atoms: C24_32  and  C25_35 
REMARK    8  A    between atoms: C26_36  and  C27_37 
REMARK    9  A    between atoms: C30_41  and  O6_42 
ROOT
HETATM    1  C3  UNL     1      39.091   2.180 -15.686  1.00  0.00     0.144 C 
HETATM    2  C4  UNL     1      38.571   1.606 -17.021  1.00  0.00     0.039 C 
HETATM    3  C5  UNL     1      37.152   2.154 -17.131  1.00  0.00     0.003 C 
HETATM    4  C6  UNL     1      36.302   1.221 -16.262  1.00  0.00    -0.004 C 
HETATM    5  C7  UNL     1      34.949   1.833 -16.200  1.00  0.00     0.008 C 
HETATM    6  C8  UNL     1      34.358   1.847 -17.585  1.00  0.00     0.033 C 
HETATM    7  C9  UNL     1      35.320   1.593 -18.688  1.00  0.00     0.131 C 
HETATM    8  O3  UNL     1      34.696   1.886 -19.892  1.00  0.00    -0.376 OA
HETATM    9  C10 UNL     1      34.499   3.202 -20.158  1.00  0.00     0.144 C 
HETATM   10  C17 UNL     1      35.737   4.052 -20.048  1.00  0.00     0.037 C 
HETATM   11  C18 UNL     1      36.623   3.716 -18.921  1.00  0.00     0.015 C 
HETATM   12  C19 UNL     1      36.659   2.266 -18.525  1.00  0.00    -0.014 C 
HETATM   13  C20 UNL     1      37.598   1.577 -19.526  1.00  0.00     0.018 C 
HETATM   14  C21 UNL     1      37.010   0.935 -15.041  1.00  0.00     0.004 C 
HETATM   15  C22 UNL     1      36.229   0.910 -13.756  1.00  0.00     0.009 C 
HETATM   16  C23 UNL     1      37.361   0.703 -12.759  1.00  0.00     0.043 C 
HETATM   17  C24 UNL     1      38.668   0.996 -13.464  1.00  0.00     0.086 C 
HETATM   18  C31 UNL     1      38.115   1.876 -14.622  1.00  0.00     0.021 C 
HETATM   19  C32 UNL     1      37.610   3.116 -13.926  1.00  0.00     0.022 C 
ENDROOT
BRANCH   9  20
HETATM   20  C11 UNL     1      34.073   3.293 -21.605  1.00  0.00     0.006 C 
BRANCH  20  21
HETATM   21  C12 UNL     1      33.855   2.255 -22.341  1.00  0.00     0.014 C 
BRANCH  21  22
HETATM   22  C13 UNL     1      34.921   1.464 -22.902  1.00  0.00     0.018 A 
HETATM   23  C14 UNL     1      36.126   1.991 -23.235  1.00  0.00     0.103 A 
HETATM   24  N1  UNL     1      37.124   1.209 -23.770  1.00  0.00    -0.361 N 
HETATM   25  C15 UNL     1      36.894  -0.097 -23.962  1.00  0.00     0.181 A 
ATOM     26  H1  UNL     1      38.026   1.618 -24.016  1.00  0.00     0.166 HD
HETATM   27  N2  UNL     1      35.715  -0.651 -23.644  1.00  0.00    -0.342 N 
HETATM   28  C16 UNL     1      34.721   0.094 -23.119  1.00  0.00     0.116 A 
ATOM     29  H2  UNL     1      35.569  -1.649 -23.802  1.00  0.00     0.167 HD
HETATM   30 CL1  UNL     1      33.166  -0.567 -22.686  1.00  0.00    -0.064 Cl
ENDBRANCH  21  22
ENDBRANCH  20  21
ENDBRANCH   9  20
BRANCH   1  31
HETATM   31  O2  UNL     1      40.421   1.928 -15.462  1.00  0.00    -0.315 OA
BRANCH  31  32
HETATM   32  C2  UNL     1      41.439   2.849 -15.611  1.00  0.00     0.255 C 
HETATM   33  C1  UNL     1      41.243   4.254 -16.000  1.00  0.00     0.126 C 
HETATM   34  O1  UNL     1      42.590   2.396 -15.385  1.00  0.00    -0.266 OA
ENDBRANCH  31  32
ENDBRANCH   1  31
BRANCH  17  35
HETATM   35  O4  UNL     1      39.181  -0.160 -13.941  1.00  0.00    -0.385 OA
ATOM     36  H4  UNL     1      38.468  -0.746 -14.162  1.00  0.00     0.211 HD
ENDBRANCH  17  35
BRANCH  17  37
HETATM   37  C25 UNL     1      39.566   1.829 -12.647  1.00  0.00     0.012 C 
HETATM   38  C26 UNL     1      40.605   1.521 -12.002  1.00  0.00     0.015 C 
BRANCH  38  39
HETATM   39  C27 UNL     1      41.367   0.332 -11.754  1.00  0.00     0.024 A 
HETATM   40  C28 UNL     1      41.039  -0.817 -11.103  1.00  0.00     0.041 A 
HETATM   41  C29 UNL     1      42.152  -1.666 -11.162  1.00  0.00     0.145 A 
HETATM   42  O5  UNL     1      43.070  -1.051 -11.806  1.00  0.00    -0.300 OA
HETATM   43  C30 UNL     1      42.702   0.125 -12.192  1.00  0.00     0.193 A 
BRANCH  43  44
HETATM   44  O6  UNL     1      43.468   1.047 -12.916  1.00  0.00    -0.340 OA
ATOM     45  H6  UNL     1      44.415   1.045 -12.977  1.00  0.00     0.220 HD
ENDBRANCH  43  44
ENDBRANCH  38  39
ENDBRANCH  17  37
TORSDOF 9
ENDMDL
