MODEL 1
REMARK VINA RESULT: -9.846418143      0.000      0.000
REMARK  6 active torsions:
REMARK  status: ('A' for Active; 'I' for Inactive)
REMARK    1  A    between atoms: N1_1  and  C1_4 
REMARK    2  A    between atoms: C2_10  and  C3_11 
REMARK    3  A    between atoms: C4_14  and  C5_15 
REMARK    4  A    between atoms: C8_18  and  C9_19 
REMARK    5  A    between atoms: C19_34  and  C20_35 
REMARK    6  A    between atoms: N7_40  and  C24_41 
ROOT
HETATM    1  C3  UNL     1     -22.270  -7.329  22.970  1.00  0.00     0.146 A 
HETATM    2  N4  UNL     1     -23.057  -7.728  23.983  1.00  0.00    -0.337 N 
ATOM      3  H4  UNL     1     -24.068  -7.851  23.917  1.00  0.00     0.167 HD
HETATM    4  C4  UNL     1     -22.327  -7.945  25.105  1.00  0.00     0.074 A 
HETATM    5  C19 UNL     1     -21.013  -7.665  24.770  1.00  0.00     0.103 A 
HETATM    6  N7  UNL     1     -21.003  -7.295  23.479  1.00  0.00    -0.291 N 
ENDROOT
BRANCH   4   7
HETATM    7  C5  UNL     1     -22.805  -8.383  26.408  1.00  0.00    -0.007 A 
HETATM    8  C6  UNL     1     -22.926  -9.737  26.634  1.00  0.00     0.014 A 
HETATM    9  C7  UNL     1     -23.368 -10.224  27.835  1.00  0.00     0.016 A 
HETATM   10  C8  UNL     1     -23.702  -9.371  28.843  1.00  0.00     0.008 A 
HETATM   11  C17 UNL     1     -23.579  -8.005  28.614  1.00  0.00     0.016 A 
HETATM   12  C18 UNL     1     -23.137  -7.507  27.414  1.00  0.00     0.014 A 
BRANCH  10  13
HETATM   13  C9  UNL     1     -24.187  -9.832  30.166  1.00  0.00     0.118 A 
HETATM   14  N5  UNL     1     -24.345 -11.153  30.393  1.00  0.00    -0.308 N 
HETATM   15  C10 UNL     1     -24.782 -11.641  31.570  1.00  0.00     0.259 A 
ATOM     16  H5  UNL     1     -24.125 -11.808  29.643  1.00  0.00     0.170 HD
HETATM   17  O2  UNL     1     -24.932 -12.862  31.790  1.00  0.00    -0.267 OA
HETATM   18  C11 UNL     1     -25.087 -10.772  32.605  1.00  0.00     0.059 A 
HETATM   19  C12 UNL     1     -25.538 -11.226  33.830  1.00  0.00     0.019 A 
HETATM   20  C16 UNL     1     -24.926  -9.426  32.372  1.00  0.00     0.049 A 
HETATM   21  C13 UNL     1     -25.844 -10.360  34.864  1.00  0.00     0.001 A 
HETATM   22  C14 UNL     1     -25.681  -9.010  34.629  1.00  0.00     0.002 A 
HETATM   23  C15 UNL     1     -25.226  -8.548  33.393  1.00  0.00     0.030 A 
HETATM   24  N6  UNL     1     -24.480  -8.989  31.161  1.00  0.00    -0.341 N 
ATOM     25  H6  UNL     1     -24.366  -7.986  31.009  1.00  0.00     0.167 HD
ENDBRANCH  10  13
ENDBRANCH   4   7
BRANCH   5  26
HETATM   26  C20 UNL     1     -19.859  -7.755  25.661  1.00  0.00     0.104 A 
HETATM   27  C21 UNL     1     -19.413  -8.851  26.381  1.00  0.00     0.041 A 
HETATM   28  C22 UNL     1     -18.287  -8.495  27.093  1.00  0.00     0.027 A 
HETATM   29  C23 UNL     1     -18.083  -7.169  26.777  1.00  0.00     0.142 A 
HETATM   30  O3  UNL     1     -19.019  -6.787  25.945  1.00  0.00    -0.320 OA
ENDBRANCH   5  26
BRANCH   1  31
HETATM   31  C2  UNL     1     -22.595  -6.982  21.597  1.00  0.00     0.146 A 
HETATM   32  C1  UNL     1     -22.765  -7.824  20.536  1.00  0.00     0.154 A 
HETATM   33  N2  UNL     1     -23.056  -7.051  19.452  1.00  0.00    -0.224 N 
HETATM   34  O1  UNL     1     -23.063  -5.803  19.835  1.00  0.00    -0.155 OA
ATOM     35  H2  UNL     1     -23.238  -7.389  18.507  1.00  0.00     0.198 HD
HETATM   36  N3  UNL     1     -22.792  -5.727  21.103  1.00  0.00    -0.234 N 
ATOM     37  H3  UNL     1     -22.736  -4.864  21.643  1.00  0.00     0.197 HD
BRANCH  32  38
HETATM   38  N1  UNL     1     -22.678  -9.099  20.520  1.00  0.00    -0.382 N 
ATOM     39  H12 UNL     1     -23.114  -9.751  19.868  1.00  0.00     0.157 HD
ATOM     40  H11 UNL     1     -22.137  -9.654  21.184  1.00  0.00     0.157 HD
ENDBRANCH  32  38
ENDBRANCH   1  31
BRANCH   6  41
HETATM   41  C24 UNL     1     -19.831  -6.927  22.768  1.00  0.00     0.041 A 
HETATM   42  C25 UNL     1     -19.229  -5.695  22.979  1.00  0.00     0.031 A 
HETATM   43  C26 UNL     1     -18.085  -5.348  22.279  1.00  0.00     0.021 A 
HETATM   44  C27 UNL     1     -17.528  -6.218  21.365  1.00  0.00     0.011 A 
HETATM   45 BR1  UNL     1     -15.955  -5.723  20.413  1.00  0.00    -0.051 Br
HETATM   46  C28 UNL     1     -18.105  -7.448  21.136  1.00  0.00     0.021 A 
HETATM   47  C29 UNL     1     -19.231  -7.761  21.841  1.00  0.00     0.031 A 
ENDBRANCH   6  41
TORSDOF 6
ENDMDL
MODEL 2
REMARK VINA RESULT: -9.612991924      1.316      2.023
REMARK  6 active torsions:
REMARK  status: ('A' for Active; 'I' for Inactive)
REMARK    1  A    between atoms: N1_1  and  C1_4 
REMARK    2  A    between atoms: C2_10  and  C3_11 
REMARK    3  A    between atoms: C4_14  and  C5_15 
REMARK    4  A    between atoms: C8_18  and  C9_19 
REMARK    5  A    between atoms: C19_34  and  C20_35 
REMARK    6  A    between atoms: N7_40  and  C24_41 
ROOT
HETATM    1  C3  UNL     1     -22.369  -8.042  23.210  1.00  0.00     0.146 A 
HETATM    2  N4  UNL     1     -23.136  -8.303  24.281  1.00  0.00    -0.337 N 
ATOM      3  H4  UNL     1     -24.101  -8.631  24.237  1.00  0.00     0.167 HD
HETATM    4  C4  UNL     1     -22.455  -8.070  25.431  1.00  0.00     0.074 A 
HETATM    5  C19 UNL     1     -21.195  -7.641  25.051  1.00  0.00     0.103 A 
HETATM    6  N7  UNL     1     -21.165  -7.631  23.709  1.00  0.00    -0.291 N 
ENDROOT
BRANCH   4   7
HETATM    7  C5  UNL     1     -22.931  -8.231  26.797  1.00  0.00    -0.007 A 
HETATM    8  C6  UNL     1     -23.140  -9.510  27.264  1.00  0.00     0.014 A 
HETATM    9  C7  UNL     1     -23.587  -9.739  28.538  1.00  0.00     0.016 A 
HETATM   10  C8  UNL     1     -23.836  -8.697  29.380  1.00  0.00     0.008 A 
HETATM   11  C17 UNL     1     -23.624  -7.408  28.906  1.00  0.00     0.016 A 
HETATM   12  C18 UNL     1     -23.177  -7.166  27.631  1.00  0.00     0.014 A 
BRANCH  10  13
HETATM   13  C9  UNL     1     -24.320  -8.877  30.770  1.00  0.00     0.118 A 
HETATM   14  N5  UNL     1     -24.531  -7.794  31.546  1.00  0.00    -0.308 N 
HETATM   15  C10 UNL     1     -24.970  -7.885  32.817  1.00  0.00     0.259 A 
ATOM     16  H5  UNL     1     -24.351  -6.869  31.156  1.00  0.00     0.170 HD
HETATM   17  O2  UNL     1     -25.168  -6.888  33.544  1.00  0.00    -0.267 OA
HETATM   18  C11 UNL     1     -25.222  -9.130  33.371  1.00  0.00     0.059 A 
HETATM   19  C12 UNL     1     -25.674  -9.272  34.669  1.00  0.00     0.019 A 
HETATM   20  C16 UNL     1     -25.007 -10.233  32.577  1.00  0.00     0.049 A 
HETATM   21  C13 UNL     1     -25.926 -10.514  35.223  1.00  0.00     0.001 A 
HETATM   22  C14 UNL     1     -25.709 -11.620  34.426  1.00  0.00     0.002 A 
HETATM   23  C15 UNL     1     -25.253 -11.479  33.114  1.00  0.00     0.030 A 
HETATM   24  N6  UNL     1     -24.562 -10.081  31.299  1.00  0.00    -0.341 N 
ATOM     25  H6  UNL     1     -24.409 -10.912  30.726  1.00  0.00     0.167 HD
ENDBRANCH  10  13
ENDBRANCH   4   7
BRANCH   5  26
HETATM   26  C20 UNL     1     -20.105  -7.267  25.950  1.00  0.00     0.104 A 
HETATM   27  C21 UNL     1     -19.183  -8.094  26.572  1.00  0.00     0.041 A 
HETATM   28  C22 UNL     1     -18.330  -7.324  27.334  1.00  0.00     0.027 A 
HETATM   29  C23 UNL     1     -18.769  -6.031  27.146  1.00  0.00     0.142 A 
HETATM   30  O3  UNL     1     -19.798  -6.052  26.337  1.00  0.00    -0.320 OA
ENDBRANCH   5  26
BRANCH   1  31
HETATM   31  C2  UNL     1     -22.660  -8.140  21.790  1.00  0.00     0.146 A 
HETATM   32  C1  UNL     1     -22.816  -7.123  20.892  1.00  0.00     0.154 A 
HETATM   33  N2  UNL     1     -23.077  -7.692  19.682  1.00  0.00    -0.224 N 
HETATM   34  O1  UNL     1     -23.079  -8.988  19.835  1.00  0.00    -0.155 OA
ATOM     35  H2  UNL     1     -23.242  -7.192  18.808  1.00  0.00     0.198 HD
HETATM   36  N3  UNL     1     -22.835  -9.288  21.075  1.00  0.00    -0.234 N 
ATOM     37  H3  UNL     1     -22.782 -10.233  21.455  1.00  0.00     0.197 HD
BRANCH  32  38
HETATM   38  N1  UNL     1     -22.741  -5.866  21.105  1.00  0.00    -0.382 N 
ATOM     39  H12 UNL     1     -23.202  -5.112  20.596  1.00  0.00     0.157 HD
ATOM     40  H11 UNL     1     -22.186  -5.433  21.844  1.00  0.00     0.157 HD
ENDBRANCH  32  38
ENDBRANCH   1  31
BRANCH   6  41
HETATM   41  C24 UNL     1     -20.035  -7.246  22.942  1.00  0.00     0.041 A 
HETATM   42  C25 UNL     1     -19.432  -8.139  22.067  1.00  0.00     0.031 A 
HETATM   43  C26 UNL     1     -18.330  -7.751  21.323  1.00  0.00     0.021 A 
HETATM   44  C27 UNL     1     -17.816  -6.477  21.440  1.00  0.00     0.011 A 
HETATM   45 BR1  UNL     1     -16.300  -5.961  20.409  1.00  0.00    -0.051 Br
HETATM   46  C28 UNL     1     -18.394  -5.570  22.301  1.00  0.00     0.021 A 
HETATM   47  C29 UNL     1     -19.479  -5.982  23.020  1.00  0.00     0.031 A 
ENDBRANCH   6  41
TORSDOF 6
ENDMDL
MODEL 3
REMARK VINA RESULT: -9.580240637      2.593      3.299
REMARK  6 active torsions:
REMARK  status: ('A' for Active; 'I' for Inactive)
REMARK    1  A    between atoms: N1_1  and  C1_4 
REMARK    2  A    between atoms: C2_10  and  C3_11 
REMARK    3  A    between atoms: C4_14  and  C5_15 
REMARK    4  A    between atoms: C8_18  and  C9_19 
REMARK    5  A    between atoms: C19_34  and  C20_35 
REMARK    6  A    between atoms: N7_40  and  C24_41 
ROOT
HETATM    1  C3  UNL     1     -21.645  -8.490  24.331  1.00  0.00     0.146 A 
HETATM    2  N4  UNL     1     -22.126  -8.992  25.480  1.00  0.00    -0.337 N 
ATOM      3  H4  UNL     1     -22.286  -9.984  25.655  1.00  0.00     0.167 HD
HETATM    4  C4  UNL     1     -22.370  -8.004  26.375  1.00  0.00     0.074 A 
HETATM    5  C19 UNL     1     -22.021  -6.820  25.746  1.00  0.00     0.103 A 
HETATM    6  N7  UNL     1     -21.587  -7.137  24.516  1.00  0.00    -0.291 N 
ENDROOT
BRANCH   4   7
HETATM    7  C5  UNL     1     -22.892  -8.134  27.727  1.00  0.00    -0.007 A 
HETATM    8  C6  UNL     1     -24.203  -8.530  27.881  1.00  0.00     0.014 A 
HETATM    9  C7  UNL     1     -24.763  -8.675  29.122  1.00  0.00     0.016 A 
HETATM   10  C8  UNL     1     -24.029  -8.429  30.243  1.00  0.00     0.008 A 
HETATM   11  C17 UNL     1     -22.707  -8.030  30.086  1.00  0.00     0.016 A 
HETATM   12  C18 UNL     1     -22.135  -7.881  28.847  1.00  0.00     0.014 A 
BRANCH  10  13
HETATM   13  C9  UNL     1     -24.576  -8.567  31.614  1.00  0.00     0.118 A 
HETATM   14  N5  UNL     1     -25.375  -7.601  32.112  1.00  0.00    -0.308 N 
HETATM   15  C10 UNL     1     -25.906  -7.662  33.349  1.00  0.00     0.259 A 
ATOM     16  H5  UNL     1     -25.587  -6.791  31.529  1.00  0.00     0.170 HD
HETATM   17  O2  UNL     1     -26.647  -6.772  33.819  1.00  0.00    -0.267 OA
HETATM   18  C11 UNL     1     -25.634  -8.750  34.162  1.00  0.00     0.059 A 
HETATM   19  C12 UNL     1     -26.155  -8.857  35.437  1.00  0.00     0.019 A 
HETATM   20  C16 UNL     1     -24.819  -9.735  33.652  1.00  0.00     0.049 A 
HETATM   21  C13 UNL     1     -25.885  -9.944  36.249  1.00  0.00     0.001 A 
HETATM   22  C14 UNL     1     -25.067 -10.930  35.737  1.00  0.00     0.002 A 
HETATM   23  C15 UNL     1     -24.539 -10.826  34.449  1.00  0.00     0.030 A 
HETATM   24  N6  UNL     1     -24.311  -9.620  32.394  1.00  0.00    -0.341 N 
ATOM     25  H6  UNL     1     -23.709 -10.362  32.034  1.00  0.00     0.167 HD
ENDBRANCH  10  13
ENDBRANCH   4   7
BRANCH   5  26
HETATM   26  C20 UNL     1     -22.113  -5.480  26.321  1.00  0.00     0.104 A 
HETATM   27  C21 UNL     1     -23.198  -4.618  26.320  1.00  0.00     0.041 A 
HETATM   28  C22 UNL     1     -22.848  -3.455  26.974  1.00  0.00     0.027 A 
HETATM   29  C23 UNL     1     -21.539  -3.652  27.356  1.00  0.00     0.142 A 
HETATM   30  O3  UNL     1     -21.159  -4.839  26.954  1.00  0.00    -0.320 OA
ENDBRANCH   5  26
BRANCH   1  31
HETATM   31  C2  UNL     1     -21.245  -9.150  23.101  1.00  0.00     0.146 A 
HETATM   32  C1  UNL     1     -22.045  -9.584  22.082  1.00  0.00     0.154 A 
HETATM   33  N2  UNL     1     -21.230 -10.142  21.142  1.00  0.00    -0.224 N 
HETATM   34  O1  UNL     1     -19.999 -10.052  21.567  1.00  0.00    -0.155 OA
ATOM     35  H2  UNL     1     -21.531 -10.557  20.260  1.00  0.00     0.198 HD
HETATM   36  N3  UNL     1     -19.973  -9.468  22.727  1.00  0.00    -0.234 N 
ATOM     37  H3  UNL     1     -19.133  -9.278  23.273  1.00  0.00     0.197 HD
BRANCH  32  38
HETATM   38  N1  UNL     1     -23.316  -9.503  21.989  1.00  0.00    -0.382 N 
ATOM     39  H12 UNL     1     -23.893  -8.662  21.966  1.00  0.00     0.157 HD
ATOM     40  H11 UNL     1     -23.947 -10.302  21.922  1.00  0.00     0.157 HD
ENDBRANCH  32  38
ENDBRANCH   1  31
BRANCH   6  41
HETATM   41  C24 UNL     1     -21.139  -6.186  23.563  1.00  0.00     0.041 A 
HETATM   42  C25 UNL     1     -19.824  -5.744  23.565  1.00  0.00     0.031 A 
HETATM   43  C26 UNL     1     -19.397  -4.815  22.628  1.00  0.00     0.021 A 
HETATM   44  C27 UNL     1     -20.270  -4.318  21.684  1.00  0.00     0.011 A 
HETATM   45 BR1  UNL     1     -19.667  -3.042  20.405  1.00  0.00    -0.051 Br
HETATM   46  C28 UNL     1     -21.582  -4.739  21.659  1.00  0.00     0.021 A 
HETATM   47  C29 UNL     1     -21.971  -5.655  22.594  1.00  0.00     0.031 A 
ENDBRANCH   6  41
TORSDOF 6
ENDMDL
MODEL 4
REMARK VINA RESULT: -9.542097585      1.973      2.426
REMARK  6 active torsions:
REMARK  status: ('A' for Active; 'I' for Inactive)
REMARK    1  A    between atoms: N1_1  and  C1_4 
REMARK    2  A    between atoms: C2_10  and  C3_11 
REMARK    3  A    between atoms: C4_14  and  C5_15 
REMARK    4  A    between atoms: C8_18  and  C9_19 
REMARK    5  A    between atoms: C19_34  and  C20_35 
REMARK    6  A    between atoms: N7_40  and  C24_41 
ROOT
HETATM    1  C3  UNL     1     -22.693  -8.538  23.446  1.00  0.00     0.146 A 
HETATM    2  N4  UNL     1     -23.194  -9.200  24.502  1.00  0.00    -0.337 N 
ATOM      3  H4  UNL     1     -23.616 -10.128  24.456  1.00  0.00     0.167 HD
HETATM    4  C4  UNL     1     -23.064  -8.470  25.637  1.00  0.00     0.074 A 
HETATM    5  C19 UNL     1     -22.448  -7.287  25.264  1.00  0.00     0.103 A 
HETATM    6  N7  UNL     1     -22.234  -7.350  23.941  1.00  0.00    -0.291 N 
ENDROOT
BRANCH   4   7
HETATM    7  C5  UNL     1     -23.480  -8.833  26.984  1.00  0.00    -0.007 A 
HETATM    8  C6  UNL     1     -23.108 -10.068  27.467  1.00  0.00     0.014 A 
HETATM    9  C7  UNL     1     -23.463 -10.479  28.724  1.00  0.00     0.016 A 
HETATM   10  C8  UNL     1     -24.198  -9.666  29.533  1.00  0.00     0.008 A 
HETATM   11  C17 UNL     1     -24.573  -8.420  29.044  1.00  0.00     0.016 A 
HETATM   12  C18 UNL     1     -24.223  -7.998  27.785  1.00  0.00     0.014 A 
BRANCH  10  13
HETATM   13  C9  UNL     1     -24.615 -10.050  30.903  1.00  0.00     0.118 A 
HETATM   14  N5  UNL     1     -24.660 -11.355  31.243  1.00  0.00    -0.308 N 
HETATM   15  C10 UNL     1     -25.029 -11.774  32.469  1.00  0.00     0.259 A 
ATOM     16  H5  UNL     1     -24.405 -12.052  30.544  1.00  0.00     0.170 HD
HETATM   17  O2  UNL     1     -25.075 -12.980  32.794  1.00  0.00    -0.267 OA
HETATM   18  C11 UNL     1     -25.381 -10.847  33.437  1.00  0.00     0.059 A 
HETATM   19  C12 UNL     1     -25.766 -11.229  34.708  1.00  0.00     0.019 A 
HETATM   20  C16 UNL     1     -25.334  -9.517  33.088  1.00  0.00     0.049 A 
HETATM   21  C13 UNL     1     -26.117 -10.305  35.675  1.00  0.00     0.001 A 
HETATM   22  C14 UNL     1     -26.070  -8.971  35.324  1.00  0.00     0.002 A 
HETATM   23  C15 UNL     1     -25.681  -8.581  34.041  1.00  0.00     0.030 A 
HETATM   24  N6  UNL     1     -24.953  -9.151  31.833  1.00  0.00    -0.341 N 
ATOM     25  H6  UNL     1     -24.924  -8.159  31.595  1.00  0.00     0.167 HD
ENDBRANCH  10  13
ENDBRANCH   4   7
BRANCH   5  26
HETATM   26  C20 UNL     1     -22.100  -6.180  26.153  1.00  0.00     0.104 A 
HETATM   27  C21 UNL     1     -20.985  -6.048  26.964  1.00  0.00     0.041 A 
HETATM   28  C22 UNL     1     -21.057  -4.844  27.635  1.00  0.00     0.027 A 
HETATM   29  C23 UNL     1     -22.234  -4.275  27.200  1.00  0.00     0.142 A 
HETATM   30  O3  UNL     1     -22.801  -5.087  26.344  1.00  0.00    -0.320 OA
ENDBRANCH   5  26
BRANCH   1  31
HETATM   31  C2  UNL     1     -22.610  -8.912  22.045  1.00  0.00     0.146 A 
HETATM   32  C1  UNL     1     -21.571  -9.515  21.397  1.00  0.00     0.154 A 
HETATM   33  N2  UNL     1     -21.943  -9.667  20.095  1.00  0.00    -0.224 N 
HETATM   34  O1  UNL     1     -23.147  -9.182  19.958  1.00  0.00    -0.155 OA
ATOM     35  H2  UNL     1     -21.379 -10.088  19.356  1.00  0.00     0.198 HD
HETATM   36  N3  UNL     1     -23.572  -8.725  21.097  1.00  0.00    -0.234 N 
ATOM     37  H3  UNL     1     -24.482  -8.293  21.258  1.00  0.00     0.197 HD
BRANCH  32  38
HETATM   38  N1  UNL     1     -20.447  -9.883  21.881  1.00  0.00    -0.382 N 
ATOM     39  H12 UNL     1     -19.995  -9.562  22.738  1.00  0.00     0.157 HD
ATOM     40  H11 UNL     1     -19.829 -10.575  21.456  1.00  0.00     0.157 HD
ENDBRANCH  32  38
ENDBRANCH   1  31
BRANCH   6  41
HETATM   41  C24 UNL     1     -21.618  -6.318  23.186  1.00  0.00     0.041 A 
HETATM   42  C25 UNL     1     -20.250  -6.326  22.955  1.00  0.00     0.031 A 
HETATM   43  C26 UNL     1     -19.660  -5.313  22.216  1.00  0.00     0.021 A 
HETATM   44  C27 UNL     1     -20.420  -4.285  21.700  1.00  0.00     0.011 A 
HETATM   45 BR1  UNL     1     -19.592  -2.901  20.686  1.00  0.00    -0.051 Br
HETATM   46  C28 UNL     1     -21.781  -4.251  21.914  1.00  0.00     0.021 A 
HETATM   47  C29 UNL     1     -22.333  -5.264  22.646  1.00  0.00     0.031 A 
ENDBRANCH   6  41
TORSDOF 6
ENDMDL
MODEL 5
REMARK VINA RESULT: -9.504459039      2.661      3.358
REMARK  6 active torsions:
REMARK  status: ('A' for Active; 'I' for Inactive)
REMARK    1  A    between atoms: N1_1  and  C1_4 
REMARK    2  A    between atoms: C2_10  and  C3_11 
REMARK    3  A    between atoms: C4_14  and  C5_15 
REMARK    4  A    between atoms: C8_18  and  C9_19 
REMARK    5  A    between atoms: C19_34  and  C20_35 
REMARK    6  A    between atoms: N7_40  and  C24_41 
ROOT
HETATM    1  C3  UNL     1     -21.690  -8.527  24.313  1.00  0.00     0.146 A 
HETATM    2  N4  UNL     1     -22.196  -9.041  25.445  1.00  0.00    -0.337 N 
ATOM      3  H4  UNL     1     -22.351 -10.035  25.611  1.00  0.00     0.167 HD
HETATM    4  C4  UNL     1     -22.474  -8.060  26.340  1.00  0.00     0.074 A 
HETATM    5  C19 UNL     1     -22.120  -6.870  25.727  1.00  0.00     0.103 A 
HETATM    6  N7  UNL     1     -21.650  -7.175  24.507  1.00  0.00    -0.291 N 
ENDROOT
BRANCH   4   7
HETATM    7  C5  UNL     1     -23.031  -8.204  27.676  1.00  0.00    -0.007 A 
HETATM    8  C6  UNL     1     -22.222  -7.909  28.752  1.00  0.00     0.014 A 
HETATM    9  C7  UNL     1     -22.677  -8.021  30.038  1.00  0.00     0.016 A 
HETATM   10  C8  UNL     1     -23.953  -8.430  30.285  1.00  0.00     0.008 A 
HETATM   11  C17 UNL     1     -24.768  -8.727  29.199  1.00  0.00     0.016 A 
HETATM   12  C18 UNL     1     -24.322  -8.618  27.905  1.00  0.00     0.014 A 
BRANCH  10  13
HETATM   13  C9  UNL     1     -24.507  -8.571  31.653  1.00  0.00     0.118 A 
HETATM   14  N5  UNL     1     -25.376  -7.650  32.117  1.00  0.00    -0.308 N 
HETATM   15  C10 UNL     1     -25.918  -7.717  33.350  1.00  0.00     0.259 A 
ATOM     16  H5  UNL     1     -25.635  -6.871  31.512  1.00  0.00     0.170 HD
HETATM   17  O2  UNL     1     -26.723  -6.868  33.789  1.00  0.00    -0.267 OA
HETATM   18  C11 UNL     1     -25.583  -8.765  34.192  1.00  0.00     0.059 A 
HETATM   19  C12 UNL     1     -26.113  -8.875  35.464  1.00  0.00     0.019 A 
HETATM   20  C16 UNL     1     -24.697  -9.703  33.717  1.00  0.00     0.049 A 
HETATM   21  C13 UNL     1     -25.780  -9.921  36.306  1.00  0.00     0.001 A 
HETATM   22  C14 UNL     1     -24.890 -10.861  35.828  1.00  0.00     0.002 A 
HETATM   23  C15 UNL     1     -24.353 -10.753  34.544  1.00  0.00     0.030 A 
HETATM   24  N6  UNL     1     -24.181  -9.585  32.462  1.00  0.00    -0.341 N 
ATOM     25  H6  UNL     1     -23.525 -10.292  32.128  1.00  0.00     0.167 HD
ENDBRANCH  10  13
ENDBRANCH   4   7
BRANCH   5  26
HETATM   26  C20 UNL     1     -22.240  -5.533  26.306  1.00  0.00     0.104 A 
HETATM   27  C21 UNL     1     -21.245  -4.747  26.865  1.00  0.00     0.041 A 
HETATM   28  C22 UNL     1     -21.798  -3.557  27.290  1.00  0.00     0.027 A 
HETATM   29  C23 UNL     1     -23.134  -3.662  26.970  1.00  0.00     0.142 A 
HETATM   30  O3  UNL     1     -23.340  -4.824  26.403  1.00  0.00    -0.320 OA
ENDBRANCH   5  26
BRANCH   1  31
HETATM   31  C2  UNL     1     -21.250  -9.176  23.090  1.00  0.00     0.146 A 
HETATM   32  C1  UNL     1     -22.018  -9.615  22.049  1.00  0.00     0.154 A 
HETATM   33  N2  UNL     1     -21.174 -10.158  21.128  1.00  0.00    -0.224 N 
HETATM   34  O1  UNL     1     -19.955 -10.054  21.584  1.00  0.00    -0.155 OA
ATOM     35  H2  UNL     1     -21.446 -10.573  20.237  1.00  0.00     0.198 HD
HETATM   36  N3  UNL     1     -19.965  -9.476  22.747  1.00  0.00    -0.234 N 
ATOM     37  H3  UNL     1     -19.142  -9.278  23.315  1.00  0.00     0.197 HD
BRANCH  32  38
HETATM   38  N1  UNL     1     -23.288  -9.549  21.924  1.00  0.00    -0.382 N 
ATOM     39  H12 UNL     1     -23.887 -10.084  21.295  1.00  0.00     0.157 HD
ATOM     40  H11 UNL     1     -23.894  -8.927  22.460  1.00  0.00     0.157 HD
ENDBRANCH  32  38
ENDBRANCH   1  31
BRANCH   6  41
HETATM   41  C24 UNL     1     -21.185  -6.214  23.571  1.00  0.00     0.041 A 
HETATM   42  C25 UNL     1     -22.054  -5.632  22.659  1.00  0.00     0.031 A 
HETATM   43  C26 UNL     1     -21.588  -4.694  21.752  1.00  0.00     0.021 A 
HETATM   44  C27 UNL     1     -20.259  -4.326  21.740  1.00  0.00     0.011 A 
HETATM   45 BR1  UNL     1     -19.637  -3.035  20.486  1.00  0.00    -0.051 Br
HETATM   46  C28 UNL     1     -19.374  -4.888  22.635  1.00  0.00     0.021 A 
HETATM   47  C29 UNL     1     -19.864  -5.808  23.517  1.00  0.00     0.031 A 
ENDBRANCH   6  41
TORSDOF 6
ENDMDL
