MODEL 1
REMARK VINA RESULT: -7.025376935      0.000      0.000
REMARK  9 active torsions:
REMARK  status: ('A' for Active; 'I' for Inactive)
REMARK    1  A    between atoms: C5_5  and  C6_6 
REMARK    2  A    between atoms: C6_6  and  C7_7 
REMARK    3  A    between atoms: C7_7  and  C8_8 
REMARK       I    between atoms: C8_8  and  N1_10 
REMARK    4  A    between atoms: N1_10  and  C9_12 
REMARK    5  A    between atoms: C10_17  and  C11_18 
REMARK    6  A    between atoms: C11_18  and  C12_19 
REMARK    7  A    between atoms: C12_19  and  C13_20 
REMARK    8  A    between atoms: C13_20  and  C14_21 
REMARK    9  A    between atoms: C14_21  and  C15_22 
ROOT
HETATM    1  C11 UNL     1      11.067   9.030 -19.280  1.00  0.00     0.066 C 
ENDROOT
BRANCH   1   2
HETATM    2  C10 UNL     1       9.877   8.119 -19.120  1.00  0.00     0.069 A 
HETATM    3  N3  UNL     1       9.327   7.585 -18.048  1.00  0.00    -0.296 N 
HETATM    4  N2  UNL     1       8.317   6.825 -18.138  1.00  0.00    -0.279 N 
ATOM      5  H3  UNL     1       9.721   7.788 -17.130  1.00  0.00     0.187 HD
HETATM    6  C9  UNL     1       7.809   6.566 -19.346  1.00  0.00     0.167 A 
ATOM      7  H2  UNL     1       7.899   6.417 -17.302  1.00  0.00     0.189 HD
HETATM    8  S1  UNL     1       8.860   7.476 -20.356  1.00  0.00    -0.038 SA
BRANCH   6   9
HETATM    9  N1  UNL     1       6.790   5.810 -19.682  1.00  0.00    -0.306 N 
HETATM   10  C8  UNL     1       5.607   5.791 -18.885  1.00  0.00     0.223 C 
HETATM   11  O1  UNL     1       5.743   5.569 -17.634  1.00  0.00    -0.273 OA
ATOM     12  H1  UNL     1       6.845   5.230 -20.519  1.00  0.00     0.171 HD
BRANCH  10  13
HETATM   13  C7  UNL     1       4.305   6.013 -19.494  1.00  0.00     0.108 C 
BRANCH  13  14
HETATM   14  C6  UNL     1       3.810   7.411 -19.611  1.00  0.00     0.048 C 
BRANCH  14  15
HETATM   15  C5  UNL     1       4.692   8.312 -20.372  1.00  0.00    -0.058 A 
HETATM   16  C4  UNL     1       4.804   8.170 -21.764  1.00  0.00     0.007 A 
HETATM   17  C3  UNL     1       5.591   8.997 -22.517  1.00  0.00     0.007 A 
HETATM   18  C2  UNL     1       6.309  10.008 -21.941  1.00  0.00    -0.062 A 
HETATM   19  C1  UNL     1       7.161  10.890 -22.790  1.00  0.00     0.048 C 
HETATM   20  C27 UNL     1       6.216  10.168 -20.580  1.00  0.00     0.007 A 
HETATM   21  C26 UNL     1       5.421   9.333 -19.819  1.00  0.00     0.007 A 
ENDBRANCH  14  15
ENDBRANCH  13  14
ENDBRANCH  10  13
ENDBRANCH   6   9
ENDBRANCH   1   2
BRANCH   1  22
HETATM   22  C12 UNL     1      10.725  10.480 -19.145  1.00  0.00     0.007 C 
BRANCH  22  23
HETATM   23  C13 UNL     1       9.907  10.984 -20.281  1.00  0.00     0.005 C 
BRANCH  23  24
HETATM   24  C14 UNL     1       9.141  12.228 -19.933  1.00  0.00     0.038 C 
BRANCH  24  25
HETATM   25  C15 UNL     1       9.225  13.242 -21.016  1.00  0.00    -0.057 A 
HETATM   26  C16 UNL     1      10.216  13.073 -21.997  1.00  0.00     0.009 A 
HETATM   27  C17 UNL     1      10.371  13.932 -23.049  1.00  0.00     0.031 A 
HETATM   28  C18 UNL     1       9.495  15.026 -23.142  1.00  0.00     0.046 A 
HETATM   29  C19 UNL     1       8.516  15.222 -22.204  1.00  0.00     0.009 A 
HETATM   30  N6  UNL     1       9.432  16.048 -24.142  1.00  0.00    -0.319 N 
HETATM   31  C20 UNL     1       8.399  14.314 -21.146  1.00  0.00     0.019 A 
HETATM   32  C21 UNL     1       7.779  16.434 -22.555  1.00  0.00     0.161 A 
HETATM   33  C22 UNL     1       7.993  17.444 -21.442  1.00  0.00     0.171 C 
HETATM   34  N5  UNL     1       6.349  16.237 -22.636  1.00  0.00    -0.319 N 
HETATM   35  C24 UNL     1       8.368  16.912 -23.807  1.00  0.00     0.259 A 
HETATM   36  N4  UNL     1       6.790  18.236 -21.503  1.00  0.00    -0.340 N 
HETATM   37  C23 UNL     1       5.763  17.407 -22.053  1.00  0.00     0.317 C 
ATOM     38  H4  UNL     1       6.690  19.208 -21.209  1.00  0.00     0.164 HD
HETATM   39  O2  UNL     1       4.546  17.686 -22.015  1.00  0.00    -0.247 OA
ATOM     40  H5  UNL     1       5.859  15.431 -23.027  1.00  0.00     0.166 HD
HETATM   41  O3  UNL     1       8.019  17.924 -24.510  1.00  0.00    -0.270 OA
HETATM   42  C25 UNL     1      10.323  16.150 -25.292  1.00  0.00     0.159 C 
ENDBRANCH  24  25
ENDBRANCH  23  24
ENDBRANCH  22  23
ENDBRANCH   1  22
TORSDOF 9
ENDMDL
MODEL 2
REMARK VINA RESULT: -6.934039559      1.953      3.039
REMARK  9 active torsions:
REMARK  status: ('A' for Active; 'I' for Inactive)
REMARK    1  A    between atoms: C5_5  and  C6_6 
REMARK    2  A    between atoms: C6_6  and  C7_7 
REMARK    3  A    between atoms: C7_7  and  C8_8 
REMARK       I    between atoms: C8_8  and  N1_10 
REMARK    4  A    between atoms: N1_10  and  C9_12 
REMARK    5  A    between atoms: C10_17  and  C11_18 
REMARK    6  A    between atoms: C11_18  and  C12_19 
REMARK    7  A    between atoms: C12_19  and  C13_20 
REMARK    8  A    between atoms: C13_20  and  C14_21 
REMARK    9  A    between atoms: C14_21  and  C15_22 
ROOT
HETATM    1  C11 UNL     1      11.673  10.711 -22.781  1.00  0.00     0.066 C 
ENDROOT
BRANCH   1   2
HETATM    2  C10 UNL     1      10.783   9.790 -21.986  1.00  0.00     0.069 A 
HETATM    3  N3  UNL     1      10.463   9.778 -20.708  1.00  0.00    -0.296 N 
HETATM    4  N2  UNL     1       9.691   8.892 -20.233  1.00  0.00    -0.279 N 
ATOM      5  H3  UNL     1      10.843  10.494 -20.090  1.00  0.00     0.187 HD
HETATM    6  C9  UNL     1       9.199   7.958 -21.052  1.00  0.00     0.167 A 
ATOM      7  H2  UNL     1       9.450   8.892 -19.242  1.00  0.00     0.189 HD
HETATM    8  S1  UNL     1       9.904   8.418 -22.551  1.00  0.00    -0.038 SA
BRANCH   6   9
HETATM    9  N1  UNL     1       8.403   6.948 -20.789  1.00  0.00    -0.306 N 
HETATM   10  C8  UNL     1       7.569   6.964 -19.631  1.00  0.00     0.223 C 
HETATM   11  O1  UNL     1       8.128   7.204 -18.507  1.00  0.00    -0.273 OA
ATOM     12  H1  UNL     1       8.379   6.145 -21.417  1.00  0.00     0.171 HD
BRANCH  10  13
HETATM   13  C7  UNL     1       6.142   6.710 -19.747  1.00  0.00     0.108 C 
BRANCH  13  14
HETATM   14  C6  UNL     1       5.222   7.876 -19.836  1.00  0.00     0.048 C 
BRANCH  14  15
HETATM   15  C5  UNL     1       5.759   9.025 -20.586  1.00  0.00    -0.058 A 
HETATM   16  C4  UNL     1       6.266  10.135 -19.895  1.00  0.00     0.007 A 
HETATM   17  C3  UNL     1       6.797  11.215 -20.546  1.00  0.00     0.007 A 
HETATM   18  C2  UNL     1       6.858  11.258 -21.911  1.00  0.00    -0.062 A 
HETATM   19  C1  UNL     1       7.439  12.451 -22.590  1.00  0.00     0.048 C 
HETATM   20  C27 UNL     1       6.369  10.182 -22.611  1.00  0.00     0.007 A 
HETATM   21  C26 UNL     1       5.832   9.091 -21.953  1.00  0.00     0.007 A 
ENDBRANCH  14  15
ENDBRANCH  13  14
ENDBRANCH  10  13
ENDBRANCH   6   9
ENDBRANCH   1   2
BRANCH   1  22
HETATM   22  C12 UNL     1      11.084  12.071 -22.986  1.00  0.00     0.007 C 
BRANCH  22  23
HETATM   23  C13 UNL     1      11.659  12.772 -24.165  1.00  0.00     0.005 C 
BRANCH  23  24
HETATM   24  C14 UNL     1      11.706  14.262 -23.984  1.00  0.00     0.038 C 
BRANCH  24  25
HETATM   25  C15 UNL     1      10.343  14.846 -23.897  1.00  0.00    -0.057 A 
HETATM   26  C16 UNL     1       9.558  14.856 -25.062  1.00  0.00     0.009 A 
HETATM   27  C17 UNL     1       8.283  15.349 -25.093  1.00  0.00     0.031 A 
HETATM   28  C18 UNL     1       7.746  15.864 -23.902  1.00  0.00     0.046 A 
HETATM   29  C19 UNL     1       8.482  15.870 -22.746  1.00  0.00     0.009 A 
HETATM   30  N6  UNL     1       6.446  16.413 -23.662  1.00  0.00    -0.319 N 
HETATM   31  C20 UNL     1       9.782  15.354 -22.766  1.00  0.00     0.019 A 
HETATM   32  C21 UNL     1       7.672  16.472 -21.688  1.00  0.00     0.161 A 
HETATM   33  C22 UNL     1       8.366  17.747 -21.244  1.00  0.00     0.171 C 
HETATM   34  N5  UNL     1       7.565  15.649 -20.504  1.00  0.00    -0.319 N 
HETATM   35  C24 UNL     1       6.377  16.774 -22.300  1.00  0.00     0.259 A 
HETATM   36  N4  UNL     1       7.942  17.870 -19.871  1.00  0.00    -0.340 N 
HETATM   37  C23 UNL     1       7.652  16.553 -19.396  1.00  0.00     0.317 C 
ATOM     38  H4  UNL     1       7.865  18.736 -19.337  1.00  0.00     0.164 HD
HETATM   39  O2  UNL     1       7.502  16.263 -18.190  1.00  0.00    -0.247 OA
ATOM     40  H5  UNL     1       7.452  14.635 -20.466  1.00  0.00     0.166 HD
HETATM   41  O3  UNL     1       5.337  17.275 -21.745  1.00  0.00    -0.270 OA
HETATM   42  C25 UNL     1       5.402  16.561 -24.669  1.00  0.00     0.159 C 
ENDBRANCH  24  25
ENDBRANCH  23  24
ENDBRANCH  22  23
ENDBRANCH   1  22
TORSDOF 9
ENDMDL
MODEL 3
REMARK VINA RESULT: -6.831236102      4.108      6.971
REMARK  9 active torsions:
REMARK  status: ('A' for Active; 'I' for Inactive)
REMARK    1  A    between atoms: C5_5  and  C6_6 
REMARK    2  A    between atoms: C6_6  and  C7_7 
REMARK    3  A    between atoms: C7_7  and  C8_8 
REMARK       I    between atoms: C8_8  and  N1_10 
REMARK    4  A    between atoms: N1_10  and  C9_12 
REMARK    5  A    between atoms: C10_17  and  C11_18 
REMARK    6  A    between atoms: C11_18  and  C12_19 
REMARK    7  A    between atoms: C12_19  and  C13_20 
REMARK    8  A    between atoms: C13_20  and  C14_21 
REMARK    9  A    between atoms: C14_21  and  C15_22 
ROOT
HETATM    1  C11 UNL     1       7.356   7.577 -20.590  1.00  0.00     0.066 C 
ENDROOT
BRANCH   1   2
HETATM    2  C10 UNL     1       8.619   7.710 -19.779  1.00  0.00     0.069 A 
HETATM    3  N3  UNL     1       8.818   7.753 -18.478  1.00  0.00    -0.296 N 
HETATM    4  N2  UNL     1       9.983   7.882 -17.995  1.00  0.00    -0.279 N 
ATOM      5  H3  UNL     1       8.021   7.682 -17.847  1.00  0.00     0.187 HD
HETATM    6  C9  UNL     1      11.021   7.975 -18.831  1.00  0.00     0.167 A 
ATOM      7  H2  UNL     1      10.125   7.914 -16.986  1.00  0.00     0.189 HD
HETATM    8  S1  UNL     1      10.237   7.867 -20.356  1.00  0.00    -0.038 SA
BRANCH   6   9
HETATM    9  N1  UNL     1      12.298   8.124 -18.566  1.00  0.00    -0.306 N 
HETATM   10  C8  UNL     1      12.721   8.848 -17.411  1.00  0.00     0.223 C 
HETATM   11  O1  UNL     1      12.243  10.021 -17.246  1.00  0.00    -0.273 OA
ATOM     12  H1  UNL     1      12.995   7.719 -19.191  1.00  0.00     0.171 HD
BRANCH  10  13
HETATM   13  C7  UNL     1      13.663   8.256 -16.475  1.00  0.00     0.108 C 
BRANCH  13  14
HETATM   14  C6  UNL     1      14.148   6.875 -16.740  1.00  0.00     0.048 C 
BRANCH  14  15
HETATM   15  C5  UNL     1      14.751   6.203 -15.576  1.00  0.00    -0.058 A 
HETATM   16  C4  UNL     1      13.927   5.632 -14.595  1.00  0.00     0.007 A 
HETATM   17  C3  UNL     1      14.439   4.976 -13.509  1.00  0.00     0.007 A 
HETATM   18  C2  UNL     1      15.789   4.847 -13.331  1.00  0.00    -0.062 A 
HETATM   19  C1  UNL     1      16.314   4.130 -12.135  1.00  0.00     0.048 C 
HETATM   20  C27 UNL     1      16.617   5.397 -14.279  1.00  0.00     0.007 A 
HETATM   21  C26 UNL     1      16.100   6.059 -15.377  1.00  0.00     0.007 A 
ENDBRANCH  14  15
ENDBRANCH  13  14
ENDBRANCH  10  13
ENDBRANCH   6   9
ENDBRANCH   1   2
BRANCH   1  22
HETATM   22  C12 UNL     1       6.138   8.064 -19.870  1.00  0.00     0.007 C 
BRANCH  22  23
HETATM   23  C13 UNL     1       5.670   9.386 -20.365  1.00  0.00     0.005 C 
BRANCH  23  24
HETATM   24  C14 UNL     1       6.591  10.507 -19.976  1.00  0.00     0.038 C 
BRANCH  24  25
HETATM   25  C15 UNL     1       6.939  11.359 -21.142  1.00  0.00    -0.057 A 
HETATM   26  C16 UNL     1       6.854  10.786 -22.422  1.00  0.00     0.009 A 
HETATM   27  C17 UNL     1       7.129  11.483 -23.565  1.00  0.00     0.031 A 
HETATM   28  C18 UNL     1       7.513  12.828 -23.442  1.00  0.00     0.046 A 
HETATM   29  C19 UNL     1       7.607  13.420 -22.210  1.00  0.00     0.009 A 
HETATM   30  N6  UNL     1       7.833  13.772 -24.469  1.00  0.00    -0.319 N 
HETATM   31  C20 UNL     1       7.314  12.665 -21.070  1.00  0.00     0.019 A 
HETATM   32  C21 UNL     1       8.035  14.805 -22.397  1.00  0.00     0.161 A 
HETATM   33  C22 UNL     1       9.394  14.962 -21.738  1.00  0.00     0.171 C 
HETATM   34  N5  UNL     1       7.172  15.768 -21.751  1.00  0.00    -0.319 N 
HETATM   35  C24 UNL     1       8.138  15.000 -23.845  1.00  0.00     0.259 A 
HETATM   36  N4  UNL     1       9.405  16.357 -21.374  1.00  0.00    -0.340 N 
HETATM   37  C23 UNL     1       8.046  16.761 -21.199  1.00  0.00     0.317 C 
ATOM     38  H4  UNL     1      10.231  16.946 -21.261  1.00  0.00     0.164 HD
HETATM   39  O2  UNL     1       7.699  17.826 -20.644  1.00  0.00    -0.247 OA
ATOM     40  H5  UNL     1       6.153  15.745 -21.699  1.00  0.00     0.166 HD
HETATM   41  O3  UNL     1       8.443  16.069 -24.479  1.00  0.00    -0.270 OA
HETATM   42  C25 UNL     1       7.835  13.485 -25.899  1.00  0.00     0.159 C 
ENDBRANCH  24  25
ENDBRANCH  23  24
ENDBRANCH  22  23
ENDBRANCH   1  22
TORSDOF 9
ENDMDL
MODEL 4
REMARK VINA RESULT: -6.767222594      4.507      7.402
REMARK  9 active torsions:
REMARK  status: ('A' for Active; 'I' for Inactive)
REMARK    1  A    between atoms: C5_5  and  C6_6 
REMARK    2  A    between atoms: C6_6  and  C7_7 
REMARK    3  A    between atoms: C7_7  and  C8_8 
REMARK       I    between atoms: C8_8  and  N1_10 
REMARK    4  A    between atoms: N1_10  and  C9_12 
REMARK    5  A    between atoms: C10_17  and  C11_18 
REMARK    6  A    between atoms: C11_18  and  C12_19 
REMARK    7  A    between atoms: C12_19  and  C13_20 
REMARK    8  A    between atoms: C13_20  and  C14_21 
REMARK    9  A    between atoms: C14_21  and  C15_22 
ROOT
HETATM    1  C11 UNL     1       8.403   8.224 -20.717  1.00  0.00     0.066 C 
ENDROOT
BRANCH   1   2
HETATM    2  C10 UNL     1       9.600   8.586 -19.875  1.00  0.00     0.069 A 
HETATM    3  N3  UNL     1       9.874   9.665 -19.170  1.00  0.00    -0.296 N 
HETATM    4  N2  UNL     1      10.963   9.773 -18.531  1.00  0.00    -0.279 N 
ATOM      5  H3  UNL     1       9.198  10.427 -19.138  1.00  0.00     0.187 HD
HETATM    6  C9  UNL     1      11.842   8.767 -18.580  1.00  0.00     0.167 A 
ATOM      7  H2  UNL     1      11.165  10.612 -17.989  1.00  0.00     0.189 HD
HETATM    8  S1  UNL     1      11.022   7.650 -19.596  1.00  0.00    -0.038 SA
BRANCH   6   9
HETATM    9  N1  UNL     1      13.023   8.660 -18.018  1.00  0.00    -0.306 N 
HETATM   10  C8  UNL     1      13.198   8.957 -16.633  1.00  0.00     0.223 C 
HETATM   11  O1  UNL     1      12.771  10.086 -16.215  1.00  0.00    -0.273 OA
ATOM     12  H1  UNL     1      13.824   8.362 -18.576  1.00  0.00     0.171 HD
BRANCH  10  13
HETATM   13  C7  UNL     1      13.845   7.999 -15.750  1.00  0.00     0.108 C 
BRANCH  13  14
HETATM   14  C6  UNL     1      14.632   6.895 -16.363  1.00  0.00     0.048 C 
BRANCH  14  15
HETATM   15  C5  UNL     1      15.582   6.238 -15.448  1.00  0.00    -0.058 A 
HETATM   16  C4  UNL     1      16.915   6.672 -15.396  1.00  0.00     0.007 A 
HETATM   17  C3  UNL     1      17.829   6.111 -14.546  1.00  0.00     0.007 A 
HETATM   18  C2  UNL     1      17.478   5.094 -13.702  1.00  0.00    -0.062 A 
HETATM   19  C1  UNL     1      18.499   4.502 -12.791  1.00  0.00     0.048 C 
HETATM   20  C27 UNL     1      16.179   4.652 -13.733  1.00  0.00     0.007 A 
HETATM   21  C26 UNL     1      15.255   5.219 -14.592  1.00  0.00     0.007 A 
ENDBRANCH  14  15
ENDBRANCH  13  14
ENDBRANCH  10  13
ENDBRANCH   6   9
ENDBRANCH   1   2
BRANCH   1  22
HETATM   22  C12 UNL     1       7.110   8.292 -19.968  1.00  0.00     0.007 C 
BRANCH  22  23
HETATM   23  C13 UNL     1       6.183   9.318 -20.517  1.00  0.00     0.005 C 
BRANCH  23  24
HETATM   24  C14 UNL     1       6.580  10.716 -20.140  1.00  0.00     0.038 C 
BRANCH  24  25
HETATM   25  C15 UNL     1       6.922  11.529 -21.336  1.00  0.00    -0.057 A 
HETATM   26  C16 UNL     1       6.771  10.932 -22.599  1.00  0.00     0.009 A 
HETATM   27  C17 UNL     1       7.036  11.592 -23.766  1.00  0.00     0.031 A 
HETATM   28  C18 UNL     1       7.477  12.923 -23.687  1.00  0.00     0.046 A 
HETATM   29  C19 UNL     1       7.635  13.537 -22.473  1.00  0.00     0.009 A 
HETATM   30  N6  UNL     1       7.800  13.831 -24.745  1.00  0.00    -0.319 N 
HETATM   31  C20 UNL     1       7.351  12.819 -21.306  1.00  0.00     0.019 A 
HETATM   32  C21 UNL     1       8.112  14.899 -22.705  1.00  0.00     0.161 A 
HETATM   33  C22 UNL     1       9.497  15.015 -22.094  1.00  0.00     0.171 C 
HETATM   34  N5  UNL     1       7.309  15.910 -22.054  1.00  0.00    -0.319 N 
HETATM   35  C24 UNL     1       8.173  15.059 -24.159  1.00  0.00     0.259 A 
HETATM   36  N4  UNL     1       9.576  16.416 -21.762  1.00  0.00    -0.340 N 
HETATM   37  C23 UNL     1       8.240  16.879 -21.553  1.00  0.00     0.317 C 
ATOM     38  H4  UNL     1      10.427  16.974 -21.690  1.00  0.00     0.164 HD
HETATM   39  O2  UNL     1       7.955  17.969 -21.012  1.00  0.00    -0.247 OA
ATOM     40  H5  UNL     1       6.293  15.930 -21.968  1.00  0.00     0.166 HD
HETATM   41  O3  UNL     1       8.500  16.101 -24.827  1.00  0.00    -0.270 OA
HETATM   42  C25 UNL     1       7.742  13.513 -26.167  1.00  0.00     0.159 C 
ENDBRANCH  24  25
ENDBRANCH  23  24
ENDBRANCH  22  23
ENDBRANCH   1  22
TORSDOF 9
ENDMDL
MODEL 5
REMARK VINA RESULT: -6.747312431      3.792      6.575
REMARK  9 active torsions:
REMARK  status: ('A' for Active; 'I' for Inactive)
REMARK    1  A    between atoms: C5_5  and  C6_6 
REMARK    2  A    between atoms: C6_6  and  C7_7 
REMARK    3  A    between atoms: C7_7  and  C8_8 
REMARK       I    between atoms: C8_8  and  N1_10 
REMARK    4  A    between atoms: N1_10  and  C9_12 
REMARK    5  A    between atoms: C10_17  and  C11_18 
REMARK    6  A    between atoms: C11_18  and  C12_19 
REMARK    7  A    between atoms: C12_19  and  C13_20 
REMARK    8  A    between atoms: C13_20  and  C14_21 
REMARK    9  A    between atoms: C14_21  and  C15_22 
ROOT
HETATM    1  C11 UNL     1       7.476   7.518 -20.996  1.00  0.00     0.066 C 
ENDROOT
BRANCH   1   2
HETATM    2  C10 UNL     1       8.597   7.658 -19.998  1.00  0.00     0.069 A 
HETATM    3  N3  UNL     1       8.583   7.826 -18.692  1.00  0.00    -0.296 N 
HETATM    4  N2  UNL     1       9.660   7.933 -18.032  1.00  0.00    -0.279 N 
ATOM      5  H3  UNL     1       7.690   7.870 -18.202  1.00  0.00     0.187 HD
HETATM    6  C9  UNL     1      10.825   7.874 -18.684  1.00  0.00     0.167 A 
ATOM      7  H2  UNL     1       9.638   8.063 -17.021  1.00  0.00     0.189 HD
HETATM    8  S1  UNL     1      10.294   7.654 -20.304  1.00  0.00    -0.038 SA
BRANCH   6   9
HETATM    9  N1  UNL     1      12.049   7.971 -18.221  1.00  0.00    -0.306 N 
HETATM   10  C8  UNL     1      12.398   9.005 -17.301  1.00  0.00     0.223 C 
HETATM   11  O1  UNL     1      12.106  10.205 -17.627  1.00  0.00    -0.273 OA
ATOM     12  H1  UNL     1      12.758   7.302 -18.522  1.00  0.00     0.171 HD
BRANCH  10  13
HETATM   13  C7  UNL     1      13.063   8.683 -16.048  1.00  0.00     0.108 C 
BRANCH  13  14
HETATM   14  C6  UNL     1      12.772   7.369 -15.413  1.00  0.00     0.048 C 
BRANCH  14  15
HETATM   15  C5  UNL     1      13.955   6.517 -15.197  1.00  0.00    -0.058 A 
HETATM   16  C4  UNL     1      15.116   6.729 -15.955  1.00  0.00     0.007 A 
HETATM   17  C3  UNL     1      16.247   5.980 -15.775  1.00  0.00     0.007 A 
HETATM   18  C2  UNL     1      16.295   4.985 -14.839  1.00  0.00    -0.062 A 
HETATM   19  C1  UNL     1      17.541   4.185 -14.671  1.00  0.00     0.048 C 
HETATM   20  C27 UNL     1      15.171   4.759 -14.083  1.00  0.00     0.007 A 
HETATM   21  C26 UNL     1      14.028   5.515 -14.265  1.00  0.00     0.007 A 
ENDBRANCH  14  15
ENDBRANCH  13  14
ENDBRANCH  10  13
ENDBRANCH   6   9
ENDBRANCH   1   2
BRANCH   1  22
HETATM   22  C12 UNL     1       6.221   8.216 -20.577  1.00  0.00     0.007 C 
BRANCH  22  23
HETATM   23  C13 UNL     1       6.102   9.580 -21.158  1.00  0.00     0.005 C 
BRANCH  23  24
HETATM   24  C14 UNL     1       6.485  10.658 -20.185  1.00  0.00     0.038 C 
BRANCH  24  25
HETATM   25  C15 UNL     1       7.430  11.631 -20.789  1.00  0.00    -0.057 A 
HETATM   26  C16 UNL     1       8.637  11.135 -21.310  1.00  0.00     0.009 A 
HETATM   27  C17 UNL     1       9.571  11.935 -21.908  1.00  0.00     0.031 A 
HETATM   28  C18 UNL     1       9.300  13.310 -21.998  1.00  0.00     0.046 A 
HETATM   29  C19 UNL     1       8.134  13.829 -21.502  1.00  0.00     0.009 A 
HETATM   30  N6  UNL     1      10.091  14.348 -22.586  1.00  0.00    -0.319 N 
HETATM   31  C20 UNL     1       7.210  12.968 -20.899  1.00  0.00     0.019 A 
HETATM   32  C21 UNL     1       8.140  15.273 -21.728  1.00  0.00     0.161 A 
HETATM   33  C22 UNL     1       8.136  15.954 -20.371  1.00  0.00     0.171 C 
HETATM   34  N5  UNL     1       6.961  15.755 -22.413  1.00  0.00    -0.319 N 
HETATM   35  C24 UNL     1       9.383  15.560 -22.446  1.00  0.00     0.259 A 
HETATM   36  N4  UNL     1       7.480  17.207 -20.651  1.00  0.00    -0.340 N 
HETATM   37  C23 UNL     1       6.626  16.996 -21.778  1.00  0.00     0.317 C 
ATOM     38  H4  UNL     1       7.602  18.081 -20.141  1.00  0.00     0.164 HD
HETATM   39  O2  UNL     1       5.730  17.791 -22.134  1.00  0.00    -0.247 OA
ATOM     40  H5  UNL     1       6.470  15.305 -23.186  1.00  0.00     0.166 HD
HETATM   41  O3  UNL     1       9.799  16.688 -22.888  1.00  0.00    -0.270 OA
HETATM   42  C25 UNL     1      11.395  14.155 -23.211  1.00  0.00     0.159 C 
ENDBRANCH  24  25
ENDBRANCH  23  24
ENDBRANCH  22  23
ENDBRANCH   1  22
TORSDOF 9
ENDMDL
