MODEL 1
REMARK VINA RESULT: -6.499534585      0.000      0.000
REMARK  12 active torsions:
REMARK  status: ('A' for Active; 'I' for Inactive)
REMARK    1  A    between atoms: C2_2  and  C3_3 
REMARK    2  A    between atoms: C4_4  and  C5_5 
REMARK    3  A    between atoms: C5_5  and  C6_6 
REMARK    4  A    between atoms: C8_11  and  C9_12 
REMARK    5  A    between atoms: C9_12  and  C10_13 
REMARK    6  A    between atoms: C10_13  and  N2_14 
REMARK    7  A    between atoms: N2_14  and  C11_16 
REMARK    8  A    between atoms: C15_20  and  S1_21 
REMARK    9  A    between atoms: S1_21  and  N3_22 
REMARK   10  A    between atoms: N5_32  and  C18_33 
REMARK   11  A    between atoms: C18_33  and  C19_34 
REMARK   12  A    between atoms: C19_34  and  C20_35 
ROOT
HETATM    1  C6  UNL     1       9.075   8.820 -19.767  1.00  0.00     0.079 A 
HETATM    2  N1  UNL     1       7.888   9.057 -19.214  1.00  0.00    -0.317 N 
ATOM      3  H1  UNL     1       7.599   8.558 -18.373  1.00  0.00     0.169 HD
HETATM    4  C7  UNL     1       7.099   9.941 -19.767  1.00  0.00     0.263 A 
HETATM    5  O1  UNL     1       5.937  10.192 -19.250  1.00  0.00    -0.267 OA
HETATM    6  C8  UNL     1       7.512  10.585 -20.885  1.00  0.00     0.076 A 
HETATM    7  S2  UNL     1       9.080   9.876 -21.113  1.00  0.00    -0.067 SA
ENDROOT
BRANCH   1   8
HETATM    8  C5  UNL     1      10.038   7.961 -19.373  1.00  0.00     0.068 C 
BRANCH   8   9
HETATM    9  C4  UNL     1      11.042   8.466 -18.466  1.00  0.00     0.058 A 
HETATM   10  C3  UNL     1      11.568   7.759 -17.405  1.00  0.00     0.039 A 
HETATM   11  N5  UNL     1      12.469   8.513 -16.770  1.00  0.00    -0.344 N 
HETATM   12  C17 UNL     1      12.504   9.701 -17.443  1.00  0.00     0.183 A 
HETATM   13  N4  UNL     1      11.641   9.662 -18.462  1.00  0.00    -0.351 N 
ATOM     14  H4  UNL     1      11.468  10.417 -19.125  1.00  0.00     0.166 HD
BRANCH  10  15
HETATM   15  C2  UNL     1      11.133   6.403 -16.994  1.00  0.00     0.055 C 
HETATM   16  C1  UNL     1      11.763   5.272 -17.715  1.00  0.00     0.011 C 
ENDBRANCH  10  15
BRANCH  11  17
HETATM   17  C18 UNL     1      13.317   8.242 -15.627  1.00  0.00     0.134 C 
BRANCH  17  18
HETATM   18  C19 UNL     1      14.584   7.534 -15.894  1.00  0.00     0.058 C 
BRANCH  18  19
HETATM   19  C20 UNL     1      14.611   6.092 -15.683  1.00  0.00    -0.057 A 
HETATM   20  C21 UNL     1      15.330   5.268 -16.553  1.00  0.00     0.007 A 
HETATM   21  C22 UNL     1      15.399   3.902 -16.396  1.00  0.00     0.001 A 
HETATM   22  C23 UNL     1      14.716   3.358 -15.321  1.00  0.00     0.000 A 
HETATM   23  C24 UNL     1      13.993   4.121 -14.433  1.00  0.00     0.001 A 
HETATM   24  C25 UNL     1      13.952   5.482 -14.627  1.00  0.00     0.007 A 
ENDBRANCH  18  19
ENDBRANCH  17  18
ENDBRANCH  11  17
ENDBRANCH   8   9
ENDBRANCH   1   8
BRANCH   6  25
HETATM   25  C9  UNL     1       6.954  11.503 -21.652  1.00  0.00     0.041 C 
BRANCH  25  26
HETATM   26  C10 UNL     1       7.313  12.888 -21.670  1.00  0.00     0.090 C 
BRANCH  26  27
HETATM   27  N2  UNL     1       7.681  13.470 -20.568  1.00  0.00    -0.366 N 
ATOM     28  H2  UNL     1       7.867  12.889 -19.751  1.00  0.00     0.165 HD
BRANCH  27  29
HETATM   29  C11 UNL     1       7.835  14.872 -20.447  1.00  0.00     0.033 A 
HETATM   30  C12 UNL     1       7.844  15.521 -19.231  1.00  0.00     0.029 A 
HETATM   31  C13 UNL     1       7.997  16.891 -19.155  1.00  0.00     0.004 A 
HETATM   32  C14 UNL     1       8.148  17.658 -20.309  1.00  0.00     0.025 A 
HETATM   33  C15 UNL     1       8.141  17.022 -21.537  1.00  0.00     0.081 A 
HETATM   34  C16 UNL     1       7.986  15.653 -21.591  1.00  0.00     0.054 A 
BRANCH  33  35
HETATM   35  S1  UNL     1       8.326  17.919 -23.042  1.00  0.00     0.256 S 
HETATM   36  O2  UNL     1       7.765  19.303 -22.876  1.00  0.00    -0.201 OA
HETATM   37  O3  UNL     1       7.571  17.264 -24.163  1.00  0.00    -0.201 OA
BRANCH  35  38
HETATM   38  N3  UNL     1       9.982  18.011 -23.487  1.00  0.00    -0.324 N 
ATOM     39  H32 UNL     1      10.563  18.839 -23.351  1.00  0.00     0.169 HD
ATOM     40  H31 UNL     1      10.291  17.131 -23.900  1.00  0.00     0.169 HD
ENDBRANCH  35  38
ENDBRANCH  33  35
ENDBRANCH  27  29
ENDBRANCH  26  27
ENDBRANCH  25  26
ENDBRANCH   6  25
TORSDOF 12
ENDMDL
MODEL 2
REMARK VINA RESULT: -6.484141542      6.695      9.874
REMARK  12 active torsions:
REMARK  status: ('A' for Active; 'I' for Inactive)
REMARK    1  A    between atoms: C2_2  and  C3_3 
REMARK    2  A    between atoms: C4_4  and  C5_5 
REMARK    3  A    between atoms: C5_5  and  C6_6 
REMARK    4  A    between atoms: C8_11  and  C9_12 
REMARK    5  A    between atoms: C9_12  and  C10_13 
REMARK    6  A    between atoms: C10_13  and  N2_14 
REMARK    7  A    between atoms: N2_14  and  C11_16 
REMARK    8  A    between atoms: C15_20  and  S1_21 
REMARK    9  A    between atoms: S1_21  and  N3_22 
REMARK   10  A    between atoms: N5_32  and  C18_33 
REMARK   11  A    between atoms: C18_33  and  C19_34 
REMARK   12  A    between atoms: C19_34  and  C20_35 
ROOT
HETATM    1  C6  UNL     1       6.973  18.705 -22.234  1.00  0.00     0.079 A 
HETATM    2  N1  UNL     1       5.711  18.698 -21.813  1.00  0.00    -0.317 N 
ATOM      3  H1  UNL     1       5.475  18.342 -20.886  1.00  0.00     0.169 HD
HETATM    4  C7  UNL     1       4.778  19.154 -22.607  1.00  0.00     0.263 A 
HETATM    5  O1  UNL     1       3.539  19.158 -22.225  1.00  0.00    -0.267 OA
HETATM    6  C8  UNL     1       5.124  19.617 -23.832  1.00  0.00     0.076 A 
HETATM    7  S2  UNL     1       6.843  19.376 -23.802  1.00  0.00    -0.067 SA
ENDROOT
BRANCH   1   8
HETATM    8  C5  UNL     1       8.083  18.287 -21.591  1.00  0.00     0.068 C 
BRANCH   8   9
HETATM    9  C4  UNL     1       8.022  16.999 -20.939  1.00  0.00     0.058 A 
HETATM   10  C3  UNL     1       8.295  15.795 -21.553  1.00  0.00     0.039 A 
HETATM   11  N5  UNL     1       8.145  14.801 -20.673  1.00  0.00    -0.344 N 
HETATM   12  C17 UNL     1       7.773  15.394 -19.500  1.00  0.00     0.183 A 
HETATM   13  N4  UNL     1       7.702  16.716 -19.671  1.00  0.00    -0.351 N 
ATOM     14  H4  UNL     1       7.447  17.396 -18.955  1.00  0.00     0.166 HD
BRANCH  10  15
HETATM   15  C2  UNL     1       8.626  15.635 -22.989  1.00  0.00     0.055 C 
HETATM   16  C1  UNL     1      10.067  15.538 -23.318  1.00  0.00     0.011 C 
ENDBRANCH  10  15
BRANCH  11  17
HETATM   17  C18 UNL     1       8.333  13.370 -20.796  1.00  0.00     0.134 C 
BRANCH  17  18
HETATM   18  C19 UNL     1       7.522  12.680 -21.818  1.00  0.00     0.058 C 
BRANCH  18  19
HETATM   19  C20 UNL     1       6.895  11.418 -21.448  1.00  0.00    -0.057 A 
HETATM   20  C21 UNL     1       6.550  10.490 -22.434  1.00  0.00     0.007 A 
HETATM   21  C22 UNL     1       5.965   9.278 -22.141  1.00  0.00     0.001 A 
HETATM   22  C23 UNL     1       5.724   9.003 -20.805  1.00  0.00     0.000 A 
HETATM   23  C24 UNL     1       6.044   9.880 -19.794  1.00  0.00     0.001 A 
HETATM   24  C25 UNL     1       6.627  11.079 -20.131  1.00  0.00     0.007 A 
ENDBRANCH  18  19
ENDBRANCH  17  18
ENDBRANCH  11  17
ENDBRANCH   8   9
ENDBRANCH   1   8
BRANCH   6  25
HETATM   25  C9  UNL     1       4.427  20.125 -24.832  1.00  0.00     0.041 C 
BRANCH  25  26
HETATM   26  C10 UNL     1       3.983  21.483 -24.917  1.00  0.00     0.090 C 
BRANCH  26  27
HETATM   27  N2  UNL     1       3.221  21.969 -23.983  1.00  0.00    -0.366 N 
ATOM     28  H2  UNL     1       2.215  21.815 -24.048  1.00  0.00     0.165 HD
BRANCH  27  29
HETATM   29  C11 UNL     1       3.721  22.704 -22.881  1.00  0.00     0.033 A 
HETATM   30  C12 UNL     1       4.818  23.533 -22.972  1.00  0.00     0.029 A 
HETATM   31  C13 UNL     1       5.274  24.233 -21.873  1.00  0.00     0.004 A 
HETATM   32  C14 UNL     1       4.637  24.122 -20.639  1.00  0.00     0.025 A 
HETATM   33  C15 UNL     1       3.533  23.294 -20.532  1.00  0.00     0.081 A 
HETATM   34  C16 UNL     1       3.094  22.602 -21.641  1.00  0.00     0.054 A 
BRANCH  33  35
HETATM   35  S1  UNL     1       2.671  23.098 -19.009  1.00  0.00     0.256 S 
HETATM   36  O2  UNL     1       3.638  22.701 -17.930  1.00  0.00    -0.201 OA
HETATM   37  O3  UNL     1       1.638  22.012 -19.103  1.00  0.00    -0.201 OA
BRANCH  35  38
HETATM   38  N3  UNL     1       1.880  24.560 -18.573  1.00  0.00    -0.324 N 
ATOM     39  H32 UNL     1       0.895  24.750 -18.755  1.00  0.00     0.169 HD
ATOM     40  H31 UNL     1       2.532  25.196 -18.115  1.00  0.00     0.169 HD
ENDBRANCH  35  38
ENDBRANCH  33  35
ENDBRANCH  27  29
ENDBRANCH  26  27
ENDBRANCH  25  26
ENDBRANCH   6  25
TORSDOF 12
ENDMDL
MODEL 3
REMARK VINA RESULT: -6.376806632      2.112      3.190
REMARK  12 active torsions:
REMARK  status: ('A' for Active; 'I' for Inactive)
REMARK    1  A    between atoms: C2_2  and  C3_3 
REMARK    2  A    between atoms: C4_4  and  C5_5 
REMARK    3  A    between atoms: C5_5  and  C6_6 
REMARK    4  A    between atoms: C8_11  and  C9_12 
REMARK    5  A    between atoms: C9_12  and  C10_13 
REMARK    6  A    between atoms: C10_13  and  N2_14 
REMARK    7  A    between atoms: N2_14  and  C11_16 
REMARK    8  A    between atoms: C15_20  and  S1_21 
REMARK    9  A    between atoms: S1_21  and  N3_22 
REMARK   10  A    between atoms: N5_32  and  C18_33 
REMARK   11  A    between atoms: C18_33  and  C19_34 
REMARK   12  A    between atoms: C19_34  and  C20_35 
ROOT
HETATM    1  C6  UNL     1       7.832   8.131 -19.859  1.00  0.00     0.079 A 
HETATM    2  N1  UNL     1       8.624   9.131 -19.480  1.00  0.00    -0.317 N 
ATOM      3  H1  UNL     1       9.425   8.957 -18.872  1.00  0.00     0.169 HD
HETATM    4  C7  UNL     1       8.359  10.340 -19.901  1.00  0.00     0.263 A 
HETATM    5  O1  UNL     1       9.113  11.334 -19.548  1.00  0.00    -0.267 OA
HETATM    6  C8  UNL     1       7.287  10.537 -20.705  1.00  0.00     0.076 A 
HETATM    7  S2  UNL     1       6.673   8.920 -20.839  1.00  0.00    -0.067 SA
ENDROOT
BRANCH   1   8
HETATM    8  C5  UNL     1       7.915   6.820 -19.548  1.00  0.00     0.068 C 
BRANCH   8   9
HETATM    9  C4  UNL     1       8.935   6.429 -18.604  1.00  0.00     0.058 A 
HETATM   10  C3  UNL     1      10.174   5.931 -18.948  1.00  0.00     0.039 A 
HETATM   11  N5  UNL     1      10.873   5.669 -17.841  1.00  0.00    -0.344 N 
HETATM   12  C17 UNL     1      10.060   6.006 -16.797  1.00  0.00     0.183 A 
HETATM   13  N4  UNL     1       8.897   6.462 -17.267  1.00  0.00    -0.351 N 
ATOM     14  H4  UNL     1       8.111   6.782 -16.701  1.00  0.00     0.166 HD
BRANCH  10  15
HETATM   15  C2  UNL     1      10.619   5.658 -20.336  1.00  0.00     0.055 C 
HETATM   16  C1  UNL     1      11.284   6.781 -21.038  1.00  0.00     0.011 C 
ENDBRANCH  10  15
BRANCH  11  17
HETATM   17  C18 UNL     1      12.218   5.165 -17.648  1.00  0.00     0.134 C 
BRANCH  17  18
HETATM   18  C19 UNL     1      13.324   6.104 -17.921  1.00  0.00     0.058 C 
BRANCH  18  19
HETATM   19  C20 UNL     1      13.216   7.452 -17.377  1.00  0.00    -0.057 A 
HETATM   20  C21 UNL     1      13.443   7.680 -16.017  1.00  0.00     0.007 A 
HETATM   21  C22 UNL     1      13.365   8.934 -15.451  1.00  0.00     0.001 A 
HETATM   22  C23 UNL     1      13.047   9.985 -16.294  1.00  0.00     0.000 A 
HETATM   23  C24 UNL     1      12.814   9.818 -17.640  1.00  0.00     0.001 A 
HETATM   24  C25 UNL     1      12.903   8.549 -18.164  1.00  0.00     0.007 A 
ENDBRANCH  18  19
ENDBRANCH  17  18
ENDBRANCH  11  17
ENDBRANCH   8   9
ENDBRANCH   1   8
BRANCH   6  25
HETATM   25  C9  UNL     1       6.775  11.613 -21.274  1.00  0.00     0.041 C 
BRANCH  25  26
HETATM   26  C10 UNL     1       7.408  12.377 -22.305  1.00  0.00     0.090 C 
BRANCH  26  27
HETATM   27  N2  UNL     1       8.313  13.255 -21.992  1.00  0.00    -0.366 N 
ATOM     28  H2  UNL     1       9.285  13.054 -22.226  1.00  0.00     0.165 HD
BRANCH  27  29
HETATM   29  C11 UNL     1       8.014  14.476 -21.340  1.00  0.00     0.033 A 
HETATM   30  C12 UNL     1       8.193  14.663 -19.986  1.00  0.00     0.029 A 
HETATM   31  C13 UNL     1       7.891  15.870 -19.389  1.00  0.00     0.004 A 
HETATM   32  C14 UNL     1       7.396  16.935 -20.138  1.00  0.00     0.025 A 
HETATM   33  C15 UNL     1       7.211  16.763 -21.498  1.00  0.00     0.081 A 
HETATM   34  C16 UNL     1       7.518  15.549 -22.077  1.00  0.00     0.054 A 
BRANCH  33  35
HETATM   35  S1  UNL     1       6.590  18.059 -22.516  1.00  0.00     0.256 S 
HETATM   36  O2  UNL     1       6.180  17.500 -23.849  1.00  0.00    -0.201 OA
HETATM   37  O3  UNL     1       7.641  19.100 -22.775  1.00  0.00    -0.201 OA
BRANCH  35  38
HETATM   38  N3  UNL     1       5.246  18.822 -21.766  1.00  0.00    -0.324 N 
ATOM     39  H32 UNL     1       4.804  18.483 -20.911  1.00  0.00     0.169 HD
ATOM     40  H31 UNL     1       4.963  19.647 -22.294  1.00  0.00     0.169 HD
ENDBRANCH  35  38
ENDBRANCH  33  35
ENDBRANCH  27  29
ENDBRANCH  26  27
ENDBRANCH  25  26
ENDBRANCH   6  25
TORSDOF 12
ENDMDL
MODEL 4
REMARK VINA RESULT: -6.295636355      1.886      2.935
REMARK  12 active torsions:
REMARK  status: ('A' for Active; 'I' for Inactive)
REMARK    1  A    between atoms: C2_2  and  C3_3 
REMARK    2  A    between atoms: C4_4  and  C5_5 
REMARK    3  A    between atoms: C5_5  and  C6_6 
REMARK    4  A    between atoms: C8_11  and  C9_12 
REMARK    5  A    between atoms: C9_12  and  C10_13 
REMARK    6  A    between atoms: C10_13  and  N2_14 
REMARK    7  A    between atoms: N2_14  and  C11_16 
REMARK    8  A    between atoms: C15_20  and  S1_21 
REMARK    9  A    between atoms: S1_21  and  N3_22 
REMARK   10  A    between atoms: N5_32  and  C18_33 
REMARK   11  A    between atoms: C18_33  and  C19_34 
REMARK   12  A    between atoms: C19_34  and  C20_35 
ROOT
HETATM    1  C6  UNL     1       8.157   7.901 -19.683  1.00  0.00     0.079 A 
HETATM    2  N1  UNL     1       8.864   8.978 -19.354  1.00  0.00    -0.317 N 
ATOM      3  H1  UNL     1       9.700   8.893 -18.775  1.00  0.00     0.169 HD
HETATM    4  C7  UNL     1       8.471  10.147 -19.786  1.00  0.00     0.263 A 
HETATM    5  O1  UNL     1       9.141  11.215 -19.482  1.00  0.00    -0.267 OA
HETATM    6  C8  UNL     1       7.357  10.226 -20.552  1.00  0.00     0.076 A 
HETATM    7  S2  UNL     1       6.892   8.556 -20.631  1.00  0.00    -0.067 SA
ENDROOT
BRANCH   1   8
HETATM    8  C5  UNL     1       8.373   6.610 -19.351  1.00  0.00     0.068 C 
BRANCH   8   9
HETATM    9  C4  UNL     1       9.728   6.120 -19.458  1.00  0.00     0.058 A 
HETATM   10  C3  UNL     1      10.609   6.015 -18.403  1.00  0.00     0.039 A 
HETATM   11  N5  UNL     1      11.774   5.529 -18.842  1.00  0.00    -0.344 N 
HETATM   12  C17 UNL     1      11.615   5.332 -20.184  1.00  0.00     0.183 A 
HETATM   13  N4  UNL     1      10.380   5.691 -20.544  1.00  0.00    -0.351 N 
ATOM     14  H4  UNL     1       9.999   5.644 -21.488  1.00  0.00     0.166 HD
BRANCH  10  15
HETATM   15  C2  UNL     1      10.323   6.452 -17.016  1.00  0.00     0.055 C 
HETATM   16  C1  UNL     1       9.952   5.382 -16.060  1.00  0.00     0.011 C 
ENDBRANCH  10  15
BRANCH  11  17
HETATM   17  C18 UNL     1      13.005   5.207 -18.148  1.00  0.00     0.134 C 
BRANCH  17  18
HETATM   18  C19 UNL     1      14.033   6.264 -18.096  1.00  0.00     0.058 C 
BRANCH  18  19
HETATM   19  C20 UNL     1      13.676   7.526 -17.460  1.00  0.00    -0.057 A 
HETATM   20  C21 UNL     1      13.762   7.661 -16.072  1.00  0.00     0.007 A 
HETATM   21  C22 UNL     1      13.447   8.832 -15.419  1.00  0.00     0.001 A 
HETATM   22  C23 UNL     1      13.032   9.896 -16.202  1.00  0.00     0.000 A 
HETATM   23  C24 UNL     1      12.928   9.818 -17.573  1.00  0.00     0.001 A 
HETATM   24  C25 UNL     1      13.254   8.630 -18.184  1.00  0.00     0.007 A 
ENDBRANCH  18  19
ENDBRANCH  17  18
ENDBRANCH  11  17
ENDBRANCH   8   9
ENDBRANCH   1   8
BRANCH   6  25
HETATM   25  C9  UNL     1       6.725  11.237 -21.120  1.00  0.00     0.041 C 
BRANCH  25  26
HETATM   26  C10 UNL     1       7.236  12.021 -22.203  1.00  0.00     0.090 C 
BRANCH  26  27
HETATM   27  N2  UNL     1       8.241  12.819 -21.999  1.00  0.00    -0.366 N 
ATOM     28  H2  UNL     1       9.179  12.484 -22.218  1.00  0.00     0.165 HD
BRANCH  27  29
HETATM   29  C11 UNL     1       8.096  14.131 -21.489  1.00  0.00     0.033 A 
HETATM   30  C12 UNL     1       7.801  14.390 -20.168  1.00  0.00     0.029 A 
HETATM   31  C13 UNL     1       7.668  15.685 -19.708  1.00  0.00     0.004 A 
HETATM   32  C14 UNL     1       7.830  16.769 -20.568  1.00  0.00     0.025 A 
HETATM   33  C15 UNL     1       8.126  16.526 -21.897  1.00  0.00     0.081 A 
HETATM   34  C16 UNL     1       8.254  15.225 -22.337  1.00  0.00     0.054 A 
BRANCH  33  35
HETATM   35  S1  UNL     1       8.346  17.840 -23.049  1.00  0.00     0.256 S 
HETATM   36  O2  UNL     1       7.820  19.119 -22.461  1.00  0.00    -0.201 OA
HETATM   37  O3  UNL     1       7.581  17.587 -24.317  1.00  0.00    -0.201 OA
BRANCH  35  38
HETATM   38  N3  UNL     1      10.007  18.021 -23.446  1.00  0.00    -0.324 N 
ATOM     39  H32 UNL     1      10.612  18.739 -23.049  1.00  0.00     0.169 HD
ATOM     40  H31 UNL     1      10.291  17.315 -24.125  1.00  0.00     0.169 HD
ENDBRANCH  35  38
ENDBRANCH  33  35
ENDBRANCH  27  29
ENDBRANCH  26  27
ENDBRANCH  25  26
ENDBRANCH   6  25
TORSDOF 12
ENDMDL
MODEL 5
REMARK VINA RESULT: -6.276867083      2.402      3.486
REMARK  12 active torsions:
REMARK  status: ('A' for Active; 'I' for Inactive)
REMARK    1  A    between atoms: C2_2  and  C3_3 
REMARK    2  A    between atoms: C4_4  and  C5_5 
REMARK    3  A    between atoms: C5_5  and  C6_6 
REMARK    4  A    between atoms: C8_11  and  C9_12 
REMARK    5  A    between atoms: C9_12  and  C10_13 
REMARK    6  A    between atoms: C10_13  and  N2_14 
REMARK    7  A    between atoms: N2_14  and  C11_16 
REMARK    8  A    between atoms: C15_20  and  S1_21 
REMARK    9  A    between atoms: S1_21  and  N3_22 
REMARK   10  A    between atoms: N5_32  and  C18_33 
REMARK   11  A    between atoms: C18_33  and  C19_34 
REMARK   12  A    between atoms: C19_34  and  C20_35 
ROOT
HETATM    1  C6  UNL     1       7.953   9.612 -20.308  1.00  0.00     0.079 A 
HETATM    2  N1  UNL     1       8.967  10.379 -19.915  1.00  0.00    -0.317 N 
ATOM      3  H1  UNL     1       9.760   9.975 -19.416  1.00  0.00     0.169 HD
HETATM    4  C7  UNL     1       8.930  11.658 -20.180  1.00  0.00     0.263 A 
HETATM    5  O1  UNL     1       9.904  12.430 -19.809  1.00  0.00    -0.267 OA
HETATM    6  C8  UNL     1       7.863  12.163 -20.843  1.00  0.00     0.076 A 
HETATM    7  S2  UNL     1       6.911  10.731 -21.075  1.00  0.00    -0.067 SA
ENDROOT
BRANCH   1   8
HETATM    8  C5  UNL     1       7.782   8.283 -20.143  1.00  0.00     0.068 C 
BRANCH   8   9
HETATM    9  C4  UNL     1       8.728   7.596 -19.294  1.00  0.00     0.058 A 
HETATM   10  C3  UNL     1       9.875   6.976 -19.741  1.00  0.00     0.039 A 
HETATM   11  N5  UNL     1      10.524   6.438 -18.704  1.00  0.00    -0.344 N 
HETATM   12  C17 UNL     1       9.770   6.726 -17.602  1.00  0.00     0.183 A 
HETATM   13  N4  UNL     1       8.692   7.424 -17.968  1.00  0.00    -0.351 N 
ATOM     14  H4  UNL     1       7.964   7.767 -17.342  1.00  0.00     0.166 HD
BRANCH  10  15
HETATM   15  C2  UNL     1      10.275   6.861 -21.163  1.00  0.00     0.055 C 
HETATM   16  C1  UNL     1      11.199   7.905 -21.665  1.00  0.00     0.011 C 
ENDBRANCH  10  15
BRANCH  11  17
HETATM   17  C18 UNL     1      11.774   5.711 -18.623  1.00  0.00     0.134 C 
BRANCH  17  18
HETATM   18  C19 UNL     1      13.009   6.517 -18.583  1.00  0.00     0.058 C 
BRANCH  18  19
HETATM   19  C20 UNL     1      13.053   7.644 -17.659  1.00  0.00    -0.057 A 
HETATM   20  C21 UNL     1      12.884   8.947 -18.133  1.00  0.00     0.007 A 
HETATM   21  C22 UNL     1      12.906  10.047 -17.305  1.00  0.00     0.001 A 
HETATM   22  C23 UNL     1      13.108   9.813 -15.955  1.00  0.00     0.000 A 
HETATM   23  C24 UNL     1      13.280   8.551 -15.434  1.00  0.00     0.001 A 
HETATM   24  C25 UNL     1      13.250   7.481 -16.297  1.00  0.00     0.007 A 
ENDBRANCH  18  19
ENDBRANCH  17  18
ENDBRANCH  11  17
ENDBRANCH   8   9
ENDBRANCH   1   8
BRANCH   6  25
HETATM   25  C9  UNL     1       7.545  13.381 -21.242  1.00  0.00     0.041 C 
BRANCH  25  26
HETATM   26  C10 UNL     1       7.728  14.573 -20.472  1.00  0.00     0.090 C 
BRANCH  26  27
HETATM   27  N2  UNL     1       8.745  15.345 -20.714  1.00  0.00    -0.366 N 
ATOM     28  H2  UNL     1       9.624  15.155 -20.233  1.00  0.00     0.165 HD
BRANCH  27  29
HETATM   29  C11 UNL     1       8.691  16.437 -21.613  1.00  0.00     0.033 A 
HETATM   30  C12 UNL     1       8.173  17.666 -21.265  1.00  0.00     0.029 A 
HETATM   31  C13 UNL     1       8.139  18.706 -22.172  1.00  0.00     0.004 A 
HETATM   32  C14 UNL     1       8.628  18.544 -23.466  1.00  0.00     0.025 A 
HETATM   33  C15 UNL     1       9.152  17.316 -23.830  1.00  0.00     0.081 A 
HETATM   34  C16 UNL     1       9.176  16.289 -22.910  1.00  0.00     0.054 A 
BRANCH  33  35
HETATM   35  S1  UNL     1       9.791  17.029 -25.446  1.00  0.00     0.256 S 
HETATM   36  O2  UNL     1      10.339  18.310 -26.007  1.00  0.00    -0.201 OA
HETATM   37  O3  UNL     1       8.715  16.558 -26.382  1.00  0.00    -0.201 OA
BRANCH  35  38
HETATM   38  N3  UNL     1      11.027  15.837 -25.400  1.00  0.00    -0.324 N 
ATOM     39  H32 UNL     1      11.479  15.518 -24.543  1.00  0.00     0.169 HD
ATOM     40  H31 UNL     1      11.237  15.503 -26.341  1.00  0.00     0.169 HD
ENDBRANCH  35  38
ENDBRANCH  33  35
ENDBRANCH  27  29
ENDBRANCH  26  27
ENDBRANCH  25  26
ENDBRANCH   6  25
TORSDOF 12
ENDMDL
