MODEL 1
REMARK VINA RESULT: -8.027942683      0.000      0.000
REMARK  5 active torsions:
REMARK  status: ('A' for Active; 'I' for Inactive)
REMARK    1  A    between atoms: C2_2  and  N1_3 
REMARK    2  A    between atoms: N1_3  and  C3_5 
REMARK    3  A    between atoms: C5_9  and  N3_10 
REMARK    4  A    between atoms: N3_10  and  C6_12 
REMARK    5  A    between atoms: N4_17  and  S1_18 
ROOT
HETATM    1  N3  UNL     1      35.804  35.792  20.546  1.00  0.00    -0.353 N 
ATOM      2  H3  UNL     1      36.727  35.567  20.917  1.00  0.00     0.166 HD
ENDROOT
BRANCH   1   3
HETATM    3  C5  UNL     1      35.523  35.463  19.205  1.00  0.00     0.049 A 
HETATM    4  C4  UNL     1      34.615  34.513  18.818  1.00  0.00     0.119 A 
HETATM    5  N2  UNL     1      34.423  34.278  17.495  1.00  0.00    -0.349 N 
HETATM    6  C3  UNL     1      35.060  34.907  16.517  1.00  0.00     0.118 A 
ATOM      7  H2  UNL     1      33.741  33.566  17.235  1.00  0.00     0.167 HD
HETATM    8  C15 UNL     1      35.988  35.876  16.877  1.00  0.00     0.057 A 
HETATM    9  C14 UNL     1      36.200  36.133  18.209  1.00  0.00     0.054 A 
HETATM   10 BR1  UNL     1      36.945  36.825  15.517  1.00  0.00    -0.047 Br
BRANCH   6  11
HETATM   11  N1  UNL     1      34.880  34.685  15.272  1.00  0.00    -0.376 N 
ATOM     12  H1  UNL     1      35.674  34.706  14.631  1.00  0.00     0.161 HD
BRANCH  11  13
HETATM   13  C2  UNL     1      33.558  34.406  14.772  1.00  0.00     0.116 C 
HETATM   14  C1  UNL     1      32.805  35.685  14.607  1.00  0.00     0.026 C 
ENDBRANCH  11  13
ENDBRANCH   6  11
ENDBRANCH   1   3
BRANCH   1  15
HETATM   15  C6  UNL     1      34.856  36.425  21.412  1.00  0.00     0.064 A 
HETATM   16  C7  UNL     1      34.727  37.784  21.591  1.00  0.00    -0.010 A 
HETATM   17  C8  UNL     1      35.537  38.859  20.930  1.00  0.00     0.052 C 
HETATM   18  C9  UNL     1      33.702  38.016  22.506  1.00  0.00     0.032 A 
HETATM   19  C10 UNL     1      33.226  39.360  22.992  1.00  0.00     0.070 C 
HETATM   20  N4  UNL     1      33.213  36.820  22.878  1.00  0.00    -0.246 N 
HETATM   21  C12 UNL     1      33.900  35.861  22.226  1.00  0.00     0.051 A 
HETATM   22  C13 UNL     1      33.638  34.429  22.386  1.00  0.00     0.072 C 
BRANCH  20  23
HETATM   23  S1  UNL     1      31.920  36.645  24.011  1.00  0.00     0.233 S 
HETATM   24  C11 UNL     1      32.331  37.287  25.595  1.00  0.00     0.186 C 
HETATM   25  O1  UNL     1      30.676  37.320  23.517  1.00  0.00    -0.206 OA
HETATM   26  O2  UNL     1      31.600  35.184  24.165  1.00  0.00    -0.206 OA
ENDBRANCH  20  23
ENDBRANCH   1  15
TORSDOF 5
ENDMDL
MODEL 2
REMARK VINA RESULT: -7.636214999      1.939      2.412
REMARK  5 active torsions:
REMARK  status: ('A' for Active; 'I' for Inactive)
REMARK    1  A    between atoms: C2_2  and  N1_3 
REMARK    2  A    between atoms: N1_3  and  C3_5 
REMARK    3  A    between atoms: C5_9  and  N3_10 
REMARK    4  A    between atoms: N3_10  and  C6_12 
REMARK    5  A    between atoms: N4_17  and  S1_18 
ROOT
HETATM    1  N3  UNL     1      36.479  36.781  21.147  1.00  0.00    -0.353 N 
ATOM      2  H3  UNL     1      37.291  36.563  21.724  1.00  0.00     0.166 HD
ENDROOT
BRANCH   1   3
HETATM    3  C5  UNL     1      36.634  36.782  19.747  1.00  0.00     0.049 A 
HETATM    4  C4  UNL     1      37.778  37.168  19.098  1.00  0.00     0.119 A 
HETATM    5  N2  UNL     1      37.817  37.129  17.742  1.00  0.00    -0.349 N 
HETATM    6  C3  UNL     1      36.813  36.739  16.969  1.00  0.00     0.118 A 
ATOM      7  H2  UNL     1      38.680  37.420  17.285  1.00  0.00     0.167 HD
HETATM    8  C15 UNL     1      35.639  36.342  17.596  1.00  0.00     0.057 A 
HETATM    9  C14 UNL     1      35.573  36.373  18.968  1.00  0.00     0.054 A 
HETATM   10 BR1  UNL     1      34.147  35.766  16.543  1.00  0.00    -0.047 Br
BRANCH   6  11
HETATM   11  N1  UNL     1      36.850  36.702  15.693  1.00  0.00    -0.376 N 
ATOM     12  H1  UNL     1      36.062  36.318  15.171  1.00  0.00     0.161 HD
BRANCH  11  13
HETATM   13  C2  UNL     1      38.003  37.204  14.989  1.00  0.00     0.116 C 
HETATM   14  C1  UNL     1      37.586  38.298  14.061  1.00  0.00     0.026 C 
ENDBRANCH  11  13
ENDBRANCH   6  11
ENDBRANCH   1   3
BRANCH   1  15
HETATM   15  C6  UNL     1      35.238  37.071  21.798  1.00  0.00     0.064 A 
HETATM   16  C7  UNL     1      34.797  38.328  22.145  1.00  0.00    -0.010 A 
HETATM   17  C8  UNL     1      35.512  39.627  21.917  1.00  0.00     0.052 C 
HETATM   18  C9  UNL     1      33.551  38.208  22.758  1.00  0.00     0.032 A 
HETATM   19  C10 UNL     1      32.707  39.335  23.294  1.00  0.00     0.070 C 
HETATM   20  N4  UNL     1      33.236  36.901  22.784  1.00  0.00    -0.246 N 
HETATM   21  C12 UNL     1      34.243  36.213  22.210  1.00  0.00     0.051 A 
HETATM   22  C13 UNL     1      34.245  34.756  22.062  1.00  0.00     0.072 C 
BRANCH  20  23
HETATM   23  S1  UNL     1      31.765  36.303  23.463  1.00  0.00     0.233 S 
HETATM   24  C11 UNL     1      31.763  36.377  25.219  1.00  0.00     0.186 C 
HETATM   25  O1  UNL     1      30.582  37.060  22.939  1.00  0.00    -0.206 OA
HETATM   26  O2  UNL     1      31.587  34.866  23.054  1.00  0.00    -0.206 OA
ENDBRANCH  20  23
ENDBRANCH   1  15
TORSDOF 5
ENDMDL
MODEL 3
REMARK VINA RESULT: -7.578772695      1.620      2.131
REMARK  5 active torsions:
REMARK  status: ('A' for Active; 'I' for Inactive)
REMARK    1  A    between atoms: C2_2  and  N1_3 
REMARK    2  A    between atoms: N1_3  and  C3_5 
REMARK    3  A    between atoms: C5_9  and  N3_10 
REMARK    4  A    between atoms: N3_10  and  C6_12 
REMARK    5  A    between atoms: N4_17  and  S1_18 
ROOT
HETATM    1  N3  UNL     1      35.537  35.342  20.792  1.00  0.00    -0.353 N 
ATOM      2  H3  UNL     1      35.933  34.508  21.227  1.00  0.00     0.166 HD
ENDROOT
BRANCH   1   3
HETATM    3  C5  UNL     1      35.894  35.637  19.462  1.00  0.00     0.049 A 
HETATM    4  C4  UNL     1      37.133  36.079  19.076  1.00  0.00     0.119 A 
HETATM    5  N2  UNL     1      37.368  36.332  17.764  1.00  0.00    -0.349 N 
HETATM    6  C3  UNL     1      36.475  36.185  16.795  1.00  0.00     0.118 A 
ATOM      7  H2  UNL     1      38.298  36.659  17.504  1.00  0.00     0.167 HD
HETATM    8  C15 UNL     1      35.209  35.739  17.154  1.00  0.00     0.057 A 
HETATM    9  C14 UNL     1      34.946  35.475  18.476  1.00  0.00     0.054 A 
HETATM   10 BR1  UNL     1      33.869  35.503  15.807  1.00  0.00    -0.047 Br
BRANCH   6  11
HETATM   11  N1  UNL     1      36.696  36.424  15.560  1.00  0.00    -0.376 N 
ATOM     12  H1  UNL     1      36.019  36.131  14.855  1.00  0.00     0.161 HD
BRANCH  11  13
HETATM   13  C2  UNL     1      37.901  37.107  15.161  1.00  0.00     0.116 C 
HETATM   14  C1  UNL     1      37.566  38.176  14.173  1.00  0.00     0.026 C 
ENDBRANCH  11  13
ENDBRANCH   6  11
ENDBRANCH   1   3
BRANCH   1  15
HETATM   15  C6  UNL     1      34.646  36.155  21.563  1.00  0.00     0.064 A 
HETATM   16  C7  UNL     1      34.724  37.525  21.684  1.00  0.00    -0.010 A 
HETATM   17  C8  UNL     1      35.737  38.428  21.046  1.00  0.00     0.052 C 
HETATM   18  C9  UNL     1      33.690  37.956  22.512  1.00  0.00     0.032 A 
HETATM   19  C10 UNL     1      33.402  39.380  22.913  1.00  0.00     0.070 C 
HETATM   20  N4  UNL     1      32.992  36.870  22.889  1.00  0.00    -0.246 N 
HETATM   21  C12 UNL     1      33.560  35.786  22.324  1.00  0.00     0.051 A 
HETATM   22  C13 UNL     1      33.064  34.422  22.515  1.00  0.00     0.072 C 
BRANCH  20  23
HETATM   23  S1  UNL     1      31.615  36.952  23.929  1.00  0.00     0.233 S 
HETATM   24  C11 UNL     1      31.895  37.984  25.325  1.00  0.00     0.186 C 
HETATM   25  O1  UNL     1      30.410  37.447  23.188  1.00  0.00    -0.206 OA
HETATM   26  O2  UNL     1      31.294  35.569  24.425  1.00  0.00    -0.206 OA
ENDBRANCH  20  23
ENDBRANCH   1  15
TORSDOF 5
ENDMDL
MODEL 4
REMARK VINA RESULT: -7.564527132      2.022      3.128
REMARK  5 active torsions:
REMARK  status: ('A' for Active; 'I' for Inactive)
REMARK    1  A    between atoms: C2_2  and  N1_3 
REMARK    2  A    between atoms: N1_3  and  C3_5 
REMARK    3  A    between atoms: C5_9  and  N3_10 
REMARK    4  A    between atoms: N3_10  and  C6_12 
REMARK    5  A    between atoms: N4_17  and  S1_18 
ROOT
HETATM    1  N3  UNL     1      35.221  34.611  20.647  1.00  0.00    -0.353 N 
ATOM      2  H3  UNL     1      35.521  33.673  20.914  1.00  0.00     0.166 HD
ENDROOT
BRANCH   1   3
HETATM    3  C5  UNL     1      35.599  35.101  19.382  1.00  0.00     0.049 A 
HETATM    4  C4  UNL     1      36.838  35.610  19.092  1.00  0.00     0.119 A 
HETATM    5  N2  UNL     1      37.095  36.055  17.836  1.00  0.00    -0.349 N 
HETATM    6  C3  UNL     1      36.225  36.038  16.837  1.00  0.00     0.118 A 
ATOM      7  H2  UNL     1      38.025  36.428  17.647  1.00  0.00     0.167 HD
HETATM    8  C15 UNL     1      34.959  35.528  17.098  1.00  0.00     0.057 A 
HETATM    9  C14 UNL     1      34.674  35.072  18.362  1.00  0.00     0.054 A 
HETATM   10 BR1  UNL     1      33.650  35.472  15.703  1.00  0.00    -0.047 Br
BRANCH   6  11
HETATM   11  N1  UNL     1      36.466  36.457  15.654  1.00  0.00    -0.376 N 
ATOM     12  H1  UNL     1      35.703  36.564  14.986  1.00  0.00     0.161 HD
BRANCH  11  13
HETATM   13  C2  UNL     1      37.816  36.778  15.264  1.00  0.00     0.116 C 
HETATM   14  C1  UNL     1      37.807  37.976  14.372  1.00  0.00     0.026 C 
ENDBRANCH  11  13
ENDBRANCH   6  11
ENDBRANCH   1   3
BRANCH   1  15
HETATM   15  C6  UNL     1      34.435  35.365  21.576  1.00  0.00     0.064 A 
HETATM   16  C7  UNL     1      33.346  34.885  22.269  1.00  0.00    -0.010 A 
HETATM   17  C8  UNL     1      32.770  33.501  22.194  1.00  0.00     0.052 C 
HETATM   18  C9  UNL     1      32.844  35.907  23.072  1.00  0.00     0.032 A 
HETATM   19  C10 UNL     1      31.658  35.818  23.996  1.00  0.00     0.070 C 
HETATM   20  N4  UNL     1      33.614  36.992  22.875  1.00  0.00    -0.246 N 
HETATM   21  C12 UNL     1      34.570  36.674  21.979  1.00  0.00     0.051 A 
HETATM   22  C13 UNL     1      35.593  37.616  21.520  1.00  0.00     0.072 C 
BRANCH  20  23
HETATM   23  S1  UNL     1      33.342  38.496  23.679  1.00  0.00     0.233 S 
HETATM   24  C11 UNL     1      34.174  38.584  25.226  1.00  0.00     0.186 C 
HETATM   25  O1  UNL     1      33.774  39.650  22.825  1.00  0.00    -0.206 OA
HETATM   26  O2  UNL     1      31.868  38.658  23.929  1.00  0.00    -0.206 OA
ENDBRANCH  20  23
ENDBRANCH   1  15
TORSDOF 5
ENDMDL
MODEL 5
REMARK VINA RESULT: -7.504210448      2.723      3.713
REMARK  5 active torsions:
REMARK  status: ('A' for Active; 'I' for Inactive)
REMARK    1  A    between atoms: C2_2  and  N1_3 
REMARK    2  A    between atoms: N1_3  and  C3_5 
REMARK    3  A    between atoms: C5_9  and  N3_10 
REMARK    4  A    between atoms: N3_10  and  C6_12 
REMARK    5  A    between atoms: N4_17  and  S1_18 
ROOT
HETATM    1  N3  UNL     1      34.083  37.146  20.638  1.00  0.00    -0.353 N 
ATOM      2  H3  UNL     1      33.135  37.354  20.326  1.00  0.00     0.166 HD
ENDROOT
BRANCH   1   3
HETATM    3  C5  UNL     1      35.084  36.962  19.664  1.00  0.00     0.049 A 
HETATM    4  C4  UNL     1      36.389  37.352  19.817  1.00  0.00     0.119 A 
HETATM    5  N2  UNL     1      37.272  37.125  18.812  1.00  0.00    -0.349 N 
HETATM    6  C3  UNL     1      36.970  36.540  17.661  1.00  0.00     0.118 A 
ATOM      7  H2  UNL     1      38.236  37.425  18.952  1.00  0.00     0.167 HD
HETATM    8  C15 UNL     1      35.655  36.133  17.475  1.00  0.00     0.057 A 
HETATM    9  C14 UNL     1      34.742  36.352  18.477  1.00  0.00     0.054 A 
HETATM   10 BR1  UNL     1      35.147  35.281  15.837  1.00  0.00    -0.047 Br
BRANCH   6  11
HETATM   11  N1  UNL     1      37.801  36.326  16.714  1.00  0.00    -0.376 N 
ATOM     12  H1  UNL     1      37.985  35.372  16.404  1.00  0.00     0.161 HD
BRANCH  11  13
HETATM   13  C2  UNL     1      38.477  37.432  16.084  1.00  0.00     0.116 C 
HETATM   14  C1  UNL     1      37.953  37.614  14.697  1.00  0.00     0.026 C 
ENDBRANCH  11  13
ENDBRANCH   6  11
ENDBRANCH   1   3
BRANCH   1  15
HETATM   15  C6  UNL     1      34.332  37.054  22.045  1.00  0.00     0.064 A 
HETATM   16  C7  UNL     1      34.567  35.886  22.736  1.00  0.00    -0.010 A 
HETATM   17  C8  UNL     1      34.608  34.498  22.170  1.00  0.00     0.052 C 
HETATM   18  C9  UNL     1      34.764  36.198  24.080  1.00  0.00     0.032 A 
HETATM   19  C10 UNL     1      35.051  35.222  25.191  1.00  0.00     0.070 C 
HETATM   20  N4  UNL     1      34.654  37.532  24.207  1.00  0.00    -0.246 N 
HETATM   21  C12 UNL     1      34.395  38.053  22.991  1.00  0.00     0.051 A 
HETATM   22  C13 UNL     1      34.211  39.485  22.746  1.00  0.00     0.072 C 
BRANCH  20  23
HETATM   23  S1  UNL     1      34.829  38.350  25.718  1.00  0.00     0.233 S 
HETATM   24  C11 UNL     1      33.367  39.207  26.186  1.00  0.00     0.186 C 
HETATM   25  O1  UNL     1      35.205  37.393  26.809  1.00  0.00    -0.206 OA
HETATM   26  O2  UNL     1      35.945  39.353  25.606  1.00  0.00    -0.206 OA
ENDBRANCH  20  23
ENDBRANCH   1  15
TORSDOF 5
ENDMDL
