MODEL 1
REMARK VINA RESULT: -8.803530062      0.000      0.000
REMARK  7 active torsions:
REMARK  status: ('A' for Active; 'I' for Inactive)
REMARK    1  A    between atoms: O1_2  and  C2_3 
REMARK    2  A    between atoms: C2_3  and  C3_5 
REMARK    3  A    between atoms: C7_10  and  C8_11 
REMARK    4  A    between atoms: C8_11  and  N1_12 
REMARK       I    between atoms: N1_12  and  C10_14 
REMARK       I    between atoms: C10_14  and  N2_16 
REMARK    5  A    between atoms: N2_16  and  C11_18 
REMARK    6  A    between atoms: C13_21  and  C14_22 
REMARK    7  A    between atoms: C19_27  and  O5_28 
ROOT
HETATM    1  N1  UNL     1      35.096  37.407  20.145  1.00  0.00    -0.334 N 
HETATM    2  C9  UNL     1      35.198  38.462  19.143  1.00  0.00     0.154 C 
HETATM    3  C10 UNL     1      35.368  37.714  21.489  1.00  0.00     0.318 C 
HETATM    4  O3  UNL     1      35.684  38.880  21.807  1.00  0.00    -0.247 OA
HETATM    5  N2  UNL     1      35.288  36.723  22.482  1.00  0.00    -0.334 N 
ATOM      6  H2  UNL     1      35.027  35.779  22.197  1.00  0.00     0.164 HD
ENDROOT
BRANCH   1   7
HETATM    7  C8  UNL     1      34.717  36.071  19.730  1.00  0.00     0.165 C 
BRANCH   7   8
HETATM    8  C7  UNL     1      35.084  35.818  18.326  1.00  0.00    -0.036 A 
HETATM    9  C6  UNL     1      36.407  35.829  17.938  1.00  0.00     0.051 A 
HETATM   10  C5  UNL     1      36.700  35.590  16.619  1.00  0.00     0.117 A 
HETATM   11  C4  UNL     1      35.680  35.348  15.724  1.00  0.00     0.059 A 
HETATM   12  F1  UNL     1      37.971  35.591  16.199  1.00  0.00    -0.206 F 
HETATM   13  C3  UNL     1      34.351  35.332  16.084  1.00  0.00     0.043 A 
HETATM   14  C20 UNL     1      34.066  35.573  17.411  1.00  0.00     0.026 A 
BRANCH  13  15
HETATM   15  C2  UNL     1      33.297  35.072  15.110  1.00  0.00     0.293 C 
HETATM   16  O2  UNL     1      32.551  36.005  14.733  1.00  0.00    -0.259 OA
BRANCH  15  17
HETATM   17  O1  UNL     1      33.113  33.809  14.598  1.00  0.00    -0.323 OA
HETATM   18  C1  UNL     1      32.816  33.530  13.252  1.00  0.00     0.213 C 
ENDBRANCH  15  17
ENDBRANCH  13  15
ENDBRANCH   7   8
ENDBRANCH   1   7
BRANCH   5  19
HETATM   19  C11 UNL     1      35.553  36.962  23.884  1.00  0.00     0.138 C 
HETATM   20  C12 UNL     1      35.734  35.672  24.653  1.00  0.00     0.196 C 
HETATM   21  O4  UNL     1      34.552  35.388  25.325  1.00  0.00    -0.383 OA
HETATM   22  C13 UNL     1      34.399  36.195  26.451  1.00  0.00     0.131 C 
HETATM   23  C18 UNL     1      34.651  37.608  26.051  1.00  0.00     0.066 C 
HETATM   24  C19 UNL     1      34.477  37.763  24.550  1.00  0.00     0.145 C 
BRANCH  22  25
HETATM   25  C14 UNL     1      33.040  35.986  27.083  1.00  0.00    -0.025 C 
HETATM   26  C15 UNL     1      32.169  35.229  26.090  1.00  0.00     0.017 C 
HETATM   27  C16 UNL     1      32.354  37.263  27.442  1.00  0.00     0.017 C 
HETATM   28  C17 UNL     1      33.151  35.151  28.341  1.00  0.00     0.017 C 
ENDBRANCH  22  25
BRANCH  24  29
HETATM   29  O5  UNL     1      34.582  39.123  24.275  1.00  0.00    -0.393 OA
ATOM     30  H5  UNL     1      35.180  39.567  24.865  1.00  0.00     0.210 HD
ENDBRANCH  24  29
ENDBRANCH   5  19
TORSDOF 7
ENDMDL
MODEL 2
REMARK VINA RESULT: -8.628019716      3.370      7.588
REMARK  7 active torsions:
REMARK  status: ('A' for Active; 'I' for Inactive)
REMARK    1  A    between atoms: O1_2  and  C2_3 
REMARK    2  A    between atoms: C2_3  and  C3_5 
REMARK    3  A    between atoms: C7_10  and  C8_11 
REMARK    4  A    between atoms: C8_11  and  N1_12 
REMARK       I    between atoms: N1_12  and  C10_14 
REMARK       I    between atoms: C10_14  and  N2_16 
REMARK    5  A    between atoms: N2_16  and  C11_18 
REMARK    6  A    between atoms: C13_21  and  C14_22 
REMARK    7  A    between atoms: C19_27  and  O5_28 
ROOT
HETATM    1  N1  UNL     1      35.744  37.943  23.749  1.00  0.00    -0.334 N 
HETATM    2  C9  UNL     1      35.660  38.932  24.816  1.00  0.00     0.154 C 
HETATM    3  C10 UNL     1      35.900  38.380  22.422  1.00  0.00     0.318 C 
HETATM    4  O3  UNL     1      35.971  39.603  22.177  1.00  0.00    -0.247 OA
HETATM    5  N2  UNL     1      35.978  37.456  21.367  1.00  0.00    -0.334 N 
ATOM      6  H2  UNL     1      35.918  36.463  21.592  1.00  0.00     0.164 HD
ENDROOT
BRANCH   1   7
HETATM    7  C8  UNL     1      35.666  36.534  24.082  1.00  0.00     0.165 C 
BRANCH   7   8
HETATM    8  C7  UNL     1      34.301  36.013  23.899  1.00  0.00    -0.036 A 
HETATM    9  C6  UNL     1      33.228  36.641  24.496  1.00  0.00     0.051 A 
HETATM   10  C5  UNL     1      31.975  36.118  24.299  1.00  0.00     0.117 A 
HETATM   11  C4  UNL     1      31.818  34.993  23.520  1.00  0.00     0.059 A 
HETATM   12  F1  UNL     1      30.906  36.697  24.859  1.00  0.00    -0.206 F 
HETATM   13  C3  UNL     1      32.870  34.345  22.912  1.00  0.00     0.043 A 
HETATM   14  C20 UNL     1      34.126  34.877  23.117  1.00  0.00     0.026 A 
BRANCH  13  15
HETATM   15  C2  UNL     1      32.667  33.155  22.094  1.00  0.00     0.293 C 
HETATM   16  O2  UNL     1      33.269  33.038  21.002  1.00  0.00    -0.259 OA
BRANCH  15  17
HETATM   17  O1  UNL     1      31.819  32.155  22.510  1.00  0.00    -0.323 OA
HETATM   18  C1  UNL     1      32.107  30.781  22.426  1.00  0.00     0.213 C 
ENDBRANCH  15  17
ENDBRANCH  13  15
ENDBRANCH   7   8
ENDBRANCH   1   7
BRANCH   5  19
HETATM   19  C11 UNL     1      36.138  37.829  19.977  1.00  0.00     0.138 C 
HETATM   20  C12 UNL     1      34.807  38.067  19.299  1.00  0.00     0.196 C 
HETATM   21  O4  UNL     1      34.484  36.940  18.554  1.00  0.00    -0.383 OA
HETATM   22  C13 UNL     1      35.225  36.876  17.376  1.00  0.00     0.131 C 
HETATM   23  C18 UNL     1      36.660  37.100  17.714  1.00  0.00     0.066 C 
HETATM   24  C19 UNL     1      36.898  36.810  19.186  1.00  0.00     0.145 C 
BRANCH  22  25
HETATM   25  C14 UNL     1      34.978  35.570  16.654  1.00  0.00    -0.025 C 
HETATM   26  C15 UNL     1      36.177  35.293  15.757  1.00  0.00     0.017 C 
HETATM   27  C16 UNL     1      33.746  35.587  15.809  1.00  0.00     0.017 C 
HETATM   28  C17 UNL     1      34.850  34.424  17.635  1.00  0.00     0.017 C 
ENDBRANCH  22  25
BRANCH  24  29
HETATM   29  O5  UNL     1      38.273  36.896  19.392  1.00  0.00    -0.393 OA
ATOM     30  H5  UNL     1      38.702  37.443  18.743  1.00  0.00     0.210 HD
ENDBRANCH  24  29
ENDBRANCH   5  19
TORSDOF 7
ENDMDL
MODEL 3
REMARK VINA RESULT: -8.612452747      1.677      2.277
REMARK  7 active torsions:
REMARK  status: ('A' for Active; 'I' for Inactive)
REMARK    1  A    between atoms: O1_2  and  C2_3 
REMARK    2  A    between atoms: C2_3  and  C3_5 
REMARK    3  A    between atoms: C7_10  and  C8_11 
REMARK    4  A    between atoms: C8_11  and  N1_12 
REMARK       I    between atoms: N1_12  and  C10_14 
REMARK       I    between atoms: C10_14  and  N2_16 
REMARK    5  A    between atoms: N2_16  and  C11_18 
REMARK    6  A    between atoms: C13_21  and  C14_22 
REMARK    7  A    between atoms: C19_27  and  O5_28 
ROOT
HETATM    1  N1  UNL     1      34.874  36.889  20.208  1.00  0.00    -0.334 N 
HETATM    2  C9  UNL     1      35.222  38.028  19.368  1.00  0.00     0.154 C 
HETATM    3  C10 UNL     1      34.243  37.117  21.443  1.00  0.00     0.318 C 
HETATM    4  O3  UNL     1      33.984  38.287  21.799  1.00  0.00    -0.247 OA
HETATM    5  N2  UNL     1      33.899  36.045  22.283  1.00  0.00    -0.334 N 
ATOM      6  H2  UNL     1      34.121  35.100  21.970  1.00  0.00     0.164 HD
ENDROOT
BRANCH   1   7
HETATM    7  C8  UNL     1      35.187  35.549  19.750  1.00  0.00     0.165 C 
BRANCH   7   8
HETATM    8  C7  UNL     1      35.423  35.519  18.297  1.00  0.00    -0.036 A 
HETATM    9  C6  UNL     1      36.694  35.698  17.793  1.00  0.00     0.051 A 
HETATM   10  C5  UNL     1      36.865  35.663  16.431  1.00  0.00     0.117 A 
HETATM   11  C4  UNL     1      35.778  35.453  15.610  1.00  0.00     0.059 A 
HETATM   12  F1  UNL     1      38.081  35.833  15.900  1.00  0.00    -0.206 F 
HETATM   13  C3  UNL     1      34.500  35.271  16.086  1.00  0.00     0.043 A 
HETATM   14  C20 UNL     1      34.337  35.308  17.455  1.00  0.00     0.026 A 
BRANCH  13  15
HETATM   15  C2  UNL     1      33.372  35.050  15.187  1.00  0.00     0.293 C 
HETATM   16  O2  UNL     1      32.619  36.003  14.883  1.00  0.00    -0.259 OA
BRANCH  15  17
HETATM   17  O1  UNL     1      33.126  33.800  14.667  1.00  0.00    -0.323 OA
HETATM   18  C1  UNL     1      32.857  33.541  13.311  1.00  0.00     0.213 C 
ENDBRANCH  15  17
ENDBRANCH  13  15
ENDBRANCH   7   8
ENDBRANCH   1   7
BRANCH   5  19
HETATM   19  C11 UNL     1      33.248  36.202  23.566  1.00  0.00     0.138 C 
HETATM   20  C12 UNL     1      34.078  35.629  24.694  1.00  0.00     0.196 C 
HETATM   21  O4  UNL     1      33.569  34.380  25.026  1.00  0.00    -0.383 OA
HETATM   22  C13 UNL     1      32.393  34.487  25.766  1.00  0.00     0.131 C 
HETATM   23  C18 UNL     1      31.489  35.446  25.069  1.00  0.00     0.066 C 
HETATM   24  C19 UNL     1      31.890  35.572  23.610  1.00  0.00     0.145 C 
BRANCH  22  25
HETATM   25  C14 UNL     1      31.768  33.128  25.986  1.00  0.00    -0.025 C 
HETATM   26  C15 UNL     1      32.602  32.388  27.023  1.00  0.00     0.017 C 
HETATM   27  C16 UNL     1      31.706  32.299  24.745  1.00  0.00     0.017 C 
HETATM   28  C17 UNL     1      30.359  33.260  26.524  1.00  0.00     0.017 C 
ENDBRANCH  22  25
BRANCH  24  29
HETATM   29  O5  UNL     1      30.921  36.360  22.996  1.00  0.00    -0.393 OA
ATOM     30  H5  UNL     1      30.534  36.989  23.594  1.00  0.00     0.210 HD
ENDBRANCH  24  29
ENDBRANCH   5  19
TORSDOF 7
ENDMDL
MODEL 4
REMARK VINA RESULT: -8.589645162      3.071      4.168
REMARK  7 active torsions:
REMARK  status: ('A' for Active; 'I' for Inactive)
REMARK    1  A    between atoms: O1_2  and  C2_3 
REMARK    2  A    between atoms: C2_3  and  C3_5 
REMARK    3  A    between atoms: C7_10  and  C8_11 
REMARK    4  A    between atoms: C8_11  and  N1_12 
REMARK       I    between atoms: N1_12  and  C10_14 
REMARK       I    between atoms: C10_14  and  N2_16 
REMARK    5  A    between atoms: N2_16  and  C11_18 
REMARK    6  A    between atoms: C13_21  and  C14_22 
REMARK    7  A    between atoms: C19_27  and  O5_28 
ROOT
HETATM    1  N1  UNL     1      34.270  38.152  22.226  1.00  0.00    -0.334 N 
HETATM    2  C9  UNL     1      34.125  39.340  21.393  1.00  0.00     0.154 C 
HETATM    3  C10 UNL     1      33.177  37.720  22.996  1.00  0.00     0.318 C 
HETATM    4  O3  UNL     1      32.100  38.353  22.953  1.00  0.00    -0.247 OA
HETATM    5  N2  UNL     1      33.280  36.584  23.816  1.00  0.00    -0.334 N 
ATOM      6  H2  UNL     1      34.169  36.085  23.834  1.00  0.00     0.164 HD
ENDROOT
BRANCH   1   7
HETATM    7  C8  UNL     1      35.536  37.445  22.238  1.00  0.00     0.165 C 
BRANCH   7   8
HETATM    8  C7  UNL     1      35.719  36.647  21.014  1.00  0.00    -0.036 A 
HETATM    9  C6  UNL     1      34.997  35.488  20.823  1.00  0.00     0.051 A 
HETATM   10  C5  UNL     1      35.202  34.777  19.667  1.00  0.00     0.117 A 
HETATM   11  C4  UNL     1      36.112  35.230  18.737  1.00  0.00     0.059 A 
HETATM   12  F1  UNL     1      34.523  33.646  19.441  1.00  0.00    -0.206 F 
HETATM   13  C3  UNL     1      36.846  36.383  18.902  1.00  0.00     0.043 A 
HETATM   14  C20 UNL     1      36.634  37.091  20.066  1.00  0.00     0.026 A 
BRANCH  13  15
HETATM   15  C2  UNL     1      37.801  36.834  17.896  1.00  0.00     0.293 C 
HETATM   16  O2  UNL     1      38.970  37.131  18.233  1.00  0.00    -0.259 OA
BRANCH  15  17
HETATM   17  O1  UNL     1      37.431  36.935  16.575  1.00  0.00    -0.323 OA
HETATM   18  C1  UNL     1      38.250  37.454  15.556  1.00  0.00     0.213 C 
ENDBRANCH  15  17
ENDBRANCH  13  15
ENDBRANCH   7   8
ENDBRANCH   1   7
BRANCH   5  19
HETATM   19  C11 UNL     1      32.200  36.080  24.637  1.00  0.00     0.138 C 
HETATM   20  C12 UNL     1      32.402  36.405  26.100  1.00  0.00     0.196 C 
HETATM   21  O4  UNL     1      32.896  35.276  26.740  1.00  0.00    -0.383 OA
HETATM   22  C13 UNL     1      31.894  34.330  26.950  1.00  0.00     0.131 C 
HETATM   23  C18 UNL     1      31.155  34.139  25.670  1.00  0.00     0.066 C 
HETATM   24  C19 UNL     1      32.010  34.600  24.502  1.00  0.00     0.145 C 
BRANCH  22  25
HETATM   25  C14 UNL     1      32.473  33.046  27.504  1.00  0.00    -0.025 C 
HETATM   26  C15 UNL     1      33.983  33.089  27.314  1.00  0.00     0.017 C 
HETATM   27  C16 UNL     1      31.943  31.822  26.831  1.00  0.00     0.017 C 
HETATM   28  C17 UNL     1      32.188  32.918  28.985  1.00  0.00     0.017 C 
ENDBRANCH  22  25
BRANCH  24  29
HETATM   29  O5  UNL     1      31.320  34.258  23.343  1.00  0.00    -0.393 OA
ATOM     30  H5  UNL     1      31.371  33.328  23.153  1.00  0.00     0.210 HD
ENDBRANCH  24  29
ENDBRANCH   5  19
TORSDOF 7
ENDMDL
MODEL 5
REMARK VINA RESULT: -8.566869895      2.764      3.749
REMARK  7 active torsions:
REMARK  status: ('A' for Active; 'I' for Inactive)
REMARK    1  A    between atoms: O1_2  and  C2_3 
REMARK    2  A    between atoms: C2_3  and  C3_5 
REMARK    3  A    between atoms: C7_10  and  C8_11 
REMARK    4  A    between atoms: C8_11  and  N1_12 
REMARK       I    between atoms: N1_12  and  C10_14 
REMARK       I    between atoms: C10_14  and  N2_16 
REMARK    5  A    between atoms: N2_16  and  C11_18 
REMARK    6  A    between atoms: C13_21  and  C14_22 
REMARK    7  A    between atoms: C19_27  and  O5_28 
ROOT
HETATM    1  N1  UNL     1      34.915  38.545  21.783  1.00  0.00    -0.334 N 
HETATM    2  C9  UNL     1      35.011  39.825  21.092  1.00  0.00     0.154 C 
HETATM    3  C10 UNL     1      33.832  38.315  22.650  1.00  0.00     0.318 C 
HETATM    4  O3  UNL     1      32.968  39.203  22.810  1.00  0.00    -0.247 OA
HETATM    5  N2  UNL     1      33.710  37.097  23.339  1.00  0.00    -0.334 N 
ATOM      6  H2  UNL     1      34.428  36.388  23.192  1.00  0.00     0.164 HD
ENDROOT
BRANCH   1   7
HETATM    7  C8  UNL     1      35.937  37.541  21.560  1.00  0.00     0.165 C 
BRANCH   7   8
HETATM    8  C7  UNL     1      35.892  37.023  20.182  1.00  0.00    -0.036 A 
HETATM    9  C6  UNL     1      34.761  36.388  19.713  1.00  0.00     0.051 A 
HETATM   10  C5  UNL     1      34.766  35.921  18.422  1.00  0.00     0.117 A 
HETATM   11  C4  UNL     1      35.884  36.094  17.636  1.00  0.00     0.059 A 
HETATM   12  F1  UNL     1      33.689  35.299  17.926  1.00  0.00    -0.206 F 
HETATM   13  C3  UNL     1      37.025  36.724  18.078  1.00  0.00     0.043 A 
HETATM   14  C20 UNL     1      37.012  37.190  19.376  1.00  0.00     0.026 A 
BRANCH  13  15
HETATM   15  C2  UNL     1      38.191  36.890  17.218  1.00  0.00     0.293 C 
HETATM   16  O2  UNL     1      39.280  37.270  17.707  1.00  0.00    -0.259 OA
BRANCH  15  17
HETATM   17  O1  UNL     1      38.109  36.631  15.869  1.00  0.00    -0.323 OA
HETATM   18  C1  UNL     1      38.132  37.617  14.866  1.00  0.00     0.213 C 
ENDBRANCH  15  17
ENDBRANCH  13  15
ENDBRANCH   7   8
ENDBRANCH   1   7
BRANCH   5  19
HETATM   19  C11 UNL     1      32.626  36.789  24.247  1.00  0.00     0.138 C 
HETATM   20  C12 UNL     1      32.954  37.176  25.672  1.00  0.00     0.196 C 
HETATM   21  O4  UNL     1      33.338  36.034  26.362  1.00  0.00    -0.383 OA
HETATM   22  C13 UNL     1      32.240  35.240  26.689  1.00  0.00     0.131 C 
HETATM   23  C18 UNL     1      31.409  35.067  25.464  1.00  0.00     0.066 C 
HETATM   24  C19 UNL     1      32.244  35.341  24.225  1.00  0.00     0.145 C 
BRANCH  22  25
HETATM   25  C14 UNL     1      32.685  33.930  27.299  1.00  0.00    -0.025 C 
HETATM   26  C15 UNL     1      34.148  33.713  26.939  1.00  0.00     0.017 C 
HETATM   27  C16 UNL     1      31.896  32.756  26.817  1.00  0.00     0.017 C 
HETATM   28  C17 UNL     1      32.574  33.971  28.809  1.00  0.00     0.017 C 
ENDBRANCH  22  25
BRANCH  24  29
HETATM   29  O5  UNL     1      31.449  35.019  23.129  1.00  0.00    -0.393 OA
ATOM     30  H5  UNL     1      30.678  35.570  23.067  1.00  0.00     0.210 HD
ENDBRANCH  24  29
ENDBRANCH   5  19
TORSDOF 7
ENDMDL
