MODEL 1
REMARK VINA RESULT: -5.474297256      0.000      0.000
REMARK  1 active torsions:
REMARK  status: ('A' for Active; 'I' for Inactive)
REMARK    1  A    between atoms: O1_2  and  C2_3 
ROOT
HETATM    1  C2  UNL     1      30.267   3.228  56.150  1.00  0.00     0.121 C 
HETATM    2  C3  UNL     1      30.837   1.883  55.801  1.00  0.00     0.037 C 
HETATM    3  C4  UNL     1      32.343   2.047  55.884  1.00  0.00     0.074 C 
HETATM    4  C5  UNL     1      32.695   1.907  57.370  1.00  0.00     0.200 C 
HETATM    5  C6  UNL     1      31.659   2.689  58.171  1.00  0.00     0.074 C 
HETATM    6  C7  UNL     1      30.995   3.758  57.343  1.00  0.00     0.037 C 
HETATM    7  O2  UNL     1      33.975   2.397  57.554  1.00  0.00    -0.200 OA
HETATM    8  O3  UNL     1      34.587   1.808  58.568  1.00  0.00    -0.221 OA
HETATM    9  C8  UNL     1      34.898   0.495  58.213  1.00  0.00     0.150 C 
HETATM   10  C9  UNL     1      35.337  -0.239  59.479  1.00  0.00     0.047 C 
HETATM   11  C10 UNL     1      35.949  -1.568  59.141  1.00  0.00     0.003 C 
HETATM   12  C11 UNL     1      37.332  -1.488  58.603  1.00  0.00     0.000 C 
HETATM   13  C12 UNL     1      37.937  -0.106  58.667  1.00  0.00     0.004 C 
HETATM   14  C13 UNL     1      37.330   0.842  57.684  1.00  0.00    -0.015 C 
HETATM   15  C14 UNL     1      37.363   2.235  58.236  1.00  0.00     0.010 C 
HETATM   16  C15 UNL     1      35.975   0.426  57.188  1.00  0.00     0.051 C 
HETATM   17  C16 UNL     1      33.666  -0.180  57.660  1.00  0.00     0.348 C 
HETATM   18  F1  UNL     1      33.899  -0.656  56.363  1.00  0.00    -0.216 F 
HETATM   19  O4  UNL     1      32.538   0.594  57.713  1.00  0.00    -0.315 OA
ENDROOT
BRANCH   1  20
HETATM   20  O1  UNL     1      28.907   3.274  56.241  1.00  0.00    -0.391 OA
HETATM   21  C1  UNL     1      28.210   2.355  55.508  1.00  0.00     0.202 C 
ENDBRANCH   1  20
TORSDOF 1
ENDMDL
MODEL 2
REMARK VINA RESULT: -5.390587645      3.653      5.034
REMARK  1 active torsions:
REMARK  status: ('A' for Active; 'I' for Inactive)
REMARK    1  A    between atoms: O1_2  and  C2_3 
ROOT
HETATM    1  C2  UNL     1      32.852   3.261  56.696  1.00  0.00     0.121 C 
HETATM    2  C3  UNL     1      31.870   2.167  57.001  1.00  0.00     0.037 C 
HETATM    3  C4  UNL     1      31.903   1.245  55.796  1.00  0.00     0.074 C 
HETATM    4  C5  UNL     1      33.117   0.332  56.005  1.00  0.00     0.200 C 
HETATM    5  C6  UNL     1      34.269   1.194  56.509  1.00  0.00     0.074 C 
HETATM    6  C7  UNL     1      34.094   2.643  56.137  1.00  0.00     0.037 C 
HETATM    7  O2  UNL     1      33.409  -0.274  54.797  1.00  0.00    -0.200 OA
HETATM    8  O3  UNL     1      33.977  -1.456  54.963  1.00  0.00    -0.221 OA
HETATM    9  C8  UNL     1      33.024  -2.357  55.441  1.00  0.00     0.150 C 
HETATM   10  C9  UNL     1      33.759  -3.618  55.890  1.00  0.00     0.047 C 
HETATM   11  C10 UNL     1      32.790  -4.735  56.157  1.00  0.00     0.003 C 
HETATM   12  C11 UNL     1      32.247  -5.382  54.935  1.00  0.00     0.000 C 
HETATM   13  C12 UNL     1      32.904  -4.926  53.655  1.00  0.00     0.004 C 
HETATM   14  C13 UNL     1      32.532  -3.530  53.273  1.00  0.00    -0.015 C 
HETATM   15  C14 UNL     1      33.669  -2.884  52.540  1.00  0.00     0.010 C 
HETATM   16  C15 UNL     1      32.007  -2.704  54.411  1.00  0.00     0.051 C 
HETATM   17  C16 UNL     1      32.317  -1.755  56.630  1.00  0.00     0.348 C 
HETATM   18  F1  UNL     1      30.934  -1.695  56.410  1.00  0.00    -0.216 F 
HETATM   19  O4  UNL     1      32.814  -0.539  57.015  1.00  0.00    -0.315 OA
ENDROOT
BRANCH   1  20
HETATM   20  O1  UNL     1      33.060   4.151  57.708  1.00  0.00    -0.391 OA
HETATM   21  C1  UNL     1      34.147   4.972  57.590  1.00  0.00     0.202 C 
ENDBRANCH   1  20
TORSDOF 1
ENDMDL
MODEL 3
REMARK VINA RESULT: -5.384835975      2.551      6.315
REMARK  1 active torsions:
REMARK  status: ('A' for Active; 'I' for Inactive)
REMARK    1  A    between atoms: O1_2  and  C2_3 
ROOT
HETATM    1  C2  UNL     1      36.666  -1.229  55.173  1.00  0.00     0.121 C 
HETATM    2  C3  UNL     1      35.297  -1.629  55.642  1.00  0.00     0.037 C 
HETATM    3  C4  UNL     1      34.793  -0.459  56.467  1.00  0.00     0.074 C 
HETATM    4  C5  UNL     1      34.244   0.556  55.456  1.00  0.00     0.200 C 
HETATM    5  C6  UNL     1      35.226   0.633  54.292  1.00  0.00     0.074 C 
HETATM    6  C7  UNL     1      36.608   0.185  54.689  1.00  0.00     0.037 C 
HETATM    7  O2  UNL     1      34.106   1.770  56.103  1.00  0.00    -0.200 OA
HETATM    8  O3  UNL     1      33.138   2.501  55.577  1.00  0.00    -0.221 OA
HETATM    9  C8  UNL     1      31.907   1.931  55.904  1.00  0.00     0.150 C 
HETATM   10  C9  UNL     1      30.836   2.617  55.058  1.00  0.00     0.047 C 
HETATM   11  C10 UNL     1      29.460   2.260  55.545  1.00  0.00     0.003 C 
HETATM   12  C11 UNL     1      29.048   2.957  56.791  1.00  0.00     0.000 C 
HETATM   13  C12 UNL     1      30.009   4.033  57.237  1.00  0.00     0.004 C 
HETATM   14  C13 UNL     1      31.288   3.485  57.780  1.00  0.00    -0.015 C 
HETATM   15  C14 UNL     1      32.408   4.441  57.502  1.00  0.00     0.010 C 
HETATM   16  C15 UNL     1      31.582   2.077  57.349  1.00  0.00     0.051 C 
HETATM   17  C16 UNL     1      31.929   0.461  55.564  1.00  0.00     0.348 C 
HETATM   18  F1  UNL     1      31.649  -0.317  56.695  1.00  0.00    -0.216 F 
HETATM   19  O4  UNL     1      33.081   0.050  54.948  1.00  0.00    -0.315 OA
ENDROOT
BRANCH   1  20
HETATM   20  O1  UNL     1      37.263  -2.104  54.315  1.00  0.00    -0.391 OA
HETATM   21  C1  UNL     1      36.439  -2.802  53.477  1.00  0.00     0.202 C 
ENDBRANCH   1  20
TORSDOF 1
ENDMDL
MODEL 4
REMARK VINA RESULT: -5.174289710      4.860      6.230
REMARK  1 active torsions:
REMARK  status: ('A' for Active; 'I' for Inactive)
REMARK    1  A    between atoms: O1_2  and  C2_3 
ROOT
HETATM    1  C2  UNL     1      34.024   1.308  57.358  1.00  0.00     0.121 C 
HETATM    2  C3  UNL     1      35.166   1.739  56.484  1.00  0.00     0.037 C 
HETATM    3  C4  UNL     1      35.666   0.471  55.816  1.00  0.00     0.074 C 
HETATM    4  C5  UNL     1      34.731   0.233  54.624  1.00  0.00     0.200 C 
HETATM    5  C6  UNL     1      33.304   0.503  55.089  1.00  0.00     0.074 C 
HETATM    6  C7  UNL     1      33.161   0.365  56.582  1.00  0.00     0.037 C 
HETATM    7  O2  UNL     1      34.904  -1.071  54.199  1.00  0.00    -0.200 OA
HETATM    8  O3  UNL     1      34.655  -1.206  52.908  1.00  0.00    -0.221 OA
HETATM    9  C8  UNL     1      35.677  -0.596  52.180  1.00  0.00     0.150 C 
HETATM   10  C9  UNL     1      35.228  -0.514  50.722  1.00  0.00     0.047 C 
HETATM   11  C10 UNL     1      36.374  -0.126  49.831  1.00  0.00     0.003 C 
HETATM   12  C11 UNL     1      37.341  -1.222  49.563  1.00  0.00     0.000 C 
HETATM   13  C12 UNL     1      36.901  -2.570  50.081  1.00  0.00     0.004 C 
HETATM   14  C13 UNL     1      36.959  -2.670  51.570  1.00  0.00    -0.015 C 
HETATM   15  C14 UNL     1      35.893  -3.603  52.059  1.00  0.00     0.010 C 
HETATM   16  C15 UNL     1      36.961  -1.343  52.273  1.00  0.00     0.051 C 
HETATM   17  C16 UNL     1      35.898   0.803  52.702  1.00  0.00     0.348 C 
HETATM   18  F1  UNL     1      37.225   0.976  53.119  1.00  0.00    -0.216 F 
HETATM   19  O4  UNL     1      35.014   1.178  53.678  1.00  0.00    -0.315 OA
ENDROOT
BRANCH   1  20
HETATM   20  O1  UNL     1      33.353   2.323  57.975  1.00  0.00    -0.391 OA
HETATM   21  C1  UNL     1      33.191   3.476  57.260  1.00  0.00     0.202 C 
ENDBRANCH   1  20
TORSDOF 1
ENDMDL
MODEL 5
REMARK VINA RESULT: -5.114811354      1.832      6.530
REMARK  1 active torsions:
REMARK  status: ('A' for Active; 'I' for Inactive)
REMARK    1  A    between atoms: O1_2  and  C2_3 
ROOT
HETATM    1  C2  UNL     1      38.365   0.261  58.846  1.00  0.00     0.121 C 
HETATM    2  C3  UNL     1      37.888   1.414  58.012  1.00  0.00     0.037 C 
HETATM    3  C4  UNL     1      36.712   0.880  57.216  1.00  0.00     0.074 C 
HETATM    4  C5  UNL     1      35.505   0.953  58.161  1.00  0.00     0.200 C 
HETATM    5  C6  UNL     1      35.957   0.468  59.534  1.00  0.00     0.074 C 
HETATM    6  C7  UNL     1      37.174  -0.415  59.448  1.00  0.00     0.037 C 
HETATM    7  O2  UNL     1      34.501   0.162  57.632  1.00  0.00    -0.200 OA
HETATM    8  O3  UNL     1      33.300   0.595  57.976  1.00  0.00    -0.221 OA
HETATM    9  C8  UNL     1      33.032   1.783  57.294  1.00  0.00     0.150 C 
HETATM   10  C9  UNL     1      31.782   2.404  57.914  1.00  0.00     0.047 C 
HETATM   11  C10 UNL     1      31.269   3.532  57.065  1.00  0.00     0.003 C 
HETATM   12  C11 UNL     1      30.551   3.100  55.838  1.00  0.00     0.000 C 
HETATM   13  C12 UNL     1      30.307   1.612  55.761  1.00  0.00     0.004 C 
HETATM   14  C13 UNL     1      31.553   0.830  55.499  1.00  0.00    -0.015 C 
HETATM   15  C14 UNL     1      31.451  -0.518  56.147  1.00  0.00     0.010 C 
HETATM   16  C15 UNL     1      32.819   1.563  55.837  1.00  0.00     0.051 C 
HETATM   17  C16 UNL     1      34.189   2.735  57.471  1.00  0.00     0.348 C 
HETATM   18  F1  UNL     1      34.716   3.116  56.229  1.00  0.00    -0.216 F 
HETATM   19  O4  UNL     1      35.169   2.269  58.306  1.00  0.00    -0.315 OA
ENDROOT
BRANCH   1  20
HETATM   20  O1  UNL     1      39.362   0.558  59.728  1.00  0.00    -0.391 OA
HETATM   21  C1  UNL     1      39.428   1.850  60.169  1.00  0.00     0.202 C 
ENDBRANCH   1  20
TORSDOF 1
ENDMDL
