MODEL 1
REMARK VINA RESULT: -6.263016938      0.000      0.000
REMARK  1 active torsions:
REMARK  status: ('A' for Active; 'I' for Inactive)
REMARK    1  A    between atoms: C3_4  and  N2_5 
ROOT
HETATM    1  N1  UNL     1      35.343   3.190  58.022  1.00  0.00    -0.191 NA
HETATM    2  C1  UNL     1      34.566   2.569  57.400  1.00  0.00     0.103 C 
HETATM    3  C2  UNL     1      33.569   1.803  56.631  1.00  0.00     0.085 A 
HETATM    4  C3  UNL     1      34.009   0.854  55.747  1.00  0.00     0.094 A 
HETATM    5  S2  UNL     1      32.555   0.224  55.096  1.00  0.00    -0.075 SA
HETATM    6  C8  UNL     1      31.445   1.173  55.954  1.00  0.00    -0.007 A 
HETATM    7  C9  UNL     1      32.230   1.966  56.736  1.00  0.00    -0.021 A 
HETATM    8  C10 UNL     1      31.641   2.986  57.687  1.00  0.00     0.041 C 
HETATM    9  C11 UNL     1      30.746   3.942  56.937  1.00  0.00     0.005 C 
HETATM   10  C12 UNL     1      29.407   3.358  56.571  1.00  0.00     0.001 C 
HETATM   11  C13 UNL     1      29.550   2.504  55.350  1.00  0.00     0.005 C 
HETATM   12  C14 UNL     1      29.957   1.101  55.820  1.00  0.00     0.047 C 
ENDROOT
BRANCH   4  13
HETATM   13  N2  UNL     1      35.377   0.480  55.430  1.00  0.00    -0.364 N 
HETATM   14  C4  UNL     1      36.088  -0.280  56.414  1.00  0.00     0.197 C 
HETATM   15  S1  UNL     1      36.958  -1.638  55.592  1.00  0.00    -0.148 SA
HETATM   16  C5  UNL     1      37.104  -1.221  53.836  1.00  0.00     0.097 C 
HETATM   17  C6  UNL     1      37.060   0.255  53.621  1.00  0.00     0.109 C 
HETATM   18 CL1  UNL     1      37.048   0.509  51.837  1.00  0.00    -0.122 Cl
HETATM   19  C7  UNL     1      35.835   0.926  54.160  1.00  0.00     0.145 C 
ENDBRANCH   4  13
TORSDOF 1
ENDMDL
MODEL 2
REMARK VINA RESULT: -5.855294833      3.454      6.328
REMARK  1 active torsions:
REMARK  status: ('A' for Active; 'I' for Inactive)
REMARK    1  A    between atoms: C3_4  and  N2_5 
ROOT
HETATM    1  N1  UNL     1      35.931   1.413  53.148  1.00  0.00    -0.191 NA
HETATM    2  C1  UNL     1      35.227   0.484  53.275  1.00  0.00     0.103 C 
HETATM    3  C2  UNL     1      34.351  -0.694  53.409  1.00  0.00     0.085 A 
HETATM    4  C3  UNL     1      33.551  -0.795  54.516  1.00  0.00     0.094 A 
HETATM    5  S2  UNL     1      32.722  -2.273  54.265  1.00  0.00    -0.075 SA
HETATM    6  C8  UNL     1      33.408  -2.714  52.780  1.00  0.00    -0.007 A 
HETATM    7  C9  UNL     1      34.273  -1.698  52.505  1.00  0.00    -0.021 A 
HETATM    8  C10 UNL     1      35.112  -1.681  51.246  1.00  0.00     0.041 C 
HETATM    9  C11 UNL     1      35.945  -2.936  51.157  1.00  0.00     0.005 C 
HETATM   10  C12 UNL     1      35.163  -4.154  50.742  1.00  0.00     0.001 C 
HETATM   11  C13 UNL     1      34.428  -4.704  51.924  1.00  0.00     0.005 C 
HETATM   12  C14 UNL     1      33.089  -3.959  52.014  1.00  0.00     0.047 C 
ENDROOT
BRANCH   4  13
HETATM   13  N2  UNL     1      33.441   0.123  55.637  1.00  0.00    -0.364 N 
HETATM   14  C4  UNL     1      34.544   0.171  56.549  1.00  0.00     0.197 C 
HETATM   15  S1  UNL     1      34.927   1.902  56.918  1.00  0.00    -0.148 SA
HETATM   16  C5  UNL     1      33.471   2.893  56.498  1.00  0.00     0.097 C 
HETATM   17  C6  UNL     1      32.222   2.079  56.557  1.00  0.00     0.109 C 
HETATM   18 CL1  UNL     1      30.894   3.142  55.962  1.00  0.00    -0.122 Cl
HETATM   19  C7  UNL     1      32.229   0.866  55.680  1.00  0.00     0.145 C 
ENDBRANCH   4  13
TORSDOF 1
ENDMDL
MODEL 3
REMARK VINA RESULT: -5.605728649      1.987      2.311
REMARK  1 active torsions:
REMARK  status: ('A' for Active; 'I' for Inactive)
REMARK    1  A    between atoms: C3_4  and  N2_5 
ROOT
HETATM    1  N1  UNL     1      35.469   2.023  58.542  1.00  0.00    -0.191 NA
HETATM    2  C1  UNL     1      34.665   1.614  57.792  1.00  0.00     0.103 C 
HETATM    3  C2  UNL     1      33.636   1.116  56.862  1.00  0.00     0.085 A 
HETATM    4  C3  UNL     1      33.982   0.150  55.955  1.00  0.00     0.094 A 
HETATM    5  S2  UNL     1      32.520  -0.127  55.104  1.00  0.00    -0.075 SA
HETATM    6  C8  UNL     1      31.526   0.979  55.915  1.00  0.00    -0.007 A 
HETATM    7  C9  UNL     1      32.352   1.545  56.838  1.00  0.00    -0.021 A 
HETATM    8  C10 UNL     1      31.868   2.607  57.802  1.00  0.00     0.041 C 
HETATM    9  C11 UNL     1      31.276   3.770  57.042  1.00  0.00     0.005 C 
HETATM   10  C12 UNL     1      29.903   3.497  56.490  1.00  0.00     0.001 C 
HETATM   11  C13 UNL     1      30.019   2.706  55.225  1.00  0.00     0.005 C 
HETATM   12  C14 UNL     1      30.081   1.223  55.619  1.00  0.00     0.047 C 
ENDROOT
BRANCH   4  13
HETATM   13  N2  UNL     1      35.276  -0.478  55.754  1.00  0.00    -0.364 N 
HETATM   14  C4  UNL     1      36.266   0.281  55.050  1.00  0.00     0.197 C 
HETATM   15  S1  UNL     1      37.846   0.140  55.922  1.00  0.00    -0.148 SA
HETATM   16  C5  UNL     1      37.763  -1.324  56.985  1.00  0.00     0.097 C 
HETATM   17  C6  UNL     1      36.780  -2.318  56.466  1.00  0.00     0.109 C 
HETATM   18 CL1  UNL     1      36.686  -3.629  57.699  1.00  0.00    -0.122 Cl
HETATM   19  C7  UNL     1      35.391  -1.788  56.294  1.00  0.00     0.145 C 
ENDBRANCH   4  13
TORSDOF 1
ENDMDL
MODEL 4
REMARK VINA RESULT: -5.577393530      2.499      3.442
REMARK  1 active torsions:
REMARK  status: ('A' for Active; 'I' for Inactive)
REMARK    1  A    between atoms: C3_4  and  N2_5 
ROOT
HETATM    1  N1  UNL     1      31.449  -1.952  55.016  1.00  0.00    -0.191 NA
HETATM    2  C1  UNL     1      31.801  -0.979  55.567  1.00  0.00     0.103 C 
HETATM    3  C2  UNL     1      32.221   0.258  56.250  1.00  0.00     0.085 A 
HETATM    4  C3  UNL     1      33.342   0.226  57.036  1.00  0.00     0.094 A 
HETATM    5  S2  UNL     1      33.460   1.836  57.612  1.00  0.00    -0.075 SA
HETATM    6  C8  UNL     1      32.099   2.493  56.847  1.00  0.00    -0.007 A 
HETATM    7  C9  UNL     1      31.576   1.444  56.154  1.00  0.00    -0.021 A 
HETATM    8  C10 UNL     1      30.329   1.586  55.307  1.00  0.00     0.041 C 
HETATM    9  C11 UNL     1      29.187   2.109  56.144  1.00  0.00     0.005 C 
HETATM   10  C12 UNL     1      29.278   3.582  56.442  1.00  0.00     0.001 C 
HETATM   11  C13 UNL     1      30.233   3.807  57.571  1.00  0.00     0.005 C 
HETATM   12  C14 UNL     1      31.640   3.912  56.965  1.00  0.00     0.047 C 
ENDROOT
BRANCH   4  13
HETATM   13  N2  UNL     1      34.213  -0.901  57.322  1.00  0.00    -0.364 N 
HETATM   14  C4  UNL     1      33.857  -1.732  58.433  1.00  0.00     0.197 C 
HETATM   15  S1  UNL     1      34.020  -3.468  57.945  1.00  0.00    -0.148 SA
HETATM   16  C5  UNL     1      35.099  -3.536  56.492  1.00  0.00     0.097 C 
HETATM   17  C6  UNL     1      36.015  -2.359  56.438  1.00  0.00     0.109 C 
HETATM   18 CL1  UNL     1      36.900  -2.476  54.873  1.00  0.00    -0.122 Cl
HETATM   19  C7  UNL     1      35.323  -1.032  56.444  1.00  0.00     0.145 C 
ENDBRANCH   4  13
TORSDOF 1
ENDMDL
MODEL 5
REMARK VINA RESULT: -5.447223487      3.177      4.251
REMARK  1 active torsions:
REMARK  status: ('A' for Active; 'I' for Inactive)
REMARK    1  A    between atoms: C3_4  and  N2_5 
ROOT
HETATM    1  N1  UNL     1      31.494  -1.977  55.049  1.00  0.00    -0.191 NA
HETATM    2  C1  UNL     1      31.851  -1.003  55.596  1.00  0.00     0.103 C 
HETATM    3  C2  UNL     1      32.279   0.235  56.272  1.00  0.00     0.085 A 
HETATM    4  C3  UNL     1      33.389   0.196  57.073  1.00  0.00     0.094 A 
HETATM    5  S2  UNL     1      33.521   1.809  57.636  1.00  0.00    -0.075 SA
HETATM    6  C8  UNL     1      32.179   2.477  56.847  1.00  0.00    -0.007 A 
HETATM    7  C9  UNL     1      31.651   1.428  56.157  1.00  0.00    -0.021 A 
HETATM    8  C10 UNL     1      30.417   1.579  55.292  1.00  0.00     0.041 C 
HETATM    9  C11 UNL     1      29.272   2.124  56.109  1.00  0.00     0.005 C 
HETATM   10  C12 UNL     1      29.379   3.599  56.394  1.00  0.00     0.001 C 
HETATM   11  C13 UNL     1      30.322   3.822  57.534  1.00  0.00     0.005 C 
HETATM   12  C14 UNL     1      31.737   3.902  56.945  1.00  0.00     0.047 C 
ENDROOT
BRANCH   4  13
HETATM   13  N2  UNL     1      34.241  -0.940  57.382  1.00  0.00    -0.364 N 
HETATM   14  C4  UNL     1      35.354  -1.174  56.510  1.00  0.00     0.197 C 
HETATM   15  S1  UNL     1      36.820  -1.527  57.510  1.00  0.00    -0.148 SA
HETATM   16  C5  UNL     1      36.261  -2.028  59.157  1.00  0.00     0.097 C 
HETATM   17  C6  UNL     1      34.882  -2.595  59.115  1.00  0.00     0.109 C 
HETATM   18 CL1  UNL     1      34.402  -2.892  60.826  1.00  0.00    -0.122 Cl
HETATM   19  C7  UNL     1      33.851  -1.681  58.530  1.00  0.00     0.145 C 
ENDBRANCH   4  13
TORSDOF 1
ENDMDL
