MODEL 1
REMARK VINA RESULT: -6.367235898      0.000      0.000
REMARK  1 active torsions:
REMARK  status: ('A' for Active; 'I' for Inactive)
REMARK    1  A    between atoms: C6_6  and  C7_7 
ROOT
HETATM    1  C1  UNL     1      36.085   2.579  58.518  1.00  0.00     0.043 C 
HETATM    2  C2  UNL     1      35.039   1.875  57.742  1.00  0.00    -0.081 C 
HETATM    3  C3  UNL     1      34.713   0.651  58.107  1.00  0.00    -0.023 C 
HETATM    4  C4  UNL     1      33.677  -0.219  57.442  1.00  0.00     0.035 C 
HETATM    5  C5  UNL     1      33.356   0.317  56.119  1.00  0.00     0.029 C 
HETATM    6  C6  UNL     1      32.003   0.040  55.495  1.00  0.00     0.180 C 
HETATM    7  O2  UNL     1      30.992   0.849  55.812  1.00  0.00    -0.372 OA
HETATM    8  C10 UNL     1      30.910   2.178  55.595  1.00  0.00     0.147 C 
HETATM    9  C11 UNL     1      29.392   2.490  55.630  1.00  0.00     0.042 C 
HETATM   10  C12 UNL     1      31.472   3.083  56.709  1.00  0.00     0.150 C 
HETATM   11  C13 UNL     1      32.360   2.029  57.404  1.00  0.00     0.040 C 
HETATM   12  C14 UNL     1      33.307   1.753  56.242  1.00  0.00     0.005 C 
HETATM   13  C15 UNL     1      34.455   2.623  56.606  1.00  0.00     0.042 C 
HETATM   14  C16 UNL     1      33.688   3.889  56.938  1.00  0.00     0.177 C 
HETATM   15  O3  UNL     1      32.429   3.993  56.279  1.00  0.00    -0.383 OA
ENDROOT
BRANCH   6  16
HETATM   16  C7  UNL     1      31.570  -1.360  55.662  1.00  0.00     0.086 A 
HETATM   17  N1  UNL     1      30.760  -1.941  56.554  1.00  0.00    -0.345 N 
HETATM   18  C8  UNL     1      30.702  -3.260  56.228  1.00  0.00     0.235 A 
ATOM     19  H1  UNL     1      30.279  -1.483  57.329  1.00  0.00     0.167 HD
HETATM   20  O1  UNL     1      31.454  -3.479  55.169  1.00  0.00    -0.292 OA
HETATM   21  C9  UNL     1      31.987  -2.364  54.805  1.00  0.00     0.171 A 
HETATM   22 CL1  UNL     1      33.077  -2.214  53.416  1.00  0.00    -0.054 Cl
ENDBRANCH   6  16
TORSDOF 1
ENDMDL
MODEL 2
REMARK VINA RESULT: -6.353063377      3.022      5.952
REMARK  1 active torsions:
REMARK  status: ('A' for Active; 'I' for Inactive)
REMARK    1  A    between atoms: C6_6  and  C7_7 
ROOT
HETATM    1  C1  UNL     1      28.383   3.100  56.324  1.00  0.00     0.043 C 
HETATM    2  C2  UNL     1      29.858   3.160  56.423  1.00  0.00    -0.081 C 
HETATM    3  C3  UNL     1      30.388   3.926  57.356  1.00  0.00    -0.023 C 
HETATM    4  C4  UNL     1      31.863   4.114  57.608  1.00  0.00     0.035 C 
HETATM    5  C5  UNL     1      32.626   3.643  56.451  1.00  0.00     0.029 C 
HETATM    6  C6  UNL     1      34.052   3.163  56.629  1.00  0.00     0.180 C 
HETATM    7  O2  UNL     1      34.244   1.892  56.980  1.00  0.00    -0.372 OA
HETATM    8  C10 UNL     1      33.874   0.790  56.296  1.00  0.00     0.147 C 
HETATM    9  C11 UNL     1      34.791  -0.337  56.836  1.00  0.00     0.042 C 
HETATM   10  C12 UNL     1      32.459   0.252  56.593  1.00  0.00     0.150 C 
HETATM   11  C13 UNL     1      31.874   1.539  57.213  1.00  0.00     0.040 C 
HETATM   12  C14 UNL     1      31.991   2.435  55.986  1.00  0.00     0.005 C 
HETATM   13  C15 UNL     1      30.611   2.345  55.443  1.00  0.00     0.042 C 
HETATM   14  C16 UNL     1      30.432   0.841  55.518  1.00  0.00     0.177 C 
HETATM   15  O3  UNL     1      31.654   0.109  55.471  1.00  0.00    -0.383 OA
ENDROOT
BRANCH   6  16
HETATM   16  C7  UNL     1      34.845   4.033  57.517  1.00  0.00     0.086 A 
HETATM   17  N1  UNL     1      34.725   5.328  57.833  1.00  0.00    -0.345 N 
HETATM   18  C8  UNL     1      35.722   5.608  58.714  1.00  0.00     0.235 A 
ATOM     19  H1  UNL     1      34.022   5.978  57.482  1.00  0.00     0.167 HD
HETATM   20  O1  UNL     1      36.430   4.519  58.930  1.00  0.00    -0.292 OA
HETATM   21  C9  UNL     1      35.932   3.560  58.230  1.00  0.00     0.171 A 
HETATM   22 CL1  UNL     1      36.591   1.914  58.226  1.00  0.00    -0.054 Cl
ENDBRANCH   6  16
TORSDOF 1
ENDMDL
MODEL 3
REMARK VINA RESULT: -5.681503303      2.014      3.556
REMARK  1 active torsions:
REMARK  status: ('A' for Active; 'I' for Inactive)
REMARK    1  A    between atoms: C6_6  and  C7_7 
ROOT
HETATM    1  C1  UNL     1      30.794   3.927  57.117  1.00  0.00     0.043 C 
HETATM    2  C2  UNL     1      31.394   2.608  56.816  1.00  0.00    -0.081 C 
HETATM    3  C3  UNL     1      30.881   1.902  55.828  1.00  0.00    -0.023 C 
HETATM    4  C4  UNL     1      31.356   0.545  55.377  1.00  0.00     0.035 C 
HETATM    5  C5  UNL     1      32.201  -0.053  56.412  1.00  0.00     0.029 C 
HETATM    6  C6  UNL     1      33.255  -1.074  56.035  1.00  0.00     0.180 C 
HETATM    7  O2  UNL     1      34.448  -0.625  55.646  1.00  0.00    -0.372 OA
HETATM    8  C10 UNL     1      35.314   0.121  56.362  1.00  0.00     0.147 C 
HETATM    9  C11 UNL     1      36.690  -0.114  55.688  1.00  0.00     0.042 C 
HETATM   10  C12 UNL     1      35.138   1.650  56.256  1.00  0.00     0.150 C 
HETATM   11  C13 UNL     1      33.685   1.656  55.738  1.00  0.00     0.040 C 
HETATM   12  C14 UNL     1      33.027   1.001  56.947  1.00  0.00     0.005 C 
HETATM   13  C15 UNL     1      32.529   2.197  57.674  1.00  0.00     0.042 C 
HETATM   14  C16 UNL     1      33.783   3.047  57.607  1.00  0.00     0.177 C 
HETATM   15  O3  UNL     1      34.986   2.294  57.477  1.00  0.00    -0.383 OA
ENDROOT
BRANCH   6  16
HETATM   16  C7  UNL     1      32.770  -2.064  55.055  1.00  0.00     0.086 A 
HETATM   17  N1  UNL     1      33.137  -2.323  53.795  1.00  0.00    -0.345 N 
HETATM   18  C8  UNL     1      32.362  -3.356  53.368  1.00  0.00     0.235 A 
ATOM     19  H1  UNL     1      33.857  -1.839  53.258  1.00  0.00     0.167 HD
HETATM   20  O1  UNL     1      31.548  -3.718  54.337  1.00  0.00    -0.292 OA
HETATM   21  C9  UNL     1      31.766  -2.966  55.359  1.00  0.00     0.171 A 
HETATM   22 CL1  UNL     1      30.878  -3.118  56.886  1.00  0.00    -0.054 Cl
ENDBRANCH   6  16
TORSDOF 1
ENDMDL
MODEL 4
REMARK VINA RESULT: -5.668257175      2.411      4.044
REMARK  1 active torsions:
REMARK  status: ('A' for Active; 'I' for Inactive)
REMARK    1  A    between atoms: C6_6  and  C7_7 
ROOT
HETATM    1  C1  UNL     1      29.937   3.118  55.721  1.00  0.00     0.043 C 
HETATM    2  C2  UNL     1      30.992   2.217  56.235  1.00  0.00    -0.081 C 
HETATM    3  C3  UNL     1      31.207   1.084  55.595  1.00  0.00    -0.023 C 
HETATM    4  C4  UNL     1      32.233   0.044  55.967  1.00  0.00     0.035 C 
HETATM    5  C5  UNL     1      32.693   0.271  57.339  1.00  0.00     0.029 C 
HETATM    6  C6  UNL     1      34.070  -0.196  57.764  1.00  0.00     0.180 C 
HETATM    7  O2  UNL     1      35.103   0.613  57.530  1.00  0.00    -0.372 OA
HETATM    8  C10 UNL     1      35.291   1.859  58.010  1.00  0.00     0.147 C 
HETATM    9  C11 UNL     1      36.818   2.100  57.900  1.00  0.00     0.042 C 
HETATM   10  C12 UNL     1      34.702   3.007  57.163  1.00  0.00     0.150 C 
HETATM   11  C13 UNL     1      33.694   2.168  56.349  1.00  0.00     0.040 C 
HETATM   12  C14 UNL     1      32.826   1.697  57.512  1.00  0.00     0.005 C 
HETATM   13  C15 UNL     1      31.713   2.678  57.442  1.00  0.00     0.042 C 
HETATM   14  C16 UNL     1      32.533   3.947  57.310  1.00  0.00     0.177 C 
HETATM   15  O3  UNL     1      33.844   3.849  57.858  1.00  0.00    -0.383 OA
ENDROOT
BRANCH   6  16
HETATM   16  C7  UNL     1      34.395  -1.548  57.272  1.00  0.00     0.086 A 
HETATM   17  N1  UNL     1      35.202  -1.967  56.292  1.00  0.00    -0.345 N 
HETATM   18  C8  UNL     1      35.134  -3.326  56.285  1.00  0.00     0.235 A 
ATOM     19  H1  UNL     1      35.761  -1.383  55.669  1.00  0.00     0.167 HD
HETATM   20  O1  UNL     1      34.310  -3.724  57.232  1.00  0.00    -0.292 OA
HETATM   21  C9  UNL     1      33.852  -2.686  57.841  1.00  0.00     0.171 A 
HETATM   22 CL1  UNL     1      32.703  -2.777  59.188  1.00  0.00    -0.054 Cl
ENDBRANCH   6  16
TORSDOF 1
ENDMDL
MODEL 5
REMARK VINA RESULT: -5.540008081      2.945      5.605
REMARK  1 active torsions:
REMARK  status: ('A' for Active; 'I' for Inactive)
REMARK    1  A    between atoms: C6_6  and  C7_7 
ROOT
HETATM    1  C1  UNL     1      32.411  -3.339  58.162  1.00  0.00     0.043 C 
HETATM    2  C2  UNL     1      32.708  -1.995  57.619  1.00  0.00    -0.081 C 
HETATM    3  C3  UNL     1      32.980  -1.026  58.471  1.00  0.00    -0.023 C 
HETATM    4  C4  UNL     1      33.305   0.401  58.107  1.00  0.00     0.035 C 
HETATM    5  C5  UNL     1      32.906   0.661  56.723  1.00  0.00     0.029 C 
HETATM    6  C6  UNL     1      33.607   1.740  55.922  1.00  0.00     0.180 C 
HETATM    7  O2  UNL     1      34.736   1.415  55.291  1.00  0.00    -0.372 OA
HETATM    8  C10 UNL     1      34.895   0.485  54.328  1.00  0.00     0.147 C 
HETATM    9  C11 UNL     1      36.196   0.896  53.593  1.00  0.00     0.042 C 
HETATM   10  C12 UNL     1      35.213  -0.945  54.813  1.00  0.00     0.150 C 
HETATM   11  C13 UNL     1      34.714  -0.787  56.265  1.00  0.00     0.040 C 
HETATM   12  C14 UNL     1      33.247  -0.510  55.954  1.00  0.00     0.005 C 
HETATM   13  C15 UNL     1      32.663  -1.862  56.145  1.00  0.00     0.042 C 
HETATM   14  C16 UNL     1      33.677  -2.665  55.352  1.00  0.00     0.177 C 
HETATM   15  O3  UNL     1      34.343  -1.917  54.339  1.00  0.00    -0.383 OA
ENDROOT
BRANCH   6  16
HETATM   16  C7  UNL     1      33.825   2.978  56.693  1.00  0.00     0.086 A 
HETATM   17  N1  UNL     1      34.937   3.536  57.185  1.00  0.00    -0.345 N 
HETATM   18  C8  UNL     1      34.556   4.687  57.801  1.00  0.00     0.235 A 
ATOM     19  H1  UNL     1      35.886   3.169  57.113  1.00  0.00     0.167 HD
HETATM   20  O1  UNL     1      33.252   4.829  57.689  1.00  0.00    -0.292 OA
HETATM   21  C9  UNL     1      32.784   3.825  57.032  1.00  0.00     0.171 A 
HETATM   22 CL1  UNL     1      31.063   3.622  56.659  1.00  0.00    -0.054 Cl
ENDBRANCH   6  16
TORSDOF 1
ENDMDL
