MODEL 1
REMARK VINA RESULT: -6.752466928      0.000      0.000
REMARK  1 active torsions:
REMARK  status: ('A' for Active; 'I' for Inactive)
REMARK    1  A    between atoms: C7_7  and  N1_8 
ROOT
HETATM    1  C1  UNL     1      35.085  -2.634  51.712  1.00  0.00     0.040 C 
HETATM    2  C2  UNL     1      34.546  -1.259  52.063  1.00  0.00     0.121 C 
HETATM    3  C3  UNL     1      35.637  -0.402  52.627  1.00  0.00     0.036 C 
HETATM    4  C4  UNL     1      35.967  -0.735  54.059  1.00  0.00    -0.007 C 
HETATM    5  C5  UNL     1      36.153   0.541  54.808  1.00  0.00     0.009 C 
HETATM    6  C6  UNL     1      35.302   0.649  56.048  1.00  0.00     0.054 C 
HETATM    7  C7  UNL     1      33.832   0.503  55.771  1.00  0.00     0.231 C 
HETATM    8  O1  UNL     1      33.531   0.206  54.466  1.00  0.00    -0.331 OA
HETATM    9  C15 UNL     1      33.571  -1.142  54.161  1.00  0.00     0.163 C 
HETATM   10  C16 UNL     1      32.535  -1.955  54.888  1.00  0.00     0.079 C 
HETATM   11  C17 UNL     1      34.936  -1.651  54.643  1.00  0.00     0.072 C 
HETATM   12  O2  UNL     1      33.405  -1.309  52.814  1.00  0.00    -0.350 OA
ENDROOT
BRANCH   7  13
HETATM   13  N1  UNL     1      33.172   1.732  56.188  1.00  0.00    -0.324 N 
HETATM   14  C8  UNL     1      33.765   2.822  56.736  1.00  0.00     0.138 A 
HETATM   15  C9  UNL     1      32.817   3.782  56.997  1.00  0.00     0.160 A 
HETATM   16  F1  UNL     1      32.994   5.004  57.538  1.00  0.00    -0.202 F 
HETATM   17  C10 UNL     1      31.589   3.284  56.603  1.00  0.00     0.099 A 
HETATM   18  N2  UNL     1      30.336   3.815  56.637  1.00  0.00    -0.362 N 
HETATM   19  C14 UNL     1      31.859   2.025  56.115  1.00  0.00     0.066 A 
HETATM   20  C11 UNL     1      29.322   3.079  56.176  1.00  0.00     0.088 A 
ATOM     21  H2  UNL     1      30.175   4.752  57.006  1.00  0.00     0.165 HD
HETATM   22  C12 UNL     1      29.539   1.820  55.679  1.00  0.00     0.019 A 
HETATM   23  C13 UNL     1      30.798   1.269  55.637  1.00  0.00     0.033 A 
ENDBRANCH   7  13
TORSDOF 1
ENDMDL
MODEL 2
REMARK VINA RESULT: -6.540980759      3.099      6.650
REMARK  1 active torsions:
REMARK  status: ('A' for Active; 'I' for Inactive)
REMARK    1  A    between atoms: C7_7  and  N1_8 
ROOT
HETATM    1  C1  UNL     1      31.159   3.621  57.710  1.00  0.00     0.040 C 
HETATM    2  C2  UNL     1      31.910   3.385  56.412  1.00  0.00     0.121 C 
HETATM    3  C3  UNL     1      31.552   2.048  55.841  1.00  0.00     0.036 C 
HETATM    4  C4  UNL     1      32.234   0.904  56.546  1.00  0.00    -0.007 C 
HETATM    5  C5  UNL     1      32.705  -0.069  55.519  1.00  0.00     0.009 C 
HETATM    6  C6  UNL     1      34.171  -0.405  55.626  1.00  0.00     0.054 C 
HETATM    7  C7  UNL     1      35.063   0.802  55.541  1.00  0.00     0.231 C 
HETATM    8  O1  UNL     1      34.391   1.996  55.477  1.00  0.00    -0.331 OA
HETATM    9  C15 UNL     1      34.041   2.524  56.706  1.00  0.00     0.163 C 
HETATM   10  C16 UNL     1      35.223   2.904  57.556  1.00  0.00     0.079 C 
HETATM   11  C17 UNL     1      33.308   1.407  57.461  1.00  0.00     0.072 C 
HETATM   12  O2  UNL     1      33.252   3.625  56.521  1.00  0.00    -0.350 OA
ENDROOT
BRANCH   7  13
HETATM   13  N1  UNL     1      35.935   0.637  54.388  1.00  0.00    -0.324 N 
HETATM   14  C8  UNL     1      35.618   0.885  53.092  1.00  0.00     0.138 A 
HETATM   15  C9  UNL     1      36.700   0.612  52.291  1.00  0.00     0.160 A 
HETATM   16  F1  UNL     1      36.796   0.726  50.951  1.00  0.00    -0.202 F 
HETATM   17  C10 UNL     1      37.731   0.176  53.102  1.00  0.00     0.099 A 
HETATM   18  N2  UNL     1      39.004  -0.221  52.827  1.00  0.00    -0.362 N 
HETATM   19  C14 UNL     1      37.212   0.209  54.379  1.00  0.00     0.066 A 
HETATM   20  C11 UNL     1      39.785  -0.595  53.843  1.00  0.00     0.088 A 
ATOM     21  H2  UNL     1      39.352  -0.231  51.869  1.00  0.00     0.165 HD
HETATM   22  C12 UNL     1      39.316  -0.580  55.130  1.00  0.00     0.019 A 
HETATM   23  C13 UNL     1      38.034  -0.182  55.426  1.00  0.00     0.033 A 
ENDBRANCH   7  13
TORSDOF 1
ENDMDL
MODEL 3
REMARK VINA RESULT: -6.529752003      1.443      2.118
REMARK  1 active torsions:
REMARK  status: ('A' for Active; 'I' for Inactive)
REMARK    1  A    between atoms: C7_7  and  N1_8 
ROOT
HETATM    1  C1  UNL     1      36.822  -2.673  53.937  1.00  0.00     0.040 C 
HETATM    2  C2  UNL     1      36.389  -1.436  54.703  1.00  0.00     0.121 C 
HETATM    3  C3  UNL     1      35.690  -1.826  55.968  1.00  0.00     0.036 C 
HETATM    4  C4  UNL     1      34.274  -2.287  55.740  1.00  0.00    -0.007 C 
HETATM    5  C5  UNL     1      33.410  -1.698  56.804  1.00  0.00     0.009 C 
HETATM    6  C6  UNL     1      32.218  -0.942  56.271  1.00  0.00     0.054 C 
HETATM    7  C7  UNL     1      32.595   0.170  55.332  1.00  0.00     0.231 C 
HETATM    8  O1  UNL     1      33.936   0.242  55.053  1.00  0.00    -0.331 OA
HETATM    9  C15 UNL     1      34.351  -0.573  54.017  1.00  0.00     0.163 C 
HETATM   10  C16 UNL     1      33.759  -0.202  52.684  1.00  0.00     0.079 C 
HETATM   11  C17 UNL     1      33.832  -1.980  54.343  1.00  0.00     0.072 C 
HETATM   12  O2  UNL     1      35.715  -0.536  53.925  1.00  0.00    -0.350 OA
ENDROOT
BRANCH   7  13
HETATM   13  N1  UNL     1      32.117   1.421  55.902  1.00  0.00    -0.324 N 
HETATM   14  C8  UNL     1      32.869   2.369  56.514  1.00  0.00     0.138 A 
HETATM   15  C9  UNL     1      32.064   3.406  56.921  1.00  0.00     0.160 A 
HETATM   16  F1  UNL     1      32.420   4.537  57.564  1.00  0.00    -0.202 F 
HETATM   17  C10 UNL     1      30.765   3.104  56.556  1.00  0.00     0.099 A 
HETATM   18  N2  UNL     1      29.593   3.777  56.715  1.00  0.00    -0.362 N 
HETATM   19  C14 UNL     1      30.850   1.877  55.935  1.00  0.00     0.066 A 
HETATM   20  C11 UNL     1      28.473   3.220  56.248  1.00  0.00     0.088 A 
ATOM     21  H2  UNL     1      29.570   4.684  57.180  1.00  0.00     0.165 HD
HETATM   22  C12 UNL     1      28.505   2.001  55.623  1.00  0.00     0.019 A 
HETATM   23  C13 UNL     1      29.680   1.308  55.453  1.00  0.00     0.033 A 
ENDBRANCH   7  13
TORSDOF 1
ENDMDL
MODEL 4
REMARK VINA RESULT: -6.451692175      1.445      1.826
REMARK  1 active torsions:
REMARK  status: ('A' for Active; 'I' for Inactive)
REMARK    1  A    between atoms: C7_7  and  N1_8 
ROOT
HETATM    1  C1  UNL     1      38.100  -1.034  52.586  1.00  0.00     0.040 C 
HETATM    2  C2  UNL     1      37.558   0.215  53.256  1.00  0.00     0.121 C 
HETATM    3  C3  UNL     1      37.709   0.116  54.742  1.00  0.00     0.036 C 
HETATM    4  C4  UNL     1      36.679  -0.779  55.380  1.00  0.00    -0.007 C 
HETATM    5  C5  UNL     1      36.196  -0.124  56.630  1.00  0.00     0.009 C 
HETATM    6  C6  UNL     1      34.697   0.021  56.701  1.00  0.00     0.054 C 
HETATM    7  C7  UNL     1      34.121   0.787  55.543  1.00  0.00     0.231 C 
HETATM    8  O1  UNL     1      35.039   1.135  54.585  1.00  0.00    -0.331 OA
HETATM    9  C15 UNL     1      35.273   0.160  53.633  1.00  0.00     0.163 C 
HETATM   10  C16 UNL     1      34.071  -0.149  52.782  1.00  0.00     0.079 C 
HETATM   11  C17 UNL     1      35.598  -1.126  54.405  1.00  0.00     0.072 C 
HETATM   12  O2  UNL     1      36.304   0.550  52.824  1.00  0.00    -0.350 OA
ENDROOT
BRANCH   7  13
HETATM   13  N1  UNL     1      33.453   1.967  56.072  1.00  0.00    -0.324 N 
HETATM   14  C8  UNL     1      34.043   3.027  56.678  1.00  0.00     0.138 A 
HETATM   15  C9  UNL     1      33.086   3.944  57.041  1.00  0.00     0.160 A 
HETATM   16  F1  UNL     1      33.258   5.127  57.665  1.00  0.00    -0.202 F 
HETATM   17  C10 UNL     1      31.855   3.449  56.654  1.00  0.00     0.099 A 
HETATM   18  N2  UNL     1      30.594   3.948  56.770  1.00  0.00    -0.362 N 
HETATM   19  C14 UNL     1      32.132   2.235  56.065  1.00  0.00     0.066 A 
HETATM   20  C11 UNL     1      29.579   3.225  56.291  1.00  0.00     0.088 A 
ATOM     21  H2  UNL     1      30.428   4.852  57.212  1.00  0.00     0.165 HD
HETATM   22  C12 UNL     1      29.803   2.011  55.696  1.00  0.00     0.019 A 
HETATM   23  C13 UNL     1      31.070   1.493  55.569  1.00  0.00     0.033 A 
ENDBRANCH   7  13
TORSDOF 1
ENDMDL
MODEL 5
REMARK VINA RESULT: -6.387005853      2.977      6.040
REMARK  1 active torsions:
REMARK  status: ('A' for Active; 'I' for Inactive)
REMARK    1  A    between atoms: C7_7  and  N1_8 
ROOT
HETATM    1  C1  UNL     1      30.845   3.653  57.407  1.00  0.00     0.040 C 
HETATM    2  C2  UNL     1      31.650   3.303  56.168  1.00  0.00     0.121 C 
HETATM    3  C3  UNL     1      31.346   1.904  55.730  1.00  0.00     0.036 C 
HETATM    4  C4  UNL     1      32.030   0.861  56.575  1.00  0.00    -0.007 C 
HETATM    5  C5  UNL     1      32.562  -0.201  55.673  1.00  0.00     0.009 C 
HETATM    6  C6  UNL     1      34.031  -0.483  55.866  1.00  0.00     0.054 C 
HETATM    7  C7  UNL     1      34.895   0.734  55.684  1.00  0.00     0.231 C 
HETATM    8  O1  UNL     1      34.196   1.895  55.470  1.00  0.00    -0.331 OA
HETATM    9  C15 UNL     1      33.789   2.539  56.624  1.00  0.00     0.163 C 
HETATM   10  C16 UNL     1      34.929   3.040  57.469  1.00  0.00     0.079 C 
HETATM   11  C17 UNL     1      33.056   1.487  57.467  1.00  0.00     0.072 C 
HETATM   12  O2  UNL     1      32.980   3.592  56.296  1.00  0.00    -0.350 OA
ENDROOT
BRANCH   7  13
HETATM   13  N1  UNL     1      35.813   0.474  54.585  1.00  0.00    -0.324 N 
HETATM   14  C8  UNL     1      37.168   0.434  54.656  1.00  0.00     0.138 A 
HETATM   15  C9  UNL     1      37.688   0.160  53.414  1.00  0.00     0.160 A 
HETATM   16  F1  UNL     1      38.983   0.037  53.060  1.00  0.00    -0.202 F 
HETATM   17  C10 UNL     1      36.633   0.023  52.532  1.00  0.00     0.099 A 
HETATM   18  N2  UNL     1      36.587  -0.247  51.198  1.00  0.00    -0.362 N 
HETATM   19  C14 UNL     1      35.505   0.225  53.298  1.00  0.00     0.066 A 
HETATM   20  C11 UNL     1      35.393  -0.319  50.606  1.00  0.00     0.088 A 
ATOM     21  H2  UNL     1      37.444  -0.391  50.665  1.00  0.00     0.165 HD
HETATM   22  C12 UNL     1      34.241  -0.127  51.324  1.00  0.00     0.019 A 
HETATM   23  C13 UNL     1      34.269   0.146  52.671  1.00  0.00     0.033 A 
ENDBRANCH   7  13
TORSDOF 1
ENDMDL
