MODEL 1
REMARK VINA RESULT: -5.191540673      0.000      0.000
REMARK  1 active torsions:
REMARK  status: ('A' for Active; 'I' for Inactive)
REMARK    1  A    between atoms: O1_2  and  N1_3 
ROOT
HETATM    1  N1  UNL     1      32.572   3.328  56.287  1.00  0.00    -0.273 N 
ATOM      2  H1  UNL     1      33.214   4.120  56.323  1.00  0.00     0.193 HD
HETATM    3  C2  UNL     1      33.069   2.150  56.225  1.00  0.00     0.034 C 
HETATM    4  C3  UNL     1      34.534   1.998  56.207  1.00  0.00     0.059 C 
HETATM    5  C4  UNL     1      35.013   0.732  55.599  1.00  0.00     0.043 C 
HETATM    6  C5  UNL     1      36.347   0.847  54.900  1.00  0.00     0.174 C 
HETATM    7  F1  UNL     1      36.110   1.356  53.637  1.00  0.00    -0.249 F 
HETATM    8  C6  UNL     1      36.906  -0.552  54.760  1.00  0.00     0.019 C 
HETATM    9  C7  UNL     1      38.419  -0.468  54.603  1.00  0.00     0.013 C 
HETATM   10  C8  UNL     1      36.304  -1.267  53.572  1.00  0.00     0.034 C 
HETATM   11  C9  UNL     1      36.710  -2.690  53.562  1.00  0.00    -0.030 C 
HETATM   12  C10 UNL     1      35.959  -3.676  54.019  1.00  0.00    -0.031 C 
HETATM   13  C11 UNL     1      34.622  -3.349  54.581  1.00  0.00     0.027 C 
HETATM   14  C12 UNL     1      33.544  -3.423  53.530  1.00  0.00     0.004 C 
HETATM   15  C13 UNL     1      32.261  -4.014  54.047  1.00  0.00     0.001 C 
HETATM   16  C14 UNL     1      31.689  -3.360  55.241  1.00  0.00     0.010 C 
HETATM   17  C15 UNL     1      31.871  -1.871  55.314  1.00  0.00     0.111 C 
HETATM   18  C16 UNL     1      32.201  -1.403  56.683  1.00  0.00     0.259 C 
HETATM   19  O2  UNL     1      32.112  -2.207  57.642  1.00  0.00    -0.265 OA
HETATM   20  O3  UNL     1      32.596  -0.115  56.886  1.00  0.00    -0.316 OA
HETATM   21  C17 UNL     1      32.139   1.009  56.172  1.00  0.00     0.233 C 
ENDROOT
BRANCH   1  22
HETATM   22  O1  UNL     1      31.229   3.584  56.309  1.00  0.00    -0.285 OA
HETATM   23  C1  UNL     1      30.525   3.941  57.482  1.00  0.00     0.237 C 
ENDBRANCH   1  22
TORSDOF 1
ENDMDL
MODEL 2
REMARK VINA RESULT: -5.133135556      2.365      4.577
REMARK  1 active torsions:
REMARK  status: ('A' for Active; 'I' for Inactive)
REMARK    1  A    between atoms: O1_2  and  N1_3 
ROOT
HETATM    1  N1  UNL     1      33.142   2.116  57.170  1.00  0.00    -0.273 N 
ATOM      2  H1  UNL     1      32.221   1.939  57.568  1.00  0.00     0.193 HD
HETATM    3  C2  UNL     1      33.559   1.339  56.241  1.00  0.00     0.034 C 
HETATM    4  C3  UNL     1      32.692   0.234  55.798  1.00  0.00     0.059 C 
HETATM    5  C4  UNL     1      33.414  -0.897  55.165  1.00  0.00     0.043 C 
HETATM    6  C5  UNL     1      32.770  -2.245  55.390  1.00  0.00     0.174 C 
HETATM    7  F1  UNL     1      33.172  -2.695  56.633  1.00  0.00    -0.249 F 
HETATM    8  C6  UNL     1      33.315  -3.186  54.337  1.00  0.00     0.019 C 
HETATM    9  C7  UNL     1      32.334  -4.336  54.145  1.00  0.00     0.013 C 
HETATM   10  C8  UNL     1      34.670  -3.727  54.734  1.00  0.00     0.034 C 
HETATM   11  C9  UNL     1      35.274  -4.487  53.616  1.00  0.00    -0.030 C 
HETATM   12  C10 UNL     1      36.169  -3.989  52.782  1.00  0.00    -0.031 C 
HETATM   13  C11 UNL     1      36.605  -2.580  52.968  1.00  0.00     0.027 C 
HETATM   14  C12 UNL     1      37.824  -2.486  53.850  1.00  0.00     0.004 C 
HETATM   15  C13 UNL     1      38.804  -1.444  53.389  1.00  0.00     0.001 C 
HETATM   16  C14 UNL     1      38.259  -0.082  53.221  1.00  0.00     0.010 C 
HETATM   17  C15 UNL     1      37.199   0.319  54.207  1.00  0.00     0.111 C 
HETATM   18  C16 UNL     1      36.095   1.086  53.578  1.00  0.00     0.259 C 
HETATM   19  O2  UNL     1      36.223   1.483  52.395  1.00  0.00    -0.265 OA
HETATM   20  O3  UNL     1      34.962   1.349  54.286  1.00  0.00    -0.316 OA
HETATM   21  C17 UNL     1      34.891   1.599  55.669  1.00  0.00     0.233 C 
ENDROOT
BRANCH   1  22
HETATM   22  O1  UNL     1      33.864   3.171  57.656  1.00  0.00    -0.285 OA
HETATM   23  C1  UNL     1      33.661   4.508  57.242  1.00  0.00     0.237 C 
ENDBRANCH   1  22
TORSDOF 1
ENDMDL
MODEL 3
REMARK VINA RESULT: -5.083541508      3.570      6.419
REMARK  1 active torsions:
REMARK  status: ('A' for Active; 'I' for Inactive)
REMARK    1  A    between atoms: O1_2  and  N1_3 
ROOT
HETATM    1  N1  UNL     1      36.538  -1.419  50.135  1.00  0.00    -0.273 N 
ATOM      2  H1  UNL     1      36.515  -2.243  49.535  1.00  0.00     0.193 HD
HETATM    3  C2  UNL     1      36.067  -1.522  51.322  1.00  0.00     0.034 C 
HETATM    4  C3  UNL     1      35.517  -2.818  51.757  1.00  0.00     0.059 C 
HETATM    5  C4  UNL     1      34.535  -2.727  52.865  1.00  0.00     0.043 C 
HETATM    6  C5  UNL     1      33.460  -3.788  52.827  1.00  0.00     0.174 C 
HETATM    7  F1  UNL     1      32.489  -3.363  51.940  1.00  0.00    -0.249 F 
HETATM    8  C6  UNL     1      32.852  -3.863  54.210  1.00  0.00     0.019 C 
HETATM    9  C7  UNL     1      32.206  -5.231  54.394  1.00  0.00     0.013 C 
HETATM   10  C8  UNL     1      31.821  -2.776  54.416  1.00  0.00     0.034 C 
HETATM   11  C9  UNL     1      31.379  -2.740  55.828  1.00  0.00    -0.030 C 
HETATM   12  C10 UNL     1      31.851  -1.898  56.730  1.00  0.00    -0.031 C 
HETATM   13  C11 UNL     1      32.893  -0.923  56.313  1.00  0.00     0.027 C 
HETATM   14  C12 UNL     1      32.284   0.381  55.861  1.00  0.00     0.004 C 
HETATM   15  C13 UNL     1      33.075   1.581  56.302  1.00  0.00     0.001 C 
HETATM   16  C14 UNL     1      34.500   1.587  55.916  1.00  0.00     0.010 C 
HETATM   17  C15 UNL     1      34.813   0.975  54.580  1.00  0.00     0.111 C 
HETATM   18  C16 UNL     1      36.051   0.157  54.602  1.00  0.00     0.259 C 
HETATM   19  O2  UNL     1      36.795   0.201  55.612  1.00  0.00    -0.265 OA
HETATM   20  O3  UNL     1      36.367  -0.627  53.535  1.00  0.00    -0.316 OA
HETATM   21  C17 UNL     1      36.103  -0.330  52.185  1.00  0.00     0.233 C 
ENDROOT
BRANCH   1  22
HETATM   22  O1  UNL     1      37.071  -0.266  49.629  1.00  0.00    -0.285 OA
HETATM   23  C1  UNL     1      38.403  -0.165  49.166  1.00  0.00     0.237 C 
ENDBRANCH   1  22
TORSDOF 1
ENDMDL
MODEL 4
REMARK VINA RESULT: -4.969822467      2.824      5.141
REMARK  1 active torsions:
REMARK  status: ('A' for Active; 'I' for Inactive)
REMARK    1  A    between atoms: O1_2  and  N1_3 
ROOT
HETATM    1  N1  UNL     1      32.680  -0.133  56.679  1.00  0.00    -0.273 N 
ATOM      2  H1  UNL     1      31.762  -0.548  56.840  1.00  0.00     0.193 HD
HETATM    3  C2  UNL     1      33.262  -0.368  55.563  1.00  0.00     0.034 C 
HETATM    4  C3  UNL     1      32.582  -1.221  54.573  1.00  0.00     0.059 C 
HETATM    5  C4  UNL     1      33.490  -1.877  53.601  1.00  0.00     0.043 C 
HETATM    6  C5  UNL     1      33.013  -3.229  53.125  1.00  0.00     0.174 C 
HETATM    7  F1  UNL     1      33.377  -4.158  54.081  1.00  0.00    -0.249 F 
HETATM    8  C6  UNL     1      33.752  -3.542  51.842  1.00  0.00     0.019 C 
HETATM    9  C7  UNL     1      32.946  -4.557  51.041  1.00  0.00     0.013 C 
HETATM   10  C8  UNL     1      35.133  -4.089  52.124  1.00  0.00     0.034 C 
HETATM   11  C9  UNL     1      35.911  -4.206  50.870  1.00  0.00    -0.030 C 
HETATM   12  C10 UNL     1      36.793  -3.312  50.462  1.00  0.00    -0.031 C 
HETATM   13  C11 UNL     1      37.027  -2.109  51.303  1.00  0.00     0.027 C 
HETATM   14  C12 UNL     1      38.154  -2.324  52.280  1.00  0.00     0.004 C 
HETATM   15  C13 UNL     1      39.021  -1.108  52.453  1.00  0.00     0.001 C 
HETATM   16  C14 UNL     1      38.317   0.132  52.837  1.00  0.00     0.010 C 
HETATM   17  C15 UNL     1      37.144  -0.047  53.758  1.00  0.00     0.111 C 
HETATM   18  C16 UNL     1      35.998   0.826  53.401  1.00  0.00     0.259 C 
HETATM   19  O2  UNL     1      36.160   1.725  52.541  1.00  0.00    -0.265 OA
HETATM   20  O3  UNL     1      34.791   0.645  54.005  1.00  0.00    -0.316 OA
HETATM   21  C17 UNL     1      34.587   0.233  55.335  1.00  0.00     0.233 C 
ENDROOT
BRANCH   1  22
HETATM   22  O1  UNL     1      33.220   0.643  57.667  1.00  0.00    -0.285 OA
HETATM   23  C1  UNL     1      33.322   0.225  59.014  1.00  0.00     0.237 C 
ENDBRANCH   1  22
TORSDOF 1
ENDMDL
MODEL 5
REMARK VINA RESULT: -4.962786313      4.652      6.539
REMARK  1 active torsions:
REMARK  status: ('A' for Active; 'I' for Inactive)
REMARK    1  A    between atoms: O1_2  and  N1_3 
ROOT
HETATM    1  N1  UNL     1      33.712   4.955  57.049  1.00  0.00    -0.273 N 
ATOM      2  H1  UNL     1      33.556   5.955  57.174  1.00  0.00     0.193 HD
HETATM    3  C2  UNL     1      34.701   4.417  57.659  1.00  0.00     0.034 C 
HETATM    4  C3  UNL     1      35.560   5.264  58.503  1.00  0.00     0.059 C 
HETATM    5  C4  UNL     1      36.930   4.734  58.713  1.00  0.00     0.043 C 
HETATM    6  C5  UNL     1      37.987   5.800  58.875  1.00  0.00     0.174 C 
HETATM    7  F1  UNL     1      38.351   6.220  57.609  1.00  0.00    -0.249 F 
HETATM    8  C6  UNL     1      39.186   5.150  59.531  1.00  0.00     0.019 C 
HETATM    9  C7  UNL     1      40.018   6.226  60.218  1.00  0.00     0.013 C 
HETATM   10  C8  UNL     1      40.033   4.414  58.519  1.00  0.00     0.034 C 
HETATM   11  C9  UNL     1      41.086   3.626  59.198  1.00  0.00    -0.030 C 
HETATM   12  C10 UNL     1      40.993   2.334  59.454  1.00  0.00    -0.031 C 
HETATM   13  C11 UNL     1      39.759   1.615  59.042  1.00  0.00     0.027 C 
HETATM   14  C12 UNL     1      39.897   1.020  57.663  1.00  0.00     0.004 C 
HETATM   15  C13 UNL     1      39.259  -0.337  57.544  1.00  0.00     0.001 C 
HETATM   16  C14 UNL     1      37.836  -0.413  57.932  1.00  0.00     0.010 C 
HETATM   17  C15 UNL     1      37.010   0.798  57.605  1.00  0.00     0.111 C 
HETATM   18  C16 UNL     1      36.055   1.146  58.686  1.00  0.00     0.259 C 
HETATM   19  O2  UNL     1      35.885   0.342  59.634  1.00  0.00    -0.265 OA
HETATM   20  O3  UNL     1      35.376   2.326  58.640  1.00  0.00    -0.316 OA
HETATM   21  C17 UNL     1      34.922   2.972  57.475  1.00  0.00     0.233 C 
ENDROOT
BRANCH   1  22
HETATM   22  O1  UNL     1      32.853   4.264  56.241  1.00  0.00    -0.285 OA
HETATM   23  C1  UNL     1      31.655   3.673  56.706  1.00  0.00     0.237 C 
ENDBRANCH   1  22
TORSDOF 1
ENDMDL
