MODEL 1
REMARK VINA RESULT: -5.596298596      0.000      0.000
REMARK  2 active torsions:
REMARK  status: ('A' for Active; 'I' for Inactive)
REMARK    1  A    between atoms: C5_6  and  C6_7 
REMARK    2  A    between atoms: N2_10  and  C8_11 
ROOT
HETATM    1  C1  UNL     1      32.411  -0.495  56.213  1.00  0.00     0.052 C 
HETATM    2  C2  UNL     1      33.249  -0.694  55.004  1.00  0.00    -0.014 A 
HETATM    3  C3  UNL     1      33.000  -1.750  54.170  1.00  0.00     0.088 A 
HETATM    4  C4  UNL     1      31.930  -2.632  54.499  1.00  0.00     0.103 C 
HETATM    5  N1  UNL     1      31.072  -3.351  54.760  1.00  0.00    -0.191 NA
HETATM    6  C5  UNL     1      33.805  -1.903  53.050  1.00  0.00     0.117 A 
HETATM    7  N2  UNL     1      34.824  -1.094  52.710  1.00  0.00    -0.296 N 
HETATM    8  C14 UNL     1      35.069  -0.044  53.543  1.00  0.00     0.130 A 
HETATM    9  S1  UNL     1      36.322   0.975  53.258  1.00  0.00    -0.058 SA
HETATM   10  C15 UNL     1      34.282   0.137  54.667  1.00  0.00     0.090 A 
HETATM   11  C16 UNL     1      34.568   1.259  55.523  1.00  0.00     0.103 C 
HETATM   12  N3  UNL     1      34.801   2.154  56.216  1.00  0.00    -0.191 NA
ENDROOT
BRANCH   6  13
HETATM   13  C6  UNL     1      33.377  -2.982  52.166  1.00  0.00    -0.029 C 
HETATM   14  C7  UNL     1      33.056  -3.900  51.416  1.00  0.00     0.012 C 
HETATM   15 CL1  UNL     1      32.612  -5.212  50.382  1.00  0.00    -0.023 Cl
ENDBRANCH   6  13
BRANCH   7  16
HETATM   16  C8  UNL     1      35.693  -1.395  51.637  1.00  0.00     0.015 C 
HETATM   17  C9  UNL     1      36.629  -2.329  51.720  1.00  0.00    -0.001 C 
HETATM   18  C10 UNL     1      37.472  -2.535  50.486  1.00  0.00     0.029 C 
HETATM   19  C11 UNL     1      38.016  -1.132  50.176  1.00  0.00     0.004 C 
HETATM   20  C12 UNL     1      36.832  -0.318  49.684  1.00  0.00     0.006 C 
HETATM   21  C13 UNL     1      35.544  -0.751  50.291  1.00  0.00     0.057 C 
ENDBRANCH   7  16
TORSDOF 2
ENDMDL
MODEL 2
REMARK VINA RESULT: -5.514972858      0.606      1.263
REMARK  2 active torsions:
REMARK  status: ('A' for Active; 'I' for Inactive)
REMARK    1  A    between atoms: C5_6  and  C6_7 
REMARK    2  A    between atoms: N2_10  and  C8_11 
ROOT
HETATM    1  C1  UNL     1      32.470  -0.733  55.857  1.00  0.00     0.052 C 
HETATM    2  C2  UNL     1      33.389  -0.893  54.703  1.00  0.00    -0.014 A 
HETATM    3  C3  UNL     1      33.272  -1.986  53.887  1.00  0.00     0.088 A 
HETATM    4  C4  UNL     1      32.259  -2.943  54.182  1.00  0.00     0.103 C 
HETATM    5  N1  UNL     1      31.446  -3.723  54.416  1.00  0.00    -0.191 NA
HETATM    6  C5  UNL     1      34.150  -2.100  52.818  1.00  0.00     0.117 A 
HETATM    7  N2  UNL     1      35.119  -1.221  52.511  1.00  0.00    -0.296 N 
HETATM    8  C14 UNL     1      35.233  -0.134  53.326  1.00  0.00     0.130 A 
HETATM    9  S1  UNL     1      36.415   0.975  53.081  1.00  0.00    -0.058 SA
HETATM   10  C15 UNL     1      34.371   0.010  54.399  1.00  0.00     0.090 A 
HETATM   11  C16 UNL     1      34.518   1.172  55.237  1.00  0.00     0.103 C 
HETATM   12  N3  UNL     1      34.639   2.099  55.916  1.00  0.00    -0.191 NA
ENDROOT
BRANCH   6  13
HETATM   13  C6  UNL     1      33.860  -3.233  51.943  1.00  0.00    -0.029 C 
HETATM   14  C7  UNL     1      33.624  -4.162  51.176  1.00  0.00     0.012 C 
HETATM   15 CL1  UNL     1      33.322  -5.472  50.089  1.00  0.00    -0.023 Cl
ENDBRANCH   6  13
BRANCH   7  16
HETATM   16  C8  UNL     1      36.069  -1.476  51.497  1.00  0.00     0.015 C 
HETATM   17  C9  UNL     1      35.986  -0.932  50.291  1.00  0.00    -0.001 C 
HETATM   18  C10 UNL     1      37.081  -1.298  49.321  1.00  0.00     0.029 C 
HETATM   19  C11 UNL     1      37.066  -2.835  49.315  1.00  0.00     0.004 C 
HETATM   20  C12 UNL     1      37.608  -3.269  50.666  1.00  0.00     0.006 C 
HETATM   21  C13 UNL     1      37.299  -2.296  51.750  1.00  0.00     0.057 C 
ENDBRANCH   7  16
TORSDOF 2
ENDMDL
MODEL 3
REMARK VINA RESULT: -5.305988446      3.250      6.540
REMARK  2 active torsions:
REMARK  status: ('A' for Active; 'I' for Inactive)
REMARK    1  A    between atoms: C5_6  and  C6_7 
REMARK    2  A    between atoms: N2_10  and  C8_11 
ROOT
HETATM    1  C1  UNL     1      35.829  -1.349  50.857  1.00  0.00     0.052 C 
HETATM    2  C2  UNL     1      35.022  -1.492  52.094  1.00  0.00    -0.014 A 
HETATM    3  C3  UNL     1      34.999  -0.476  53.011  1.00  0.00     0.088 A 
HETATM    4  C4  UNL     1      35.763   0.695  52.740  1.00  0.00     0.103 C 
HETATM    5  N1  UNL     1      36.381   1.643  52.531  1.00  0.00    -0.191 NA
HETATM    6  C5  UNL     1      34.232  -0.646  54.156  1.00  0.00     0.117 A 
HETATM    7  N2  UNL     1      33.503  -1.737  54.447  1.00  0.00    -0.296 N 
HETATM    8  C14 UNL     1      33.528  -2.746  53.532  1.00  0.00     0.130 A 
HETATM    9  S1  UNL     1      32.720  -4.146  53.808  1.00  0.00    -0.058 SA
HETATM   10  C15 UNL     1      34.280  -2.606  52.379  1.00  0.00     0.090 A 
HETATM   11  C16 UNL     1      34.282  -3.691  51.432  1.00  0.00     0.103 C 
HETATM   12  N3  UNL     1      34.290  -4.564  50.675  1.00  0.00    -0.191 NA
ENDROOT
BRANCH   6  13
HETATM   13  C6  UNL     1      34.179   0.541  55.004  1.00  0.00    -0.029 C 
HETATM   14  C7  UNL     1      34.175   1.537  55.722  1.00  0.00     0.012 C 
HETATM   15 CL1  UNL     1      34.181   2.955  56.711  1.00  0.00    -0.023 Cl
ENDBRANCH   6  13
BRANCH   7  16
HETATM   16  C8  UNL     1      32.866  -1.900  55.698  1.00  0.00     0.015 C 
HETATM   17  C9  UNL     1      33.523  -2.272  56.787  1.00  0.00    -0.001 C 
HETATM   18  C10 UNL     1      32.703  -2.396  58.047  1.00  0.00     0.029 C 
HETATM   19  C11 UNL     1      31.564  -3.347  57.650  1.00  0.00     0.004 C 
HETATM   20  C12 UNL     1      30.671  -2.566  56.702  1.00  0.00     0.006 C 
HETATM   21  C13 UNL     1      31.421  -1.558  55.903  1.00  0.00     0.057 C 
ENDBRANCH   7  16
TORSDOF 2
ENDMDL
MODEL 4
REMARK VINA RESULT: -5.252736455      3.747      5.610
REMARK  2 active torsions:
REMARK  status: ('A' for Active; 'I' for Inactive)
REMARK    1  A    between atoms: C5_6  and  C6_7 
REMARK    2  A    between atoms: N2_10  and  C8_11 
ROOT
HETATM    1  C1  UNL     1      35.562   3.285  57.967  1.00  0.00     0.052 C 
HETATM    2  C2  UNL     1      34.904   2.201  57.195  1.00  0.00    -0.014 A 
HETATM    3  C3  UNL     1      33.570   2.288  56.903  1.00  0.00     0.088 A 
HETATM    4  C4  UNL     1      32.853   3.432  57.357  1.00  0.00     0.103 C 
HETATM    5  N1  UNL     1      32.265   4.350  57.726  1.00  0.00    -0.191 NA
HETATM    6  C5  UNL     1      32.990   1.255  56.179  1.00  0.00     0.117 A 
HETATM    7  N2  UNL     1      33.633   0.160  55.737  1.00  0.00    -0.296 N 
HETATM    8  C14 UNL     1      34.961   0.077  56.030  1.00  0.00     0.130 A 
HETATM    9  S1  UNL     1      35.834  -1.239  55.590  1.00  0.00    -0.058 SA
HETATM   10  C15 UNL     1      35.569   1.092  56.748  1.00  0.00     0.090 A 
HETATM   11  C16 UNL     1      36.975   0.972  57.038  1.00  0.00     0.103 C 
HETATM   12  N3  UNL     1      38.101   0.874  57.278  1.00  0.00    -0.191 NA
ENDROOT
BRANCH   6  13
HETATM   13  C6  UNL     1      31.599   1.506  55.816  1.00  0.00    -0.029 C 
HETATM   14  C7  UNL     1      30.422   1.734  55.547  1.00  0.00     0.012 C 
HETATM   15 CL1  UNL     1      28.773   2.084  55.166  1.00  0.00    -0.023 Cl
ENDBRANCH   6  13
BRANCH   7  16
HETATM   16  C8  UNL     1      32.948  -0.919  55.135  1.00  0.00     0.015 C 
HETATM   17  C9  UNL     1      32.104  -1.689  55.807  1.00  0.00    -0.001 C 
HETATM   18  C10 UNL     1      31.446  -2.796  55.022  1.00  0.00     0.029 C 
HETATM   19  C11 UNL     1      32.629  -3.557  54.404  1.00  0.00     0.004 C 
HETATM   20  C12 UNL     1      33.211  -2.644  53.340  1.00  0.00     0.006 C 
HETATM   21  C13 UNL     1      33.046  -1.201  53.666  1.00  0.00     0.057 C 
ENDBRANCH   7  16
TORSDOF 2
ENDMDL
MODEL 5
REMARK VINA RESULT: -4.996913719      2.741      5.522
REMARK  2 active torsions:
REMARK  status: ('A' for Active; 'I' for Inactive)
REMARK    1  A    between atoms: C5_6  and  C6_7 
REMARK    2  A    between atoms: N2_10  and  C8_11 
ROOT
HETATM    1  C1  UNL     1      34.944  -3.751  52.671  1.00  0.00     0.052 C 
HETATM    2  C2  UNL     1      34.375  -2.693  53.543  1.00  0.00    -0.014 A 
HETATM    3  C3  UNL     1      33.207  -2.923  54.218  1.00  0.00     0.088 A 
HETATM    4  C4  UNL     1      32.571  -4.188  54.055  1.00  0.00     0.103 C 
HETATM    5  N1  UNL     1      32.050  -5.205  53.925  1.00  0.00    -0.191 NA
HETATM    6  C5  UNL     1      32.706  -1.910  55.023  1.00  0.00     0.117 A 
HETATM    7  N2  UNL     1      33.275  -0.704  55.198  1.00  0.00    -0.296 N 
HETATM    8  C14 UNL     1      34.438  -0.478  54.525  1.00  0.00     0.130 A 
HETATM    9  S1  UNL     1      35.190   0.975  54.619  1.00  0.00    -0.058 SA
HETATM   10  C15 UNL     1      34.964  -1.470  53.716  1.00  0.00     0.090 A 
HETATM   11  C16 UNL     1      36.196  -1.198  53.021  1.00  0.00     0.103 C 
HETATM   12  N3  UNL     1      37.180  -0.979  52.456  1.00  0.00    -0.191 NA
ENDROOT
BRANCH   6  13
HETATM   13  C6  UNL     1      31.529  -2.302  55.791  1.00  0.00    -0.029 C 
HETATM   14  C7  UNL     1      30.560  -2.660  56.456  1.00  0.00     0.012 C 
HETATM   15 CL1  UNL     1      29.209  -3.150  57.416  1.00  0.00    -0.023 Cl
ENDBRANCH   6  13
BRANCH   7  16
HETATM   16  C8  UNL     1      32.633   0.330  55.916  1.00  0.00     0.015 C 
HETATM   17  C9  UNL     1      31.651   1.052  55.397  1.00  0.00    -0.001 C 
HETATM   18  C10 UNL     1      31.064   2.115  56.291  1.00  0.00     0.029 C 
HETATM   19  C11 UNL     1      32.284   2.941  56.727  1.00  0.00     0.004 C 
HETATM   20  C12 UNL     1      33.078   2.058  57.673  1.00  0.00     0.006 C 
HETATM   21  C13 UNL     1      32.946   0.609  57.355  1.00  0.00     0.057 C 
ENDBRANCH   7  16
TORSDOF 2
ENDMDL
