MODEL 1
REMARK VINA RESULT: -7.945401805      0.000      0.000
REMARK  6 active torsions:
REMARK  status: ('A' for Active; 'I' for Inactive)
REMARK    1  A    between atoms: C2_2  and  C5_5 
REMARK    2  A    between atoms: C5_5  and  C6_6 
REMARK    3  A    between atoms: C6_6  and  C7_7 
REMARK    4  A    between atoms: C7_7  and  N1_8 
REMARK    5  A    between atoms: C14_16  and  N2_17 
REMARK    6  A    between atoms: N2_17  and  C15_19 
ROOT
HETATM    1  C15 UNL     1      34.928  37.362  22.256  1.00  0.00     0.069 A 
HETATM    2  C16 UNL     1      34.340  36.300  22.899  1.00  0.00     0.054 A 
HETATM    3 BR1  UNL     1      34.689  34.472  22.467  1.00  0.00    -0.047 Br
HETATM    4  C17 UNL     1      33.428  36.504  23.937  1.00  0.00     0.109 A 
HETATM    5  N3  UNL     1      33.089  37.732  24.351  1.00  0.00    -0.372 N 
ATOM      6  H3  UNL     1      32.422  37.865  25.111  1.00  0.00     0.164 HD
HETATM    7  C18 UNL     1      33.657  38.787  23.731  1.00  0.00     0.112 A 
HETATM    8  C19 UNL     1      34.553  38.656  22.711  1.00  0.00     0.087 A 
HETATM    9  C20 UNL     1      35.110  39.824  22.098  1.00  0.00     0.103 C 
HETATM   10  N4  UNL     1      35.560  40.771  21.591  1.00  0.00    -0.191 NA
ENDROOT
BRANCH   1  11
HETATM   11  N2  UNL     1      35.734  37.308  21.329  1.00  0.00    -0.377 N 
ATOM     12  H2  UNL     1      36.642  37.032  21.702  1.00  0.00     0.160 HD
BRANCH  11  13
HETATM   13  C14 UNL     1      35.853  37.487  19.959  1.00  0.00     0.155 C 
HETATM   14  C13 UNL     1      34.595  37.933  19.230  1.00  0.00     0.032 C 
HETATM   15  C12 UNL     1      35.066  37.851  17.801  1.00  0.00     0.018 C 
HETATM   16  C5  UNL     1      35.724  36.480  17.734  1.00  0.00     0.036 C 
HETATM   17  C21 UNL     1      36.100  36.186  19.192  1.00  0.00     0.271 C 
HETATM   18  F1  UNL     1      35.292  35.170  19.706  1.00  0.00    -0.203 F 
HETATM   19  F2  UNL     1      37.369  35.782  19.393  1.00  0.00    -0.203 F 
BRANCH  16  20
HETATM   20  C2  UNL     1      36.909  36.461  16.847  1.00  0.00    -0.038 C 
HETATM   21  C1  UNL     1      38.183  36.993  17.481  1.00  0.00     0.015 C 
HETATM   22  C3  UNL     1      37.216  35.097  16.317  1.00  0.00     0.015 C 
HETATM   23  C4  UNL     1      36.721  37.367  15.624  1.00  0.00     0.015 C 
ENDBRANCH  16  20
BRANCH  16  24
HETATM   24  C6  UNL     1      34.678  35.492  17.343  1.00  0.00     0.046 C 
BRANCH  24  25
HETATM   25  C7  UNL     1      33.496  35.883  16.579  1.00  0.00     0.273 C 
BRANCH  25  26
HETATM   26  N1  UNL     1      33.699  35.297  15.205  1.00  0.00     0.092 N 
HETATM   27  C8  UNL     1      32.459  35.471  14.467  1.00  0.00     0.298 C 
HETATM   28  C9  UNL     1      32.566  34.766  13.156  1.00  0.00     0.198 C 
HETATM   29  O1  UNL     1      32.974  33.435  13.312  1.00  0.00    -0.388 OA
HETATM   30  C10 UNL     1      32.964  33.071  14.641  1.00  0.00     0.198 C 
HETATM   31  C11 UNL     1      34.011  33.881  15.369  1.00  0.00     0.298 C 
ENDBRANCH  25  26
ENDBRANCH  24  25
ENDBRANCH  16  24
ENDBRANCH  11  13
ENDBRANCH   1  11
TORSDOF 6
ENDMDL
MODEL 2
REMARK VINA RESULT: -7.936690957      1.325      2.142
REMARK  6 active torsions:
REMARK  status: ('A' for Active; 'I' for Inactive)
REMARK    1  A    between atoms: C2_2  and  C5_5 
REMARK    2  A    between atoms: C5_5  and  C6_6 
REMARK    3  A    between atoms: C6_6  and  C7_7 
REMARK    4  A    between atoms: C7_7  and  N1_8 
REMARK    5  A    between atoms: C14_16  and  N2_17 
REMARK    6  A    between atoms: N2_17  and  C15_19 
ROOT
HETATM    1  C15 UNL     1      34.947  37.177  22.276  1.00  0.00     0.069 A 
HETATM    2  C16 UNL     1      34.684  38.436  22.757  1.00  0.00     0.054 A 
HETATM    3 BR1  UNL     1      35.321  40.040  21.938  1.00  0.00    -0.047 Br
HETATM    4  C17 UNL     1      33.911  38.619  23.906  1.00  0.00     0.109 A 
HETATM    5  N3  UNL     1      33.395  37.587  24.585  1.00  0.00    -0.372 N 
ATOM      6  H3  UNL     1      32.832  37.736  25.421  1.00  0.00     0.164 HD
HETATM    7  C18 UNL     1      33.643  36.342  24.126  1.00  0.00     0.112 A 
HETATM    8  C19 UNL     1      34.389  36.095  23.011  1.00  0.00     0.087 A 
HETATM    9  C20 UNL     1      34.614  34.746  22.590  1.00  0.00     0.103 C 
HETATM   10  N4  UNL     1      34.806  33.649  22.246  1.00  0.00    -0.191 NA
ENDROOT
BRANCH   1  11
HETATM   11  N2  UNL     1      35.617  36.891  21.285  1.00  0.00    -0.377 N 
ATOM     12  H2  UNL     1      36.300  36.180  21.547  1.00  0.00     0.160 HD
BRANCH  11  13
HETATM   13  C14 UNL     1      35.779  37.187  19.941  1.00  0.00     0.155 C 
HETATM   14  C13 UNL     1      34.550  37.712  19.217  1.00  0.00     0.032 C 
HETATM   15  C12 UNL     1      35.062  37.748  17.801  1.00  0.00     0.018 C 
HETATM   16  C5  UNL     1      35.707  36.379  17.633  1.00  0.00     0.036 C 
HETATM   17  C21 UNL     1      36.035  35.955  19.070  1.00  0.00     0.271 C 
HETATM   18  F1  UNL     1      35.201  34.909  19.470  1.00  0.00    -0.203 F 
HETATM   19  F2  UNL     1      37.293  35.518  19.272  1.00  0.00    -0.203 F 
BRANCH  16  20
HETATM   20  C2  UNL     1      36.918  36.422  16.783  1.00  0.00    -0.038 C 
HETATM   21  C1  UNL     1      38.165  36.936  17.482  1.00  0.00     0.015 C 
HETATM   22  C3  UNL     1      37.261  35.090  16.194  1.00  0.00     0.015 C 
HETATM   23  C4  UNL     1      36.754  37.387  15.602  1.00  0.00     0.015 C 
ENDBRANCH  16  20
BRANCH  16  24
HETATM   24  C6  UNL     1      34.663  35.444  17.126  1.00  0.00     0.046 C 
BRANCH  24  25
HETATM   25  C7  UNL     1      33.527  35.912  16.335  1.00  0.00     0.273 C 
BRANCH  25  26
HETATM   26  N1  UNL     1      33.693  35.265  14.983  1.00  0.00     0.092 N 
HETATM   27  C8  UNL     1      32.428  35.395  14.278  1.00  0.00     0.298 C 
HETATM   28  C9  UNL     1      32.501  34.632  12.997  1.00  0.00     0.198 C 
HETATM   29  O1  UNL     1      32.927  33.313  13.201  1.00  0.00    -0.388 OA
HETATM   30  C10 UNL     1      32.962  33.010  14.545  1.00  0.00     0.198 C 
HETATM   31  C11 UNL     1      34.024  33.861  15.201  1.00  0.00     0.298 C 
ENDBRANCH  25  26
ENDBRANCH  24  25
ENDBRANCH  16  24
ENDBRANCH  11  13
ENDBRANCH   1  11
TORSDOF 6
ENDMDL
MODEL 3
REMARK VINA RESULT: -7.613399188      4.072      8.488
REMARK  6 active torsions:
REMARK  status: ('A' for Active; 'I' for Inactive)
REMARK    1  A    between atoms: C2_2  and  C5_5 
REMARK    2  A    between atoms: C5_5  and  C6_6 
REMARK    3  A    between atoms: C6_6  and  C7_7 
REMARK    4  A    between atoms: C7_7  and  N1_8 
REMARK    5  A    between atoms: C14_16  and  N2_17 
REMARK    6  A    between atoms: N2_17  and  C15_19 
ROOT
HETATM    1  C15 UNL     1      35.023  35.960  20.277  1.00  0.00     0.069 A 
HETATM    2  C16 UNL     1      35.154  37.125  19.562  1.00  0.00     0.054 A 
HETATM    3 BR1  UNL     1      34.863  38.863  20.301  1.00  0.00    -0.047 Br
HETATM    4  C17 UNL     1      35.521  37.104  18.215  1.00  0.00     0.109 A 
HETATM    5  N3  UNL     1      35.761  35.959  17.564  1.00  0.00    -0.372 N 
ATOM      6  H3  UNL     1      36.028  35.959  16.580  1.00  0.00     0.164 HD
HETATM    7  C18 UNL     1      35.637  34.804  18.251  1.00  0.00     0.112 A 
HETATM    8  C19 UNL     1      35.281  34.756  19.567  1.00  0.00     0.087 A 
HETATM    9  C20 UNL     1      35.165  33.491  20.227  1.00  0.00     0.103 C 
HETATM   10  N4  UNL     1      35.061  32.464  20.767  1.00  0.00    -0.191 NA
ENDROOT
BRANCH   1  11
HETATM   11  N2  UNL     1      34.699  35.852  21.459  1.00  0.00    -0.377 N 
ATOM     12  H2  UNL     1      33.920  35.197  21.525  1.00  0.00     0.160 HD
BRANCH  11  13
HETATM   13  C14 UNL     1      35.011  36.300  22.733  1.00  0.00     0.155 C 
HETATM   14  C13 UNL     1      35.457  35.239  23.726  1.00  0.00     0.032 C 
HETATM   15  C12 UNL     1      35.534  36.060  24.986  1.00  0.00     0.018 C 
HETATM   16  C5  UNL     1      34.211  36.813  24.987  1.00  0.00     0.036 C 
HETATM   17  C21 UNL     1      33.802  36.829  23.508  1.00  0.00     0.271 C 
HETATM   18  F1  UNL     1      32.702  35.995  23.300  1.00  0.00    -0.203 F 
HETATM   19  F2  UNL     1      33.448  38.032  23.017  1.00  0.00    -0.203 F 
BRANCH  16  20
HETATM   20  C2  UNL     1      34.337  38.182  25.536  1.00  0.00    -0.038 C 
HETATM   21  C1  UNL     1      35.170  39.130  24.690  1.00  0.00     0.015 C 
HETATM   22  C3  UNL     1      33.013  38.841  25.762  1.00  0.00     0.015 C 
HETATM   23  C4  UNL     1      35.060  38.191  26.888  1.00  0.00     0.015 C 
ENDBRANCH  16  20
BRANCH  16  24
HETATM   24  C6  UNL     1      33.211  35.977  25.710  1.00  0.00     0.046 C 
BRANCH  24  25
HETATM   25  C7  UNL     1      33.615  34.943  26.660  1.00  0.00     0.273 C 
BRANCH  25  26
HETATM   26  N1  UNL     1      32.668  33.794  26.421  1.00  0.00     0.092 N 
HETATM   27  C8  UNL     1      31.449  34.344  25.850  1.00  0.00     0.298 C 
HETATM   28  C9  UNL     1      30.427  33.261  25.741  1.00  0.00     0.198 C 
HETATM   29  O1  UNL     1      30.254  32.585  26.956  1.00  0.00    -0.388 OA
HETATM   30  C10 UNL     1      30.914  33.234  27.977  1.00  0.00     0.198 C 
HETATM   31  C11 UNL     1      32.399  33.164  27.708  1.00  0.00     0.298 C 
ENDBRANCH  25  26
ENDBRANCH  24  25
ENDBRANCH  16  24
ENDBRANCH  11  13
ENDBRANCH   1  11
TORSDOF 6
ENDMDL
MODEL 4
REMARK VINA RESULT: -7.541577302      2.969      6.415
REMARK  6 active torsions:
REMARK  status: ('A' for Active; 'I' for Inactive)
REMARK    1  A    between atoms: C2_2  and  C5_5 
REMARK    2  A    between atoms: C5_5  and  C6_6 
REMARK    3  A    between atoms: C6_6  and  C7_7 
REMARK    4  A    between atoms: C7_7  and  N1_8 
REMARK    5  A    between atoms: C14_16  and  N2_17 
REMARK    6  A    between atoms: N2_17  and  C15_19 
ROOT
HETATM    1  C15 UNL     1      36.009  36.584  17.084  1.00  0.00     0.069 A 
HETATM    2  C16 UNL     1      35.019  35.801  16.541  1.00  0.00     0.054 A 
HETATM    3 BR1  UNL     1      33.175  35.936  17.024  1.00  0.00    -0.047 Br
HETATM    4  C17 UNL     1      35.314  34.836  15.576  1.00  0.00     0.109 A 
HETATM    5  N3  UNL     1      36.562  34.631  15.137  1.00  0.00    -0.372 N 
ATOM      6  H3  UNL     1      36.762  33.923  14.431  1.00  0.00     0.164 HD
HETATM    7  C18 UNL     1      37.548  35.391  15.659  1.00  0.00     0.112 A 
HETATM    8  C19 UNL     1      37.327  36.349  16.605  1.00  0.00     0.087 A 
HETATM    9  C20 UNL     1      38.425  37.112  17.115  1.00  0.00     0.103 C 
HETATM   10  N4  UNL     1      39.316  37.731  17.539  1.00  0.00    -0.191 NA
ENDROOT
BRANCH   1  11
HETATM   11  N2  UNL     1      35.873  37.455  17.941  1.00  0.00    -0.377 N 
ATOM     12  H2  UNL     1      35.496  38.292  17.499  1.00  0.00     0.160 HD
BRANCH  11  13
HETATM   13  C14 UNL     1      36.049  37.708  19.293  1.00  0.00     0.155 C 
HETATM   14  C13 UNL     1      36.674  36.588  20.109  1.00  0.00     0.032 C 
HETATM   15  C12 UNL     1      36.543  37.158  21.498  1.00  0.00     0.018 C 
HETATM   16  C5  UNL     1      35.094  37.623  21.543  1.00  0.00     0.036 C 
HETATM   17  C21 UNL     1      34.735  37.835  20.066  1.00  0.00     0.271 C 
HETATM   18  F1  UNL     1      33.836  36.856  19.640  1.00  0.00    -0.203 F 
HETATM   19  F2  UNL     1      34.156  39.016  19.774  1.00  0.00    -0.203 F 
BRANCH  16  20
HETATM   20  C2  UNL     1      34.920  38.863  22.334  1.00  0.00    -0.038 C 
HETATM   21  C1  UNL     1      35.455  40.119  21.668  1.00  0.00     0.015 C 
HETATM   22  C3  UNL     1      33.492  39.128  22.691  1.00  0.00     0.015 C 
HETATM   23  C4  UNL     1      35.694  38.810  23.657  1.00  0.00     0.015 C 
ENDBRANCH  16  20
BRANCH  16  24
HETATM   24  C6  UNL     1      34.266  36.487  22.038  1.00  0.00     0.046 C 
BRANCH  24  25
HETATM   25  C7  UNL     1      34.849  35.181  22.335  1.00  0.00     0.273 C 
BRANCH  25  26
HETATM   26  N1  UNL     1      33.967  34.183  21.627  1.00  0.00     0.092 N 
HETATM   27  C8  UNL     1      33.594  33.165  22.595  1.00  0.00     0.298 C 
HETATM   28  C9  UNL     1      32.848  32.076  21.897  1.00  0.00     0.198 C 
HETATM   29  O1  UNL     1      33.549  31.597  20.783  1.00  0.00    -0.388 OA
HETATM   30  C10 UNL     1      34.828  32.109  20.749  1.00  0.00     0.198 C 
HETATM   31  C11 UNL     1      34.741  33.602  20.535  1.00  0.00     0.298 C 
ENDBRANCH  25  26
ENDBRANCH  24  25
ENDBRANCH  16  24
ENDBRANCH  11  13
ENDBRANCH   1  11
TORSDOF 6
ENDMDL
MODEL 5
REMARK VINA RESULT: -7.536442196      4.796      8.644
REMARK  6 active torsions:
REMARK  status: ('A' for Active; 'I' for Inactive)
REMARK    1  A    between atoms: C2_2  and  C5_5 
REMARK    2  A    between atoms: C5_5  and  C6_6 
REMARK    3  A    between atoms: C6_6  and  C7_7 
REMARK    4  A    between atoms: C7_7  and  N1_8 
REMARK    5  A    between atoms: C14_16  and  N2_17 
REMARK    6  A    between atoms: N2_17  and  C15_19 
ROOT
HETATM    1  C15 UNL     1      33.986  33.874  21.341  1.00  0.00     0.069 A 
HETATM    2  C16 UNL     1      33.129  32.910  21.812  1.00  0.00     0.054 A 
HETATM    3 BR1  UNL     1      31.928  33.180  23.274  1.00  0.00    -0.047 Br
HETATM    4  C17 UNL     1      33.084  31.641  21.231  1.00  0.00     0.109 A 
HETATM    5  N3  UNL     1      33.866  31.308  20.196  1.00  0.00    -0.372 N 
ATOM      6  H3  UNL     1      33.821  30.378  19.781  1.00  0.00     0.164 HD
HETATM    7  C18 UNL     1      34.714  32.243  19.719  1.00  0.00     0.112 A 
HETATM    8  C19 UNL     1      34.807  33.500  20.242  1.00  0.00     0.087 A 
HETATM    9  C20 UNL     1      35.736  34.435  19.685  1.00  0.00     0.103 C 
HETATM   10  N4  UNL     1      36.496  35.198  19.241  1.00  0.00    -0.191 NA
ENDROOT
BRANCH   1  11
HETATM   11  N2  UNL     1      34.120  35.017  21.774  1.00  0.00    -0.377 N 
ATOM     12  H2  UNL     1      33.551  35.648  21.210  1.00  0.00     0.160 HD
BRANCH  11  13
HETATM   13  C14 UNL     1      34.767  35.757  22.751  1.00  0.00     0.155 C 
HETATM   14  C13 UNL     1      35.091  35.023  24.043  1.00  0.00     0.032 C 
HETATM   15  C12 UNL     1      35.610  36.162  24.880  1.00  0.00     0.018 C 
HETATM   16  C5  UNL     1      34.556  37.242  24.683  1.00  0.00     0.036 C 
HETATM   17  C21 UNL     1      33.903  36.871  23.345  1.00  0.00     0.271 C 
HETATM   18  F1  UNL     1      32.603  36.406  23.553  1.00  0.00    -0.203 F 
HETATM   19  F2  UNL     1      33.795  37.876  22.455  1.00  0.00    -0.203 F 
BRANCH  16  20
HETATM   20  C2  UNL     1      35.137  38.603  24.652  1.00  0.00    -0.038 C 
HETATM   21  C1  UNL     1      36.334  38.761  23.730  1.00  0.00     0.015 C 
HETATM   22  C3  UNL     1      34.141  39.650  24.264  1.00  0.00     0.015 C 
HETATM   23  C4  UNL     1      35.690  39.020  26.020  1.00  0.00     0.015 C 
ENDBRANCH  16  20
BRANCH  16  24
HETATM   24  C6  UNL     1      33.521  37.066  25.741  1.00  0.00     0.046 C 
BRANCH  24  25
HETATM   25  C7  UNL     1      33.818  36.397  27.006  1.00  0.00     0.273 C 
BRANCH  25  26
HETATM   26  N1  UNL     1      32.483  35.928  27.528  1.00  0.00     0.092 N 
HETATM   27  C8  UNL     1      32.717  35.281  28.809  1.00  0.00     0.298 C 
HETATM   28  C9  UNL     1      31.444  34.666  29.287  1.00  0.00     0.198 C 
HETATM   29  O1  UNL     1      30.865  33.844  28.311  1.00  0.00    -0.388 OA
HETATM   30  C10 UNL     1      31.727  33.656  27.253  1.00  0.00     0.198 C 
HETATM   31  C11 UNL     1      31.935  34.983  26.562  1.00  0.00     0.298 C 
ENDBRANCH  25  26
ENDBRANCH  24  25
ENDBRANCH  16  24
ENDBRANCH  11  13
ENDBRANCH   1  11
TORSDOF 6
ENDMDL
