MODEL 1
REMARK VINA RESULT: -9.340259850      0.000      0.000
REMARK  6 active torsions:
REMARK  status: ('A' for Active; 'I' for Inactive)
REMARK    1  A    between atoms: C2_2  and  C3_4 
REMARK    2  A    between atoms: C3_4  and  N1_5 
REMARK    3  A    between atoms: C3_4  and  C25_30 
REMARK       I    between atoms: N1_5  and  C4_7 
REMARK    4  A    between atoms: C4_7  and  C5_9 
REMARK    5  A    between atoms: C5_9  and  C7_11 
REMARK    6  A    between atoms: C25_30  and  C26_32 
ROOT
HETATM    1  C7  UNL     1      35.510  38.452  22.247  1.00  0.00    -0.002 C 
HETATM    2  C8  UNL     1      34.547  38.825  23.326  1.00  0.00     0.006 C 
HETATM    3  C9  UNL     1      33.493  37.829  23.624  1.00  0.00     0.010 C 
HETATM    4  C10 UNL     1      33.990  36.405  23.768  1.00  0.00    -0.036 C 
HETATM    5  C11 UNL     1      34.958  36.361  24.902  1.00  0.00     0.016 C 
HETATM    6  C12 UNL     1      34.660  36.082  22.432  1.00  0.00    -0.006 C 
HETATM    7  C13 UNL     1      35.245  34.667  22.450  1.00  0.00     0.006 C 
HETATM    8  C14 UNL     1      34.354  33.696  23.163  1.00  0.00     0.006 C 
HETATM    9  C15 UNL     1      32.948  34.207  23.125  1.00  0.00    -0.001 C 
HETATM   10  C16 UNL     1      32.820  35.516  23.883  1.00  0.00    -0.001 C 
HETATM   11  C17 UNL     1      32.436  35.030  25.239  1.00  0.00     0.018 C 
HETATM   12  C18 UNL     1      31.279  34.092  24.852  1.00  0.00     0.064 C 
HETATM   13  C19 UNL     1      30.936  33.141  25.904  1.00  0.00     0.131 C 
HETATM   14  O3  UNL     1      30.248  33.377  26.877  1.00  0.00    -0.298 OA
HETATM   15  C20 UNL     1      31.559  31.849  25.599  1.00  0.00     0.079 C 
HETATM   16  C21 UNL     1      32.429  32.077  24.364  1.00  0.00     0.017 C 
HETATM   17  C22 UNL     1      31.925  33.322  23.720  1.00  0.00    -0.029 C 
HETATM   18  C23 UNL     1      30.871  32.919  22.679  1.00  0.00     0.016 C 
HETATM   19  C24 UNL     1      35.763  37.006  22.089  1.00  0.00     0.011 C 
ENDROOT
BRANCH   1  20
HETATM   20  C5  UNL     1      35.170  39.173  20.959  1.00  0.00     0.078 C 
HETATM   21  C6  UNL     1      33.863  39.874  20.980  1.00  0.00     0.020 C 
BRANCH  20  22
HETATM   22  C4  UNL     1      35.203  38.271  19.788  1.00  0.00     0.222 C 
HETATM   23  N1  UNL     1      36.370  37.580  19.389  1.00  0.00    -0.342 N 
ATOM     24  H1  UNL     1      37.236  37.691  19.916  1.00  0.00     0.163 HD
HETATM   25  O2  UNL     1      34.133  38.134  19.139  1.00  0.00    -0.273 OA
BRANCH  23  26
HETATM   26  C3  UNL     1      36.331  36.694  18.205  1.00  0.00     0.233 C 
BRANCH  26  27
HETATM   27  C2  UNL     1      37.635  36.743  17.549  1.00  0.00     0.153 C 
HETATM   28  C1  UNL     1      37.891  36.250  16.174  1.00  0.00     0.093 C 
HETATM   29  O1  UNL     1      38.577  37.233  18.182  1.00  0.00    -0.296 OA
ENDBRANCH  26  27
BRANCH  26  30
HETATM   30  C25 UNL     1      35.855  35.400  18.692  1.00  0.00     0.262 C 
HETATM   31  O4  UNL     1      36.613  34.787  19.470  1.00  0.00    -0.285 OA
BRANCH  30  32
HETATM   32  C26 UNL     1      34.596  34.703  18.401  1.00  0.00     0.453 C 
HETATM   33  F1  UNL     1      33.850  34.485  19.532  1.00  0.00    -0.163 F 
HETATM   34  F2  UNL     1      34.818  33.466  17.804  1.00  0.00    -0.163 F 
HETATM   35  F3  UNL     1      33.764  35.475  17.568  1.00  0.00    -0.163 F 
ENDBRANCH  30  32
ENDBRANCH  26  30
ENDBRANCH  23  26
ENDBRANCH  20  22
ENDBRANCH   1  20
TORSDOF 6
ENDMDL
MODEL 2
REMARK VINA RESULT: -9.156859077      3.040      7.196
REMARK  6 active torsions:
REMARK  status: ('A' for Active; 'I' for Inactive)
REMARK    1  A    between atoms: C2_2  and  C3_4 
REMARK    2  A    between atoms: C3_4  and  N1_5 
REMARK    3  A    between atoms: C3_4  and  C25_30 
REMARK       I    between atoms: N1_5  and  C4_7 
REMARK    4  A    between atoms: C4_7  and  C5_9 
REMARK    5  A    between atoms: C5_9  and  C7_11 
REMARK    6  A    between atoms: C25_30  and  C26_32 
ROOT
HETATM    1  C7  UNL     1      33.590  33.263  23.471  1.00  0.00    -0.002 C 
HETATM    2  C8  UNL     1      32.888  32.615  22.322  1.00  0.00     0.006 C 
HETATM    3  C9  UNL     1      32.920  33.359  21.043  1.00  0.00     0.010 C 
HETATM    4  C10 UNL     1      34.285  33.891  20.654  1.00  0.00    -0.036 C 
HETATM    5  C11 UNL     1      35.211  32.732  20.502  1.00  0.00     0.016 C 
HETATM    6  C12 UNL     1      34.697  34.805  21.808  1.00  0.00    -0.006 C 
HETATM    7  C13 UNL     1      36.090  35.392  21.559  1.00  0.00     0.006 C 
HETATM    8  C14 UNL     1      36.301  35.758  20.122  1.00  0.00     0.006 C 
HETATM    9  C15 UNL     1      34.972  36.010  19.484  1.00  0.00    -0.001 C 
HETATM   10  C16 UNL     1      34.125  34.750  19.467  1.00  0.00    -0.001 C 
HETATM   11  C17 UNL     1      34.476  34.181  18.134  1.00  0.00     0.018 C 
HETATM   12  C18 UNL     1      34.257  35.431  17.262  1.00  0.00     0.064 C 
HETATM   13  C19 UNL     1      34.900  35.337  15.955  1.00  0.00     0.131 C 
HETATM   14  O3  UNL     1      34.461  34.745  14.990  1.00  0.00    -0.298 OA
HETATM   15  C20 UNL     1      36.167  36.074  15.994  1.00  0.00     0.079 C 
HETATM   16  C21 UNL     1      36.354  36.523  17.442  1.00  0.00     0.017 C 
HETATM   17  C22 UNL     1      35.007  36.462  18.078  1.00  0.00    -0.029 C 
HETATM   18  C23 UNL     1      34.353  37.842  17.925  1.00  0.00     0.016 C 
HETATM   19  C24 UNL     1      34.740  34.117  23.117  1.00  0.00     0.011 C 
ENDROOT
BRANCH   1  20
HETATM   20  C5  UNL     1      32.591  33.913  24.405  1.00  0.00     0.078 C 
HETATM   21  C6  UNL     1      31.258  33.260  24.423  1.00  0.00     0.020 C 
BRANCH  20  22
HETATM   22  C4  UNL     1      32.408  35.351  24.116  1.00  0.00     0.222 C 
HETATM   23  N1  UNL     1      33.318  36.340  24.555  1.00  0.00    -0.342 N 
ATOM     24  H1  UNL     1      34.142  36.074  25.094  1.00  0.00     0.163 HD
HETATM   25  O2  UNL     1      31.392  35.677  23.449  1.00  0.00    -0.273 OA
BRANCH  23  26
HETATM   26  C3  UNL     1      33.072  37.762  24.230  1.00  0.00     0.233 C 
BRANCH  26  27
HETATM   27  C2  UNL     1      32.692  38.457  25.456  1.00  0.00     0.153 C 
HETATM   28  C1  UNL     1      31.961  37.819  26.578  1.00  0.00     0.093 C 
HETATM   29  O1  UNL     1      33.008  39.647  25.562  1.00  0.00    -0.296 OA
ENDBRANCH  26  27
BRANCH  26  30
HETATM   30  C25 UNL     1      34.267  38.220  23.521  1.00  0.00     0.262 C 
HETATM   31  O4  UNL     1      35.361  37.810  23.957  1.00  0.00    -0.285 OA
BRANCH  30  32
HETATM   32  C26 UNL     1      34.375  39.103  22.353  1.00  0.00     0.453 C 
HETATM   33  F1  UNL     1      33.197  39.186  21.655  1.00  0.00    -0.163 F 
HETATM   34  F2  UNL     1      35.354  38.666  21.467  1.00  0.00    -0.163 F 
HETATM   35  F3  UNL     1      34.658  40.427  22.737  1.00  0.00    -0.163 F 
ENDBRANCH  30  32
ENDBRANCH  26  30
ENDBRANCH  23  26
ENDBRANCH  20  22
ENDBRANCH   1  20
TORSDOF 6
ENDMDL
MODEL 3
REMARK VINA RESULT: -8.983640362      1.755      2.461
REMARK  6 active torsions:
REMARK  status: ('A' for Active; 'I' for Inactive)
REMARK    1  A    between atoms: C2_2  and  C3_4 
REMARK    2  A    between atoms: C3_4  and  N1_5 
REMARK    3  A    between atoms: C3_4  and  C25_30 
REMARK       I    between atoms: N1_5  and  C4_7 
REMARK    4  A    between atoms: C4_7  and  C5_9 
REMARK    5  A    between atoms: C5_9  and  C7_11 
REMARK    6  A    between atoms: C25_30  and  C26_32 
ROOT
HETATM    1  C7  UNL     1      35.307  38.247  22.752  1.00  0.00    -0.002 C 
HETATM    2  C8  UNL     1      33.915  38.558  23.199  1.00  0.00     0.006 C 
HETATM    3  C9  UNL     1      33.057  37.390  23.499  1.00  0.00     0.010 C 
HETATM    4  C10 UNL     1      33.711  36.328  24.360  1.00  0.00    -0.036 C 
HETATM    5  C11 UNL     1      34.071  36.945  25.669  1.00  0.00     0.016 C 
HETATM    6  C12 UNL     1      34.947  35.888  23.576  1.00  0.00    -0.006 C 
HETATM    7  C13 UNL     1      35.730  34.828  24.355  1.00  0.00     0.006 C 
HETATM    8  C14 UNL     1      34.828  33.857  25.054  1.00  0.00     0.006 C 
HETATM    9  C15 UNL     1      33.511  33.819  24.344  1.00  0.00    -0.001 C 
HETATM   10  C16 UNL     1      32.809  35.163  24.422  1.00  0.00    -0.001 C 
HETATM   11  C17 UNL     1      31.973  34.985  25.644  1.00  0.00     0.018 C 
HETATM   12  C18 UNL     1      31.313  33.637  25.301  1.00  0.00     0.064 C 
HETATM   13  C19 UNL     1      30.739  32.969  26.465  1.00  0.00     0.131 C 
HETATM   14  O3  UNL     1      29.662  33.221  26.968  1.00  0.00    -0.298 OA
HETATM   15  C20 UNL     1      31.673  31.940  26.932  1.00  0.00     0.079 C 
HETATM   16  C21 UNL     1      32.932  32.090  26.081  1.00  0.00     0.017 C 
HETATM   17  C22 UNL     1      32.528  32.847  24.863  1.00  0.00    -0.029 C 
HETATM   18  C23 UNL     1      32.139  31.826  23.783  1.00  0.00     0.016 C 
HETATM   19  C24 UNL     1      35.883  36.995  23.283  1.00  0.00     0.011 C 
ENDROOT
BRANCH   1  20
HETATM   20  C5  UNL     1      35.431  38.407  21.252  1.00  0.00     0.078 C 
HETATM   21  C6  UNL     1      34.215  38.945  20.593  1.00  0.00     0.020 C 
BRANCH  20  22
HETATM   22  C4  UNL     1      35.809  37.143  20.584  1.00  0.00     0.222 C 
HETATM   23  N1  UNL     1      34.856  36.200  20.137  1.00  0.00    -0.342 N 
ATOM     24  H1  UNL     1      33.860  36.378  20.268  1.00  0.00     0.163 HD
HETATM   25  O2  UNL     1      37.038  36.926  20.422  1.00  0.00    -0.273 OA
BRANCH  23  26
HETATM   26  C3  UNL     1      35.306  34.955  19.477  1.00  0.00     0.233 C 
BRANCH  26  27
HETATM   27  C2  UNL     1      34.795  33.819  20.239  1.00  0.00     0.153 C 
HETATM   28  C1  UNL     1      33.425  33.745  20.801  1.00  0.00     0.093 C 
HETATM   29  O1  UNL     1      35.555  32.860  20.417  1.00  0.00    -0.296 OA
ENDBRANCH  26  27
BRANCH  26  30
HETATM   30  C25 UNL     1      34.905  35.080  18.076  1.00  0.00     0.262 C 
HETATM   31  O4  UNL     1      34.750  34.015  17.447  1.00  0.00    -0.285 OA
BRANCH  30  32
HETATM   32  C26 UNL     1      34.651  36.291  17.286  1.00  0.00     0.453 C 
HETATM   33  F1  UNL     1      35.696  37.177  17.343  1.00  0.00    -0.163 F 
HETATM   34  F2  UNL     1      33.512  36.961  17.723  1.00  0.00    -0.163 F 
HETATM   35  F3  UNL     1      34.511  35.989  15.918  1.00  0.00    -0.163 F 
ENDBRANCH  30  32
ENDBRANCH  26  30
ENDBRANCH  23  26
ENDBRANCH  20  22
ENDBRANCH   1  20
TORSDOF 6
ENDMDL
MODEL 4
REMARK VINA RESULT: -8.922744081      1.493      2.220
REMARK  6 active torsions:
REMARK  status: ('A' for Active; 'I' for Inactive)
REMARK    1  A    between atoms: C2_2  and  C3_4 
REMARK    2  A    between atoms: C3_4  and  N1_5 
REMARK    3  A    between atoms: C3_4  and  C25_30 
REMARK       I    between atoms: N1_5  and  C4_7 
REMARK    4  A    between atoms: C4_7  and  C5_9 
REMARK    5  A    between atoms: C5_9  and  C7_11 
REMARK    6  A    between atoms: C25_30  and  C26_32 
ROOT
HETATM    1  C7  UNL     1      35.107  38.793  22.623  1.00  0.00    -0.002 C 
HETATM    2  C8  UNL     1      33.731  39.004  23.168  1.00  0.00     0.006 C 
HETATM    3  C9  UNL     1      32.915  37.783  23.351  1.00  0.00     0.010 C 
HETATM    4  C10 UNL     1      33.632  36.639  24.038  1.00  0.00    -0.036 C 
HETATM    5  C11 UNL     1      34.041  37.093  25.399  1.00  0.00     0.016 C 
HETATM    6  C12 UNL     1      34.840  36.338  23.149  1.00  0.00    -0.006 C 
HETATM    7  C13 UNL     1      35.683  35.210  23.750  1.00  0.00     0.006 C 
HETATM    8  C14 UNL     1      34.836  34.132  24.356  1.00  0.00     0.006 C 
HETATM    9  C15 UNL     1      33.489  34.148  23.706  1.00  0.00    -0.001 C 
HETATM   10  C16 UNL     1      32.761  35.451  23.989  1.00  0.00    -0.001 C 
HETATM   11  C17 UNL     1      31.989  35.093  25.213  1.00  0.00     0.018 C 
HETATM   12  C18 UNL     1      31.343  33.782  24.728  1.00  0.00     0.064 C 
HETATM   13  C19 UNL     1      30.840  32.954  25.820  1.00  0.00     0.131 C 
HETATM   14  O3  UNL     1      29.783  33.109  26.399  1.00  0.00    -0.298 OA
HETATM   15  C20 UNL     1      31.818  31.902  26.109  1.00  0.00     0.079 C 
HETATM   16  C21 UNL     1      33.032  32.195  25.229  1.00  0.00     0.017 C 
HETATM   17  C22 UNL     1      32.553  33.090  24.138  1.00  0.00    -0.029 C 
HETATM   18  C23 UNL     1      32.136  32.206  22.954  1.00  0.00     0.016 C 
HETATM   19  C24 UNL     1      35.735  37.500  22.961  1.00  0.00     0.011 C 
ENDROOT
BRANCH   1  20
HETATM   20  C5  UNL     1      35.155  39.147  21.152  1.00  0.00     0.078 C 
HETATM   21  C6  UNL     1      33.872  39.648  20.602  1.00  0.00     0.020 C 
BRANCH  20  22
HETATM   22  C4  UNL     1      35.616  38.016  20.319  1.00  0.00     0.222 C 
HETATM   23  N1  UNL     1      34.727  37.184  19.600  1.00  0.00    -0.342 N 
ATOM     24  H1  UNL     1      33.723  37.354  19.641  1.00  0.00     0.163 HD
HETATM   25  O2  UNL     1      36.857  37.809  20.268  1.00  0.00    -0.273 OA
BRANCH  23  26
HETATM   26  C3  UNL     1      35.259  36.069  18.787  1.00  0.00     0.233 C 
BRANCH  26  27
HETATM   27  C2  UNL     1      35.089  34.829  19.539  1.00  0.00     0.153 C 
HETATM   28  C1  UNL     1      33.792  34.361  20.086  1.00  0.00     0.093 C 
HETATM   29  O1  UNL     1      36.091  34.128  19.722  1.00  0.00    -0.296 OA
ENDBRANCH  26  27
BRANCH  26  30
HETATM   30  C25 UNL     1      34.603  36.179  17.485  1.00  0.00     0.262 C 
HETATM   31  O4  UNL     1      33.476  36.713  17.475  1.00  0.00    -0.285 OA
BRANCH  30  32
HETATM   32  C26 UNL     1      35.079  35.751  16.163  1.00  0.00     0.453 C 
HETATM   33  F1  UNL     1      36.051  36.583  15.668  1.00  0.00    -0.163 F 
HETATM   34  F2  UNL     1      34.047  35.714  15.232  1.00  0.00    -0.163 F 
HETATM   35  F3  UNL     1      35.690  34.484  16.226  1.00  0.00    -0.163 F 
ENDBRANCH  30  32
ENDBRANCH  26  30
ENDBRANCH  23  26
ENDBRANCH  20  22
ENDBRANCH   1  20
TORSDOF 6
ENDMDL
MODEL 5
REMARK VINA RESULT: -8.910160575      1.350      1.708
REMARK  6 active torsions:
REMARK  status: ('A' for Active; 'I' for Inactive)
REMARK    1  A    between atoms: C2_2  and  C3_4 
REMARK    2  A    between atoms: C3_4  and  N1_5 
REMARK    3  A    between atoms: C3_4  and  C25_30 
REMARK       I    between atoms: N1_5  and  C4_7 
REMARK    4  A    between atoms: C4_7  and  C5_9 
REMARK    5  A    between atoms: C5_9  and  C7_11 
REMARK    6  A    between atoms: C25_30  and  C26_32 
ROOT
HETATM    1  C7  UNL     1      35.874  37.259  22.471  1.00  0.00    -0.002 C 
HETATM    2  C8  UNL     1      35.907  37.624  23.920  1.00  0.00     0.006 C 
HETATM    3  C9  UNL     1      34.871  36.994  24.768  1.00  0.00     0.010 C 
HETATM    4  C10 UNL     1      34.701  35.503  24.557  1.00  0.00    -0.036 C 
HETATM    5  C11 UNL     1      35.993  34.834  24.886  1.00  0.00     0.016 C 
HETATM    6  C12 UNL     1      34.338  35.351  23.080  1.00  0.00    -0.006 C 
HETATM    7  C13 UNL     1      34.168  33.873  22.716  1.00  0.00     0.006 C 
HETATM    8  C14 UNL     1      33.483  33.099  23.801  1.00  0.00     0.006 C 
HETATM    9  C15 UNL     1      32.656  34.038  24.621  1.00  0.00    -0.001 C 
HETATM   10  C16 UNL     1      33.528  35.058  25.332  1.00  0.00    -0.001 C 
HETATM   11  C17 UNL     1      33.764  34.379  26.638  1.00  0.00     0.018 C 
HETATM   12  C18 UNL     1      32.312  34.021  27.001  1.00  0.00     0.064 C 
HETATM   13  C19 UNL     1      32.216  32.991  28.030  1.00  0.00     0.131 C 
HETATM   14  O3  UNL     1      32.334  33.169  29.226  1.00  0.00    -0.298 OA
HETATM   15  C20 UNL     1      31.954  31.699  27.387  1.00  0.00     0.079 C 
HETATM   16  C21 UNL     1      32.027  31.950  25.882  1.00  0.00     0.017 C 
HETATM   17  C22 UNL     1      31.849  33.418  25.692  1.00  0.00    -0.029 C 
HETATM   18  C23 UNL     1      30.352  33.686  25.480  1.00  0.00     0.016 C 
HETATM   19  C24 UNL     1      35.355  35.912  22.164  1.00  0.00     0.011 C 
ENDROOT
BRANCH   1  20
HETATM   20  C5  UNL     1      35.248  38.372  21.658  1.00  0.00     0.078 C 
HETATM   21  C6  UNL     1      33.843  38.679  22.024  1.00  0.00     0.020 C 
BRANCH  20  22
HETATM   22  C4  UNL     1      35.309  38.106  20.204  1.00  0.00     0.222 C 
HETATM   23  N1  UNL     1      36.286  37.266  19.622  1.00  0.00    -0.342 N 
ATOM     24  H1  UNL     1      36.986  36.813  20.209  1.00  0.00     0.163 HD
HETATM   25  O2  UNL     1      34.443  38.665  19.482  1.00  0.00    -0.273 OA
BRANCH  23  26
HETATM   26  C3  UNL     1      36.289  37.045  18.160  1.00  0.00     0.233 C 
BRANCH  26  27
HETATM   27  C2  UNL     1      37.674  36.917  17.716  1.00  0.00     0.153 C 
HETATM   28  C1  UNL     1      38.072  36.537  16.338  1.00  0.00     0.093 C 
HETATM   29  O1  UNL     1      38.564  37.147  18.541  1.00  0.00    -0.296 OA
ENDBRANCH  26  27
BRANCH  26  30
HETATM   30  C25 UNL     1      35.384  35.920  17.926  1.00  0.00     0.262 C 
HETATM   31  O4  UNL     1      35.612  34.882  18.578  1.00  0.00    -0.285 OA
BRANCH  30  32
HETATM   32  C26 UNL     1      34.228  35.827  17.026  1.00  0.00     0.453 C 
HETATM   33  F1  UNL     1      33.270  36.765  17.314  1.00  0.00    -0.163 F 
HETATM   34  F2  UNL     1      33.622  34.577  17.095  1.00  0.00    -0.163 F 
HETATM   35  F3  UNL     1      34.595  36.089  15.693  1.00  0.00    -0.163 F 
ENDBRANCH  30  32
ENDBRANCH  26  30
ENDBRANCH  23  26
ENDBRANCH  20  22
ENDBRANCH   1  20
TORSDOF 6
ENDMDL
