MODEL 1
REMARK VINA RESULT: -9.976345223      0.000      0.000
REMARK  5 active torsions:
REMARK  status: ('A' for Active; 'I' for Inactive)
REMARK    1  A    between atoms: C2_2  and  C3_3 
REMARK    2  A    between atoms: C2_2  and  N2_19 
REMARK       I    between atoms: C3_3  and  N1_5 
REMARK    3  A    between atoms: N1_5  and  C4_7 
REMARK    4  A    between atoms: C16_21  and  C17_22 
REMARK       I    between atoms: N3_26  and  C21_27 
REMARK    5  A    between atoms: C21_27  and  C22_29 
ROOT
HETATM    1  C1  UNL     1      32.048  33.527  23.115  1.00  0.00     0.049 C 
HETATM    2  C2  UNL     1      33.182  34.051  22.703  1.00  0.00     0.093 C 
ENDROOT
BRANCH   2   3
HETATM    3  C3  UNL     1      33.667  33.927  21.347  1.00  0.00     0.267 C 
HETATM    4  O1  UNL     1      33.445  32.842  20.715  1.00  0.00    -0.266 OA
HETATM    5  N1  UNL     1      34.378  34.908  20.629  1.00  0.00    -0.351 N 
ATOM      6  H1  UNL     1      34.581  35.796  21.089  1.00  0.00     0.163 HD
BRANCH   5   7
HETATM    7  C4  UNL     1      34.844  34.711  19.243  1.00  0.00     0.085 C 
HETATM    8  C5  UNL     1      33.859  35.115  18.241  1.00  0.00     0.029 C 
HETATM    9  C6  UNL     1      34.134  36.209  17.289  1.00  0.00    -0.009 C 
HETATM   10  C7  UNL     1      34.644  35.959  15.929  1.00  0.00     0.036 C 
HETATM   11  C13 UNL     1      35.283  36.926  17.940  1.00  0.00     0.016 C 
HETATM   12  C8  UNL     1      35.987  36.252  15.519  1.00  0.00     0.121 C 
HETATM   13  C9  UNL     1      36.948  37.208  16.086  1.00  0.00     0.033 C 
HETATM   14  O2  UNL     1      36.738  35.040  15.639  1.00  0.00    -0.385 OA
HETATM   15  C10 UNL     1      37.515  36.785  17.476  1.00  0.00     0.014 C 
HETATM   16  C11 UNL     1      36.357  35.927  17.891  1.00  0.00    -0.017 C 
HETATM   17  C12 UNL     1      36.464  34.776  17.006  1.00  0.00     0.177 C 
HETATM   18  C14 UNL     1      36.260  35.299  19.225  1.00  0.00     0.036 C 
ENDBRANCH   5   7
ENDBRANCH   2   3
BRANCH   2  19
HETATM   19  N2  UNL     1      33.966  34.783  23.639  1.00  0.00    -0.348 N 
HETATM   20  C15 UNL     1      33.894  36.194  23.863  1.00  0.00     0.097 C 
HETATM   21  C16 UNL     1      35.003  36.602  24.484  1.00  0.00    -0.040 C 
HETATM   22  C23 UNL     1      35.887  35.458  24.668  1.00  0.00     0.062 C 
HETATM   23  C24 UNL     1      34.978  34.255  24.539  1.00  0.00     0.089 C 
HETATM   24  C25 UNL     1      34.394  33.987  25.917  1.00  0.00     0.033 C 
BRANCH  21  25
HETATM   25  C17 UNL     1      35.184  38.038  24.838  1.00  0.00     0.118 C 
HETATM   26  C18 UNL     1      35.387  38.075  26.333  1.00  0.00     0.031 C 
HETATM   27  C19 UNL     1      34.138  38.582  26.948  1.00  0.00     0.022 C 
HETATM   28  C20 UNL     1      33.213  38.870  25.822  1.00  0.00     0.127 C 
HETATM   29  N3  UNL     1      34.038  38.850  24.600  1.00  0.00    -0.336 N 
HETATM   30  C21 UNL     1      33.671  39.573  23.439  1.00  0.00     0.328 C 
HETATM   31  O3  UNL     1      32.566  40.235  23.509  1.00  0.00    -0.263 OA
BRANCH  30  32
HETATM   32  C22 UNL     1      34.431  39.628  22.189  1.00  0.00     0.472 C 
HETATM   33  F1  UNL     1      33.781  40.389  21.264  1.00  0.00    -0.162 F 
HETATM   34  F2  UNL     1      34.622  38.357  21.624  1.00  0.00    -0.162 F 
HETATM   35  F3  UNL     1      35.652  40.233  22.422  1.00  0.00    -0.162 F 
ENDBRANCH  30  32
ENDBRANCH  21  25
ENDBRANCH   2  19
TORSDOF 5
ENDMDL
MODEL 2
REMARK VINA RESULT: -9.836713269      1.060      1.121
REMARK  5 active torsions:
REMARK  status: ('A' for Active; 'I' for Inactive)
REMARK    1  A    between atoms: C2_2  and  C3_3 
REMARK    2  A    between atoms: C2_2  and  N2_19 
REMARK       I    between atoms: C3_3  and  N1_5 
REMARK    3  A    between atoms: N1_5  and  C4_7 
REMARK    4  A    between atoms: C16_21  and  C17_22 
REMARK       I    between atoms: N3_26  and  C21_27 
REMARK    5  A    between atoms: C21_27  and  C22_29 
ROOT
HETATM    1  C1  UNL     1      32.147  32.238  22.697  1.00  0.00     0.049 C 
HETATM    2  C2  UNL     1      33.220  32.938  22.402  1.00  0.00     0.093 C 
ENDROOT
BRANCH   2   3
HETATM    3  C3  UNL     1      33.756  33.039  21.063  1.00  0.00     0.267 C 
HETATM    4  O1  UNL     1      34.001  31.967  20.420  1.00  0.00    -0.266 OA
HETATM    5  N1  UNL     1      34.045  34.234  20.376  1.00  0.00    -0.351 N 
ATOM      6  H1  UNL     1      33.866  35.122  20.847  1.00  0.00     0.163 HD
BRANCH   5   7
HETATM    7  C4  UNL     1      34.594  34.263  19.007  1.00  0.00     0.085 C 
HETATM    8  C5  UNL     1      33.666  34.822  18.026  1.00  0.00     0.029 C 
HETATM    9  C6  UNL     1      33.987  36.055  17.279  1.00  0.00    -0.009 C 
HETATM   10  C7  UNL     1      34.579  36.026  15.929  1.00  0.00     0.036 C 
HETATM   11  C13 UNL     1      35.088  36.658  18.105  1.00  0.00     0.016 C 
HETATM   12  C8  UNL     1      35.941  36.381  15.653  1.00  0.00     0.121 C 
HETATM   13  C9  UNL     1      36.858  37.233  16.423  1.00  0.00     0.033 C 
HETATM   14  O2  UNL     1      36.695  35.165  15.623  1.00  0.00    -0.385 OA
HETATM   15  C10 UNL     1      37.345  36.593  17.758  1.00  0.00     0.014 C 
HETATM   16  C11 UNL     1      36.173  35.680  17.960  1.00  0.00    -0.017 C 
HETATM   17  C12 UNL     1      36.343  34.685  16.910  1.00  0.00     0.177 C 
HETATM   18  C14 UNL     1      36.003  34.845  19.169  1.00  0.00     0.036 C 
ENDBRANCH   5   7
ENDBRANCH   2   3
BRANCH   2  19
HETATM   19  N2  UNL     1      33.879  33.636  23.452  1.00  0.00    -0.348 N 
HETATM   20  C15 UNL     1      33.731  35.027  23.751  1.00  0.00     0.097 C 
HETATM   21  C16 UNL     1      34.757  35.433  24.501  1.00  0.00    -0.040 C 
HETATM   22  C23 UNL     1      35.664  34.310  24.704  1.00  0.00     0.062 C 
HETATM   23  C24 UNL     1      34.820  33.087  24.415  1.00  0.00     0.089 C 
HETATM   24  C25 UNL     1      34.116  32.715  25.711  1.00  0.00     0.033 C 
BRANCH  21  25
HETATM   25  C17 UNL     1      34.846  36.849  24.955  1.00  0.00     0.118 C 
HETATM   26  C18 UNL     1      34.326  36.866  26.372  1.00  0.00     0.031 C 
HETATM   27  C19 UNL     1      32.971  37.465  26.350  1.00  0.00     0.022 C 
HETATM   28  C20 UNL     1      32.704  37.828  24.935  1.00  0.00     0.127 C 
HETATM   29  N3  UNL     1      34.004  37.748  24.241  1.00  0.00    -0.336 N 
HETATM   30  C21 UNL     1      34.274  38.502  23.073  1.00  0.00     0.328 C 
HETATM   31  O3  UNL     1      33.311  39.247  22.644  1.00  0.00    -0.263 OA
BRANCH  30  32
HETATM   32  C22 UNL     1      35.532  38.502  22.326  1.00  0.00     0.472 C 
HETATM   33  F1  UNL     1      35.501  39.430  21.328  1.00  0.00    -0.162 F 
HETATM   34  F2  UNL     1      35.801  37.259  21.732  1.00  0.00    -0.162 F 
HETATM   35  F3  UNL     1      36.566  38.857  23.173  1.00  0.00    -0.162 F 
ENDBRANCH  30  32
ENDBRANCH  21  25
ENDBRANCH   2  19
TORSDOF 5
ENDMDL
MODEL 3
REMARK VINA RESULT: -9.735705950      1.629      2.135
REMARK  5 active torsions:
REMARK  status: ('A' for Active; 'I' for Inactive)
REMARK    1  A    between atoms: C2_2  and  C3_3 
REMARK    2  A    between atoms: C2_2  and  N2_19 
REMARK       I    between atoms: C3_3  and  N1_5 
REMARK    3  A    between atoms: N1_5  and  C4_7 
REMARK    4  A    between atoms: C16_21  and  C17_22 
REMARK       I    between atoms: N3_26  and  C21_27 
REMARK    5  A    between atoms: C21_27  and  C22_29 
ROOT
HETATM    1  C1  UNL     1      32.206  32.167  22.607  1.00  0.00     0.049 C 
HETATM    2  C2  UNL     1      33.139  33.031  22.273  1.00  0.00     0.093 C 
ENDROOT
BRANCH   2   3
HETATM    3  C3  UNL     1      33.710  33.109  20.947  1.00  0.00     0.267 C 
HETATM    4  O1  UNL     1      34.005  32.026  20.343  1.00  0.00    -0.266 OA
HETATM    5  N1  UNL     1      33.981  34.291  20.231  1.00  0.00    -0.351 N 
ATOM      6  H1  UNL     1      33.762  35.186  20.669  1.00  0.00     0.163 HD
BRANCH   5   7
HETATM    7  C4  UNL     1      34.567  34.295  18.877  1.00  0.00     0.085 C 
HETATM    8  C5  UNL     1      33.666  34.837  17.861  1.00  0.00     0.029 C 
HETATM    9  C6  UNL     1      34.007  36.056  17.102  1.00  0.00    -0.009 C 
HETATM   10  C7  UNL     1      34.636  36.004  15.769  1.00  0.00     0.036 C 
HETATM   11  C13 UNL     1      35.086  36.675  17.946  1.00  0.00     0.016 C 
HETATM   12  C8  UNL     1      36.004  36.354  15.524  1.00  0.00     0.121 C 
HETATM   13  C9  UNL     1      36.901  37.221  16.303  1.00  0.00     0.033 C 
HETATM   14  O2  UNL     1      36.759  35.138  15.535  1.00  0.00    -0.385 OA
HETATM   15  C10 UNL     1      37.351  36.604  17.662  1.00  0.00     0.014 C 
HETATM   16  C11 UNL     1      36.174  35.694  17.848  1.00  0.00    -0.017 C 
HETATM   17  C12 UNL     1      36.372  34.681  16.821  1.00  0.00     0.177 C 
HETATM   18  C14 UNL     1      35.971  34.881  19.066  1.00  0.00     0.036 C 
ENDBRANCH   5   7
ENDBRANCH   2   3
BRANCH   2  19
HETATM   19  N2  UNL     1      33.603  33.939  23.265  1.00  0.00    -0.348 N 
HETATM   20  C15 UNL     1      32.826  34.971  23.880  1.00  0.00     0.097 C 
HETATM   21  C16 UNL     1      33.641  35.867  24.441  1.00  0.00    -0.040 C 
HETATM   22  C23 UNL     1      35.021  35.473  24.184  1.00  0.00     0.062 C 
HETATM   23  C24 UNL     1      34.935  34.001  23.845  1.00  0.00     0.089 C 
HETATM   24  C25 UNL     1      34.992  33.236  25.158  1.00  0.00     0.033 C 
BRANCH  21  25
HETATM   25  C17 UNL     1      33.084  37.051  25.153  1.00  0.00     0.118 C 
HETATM   26  C18 UNL     1      31.584  36.897  25.109  1.00  0.00     0.031 C 
HETATM   27  C19 UNL     1      31.058  37.857  24.111  1.00  0.00     0.022 C 
HETATM   28  C20 UNL     1      32.236  38.595  23.590  1.00  0.00     0.127 C 
HETATM   29  N3  UNL     1      33.347  38.297  24.514  1.00  0.00    -0.336 N 
HETATM   30  C21 UNL     1      34.439  39.183  24.681  1.00  0.00     0.328 C 
HETATM   31  O3  UNL     1      34.412  40.256  23.964  1.00  0.00    -0.263 OA
BRANCH  30  32
HETATM   32  C22 UNL     1      35.574  38.983  25.582  1.00  0.00     0.472 C 
HETATM   33  F1  UNL     1      35.344  37.933  26.420  1.00  0.00    -0.162 F 
HETATM   34  F2  UNL     1      35.827  40.108  26.382  1.00  0.00    -0.162 F 
HETATM   35  F3  UNL     1      36.697  38.666  24.839  1.00  0.00    -0.162 F 
ENDBRANCH  30  32
ENDBRANCH  21  25
ENDBRANCH   2  19
TORSDOF 5
ENDMDL
MODEL 4
REMARK VINA RESULT: -9.587489911      2.321      4.759
REMARK  5 active torsions:
REMARK  status: ('A' for Active; 'I' for Inactive)
REMARK    1  A    between atoms: C2_2  and  C3_3 
REMARK    2  A    between atoms: C2_2  and  N2_19 
REMARK       I    between atoms: C3_3  and  N1_5 
REMARK    3  A    between atoms: N1_5  and  C4_7 
REMARK    4  A    between atoms: C16_21  and  C17_22 
REMARK       I    between atoms: N3_26  and  C21_27 
REMARK    5  A    between atoms: C21_27  and  C22_29 
ROOT
HETATM    1  C1  UNL     1      34.533  39.402  24.315  1.00  0.00     0.049 C 
HETATM    2  C2  UNL     1      34.094  38.551  23.413  1.00  0.00     0.093 C 
ENDROOT
BRANCH   2   3
HETATM    3  C3  UNL     1      34.510  38.577  22.029  1.00  0.00     0.267 C 
HETATM    4  O1  UNL     1      34.179  39.575  21.309  1.00  0.00    -0.266 OA
HETATM    5  N1  UNL     1      35.266  37.586  21.374  1.00  0.00    -0.351 N 
ATOM      6  H1  UNL     1      35.559  36.766  21.906  1.00  0.00     0.163 HD
BRANCH   5   7
HETATM    7  C4  UNL     1      35.656  37.678  19.955  1.00  0.00     0.085 C 
HETATM    8  C5  UNL     1      37.046  37.298  19.713  1.00  0.00     0.029 C 
HETATM    9  C6  UNL     1      37.391  36.140  18.863  1.00  0.00    -0.009 C 
HETATM   10  C7  UNL     1      37.728  36.284  17.435  1.00  0.00     0.036 C 
HETATM   11  C13 UNL     1      36.098  35.374  18.817  1.00  0.00     0.016 C 
HETATM   12  C8  UNL     1      36.860  35.874  16.370  1.00  0.00     0.121 C 
HETATM   13  C9  UNL     1      35.777  34.880  16.379  1.00  0.00     0.033 C 
HETATM   14  O2  UNL     1      36.133  37.032  15.950  1.00  0.00    -0.385 OA
HETATM   15  C10 UNL     1      34.513  35.329  17.173  1.00  0.00     0.014 C 
HETATM   16  C11 UNL     1      35.208  36.289  18.093  1.00  0.00    -0.017 C 
HETATM   17  C12 UNL     1      35.581  37.384  17.208  1.00  0.00     0.177 C 
HETATM   18  C14 UNL     1      34.516  36.989  19.196  1.00  0.00     0.036 C 
ENDBRANCH   5   7
ENDBRANCH   2   3
BRANCH   2  19
HETATM   19  N2  UNL     1      33.168  37.551  23.825  1.00  0.00    -0.348 N 
HETATM   20  C15 UNL     1      33.412  36.142  23.835  1.00  0.00     0.097 C 
HETATM   21  C16 UNL     1      32.250  35.489  23.881  1.00  0.00    -0.040 C 
HETATM   22  C23 UNL     1      31.164  36.462  23.867  1.00  0.00     0.062 C 
HETATM   23  C24 UNL     1      31.812  37.756  24.308  1.00  0.00     0.089 C 
HETATM   24  C25 UNL     1      31.774  37.780  25.828  1.00  0.00     0.033 C 
BRANCH  21  25
HETATM   25  C17 UNL     1      32.221  34.000  23.902  1.00  0.00     0.118 C 
HETATM   26  C18 UNL     1      31.452  33.616  25.143  1.00  0.00     0.031 C 
HETATM   27  C19 UNL     1      32.427  33.129  26.147  1.00  0.00     0.022 C 
HETATM   28  C20 UNL     1      33.758  33.196  25.495  1.00  0.00     0.127 C 
HETATM   29  N3  UNL     1      33.499  33.391  24.055  1.00  0.00    -0.336 N 
HETATM   30  C21 UNL     1      34.427  32.982  23.067  1.00  0.00     0.328 C 
HETATM   31  O3  UNL     1      35.518  32.447  23.501  1.00  0.00    -0.263 OA
BRANCH  30  32
HETATM   32  C22 UNL     1      34.252  33.117  21.620  1.00  0.00     0.472 C 
HETATM   33  F1  UNL     1      34.133  34.429  21.270  1.00  0.00    -0.162 F 
HETATM   34  F2  UNL     1      33.105  32.454  21.157  1.00  0.00    -0.162 F 
HETATM   35  F3  UNL     1      35.375  32.630  20.977  1.00  0.00    -0.162 F 
ENDBRANCH  30  32
ENDBRANCH  21  25
ENDBRANCH   2  19
TORSDOF 5
ENDMDL
MODEL 5
REMARK VINA RESULT: -9.505936416      2.151      2.700
REMARK  5 active torsions:
REMARK  status: ('A' for Active; 'I' for Inactive)
REMARK    1  A    between atoms: C2_2  and  C3_3 
REMARK    2  A    between atoms: C2_2  and  N2_19 
REMARK       I    between atoms: C3_3  and  N1_5 
REMARK    3  A    between atoms: N1_5  and  C4_7 
REMARK    4  A    between atoms: C16_21  and  C17_22 
REMARK       I    between atoms: N3_26  and  C21_27 
REMARK    5  A    between atoms: C21_27  and  C22_29 
ROOT
HETATM    1  C1  UNL     1      32.410  32.564  23.092  1.00  0.00     0.049 C 
HETATM    2  C2  UNL     1      33.258  33.446  22.611  1.00  0.00     0.093 C 
ENDROOT
BRANCH   2   3
HETATM    3  C3  UNL     1      33.723  33.436  21.242  1.00  0.00     0.267 C 
HETATM    4  O1  UNL     1      33.643  32.352  20.578  1.00  0.00    -0.266 OA
HETATM    5  N1  UNL     1      34.270  34.531  20.546  1.00  0.00    -0.351 N 
ATOM      6  H1  UNL     1      34.354  35.424  21.033  1.00  0.00     0.163 HD
BRANCH   5   7
HETATM    7  C4  UNL     1      34.726  34.447  19.146  1.00  0.00     0.085 C 
HETATM    8  C5  UNL     1      33.739  34.940  18.187  1.00  0.00     0.029 C 
HETATM    9  C6  UNL     1      34.016  36.108  17.328  1.00  0.00    -0.009 C 
HETATM   10  C7  UNL     1      34.517  35.969  15.948  1.00  0.00     0.036 C 
HETATM   11  C13 UNL     1      35.174  36.760  18.029  1.00  0.00     0.016 C 
HETATM   12  C8  UNL     1      35.859  36.285  15.555  1.00  0.00     0.121 C 
HETATM   13  C9  UNL     1      36.831  37.184  16.194  1.00  0.00     0.033 C 
HETATM   14  O2  UNL     1      36.601  35.062  15.570  1.00  0.00    -0.385 OA
HETATM   15  C10 UNL     1      37.402  36.643  17.540  1.00  0.00     0.014 C 
HETATM   16  C11 UNL     1      36.240  35.761  17.889  1.00  0.00    -0.017 C 
HETATM   17  C12 UNL     1      36.334  34.687  16.911  1.00  0.00     0.177 C 
HETATM   18  C14 UNL     1      36.146  35.025  19.168  1.00  0.00     0.036 C 
ENDBRANCH   5   7
ENDBRANCH   2   3
BRANCH   2  19
HETATM   19  N2  UNL     1      33.734  34.466  23.482  1.00  0.00    -0.348 N 
HETATM   20  C15 UNL     1      33.044  35.678  23.803  1.00  0.00     0.097 C 
HETATM   21  C16 UNL     1      33.909  36.564  24.298  1.00  0.00    -0.040 C 
HETATM   22  C23 UNL     1      35.242  35.974  24.292  1.00  0.00     0.062 C 
HETATM   23  C24 UNL     1      34.994  34.484  24.207  1.00  0.00     0.089 C 
HETATM   24  C25 UNL     1      34.810  33.979  25.629  1.00  0.00     0.033 C 
BRANCH  21  25
HETATM   25  C17 UNL     1      33.447  37.917  24.717  1.00  0.00     0.118 C 
HETATM   26  C18 UNL     1      32.863  38.559  23.482  1.00  0.00     0.031 C 
HETATM   27  C19 UNL     1      33.830  39.570  22.996  1.00  0.00     0.022 C 
HETATM   28  C20 UNL     1      34.964  39.549  23.954  1.00  0.00     0.127 C 
HETATM   29  N3  UNL     1      34.492  38.792  25.130  1.00  0.00    -0.336 N 
HETATM   30  C21 UNL     1      35.042  38.996  26.419  1.00  0.00     0.328 C 
HETATM   31  O3  UNL     1      35.990  39.868  26.499  1.00  0.00    -0.263 OA
BRANCH  30  32
HETATM   32  C22 UNL     1      34.630  38.308  27.643  1.00  0.00     0.472 C 
HETATM   33  F1  UNL     1      35.467  38.616  28.674  1.00  0.00    -0.162 F 
HETATM   34  F2  UNL     1      34.638  36.912  27.501  1.00  0.00    -0.162 F 
HETATM   35  F3  UNL     1      33.368  38.741  28.008  1.00  0.00    -0.162 F 
ENDBRANCH  30  32
ENDBRANCH  21  25
ENDBRANCH   2  19
TORSDOF 5
ENDMDL
