MODEL 1
REMARK VINA RESULT: -4.906022586      0.000      0.000
REMARK  3 active torsions:
REMARK  status: ('A' for Active; 'I' for Inactive)
REMARK    1  A    between atoms: C8_10  and  S1_11 
REMARK    2  A    between atoms: S1_11  and  C9_12 
REMARK    3  A    between atoms: C9_12  and  C10_13 
ROOT
HETATM    1  C1  UNL     1     -38.228 -15.832 -14.106  1.00  0.00     0.037 C 
HETATM    2  C2  UNL     1     -37.489 -15.566 -12.800  1.00  0.00     0.069 C 
HETATM    3  C3  UNL     1     -38.422 -14.880 -11.875  1.00  0.00     0.037 C 
HETATM    4  N1  UNL     1     -36.434 -14.623 -13.137  1.00  0.00    -0.089 NA
HETATM    5  O1  UNL     1     -35.290 -15.305 -13.229  1.00  0.00    -0.279 OA
HETATM    6  C4  UNL     1     -35.338 -16.293 -12.266  1.00  0.00     0.168 C 
HETATM    7  C5  UNL     1     -35.188 -15.697 -10.882  1.00  0.00     0.036 C 
HETATM    8  C6  UNL     1     -35.930 -16.720 -10.044  1.00  0.00     0.004 C 
HETATM    9  C7  UNL     1     -37.045 -17.228 -10.942  1.00  0.00     0.025 C 
HETATM   10  C8  UNL     1     -36.778 -16.761 -12.319  1.00  0.00     0.059 C 
ENDROOT
BRANCH  10  11
HETATM   11  S1  UNL     1     -37.029 -18.122 -13.469  1.00  0.00    -0.153 SA
BRANCH  11  12
HETATM   12  C9  UNL     1     -38.073 -19.434 -12.831  1.00  0.00     0.089 C 
BRANCH  12  13
HETATM   13  C10 UNL     1     -39.464 -19.206 -13.414  1.00  0.00     0.125 C 
HETATM   14 CL1  UNL     1     -40.615 -20.181 -12.481  1.00  0.00    -0.130 Cl
ENDBRANCH  12  13
ENDBRANCH  11  12
ENDBRANCH  10  11
TORSDOF 3
ENDMDL
MODEL 2
REMARK VINA RESULT: -4.768275004      3.354      4.554
REMARK  3 active torsions:
REMARK  status: ('A' for Active; 'I' for Inactive)
REMARK    1  A    between atoms: C8_10  and  S1_11 
REMARK    2  A    between atoms: S1_11  and  C9_12 
REMARK    3  A    between atoms: C9_12  and  C10_13 
ROOT
HETATM    1  C1  UNL     1     -36.267 -13.497 -12.694  1.00  0.00     0.037 C 
HETATM    2  C2  UNL     1     -36.782 -14.871 -13.104  1.00  0.00     0.069 C 
HETATM    3  C3  UNL     1     -36.689 -14.976 -14.580  1.00  0.00     0.037 C 
HETATM    4  N1  UNL     1     -38.194 -14.877 -12.753  1.00  0.00    -0.089 NA
HETATM    5  O1  UNL     1     -38.329 -15.560 -11.615  1.00  0.00    -0.279 OA
HETATM    6  C4  UNL     1     -37.410 -16.590 -11.658  1.00  0.00     0.168 C 
HETATM    7  C5  UNL     1     -37.836 -17.643 -12.660  1.00  0.00     0.036 C 
HETATM    8  C6  UNL     1     -36.493 -18.228 -13.053  1.00  0.00     0.004 C 
HETATM    9  C7  UNL     1     -35.521 -17.063 -12.980  1.00  0.00     0.025 C 
HETATM   10  C8  UNL     1     -36.193 -15.943 -12.287  1.00  0.00     0.059 C 
ENDROOT
BRANCH  10  11
HETATM   11  S1  UNL     1     -35.072 -15.236 -11.071  1.00  0.00    -0.153 SA
BRANCH  11  12
HETATM   12  C9  UNL     1     -34.920 -16.203  -9.568  1.00  0.00     0.089 C 
BRANCH  12  13
HETATM   13  C10 UNL     1     -33.808 -15.560  -8.746  1.00  0.00     0.125 C 
HETATM   14 CL1  UNL     1     -33.716 -13.847  -9.196  1.00  0.00    -0.130 Cl
ENDBRANCH  12  13
ENDBRANCH  11  12
ENDBRANCH  10  11
TORSDOF 3
ENDMDL
MODEL 3
REMARK VINA RESULT: -4.607837812      2.888      4.459
REMARK  3 active torsions:
REMARK  status: ('A' for Active; 'I' for Inactive)
REMARK    1  A    between atoms: C8_10  and  S1_11 
REMARK    2  A    between atoms: S1_11  and  C9_12 
REMARK    3  A    between atoms: C9_12  and  C10_13 
ROOT
HETATM    1  C1  UNL     1     -36.396 -18.977 -11.072  1.00  0.00     0.037 C 
HETATM    2  C2  UNL     1     -36.939 -18.055 -12.157  1.00  0.00     0.069 C 
HETATM    3  C3  UNL     1     -38.291 -18.533 -12.533  1.00  0.00     0.037 C 
HETATM    4  N1  UNL     1     -36.069 -18.253 -13.306  1.00  0.00    -0.089 NA
HETATM    5  O1  UNL     1     -35.219 -17.226 -13.358  1.00  0.00    -0.279 OA
HETATM    6  C4  UNL     1     -35.919 -16.110 -12.943  1.00  0.00     0.168 C 
HETATM    7  C5  UNL     1     -36.922 -15.688 -13.997  1.00  0.00     0.036 C 
HETATM    8  C6  UNL     1     -37.969 -15.001 -13.141  1.00  0.00     0.004 C 
HETATM    9  C7  UNL     1     -37.962 -15.762 -11.827  1.00  0.00     0.025 C 
HETATM   10  C8  UNL     1     -36.770 -16.637 -11.805  1.00  0.00     0.059 C 
ENDROOT
BRANCH  10  11
HETATM   11  S1  UNL     1     -35.959 -16.498 -10.205  1.00  0.00    -0.153 SA
BRANCH  11  12
HETATM   12  C9  UNL     1     -34.659 -15.263 -10.150  1.00  0.00     0.089 C 
BRANCH  12  13
HETATM   13  C10 UNL     1     -33.851 -15.536  -8.887  1.00  0.00     0.125 C 
HETATM   14 CL1  UNL     1     -34.791 -16.640  -7.864  1.00  0.00    -0.130 Cl
ENDBRANCH  12  13
ENDBRANCH  11  12
ENDBRANCH  10  11
TORSDOF 3
ENDMDL
MODEL 4
REMARK VINA RESULT: -4.575383113      3.023      3.926
REMARK  3 active torsions:
REMARK  status: ('A' for Active; 'I' for Inactive)
REMARK    1  A    between atoms: C8_10  and  S1_11 
REMARK    2  A    between atoms: S1_11  and  C9_12 
REMARK    3  A    between atoms: C9_12  and  C10_13 
ROOT
HETATM    1  C1  UNL     1     -38.040 -18.007 -13.624  1.00  0.00     0.037 C 
HETATM    2  C2  UNL     1     -36.856 -17.696 -12.717  1.00  0.00     0.069 C 
HETATM    3  C3  UNL     1     -35.634 -18.247 -13.350  1.00  0.00     0.037 C 
HETATM    4  N1  UNL     1     -37.094 -18.449 -11.496  1.00  0.00    -0.089 NA
HETATM    5  O1  UNL     1     -37.562 -17.601 -10.577  1.00  0.00    -0.279 OA
HETATM    6  C4  UNL     1     -36.913 -16.399 -10.779  1.00  0.00     0.168 C 
HETATM    7  C5  UNL     1     -35.465 -16.496 -10.347  1.00  0.00     0.036 C 
HETATM    8  C6  UNL     1     -34.827 -15.448 -11.240  1.00  0.00     0.004 C 
HETATM    9  C7  UNL     1     -35.628 -15.489 -12.529  1.00  0.00     0.025 C 
HETATM   10  C8  UNL     1     -36.849 -16.289 -12.289  1.00  0.00     0.059 C 
ENDROOT
BRANCH  10  11
HETATM   11  S1  UNL     1     -38.268 -15.432 -12.988  1.00  0.00    -0.153 SA
BRANCH  11  12
HETATM   12  C9  UNL     1     -37.840 -14.148 -14.165  1.00  0.00     0.089 C 
BRANCH  12  13
HETATM   13  C10 UNL     1     -38.036 -14.746 -15.553  1.00  0.00     0.125 C 
HETATM   14 CL1  UNL     1     -36.601 -14.362 -16.523  1.00  0.00    -0.130 Cl
ENDBRANCH  12  13
ENDBRANCH  11  12
ENDBRANCH  10  11
TORSDOF 3
ENDMDL
MODEL 5
REMARK VINA RESULT: -4.570268122      3.005      4.287
REMARK  3 active torsions:
REMARK  status: ('A' for Active; 'I' for Inactive)
REMARK    1  A    between atoms: C8_10  and  S1_11 
REMARK    2  A    between atoms: S1_11  and  C9_12 
REMARK    3  A    between atoms: C9_12  and  C10_13 
ROOT
HETATM    1  C1  UNL     1     -36.816 -12.887 -13.430  1.00  0.00     0.037 C 
HETATM    2  C2  UNL     1     -37.052 -14.389 -13.540  1.00  0.00     0.069 C 
HETATM    3  C3  UNL     1     -36.816 -14.790 -14.947  1.00  0.00     0.037 C 
HETATM    4  N1  UNL     1     -38.467 -14.580 -13.262  1.00  0.00    -0.089 NA
HETATM    5  O1  UNL     1     -38.581 -15.015 -12.005  1.00  0.00    -0.279 OA
HETATM    6  C4  UNL     1     -37.500 -15.841 -11.770  1.00  0.00     0.168 C 
HETATM    7  C5  UNL     1     -37.652 -17.145 -12.524  1.00  0.00     0.036 C 
HETATM    8  C6  UNL     1     -36.200 -17.542 -12.712  1.00  0.00     0.004 C 
HETATM    9  C7  UNL     1     -35.451 -16.229 -12.861  1.00  0.00     0.025 C 
HETATM   10  C8  UNL     1     -36.362 -15.131 -12.474  1.00  0.00     0.059 C 
ENDROOT
BRANCH  10  11
HETATM   11  S1  UNL     1     -35.486 -13.982 -11.401  1.00  0.00    -0.153 SA
BRANCH  11  12
HETATM   12  C9  UNL     1     -34.025 -14.677 -10.625  1.00  0.00     0.089 C 
BRANCH  12  13
HETATM   13  C10 UNL     1     -34.416 -15.027  -9.194  1.00  0.00     0.125 C 
HETATM   14 CL1  UNL     1     -35.155 -16.639  -9.207  1.00  0.00    -0.130 Cl
ENDBRANCH  12  13
ENDBRANCH  11  12
ENDBRANCH  10  11
TORSDOF 3
ENDMDL
