MODEL 1
REMARK VINA RESULT: -5.084429890      0.000      0.000
REMARK  4 active torsions:
REMARK  status: ('A' for Active; 'I' for Inactive)
REMARK    1  A    between atoms: C2_2  and  C4_4 
REMARK    2  A    between atoms: C4_4  and  C5_5 
REMARK    3  A    between atoms: C6_7  and  N1_8 
REMARK    4  A    between atoms: C8_13  and  C9_14 
ROOT
HETATM    1  C5  UNL     1     -37.037 -17.698 -12.554  1.00  0.00     0.011 A 
HETATM    2  S1  UNL     1     -36.529 -18.371 -11.097  1.00  0.00    -0.057 SA
HETATM    3  C6  UNL     1     -35.679 -17.016 -10.493  1.00  0.00     0.144 A 
HETATM    4  N2  UNL     1     -35.841 -16.077 -11.457  1.00  0.00    -0.333 N 
HETATM    5  C7  UNL     1     -35.317 -14.727 -11.137  1.00  0.00     0.158 C 
HETATM    6  C8  UNL     1     -36.532 -16.414 -12.513  1.00  0.00     0.044 A 
ENDROOT
BRANCH   1   7
HETATM    7  C4  UNL     1     -37.700 -18.368 -13.728  1.00  0.00     0.052 C 
BRANCH   7   8
HETATM    8  C2  UNL     1     -39.184 -18.406 -13.422  1.00  0.00    -0.018 C 
HETATM    9  C1  UNL     1     -39.704 -19.729 -12.974  1.00  0.00     0.010 C 
HETATM   10  C3  UNL     1     -39.898 -18.130 -14.772  1.00  0.00     0.010 C 
ENDBRANCH   7   8
ENDBRANCH   1   7
BRANCH   6  11
HETATM   11  C9  UNL     1     -36.986 -15.495 -13.643  1.00  0.00     0.129 C 
HETATM   12  C10 UNL     1     -36.039 -14.411 -14.039  1.00  0.00     0.033 C 
HETATM   13 CL1  UNL     1     -38.449 -14.595 -12.921  1.00  0.00    -0.119 Cl
ENDBRANCH   6  11
BRANCH   3  14
HETATM   14  N1  UNL     1     -34.981 -16.892  -9.394  1.00  0.00    -0.379 N 
ATOM     15  H12 UNL     1     -34.295 -17.555  -9.032  1.00  0.00     0.158 HD
ATOM     16  H11 UNL     1     -35.012 -16.161  -8.684  1.00  0.00     0.158 HD
ENDBRANCH   3  14
TORSDOF 4
ENDMDL
MODEL 2
REMARK VINA RESULT: -4.853894480      2.143      2.774
REMARK  4 active torsions:
REMARK  status: ('A' for Active; 'I' for Inactive)
REMARK    1  A    between atoms: C2_2  and  C4_4 
REMARK    2  A    between atoms: C4_4  and  C5_5 
REMARK    3  A    between atoms: C6_7  and  N1_8 
REMARK    4  A    between atoms: C8_13  and  C9_14 
ROOT
HETATM    1  C5  UNL     1     -35.541 -15.775 -12.190  1.00  0.00     0.011 A 
HETATM    2  S1  UNL     1     -34.871 -15.313 -10.716  1.00  0.00    -0.057 SA
HETATM    3  C6  UNL     1     -34.992 -13.620 -10.920  1.00  0.00     0.144 A 
HETATM    4  N2  UNL     1     -35.570 -13.481 -12.138  1.00  0.00    -0.333 N 
HETATM    5  C7  UNL     1     -35.931 -12.097 -12.528  1.00  0.00     0.158 C 
HETATM    6  C8  UNL     1     -35.855 -14.574 -12.796  1.00  0.00     0.044 A 
ENDROOT
BRANCH   1   7
HETATM    7  C4  UNL     1     -35.604 -17.142 -12.816  1.00  0.00     0.052 C 
BRANCH   7   8
HETATM    8  C2  UNL     1     -36.833 -17.822 -12.246  1.00  0.00    -0.018 C 
HETATM    9  C1  UNL     1     -36.556 -18.936 -11.294  1.00  0.00     0.010 C 
HETATM   10  C3  UNL     1     -37.540 -18.493 -13.454  1.00  0.00     0.010 C 
ENDBRANCH   7   8
ENDBRANCH   1   7
BRANCH   6  11
HETATM   11  C9  UNL     1     -36.647 -14.683 -14.094  1.00  0.00     0.129 C 
HETATM   12  C10 UNL     1     -36.335 -13.675 -15.150  1.00  0.00     0.033 C 
HETATM   13 CL1  UNL     1     -38.396 -14.294 -13.581  1.00  0.00    -0.119 Cl
ENDBRANCH   6  11
BRANCH   3  14
HETATM   14  N1  UNL     1     -34.586 -12.655 -10.137  1.00  0.00    -0.379 N 
ATOM     15  H12 UNL     1     -35.032 -12.345  -9.274  1.00  0.00     0.158 HD
ATOM     16  H11 UNL     1     -33.798 -12.016 -10.247  1.00  0.00     0.158 HD
ENDBRANCH   3  14
TORSDOF 4
ENDMDL
MODEL 3
REMARK VINA RESULT: -4.820239376      2.299      4.393
REMARK  4 active torsions:
REMARK  status: ('A' for Active; 'I' for Inactive)
REMARK    1  A    between atoms: C2_2  and  C4_4 
REMARK    2  A    between atoms: C4_4  and  C5_5 
REMARK    3  A    between atoms: C6_7  and  N1_8 
REMARK    4  A    between atoms: C8_13  and  C9_14 
ROOT
HETATM    1  C5  UNL     1     -35.237 -14.908 -11.780  1.00  0.00     0.011 A 
HETATM    2  S1  UNL     1     -34.439 -14.877 -10.298  1.00  0.00    -0.057 SA
HETATM    3  C6  UNL     1     -35.078 -16.327  -9.654  1.00  0.00     0.144 A 
HETATM    4  N2  UNL     1     -35.885 -16.790 -10.639  1.00  0.00    -0.333 N 
HETATM    5  C7  UNL     1     -36.477 -18.130 -10.411  1.00  0.00     0.158 C 
HETATM    6  C8  UNL     1     -35.975 -16.074 -11.728  1.00  0.00     0.044 A 
ENDROOT
BRANCH   1   7
HETATM    7  C4  UNL     1     -35.315 -13.840 -12.837  1.00  0.00     0.052 C 
BRANCH   7   8
HETATM    8  C2  UNL     1     -35.976 -12.639 -12.190  1.00  0.00    -0.018 C 
HETATM    9  C1  UNL     1     -37.461 -12.714 -12.088  1.00  0.00     0.010 C 
HETATM   10  C3  UNL     1     -35.699 -11.444 -13.142  1.00  0.00     0.010 C 
ENDBRANCH   7   8
ENDBRANCH   1   7
BRANCH   6  11
HETATM   11  C9  UNL     1     -36.679 -16.462 -13.024  1.00  0.00     0.129 C 
HETATM   12  C10 UNL     1     -38.151 -16.696 -12.936  1.00  0.00     0.033 C 
HETATM   13 CL1  UNL     1     -35.964 -18.133 -13.435  1.00  0.00    -0.119 Cl
ENDBRANCH   6  11
BRANCH   3  14
HETATM   14  N1  UNL     1     -34.897 -16.866  -8.476  1.00  0.00    -0.379 N 
ATOM     15  H12 UNL     1     -35.625 -17.164  -7.827  1.00  0.00     0.158 HD
ATOM     16  H11 UNL     1     -34.030 -17.050  -7.972  1.00  0.00     0.158 HD
ENDBRANCH   3  14
TORSDOF 4
ENDMDL
MODEL 4
REMARK VINA RESULT: -4.810546625      1.882      2.697
REMARK  4 active torsions:
REMARK  status: ('A' for Active; 'I' for Inactive)
REMARK    1  A    between atoms: C2_2  and  C4_4 
REMARK    2  A    between atoms: C4_4  and  C5_5 
REMARK    3  A    between atoms: C6_7  and  N1_8 
REMARK    4  A    between atoms: C8_13  and  C9_14 
ROOT
HETATM    1  C5  UNL     1     -39.038 -18.073 -13.751  1.00  0.00     0.011 A 
HETATM    2  S1  UNL     1     -38.597 -19.506 -12.987  1.00  0.00    -0.057 SA
HETATM    3  C6  UNL     1     -37.186 -18.936 -12.207  1.00  0.00     0.144 A 
HETATM    4  N2  UNL     1     -37.123 -17.630 -12.566  1.00  0.00    -0.333 N 
HETATM    5  C7  UNL     1     -36.058 -16.832 -11.914  1.00  0.00     0.158 C 
HETATM    6  C8  UNL     1     -38.063 -17.179 -13.354  1.00  0.00     0.044 A 
ENDROOT
BRANCH   1   7
HETATM    7  C4  UNL     1     -40.105 -17.839 -14.787  1.00  0.00     0.052 C 
BRANCH   7   8
HETATM    8  C2  UNL     1     -39.400 -17.786 -16.128  1.00  0.00    -0.018 C 
HETATM    9  C1  UNL     1     -39.818 -16.664 -17.017  1.00  0.00     0.010 C 
HETATM   10  C3  UNL     1     -39.829 -19.075 -16.880  1.00  0.00     0.010 C 
ENDBRANCH   7   8
ENDBRANCH   1   7
BRANCH   6  11
HETATM   11  C9  UNL     1     -38.300 -15.728 -13.760  1.00  0.00     0.129 C 
HETATM   12  C10 UNL     1     -37.173 -15.040 -14.457  1.00  0.00     0.033 C 
HETATM   13 CL1  UNL     1     -38.458 -14.833 -12.134  1.00  0.00    -0.119 Cl
ENDBRANCH   6  11
BRANCH   3  14
HETATM   14  N1  UNL     1     -36.319 -19.585 -11.475  1.00  0.00    -0.379 N 
ATOM     15  H12 UNL     1     -36.484 -20.452 -10.964  1.00  0.00     0.158 HD
ATOM     16  H11 UNL     1     -35.356 -19.343 -11.240  1.00  0.00     0.158 HD
ENDBRANCH   3  14
TORSDOF 4
ENDMDL
MODEL 5
REMARK VINA RESULT: -4.699611943      2.858      4.602
REMARK  4 active torsions:
REMARK  status: ('A' for Active; 'I' for Inactive)
REMARK    1  A    between atoms: C2_2  and  C4_4 
REMARK    2  A    between atoms: C4_4  and  C5_5 
REMARK    3  A    between atoms: C6_7  and  N1_8 
REMARK    4  A    between atoms: C8_13  and  C9_14 
ROOT
HETATM    1  C5  UNL     1     -38.087 -16.892 -12.897  1.00  0.00     0.011 A 
HETATM    2  S1  UNL     1     -38.450 -18.468 -13.361  1.00  0.00    -0.057 SA
HETATM    3  C6  UNL     1     -39.238 -18.107 -14.835  1.00  0.00     0.144 A 
HETATM    4  N2  UNL     1     -39.171 -16.756 -14.914  1.00  0.00    -0.333 N 
HETATM    5  C7  UNL     1     -39.662 -16.158 -16.179  1.00  0.00     0.158 C 
HETATM    6  C8  UNL     1     -38.586 -16.124 -13.931  1.00  0.00     0.044 A 
ENDROOT
BRANCH   1   7
HETATM    7  C4  UNL     1     -37.541 -16.391 -11.587  1.00  0.00     0.052 C 
BRANCH   7   8
HETATM    8  C2  UNL     1     -36.161 -16.999 -11.433  1.00  0.00    -0.018 C 
HETATM    9  C1  UNL     1     -35.553 -16.853 -10.079  1.00  0.00     0.010 C 
HETATM   10  C3  UNL     1     -35.236 -16.187 -12.379  1.00  0.00     0.010 C 
ENDBRANCH   7   8
ENDBRANCH   1   7
BRANCH   6  11
HETATM   11  C9  UNL     1     -38.245 -14.640 -13.869  1.00  0.00     0.129 C 
HETATM   12  C10 UNL     1     -39.324 -13.692 -14.278  1.00  0.00     0.033 C 
HETATM   13 CL1  UNL     1     -36.925 -14.433 -15.168  1.00  0.00    -0.119 Cl
ENDBRANCH   6  11
BRANCH   3  14
HETATM   14  N1  UNL     1     -39.825 -18.910 -15.684  1.00  0.00    -0.379 N 
ATOM     15  H12 UNL     1     -40.180 -18.662 -16.607  1.00  0.00     0.158 HD
ATOM     16  H11 UNL     1     -40.074 -19.893 -15.582  1.00  0.00     0.158 HD
ENDBRANCH   3  14
TORSDOF 4
ENDMDL
