MODEL 1
REMARK VINA RESULT: -9.943083718      0.000      0.000
REMARK  9 active torsions:
REMARK  status: ('A' for Active; 'I' for Inactive)
REMARK    1  A    between atoms: C2_2  and  N1_4 
REMARK    2  A    between atoms: N1_4  and  C4_5 
REMARK    3  A    between atoms: N1_4  and  C14_26 
REMARK    4  A    between atoms: C4_5  and  C5_6 
REMARK    5  A    between atoms: C8_10  and  O1_11 
REMARK    6  A    between atoms: O1_11  and  C9_12 
REMARK    7  A    between atoms: C9_12  and  C10_13 
REMARK    8  A    between atoms: C12_15  and  C13_16 
REMARK    9  A    between atoms: C14_26  and  C15_27 
ROOT
HETATM    1  C5  UNL     1      18.688  -2.017  32.313  1.00  0.00     0.045 A 
HETATM    2  C6  UNL     1      18.255  -1.166  31.317  1.00  0.00     0.051 A 
HETATM    3  C7  UNL     1      17.007  -0.555  31.388  1.00  0.00     0.065 A 
HETATM    4 BR1  UNL     1      16.403   0.621  30.006  1.00  0.00    -0.046 Br
HETATM    5  C8  UNL     1      16.192  -0.799  32.462  1.00  0.00     0.175 A 
HETATM    6  N3  UNL     1      16.658  -1.640  33.415  1.00  0.00    -0.279 N 
ATOM      7  H3  UNL     1      16.073  -1.842  34.227  1.00  0.00     0.189 HD
HETATM    8  N4  UNL     1      17.842  -2.205  33.326  1.00  0.00    -0.301 N 
ATOM      9  H4  UNL     1      18.131  -2.827  34.080  1.00  0.00     0.186 HD
ENDROOT
BRANCH   1  10
HETATM   10  C4  UNL     1      19.984  -2.663  32.208  1.00  0.00     0.180 C 
BRANCH  10  11
HETATM   11  N1  UNL     1      20.021  -4.072  32.251  1.00  0.00    -0.383 N 
BRANCH  11  12
HETATM   12  C2  UNL     1      20.160  -4.766  31.057  1.00  0.00     0.075 C 
HETATM   13  C1  UNL     1      20.392  -3.827  29.897  1.00  0.00     0.032 C 
HETATM   14  C3  UNL     1      21.244  -5.804  31.014  1.00  0.00     0.032 C 
ENDBRANCH  11  12
BRANCH  11  15
HETATM   15  C14 UNL     1      19.903  -4.693  33.490  1.00  0.00     0.063 C 
BRANCH  15  16
HETATM   16  C15 UNL     1      18.816  -5.749  33.584  1.00  0.00     0.024 C 
HETATM   17  C16 UNL     1      19.468  -7.033  34.074  1.00  0.00     0.010 C 
HETATM   18  C17 UNL     1      18.426  -8.123  34.002  1.00  0.00     0.001 C 
HETATM   19  C18 UNL     1      17.331  -7.804  35.004  1.00  0.00     0.000 C 
HETATM   20  C19 UNL     1      16.768  -6.419  34.765  1.00  0.00     0.001 C 
HETATM   21  C20 UNL     1      17.807  -5.351  34.664  1.00  0.00     0.010 C 
ENDBRANCH  15  16
ENDBRANCH  11  15
ENDBRANCH  10  11
ENDBRANCH   1  10
BRANCH   5  22
HETATM   22  O1  UNL     1      14.925  -0.213  32.588  1.00  0.00    -0.328 OA
BRANCH  22  23
HETATM   23  C9  UNL     1      14.613   0.588  33.711  1.00  0.00     0.236 C 
BRANCH  23  24
HETATM   24  C10 UNL     1      15.700   1.524  34.087  1.00  0.00     0.059 A 
HETATM   25  C11 UNL     1      16.606   1.384  35.146  1.00  0.00     0.069 A 
HETATM   26  C12 UNL     1      17.446   2.473  35.146  1.00  0.00     0.142 A 
HETATM   27  O2  UNL     1      17.060   3.232  34.134  1.00  0.00    -0.236 OA
HETATM   28  N2  UNL     1      16.050   2.690  33.515  1.00  0.00    -0.263 N 
ATOM     29  H2  UNL     1      15.586   3.098  32.703  1.00  0.00     0.194 HD
BRANCH  26  30
HETATM   30  C13 UNL     1      18.561   2.755  36.083  1.00  0.00     0.412 C 
HETATM   31  F1  UNL     1      18.103   3.269  37.281  1.00  0.00    -0.207 F 
HETATM   32  F2  UNL     1      19.323   1.636  36.367  1.00  0.00    -0.207 F 
ENDBRANCH  26  30
ENDBRANCH  23  24
ENDBRANCH  22  23
ENDBRANCH   5  22
TORSDOF 9
ENDMDL
MODEL 2
REMARK VINA RESULT: -9.865317505      6.210      9.960
REMARK  9 active torsions:
REMARK  status: ('A' for Active; 'I' for Inactive)
REMARK    1  A    between atoms: C2_2  and  N1_4 
REMARK    2  A    between atoms: N1_4  and  C4_5 
REMARK    3  A    between atoms: N1_4  and  C14_26 
REMARK    4  A    between atoms: C4_5  and  C5_6 
REMARK    5  A    between atoms: C8_10  and  O1_11 
REMARK    6  A    between atoms: O1_11  and  C9_12 
REMARK    7  A    between atoms: C9_12  and  C10_13 
REMARK    8  A    between atoms: C12_15  and  C13_16 
REMARK    9  A    between atoms: C14_26  and  C15_27 
ROOT
HETATM    1  C5  UNL     1      18.911  -4.006  33.990  1.00  0.00     0.045 A 
HETATM    2  C6  UNL     1      18.071  -5.026  34.385  1.00  0.00     0.051 A 
HETATM    3  C7  UNL     1      18.502  -6.349  34.387  1.00  0.00     0.065 A 
HETATM    4 BR1  UNL     1      17.338  -7.766  34.929  1.00  0.00    -0.046 Br
HETATM    5  C8  UNL     1      19.779  -6.648  33.992  1.00  0.00     0.175 A 
HETATM    6  N3  UNL     1      20.569  -5.614  33.613  1.00  0.00    -0.279 N 
ATOM      7  H3  UNL     1      21.525  -5.806  33.312  1.00  0.00     0.189 HD
HETATM    8  N4  UNL     1      20.138  -4.372  33.621  1.00  0.00    -0.301 N 
ATOM      9  H4  UNL     1      20.786  -3.642  33.325  1.00  0.00     0.186 HD
ENDROOT
BRANCH   1  10
HETATM   10  C4  UNL     1      18.434  -2.635  33.973  1.00  0.00     0.180 C 
BRANCH  10  11
HETATM   11  N1  UNL     1      18.897  -1.791  32.942  1.00  0.00    -0.383 N 
BRANCH  11  12
HETATM   12  C2  UNL     1      18.354  -1.939  31.673  1.00  0.00     0.075 C 
HETATM   13  C1  UNL     1      17.802  -0.633  31.153  1.00  0.00     0.032 C 
HETATM   14  C3  UNL     1      19.271  -2.488  30.618  1.00  0.00     0.032 C 
ENDBRANCH  11  12
BRANCH  11  15
HETATM   15  C14 UNL     1      19.886  -0.862  33.250  1.00  0.00     0.063 C 
BRANCH  15  16
HETATM   16  C15 UNL     1      19.690  -0.116  34.557  1.00  0.00     0.024 C 
HETATM   17  C16 UNL     1      20.970   0.658  34.838  1.00  0.00     0.010 C 
HETATM   18  C17 UNL     1      20.839   1.258  36.217  1.00  0.00     0.001 C 
HETATM   19  C18 UNL     1      19.728   2.291  36.185  1.00  0.00     0.000 C 
HETATM   20  C19 UNL     1      18.440   1.682  35.672  1.00  0.00     0.001 C 
HETATM   21  C20 UNL     1      18.591   0.936  34.387  1.00  0.00     0.010 C 
ENDBRANCH  15  16
ENDBRANCH  11  15
ENDBRANCH  10  11
ENDBRANCH   1  10
BRANCH   5  22
HETATM   22  O1  UNL     1      20.269  -7.961  33.973  1.00  0.00    -0.328 OA
BRANCH  22  23
HETATM   23  C9  UNL     1      20.323  -8.689  32.761  1.00  0.00     0.236 C 
BRANCH  23  24
HETATM   24  C10 UNL     1      21.075  -9.962  32.871  1.00  0.00     0.059 A 
HETATM   25  C11 UNL     1      21.430 -10.826  31.828  1.00  0.00     0.069 A 
HETATM   26  C12 UNL     1      22.117 -11.892  32.361  1.00  0.00     0.142 A 
HETATM   27  O2  UNL     1      22.171 -11.676  33.665  1.00  0.00    -0.236 OA
HETATM   28  N2  UNL     1      21.571 -10.561  33.969  1.00  0.00    -0.263 N 
ATOM     29  H2  UNL     1      21.488 -10.191  34.916  1.00  0.00     0.194 HD
BRANCH  26  30
HETATM   30  C13 UNL     1      22.687 -13.053  31.636  1.00  0.00     0.412 C 
HETATM   31  F1  UNL     1      21.847 -13.489  30.629  1.00  0.00    -0.207 F 
HETATM   32  F2  UNL     1      23.920 -12.784  31.070  1.00  0.00    -0.207 F 
ENDBRANCH  26  30
ENDBRANCH  23  24
ENDBRANCH  22  23
ENDBRANCH   5  22
TORSDOF 9
ENDMDL
MODEL 3
REMARK VINA RESULT: -9.826674318      2.834      3.614
REMARK  9 active torsions:
REMARK  status: ('A' for Active; 'I' for Inactive)
REMARK    1  A    between atoms: C2_2  and  N1_4 
REMARK    2  A    between atoms: N1_4  and  C4_5 
REMARK    3  A    between atoms: N1_4  and  C14_26 
REMARK    4  A    between atoms: C4_5  and  C5_6 
REMARK    5  A    between atoms: C8_10  and  O1_11 
REMARK    6  A    between atoms: O1_11  and  C9_12 
REMARK    7  A    between atoms: C9_12  and  C10_13 
REMARK    8  A    between atoms: C12_15  and  C13_16 
REMARK    9  A    between atoms: C14_26  and  C15_27 
ROOT
HETATM    1  C5  UNL     1      20.746  -1.508  33.567  1.00  0.00     0.045 A 
HETATM    2  C6  UNL     1      21.723  -0.726  34.148  1.00  0.00     0.051 A 
HETATM    3  C7  UNL     1      21.391   0.309  35.016  1.00  0.00     0.065 A 
HETATM    4 BR1  UNL     1      22.743   1.397  35.819  1.00  0.00    -0.046 Br
HETATM    5  C8  UNL     1      20.075   0.560  35.302  1.00  0.00     0.175 A 
HETATM    6  N3  UNL     1      19.150  -0.233  34.709  1.00  0.00    -0.279 N 
ATOM      7  H3  UNL     1      18.161  -0.069  34.901  1.00  0.00     0.189 HD
HETATM    8  N4  UNL     1      19.489  -1.206  33.893  1.00  0.00    -0.301 N 
ATOM      9  H4  UNL     1      18.742  -1.766  33.482  1.00  0.00     0.186 HD
ENDROOT
BRANCH   1  10
HETATM   10  C4  UNL     1      21.112  -2.568  32.646  1.00  0.00     0.180 C 
BRANCH  10  11
HETATM   11  N1  UNL     1      20.293  -3.715  32.603  1.00  0.00    -0.383 N 
BRANCH  11  12
HETATM   12  C2  UNL     1      19.759  -4.100  31.380  1.00  0.00     0.075 C 
HETATM   13  C1  UNL     1      19.301  -2.906  30.578  1.00  0.00     0.032 C 
HETATM   14  C3  UNL     1      20.654  -4.917  30.493  1.00  0.00     0.032 C 
ENDBRANCH  11  12
BRANCH  11  15
HETATM   15  C14 UNL     1      20.050  -4.392  33.794  1.00  0.00     0.063 C 
BRANCH  15  16
HETATM   16  C15 UNL     1      18.983  -5.470  33.721  1.00  0.00     0.024 C 
HETATM   17  C16 UNL     1      19.603  -6.761  34.235  1.00  0.00     0.010 C 
HETATM   18  C17 UNL     1      18.600  -7.866  34.001  1.00  0.00     0.001 C 
HETATM   19  C18 UNL     1      17.391  -7.606  34.879  1.00  0.00     0.000 C 
HETATM   20  C19 UNL     1      16.828  -6.223  34.629  1.00  0.00     0.001 C 
HETATM   21  C20 UNL     1      17.848  -5.133  34.690  1.00  0.00     0.010 C 
ENDBRANCH  15  16
ENDBRANCH  11  15
ENDBRANCH  10  11
ENDBRANCH   1  10
BRANCH   5  22
HETATM   22  O1  UNL     1      19.679   1.589  36.168  1.00  0.00    -0.328 OA
BRANCH  22  23
HETATM   23  C9  UNL     1      18.890   2.662  35.693  1.00  0.00     0.236 C 
BRANCH  23  24
HETATM   24  C10 UNL     1      17.448   2.334  35.592  1.00  0.00     0.059 A 
HETATM   25  C11 UNL     1      16.779   1.802  34.483  1.00  0.00     0.069 A 
HETATM   26  C12 UNL     1      15.451   1.652  34.807  1.00  0.00     0.142 A 
HETATM   27  O2  UNL     1      15.329   2.076  36.054  1.00  0.00    -0.236 OA
HETATM   28  N2  UNL     1      16.480   2.472  36.516  1.00  0.00    -0.263 N 
ATOM     29  H2  UNL     1      16.628   2.840  37.457  1.00  0.00     0.194 HD
BRANCH  26  30
HETATM   30  C13 UNL     1      14.364   1.125  33.946  1.00  0.00     0.412 C 
HETATM   31  F1  UNL     1      14.544  -0.215  33.659  1.00  0.00    -0.207 F 
HETATM   32  F2  UNL     1      13.109   1.270  34.512  1.00  0.00    -0.207 F 
ENDBRANCH  26  30
ENDBRANCH  23  24
ENDBRANCH  22  23
ENDBRANCH   5  22
TORSDOF 9
ENDMDL
MODEL 4
REMARK VINA RESULT: -9.719727830      5.309      9.443
REMARK  9 active torsions:
REMARK  status: ('A' for Active; 'I' for Inactive)
REMARK    1  A    between atoms: C2_2  and  N1_4 
REMARK    2  A    between atoms: N1_4  and  C4_5 
REMARK    3  A    between atoms: N1_4  and  C14_26 
REMARK    4  A    between atoms: C4_5  and  C5_6 
REMARK    5  A    between atoms: C8_10  and  O1_11 
REMARK    6  A    between atoms: O1_11  and  C9_12 
REMARK    7  A    between atoms: C9_12  and  C10_13 
REMARK    8  A    between atoms: C12_15  and  C13_16 
REMARK    9  A    between atoms: C14_26  and  C15_27 
ROOT
HETATM    1  C5  UNL     1      18.963  -2.485  33.730  1.00  0.00     0.045 A 
HETATM    2  C6  UNL     1      18.174  -3.533  34.156  1.00  0.00     0.051 A 
HETATM    3  C7  UNL     1      18.631  -4.846  34.095  1.00  0.00     0.065 A 
HETATM    4 BR1  UNL     1      17.537  -6.300  34.682  1.00  0.00    -0.046 Br
HETATM    5  C8  UNL     1      19.882  -5.107  33.603  1.00  0.00     0.175 A 
HETATM    6  N3  UNL     1      20.622  -4.048  33.195  1.00  0.00    -0.279 N 
ATOM      7  H3  UNL     1      21.558  -4.211  32.823  1.00  0.00     0.189 HD
HETATM    8  N4  UNL     1      20.168  -2.816  33.265  1.00  0.00    -0.301 N 
ATOM      9  H4  UNL     1      20.778  -2.064  32.942  1.00  0.00     0.186 HD
ENDROOT
BRANCH   1  10
HETATM   10  C4  UNL     1      18.459  -1.125  33.780  1.00  0.00     0.180 C 
BRANCH  10  11
HETATM   11  N1  UNL     1      17.318  -0.817  33.010  1.00  0.00    -0.383 N 
BRANCH  11  12
HETATM   12  C2  UNL     1      16.154  -0.450  33.672  1.00  0.00     0.075 C 
HETATM   13  C1  UNL     1      16.188   1.002  34.084  1.00  0.00     0.032 C 
HETATM   14  C3  UNL     1      14.868  -0.672  32.928  1.00  0.00     0.032 C 
ENDBRANCH  11  12
BRANCH  11  15
HETATM   15  C14 UNL     1      17.417  -0.912  31.626  1.00  0.00     0.063 C 
BRANCH  15  16
HETATM   16  C15 UNL     1      17.927   0.335  30.926  1.00  0.00     0.024 C 
HETATM   17  C16 UNL     1      18.857  -0.117  29.808  1.00  0.00     0.010 C 
HETATM   18  C17 UNL     1      19.496   1.121  29.227  1.00  0.00     0.001 C 
HETATM   19  C18 UNL     1      18.414   1.948  28.559  1.00  0.00     0.000 C 
HETATM   20  C19 UNL     1      17.291   2.252  29.527  1.00  0.00     0.001 C 
HETATM   21  C20 UNL     1      16.762   1.051  30.239  1.00  0.00     0.010 C 
ENDBRANCH  15  16
ENDBRANCH  11  15
ENDBRANCH  10  11
ENDBRANCH   1  10
BRANCH   5  22
HETATM   22  O1  UNL     1      20.396  -6.408  33.516  1.00  0.00    -0.328 OA
BRANCH  22  23
HETATM   23  C9  UNL     1      20.758  -6.954  32.262  1.00  0.00     0.236 C 
BRANCH  23  24
HETATM   24  C10 UNL     1      20.954  -8.424  32.294  1.00  0.00     0.059 A 
HETATM   25  C11 UNL     1      20.968  -9.250  33.425  1.00  0.00     0.069 A 
HETATM   26  C12 UNL     1      21.182 -10.545  33.015  1.00  0.00     0.142 A 
HETATM   27  O2  UNL     1      21.292 -10.497  31.697  1.00  0.00    -0.236 OA
HETATM   28  N2  UNL     1      21.162  -9.274  31.271  1.00  0.00    -0.263 N 
ATOM     29  H2  UNL     1      21.211  -8.996  30.291  1.00  0.00     0.194 HD
BRANCH  26  30
HETATM   30  C13 UNL     1      21.274 -11.758  33.862  1.00  0.00     0.412 C 
HETATM   31  F1  UNL     1      22.400 -11.737  34.664  1.00  0.00    -0.207 F 
HETATM   32  F2  UNL     1      20.174 -11.927  34.685  1.00  0.00    -0.207 F 
ENDBRANCH  26  30
ENDBRANCH  23  24
ENDBRANCH  22  23
ENDBRANCH   5  22
TORSDOF 9
ENDMDL
MODEL 5
REMARK VINA RESULT: -9.711648967      1.430      1.681
REMARK  9 active torsions:
REMARK  status: ('A' for Active; 'I' for Inactive)
REMARK    1  A    between atoms: C2_2  and  N1_4 
REMARK    2  A    between atoms: N1_4  and  C4_5 
REMARK    3  A    between atoms: N1_4  and  C14_26 
REMARK    4  A    between atoms: C4_5  and  C5_6 
REMARK    5  A    between atoms: C8_10  and  O1_11 
REMARK    6  A    between atoms: O1_11  and  C9_12 
REMARK    7  A    between atoms: C9_12  and  C10_13 
REMARK    8  A    between atoms: C12_15  and  C13_16 
REMARK    9  A    between atoms: C14_26  and  C15_27 
ROOT
HETATM    1  C5  UNL     1      18.108  -1.775  32.080  1.00  0.00     0.045 A 
HETATM    2  C6  UNL     1      17.995  -0.644  31.298  1.00  0.00     0.051 A 
HETATM    3  C7  UNL     1      17.204   0.428  31.699  1.00  0.00     0.065 A 
HETATM    4 BR1  UNL     1      17.043   1.995  30.615  1.00  0.00    -0.046 Br
HETATM    5  C8  UNL     1      16.525   0.364  32.886  1.00  0.00     0.175 A 
HETATM    6  N3  UNL     1      16.664  -0.765  33.621  1.00  0.00    -0.279 N 
ATOM      7  H3  UNL     1      16.169  -0.843  34.510  1.00  0.00     0.189 HD
HETATM    8  N4  UNL     1      17.419  -1.765  33.221  1.00  0.00    -0.301 N 
ATOM      9  H4  UNL     1      17.482  -2.585  33.824  1.00  0.00     0.186 HD
ENDROOT
BRANCH   1  10
HETATM   10  C4  UNL     1      18.919  -2.892  31.633  1.00  0.00     0.180 C 
BRANCH  10  11
HETATM   11  N1  UNL     1      20.097  -3.180  32.353  1.00  0.00    -0.383 N 
BRANCH  11  12
HETATM   12  C2  UNL     1      21.317  -2.825  31.793  1.00  0.00     0.075 C 
HETATM   13  C1  UNL     1      21.227  -2.733  30.289  1.00  0.00     0.032 C 
HETATM   14  C3  UNL     1      21.925  -1.542  32.283  1.00  0.00     0.032 C 
ENDBRANCH  11  12
BRANCH  11  15
HETATM   15  C14 UNL     1      19.974  -3.818  33.583  1.00  0.00     0.063 C 
BRANCH  15  16
HETATM   16  C15 UNL     1      19.068  -5.036  33.593  1.00  0.00     0.024 C 
HETATM   17  C16 UNL     1      19.905  -6.224  34.043  1.00  0.00     0.010 C 
HETATM   18  C17 UNL     1      19.052  -7.460  33.887  1.00  0.00     0.001 C 
HETATM   19  C18 UNL     1      17.896  -7.370  34.867  1.00  0.00     0.000 C 
HETATM   20  C19 UNL     1      17.125  -6.081  34.675  1.00  0.00     0.001 C 
HETATM   21  C20 UNL     1      17.982  -4.859  34.657  1.00  0.00     0.010 C 
ENDBRANCH  15  16
ENDBRANCH  11  15
ENDBRANCH  10  11
ENDBRANCH   1  10
BRANCH   5  22
HETATM   22  O1  UNL     1      15.712   1.412  33.341  1.00  0.00    -0.328 OA
BRANCH  22  23
HETATM   23  C9  UNL     1      15.339   1.491  34.703  1.00  0.00     0.236 C 
BRANCH  23  24
HETATM   24  C10 UNL     1      16.373   2.116  35.563  1.00  0.00     0.059 A 
HETATM   25  C11 UNL     1      17.763   2.014  35.421  1.00  0.00     0.069 A 
HETATM   26  C12 UNL     1      18.357   2.740  36.427  1.00  0.00     0.142 A 
HETATM   27  O2  UNL     1      17.368   3.253  37.139  1.00  0.00    -0.236 OA
HETATM   28  N2  UNL     1      16.216   2.897  36.647  1.00  0.00    -0.263 N 
ATOM     29  H2  UNL     1      15.314   3.175  37.033  1.00  0.00     0.194 HD
BRANCH  26  30
HETATM   30  C13 UNL     1      19.807   2.921  36.676  1.00  0.00     0.412 C 
HETATM   31  F1  UNL     1      20.041   3.622  37.843  1.00  0.00    -0.207 F 
HETATM   32  F2  UNL     1      20.494   1.723  36.759  1.00  0.00    -0.207 F 
ENDBRANCH  26  30
ENDBRANCH  23  24
ENDBRANCH  22  23
ENDBRANCH   5  22
TORSDOF 9
ENDMDL
