MODEL 1
REMARK VINA RESULT: -8.814475924      0.000      0.000
REMARK  12 active torsions:
REMARK  status: ('A' for Active; 'I' for Inactive)
REMARK    1  A    between atoms: C2_2  and  C3_3 
REMARK    2  A    between atoms: C2_2  and  C11_16 
REMARK    3  A    between atoms: C3_3  and  O1_4 
REMARK    4  A    between atoms: O1_4  and  C4_5 
REMARK    5  A    between atoms: C4_5  and  C5_7 
REMARK    6  A    between atoms: C5_7  and  C7_11 
REMARK    7  A    between atoms: C7_11  and  C8_13 
REMARK    8  A    between atoms: C11_16  and  O4_18 
REMARK    9  A    between atoms: O4_18  and  C12_19 
REMARK   10  A    between atoms: C12_19  and  C13_20 
REMARK   11  A    between atoms: C13_20  and  C15_25 
REMARK   12  A    between atoms: N1_21  and  O5_23 
ROOT
HETATM    1  C11 UNL     1      18.683  -0.734  30.158  1.00  0.00     0.291 C 
HETATM    2  O3  UNL     1      19.756  -0.596  29.525  1.00  0.00    -0.260 OA
ENDROOT
BRANCH   1   3
HETATM    3  C2  UNL     1      17.631   0.275  30.060  1.00  0.00     0.032 C 
HETATM    4  C1  UNL     1      17.938   1.501  29.774  1.00  0.00     0.027 C 
BRANCH   3   5
HETATM    5  C3  UNL     1      16.254  -0.174  30.275  1.00  0.00     0.223 C 
BRANCH   5   6
HETATM    6  O1  UNL     1      15.524   0.442  31.279  1.00  0.00    -0.313 OA
BRANCH   6   7
HETATM    7  C4  UNL     1      15.419  -0.098  32.566  1.00  0.00     0.297 C 
HETATM    8  O2  UNL     1      14.825  -1.228  32.667  1.00  0.00    -0.259 OA
BRANCH   7   9
HETATM    9  C5  UNL     1      15.928   0.525  33.770  1.00  0.00     0.094 C 
HETATM   10  C6  UNL     1      15.014   1.195  34.537  1.00  0.00     0.121 C 
HETATM   11 CL1  UNL     1      15.551   1.961  35.994  1.00  0.00    -0.070 Cl
HETATM   12 CL2  UNL     1      13.341   1.314  34.086  1.00  0.00    -0.070 Cl
BRANCH   9  13
HETATM   13  C7  UNL     1      17.324   0.631  34.162  1.00  0.00     0.054 C 
HETATM   14 CL3  UNL     1      17.422   2.591  33.258  1.00  0.00    -0.083 Cl
BRANCH  13  15
HETATM   15  C8  UNL     1      18.444   0.734  34.476  1.00  0.00    -0.065 C 
HETATM   16  C9  UNL     1      19.542  -0.037  33.696  1.00  0.00     0.044 C 
HETATM   17  C10 UNL     1      19.074   1.489  35.630  1.00  0.00     0.044 C 
ENDBRANCH  13  15
ENDBRANCH   9  13
ENDBRANCH   7   9
ENDBRANCH   6   7
ENDBRANCH   5   6
ENDBRANCH   3   5
ENDBRANCH   1   3
BRANCH   1  18
HETATM   18  O4  UNL     1      18.552  -1.870  30.942  1.00  0.00    -0.312 OA
BRANCH  18  19
HETATM   19  C12 UNL     1      19.483  -2.918  30.751  1.00  0.00     0.238 C 
BRANCH  19  20
HETATM   20  C13 UNL     1      20.121  -3.354  31.997  1.00  0.00     0.066 C 
HETATM   21  N1  UNL     1      21.298  -2.904  32.308  1.00  0.00    -0.268 N 
ATOM     22  H1  UNL     1      21.748  -3.204  33.172  1.00  0.00     0.194 HD
BRANCH  21  23
HETATM   23  O5  UNL     1      21.927  -2.031  31.479  1.00  0.00    -0.285 OA
HETATM   24  C14 UNL     1      23.182  -2.198  30.887  1.00  0.00     0.237 C 
ENDBRANCH  21  23
BRANCH  20  25
HETATM   25  C15 UNL     1      19.470  -4.255  32.923  1.00  0.00    -0.008 A 
HETATM   26  C16 UNL     1      18.529  -3.872  33.854  1.00  0.00     0.013 A 
HETATM   27  C17 UNL     1      17.928  -4.724  34.755  1.00  0.00     0.003 A 
HETATM   28  C18 UNL     1      18.279  -6.058  34.738  1.00  0.00     0.024 A 
HETATM   29  C19 UNL     1      19.218  -6.485  33.822  1.00  0.00     0.035 A 
HETATM   30 CL4  UNL     1      19.707  -8.190  33.774  1.00  0.00    -0.084 Cl
HETATM   31  C20 UNL     1      19.799  -5.617  32.938  1.00  0.00     0.037 A 
ENDBRANCH  20  25
ENDBRANCH  19  20
ENDBRANCH  18  19
ENDBRANCH   1  18
TORSDOF 12
ENDMDL
MODEL 2
REMARK VINA RESULT: -8.710347050      3.033      6.701
REMARK  12 active torsions:
REMARK  status: ('A' for Active; 'I' for Inactive)
REMARK    1  A    between atoms: C2_2  and  C3_3 
REMARK    2  A    between atoms: C2_2  and  C11_16 
REMARK    3  A    between atoms: C3_3  and  O1_4 
REMARK    4  A    between atoms: O1_4  and  C4_5 
REMARK    5  A    between atoms: C4_5  and  C5_7 
REMARK    6  A    between atoms: C5_7  and  C7_11 
REMARK    7  A    between atoms: C7_11  and  C8_13 
REMARK    8  A    between atoms: C11_16  and  O4_18 
REMARK    9  A    between atoms: O4_18  and  C12_19 
REMARK   10  A    between atoms: C12_19  and  C13_20 
REMARK   11  A    between atoms: C13_20  and  C15_25 
REMARK   12  A    between atoms: N1_21  and  O5_23 
ROOT
HETATM    1  C11 UNL     1      17.028   0.285  30.965  1.00  0.00     0.291 C 
HETATM    2  O3  UNL     1      15.840   0.673  31.050  1.00  0.00    -0.260 OA
ENDROOT
BRANCH   1   3
HETATM    3  C2  UNL     1      17.491  -0.427  29.777  1.00  0.00     0.032 C 
HETATM    4  C1  UNL     1      16.684  -0.608  28.778  1.00  0.00     0.027 C 
BRANCH   3   5
HETATM    5  C3  UNL     1      18.880  -0.890  29.775  1.00  0.00     0.223 C 
BRANCH   5   6
HETATM    6  O1  UNL     1      19.104  -2.258  29.745  1.00  0.00    -0.313 OA
BRANCH   6   7
HETATM    7  C4  UNL     1      20.261  -2.837  30.280  1.00  0.00     0.297 C 
HETATM    8  O2  UNL     1      21.370  -2.255  30.014  1.00  0.00    -0.259 OA
BRANCH   7   9
HETATM    9  C5  UNL     1      20.287  -4.032  31.099  1.00  0.00     0.094 C 
HETATM   10  C6  UNL     1      20.871  -5.136  30.540  1.00  0.00     0.121 C 
HETATM   11 CL1  UNL     1      20.941  -6.599  31.464  1.00  0.00    -0.070 Cl
HETATM   12 CL2  UNL     1      21.527  -5.119  28.932  1.00  0.00    -0.070 Cl
BRANCH   9  13
HETATM   13  C7  UNL     1      19.629  -4.211  32.384  1.00  0.00     0.054 C 
HETATM   14 CL3  UNL     1      20.915  -2.701  33.243  1.00  0.00    -0.083 Cl
BRANCH  13  15
HETATM   15  C8  UNL     1      19.108  -4.338  33.420  1.00  0.00    -0.065 C 
HETATM   16  C9  UNL     1      19.489  -5.529  34.339  1.00  0.00     0.044 C 
HETATM   17  C10 UNL     1      17.997  -3.533  34.064  1.00  0.00     0.044 C 
ENDBRANCH  13  15
ENDBRANCH   9  13
ENDBRANCH   7   9
ENDBRANCH   6   7
ENDBRANCH   5   6
ENDBRANCH   3   5
ENDBRANCH   1   3
BRANCH   1  18
HETATM   18  O4  UNL     1      17.862   0.561  32.038  1.00  0.00    -0.312 OA
BRANCH  18  19
HETATM   19  C12 UNL     1      17.683  -0.187  33.225  1.00  0.00     0.238 C 
BRANCH  19  20
HETATM   20  C13 UNL     1      17.626   0.650  34.428  1.00  0.00     0.066 C 
HETATM   21  N1  UNL     1      16.474   1.018  34.899  1.00  0.00    -0.268 N 
ATOM     22  H1  UNL     1      16.426   1.602  35.735  1.00  0.00     0.194 HD
BRANCH  21  23
HETATM   23  O5  UNL     1      15.333   0.624  34.277  1.00  0.00    -0.285 OA
HETATM   24  C14 UNL     1      14.126   1.327  34.221  1.00  0.00     0.237 C 
ENDBRANCH  21  23
BRANCH  20  25
HETATM   25  C15 UNL     1      18.815   1.062  35.139  1.00  0.00    -0.008 A 
HETATM   26  C16 UNL     1      18.893   2.170  35.956  1.00  0.00     0.013 A 
HETATM   27  C17 UNL     1      20.033   2.579  36.613  1.00  0.00     0.003 A 
HETATM   28  C18 UNL     1      21.187   1.840  36.456  1.00  0.00     0.024 A 
HETATM   29  C19 UNL     1      21.154   0.724  35.648  1.00  0.00     0.035 A 
HETATM   30 CL4  UNL     1      22.619  -0.249  35.410  1.00  0.00    -0.084 Cl
HETATM   31  C20 UNL     1      20.008   0.339  35.008  1.00  0.00     0.037 A 
ENDBRANCH  20  25
ENDBRANCH  19  20
ENDBRANCH  18  19
ENDBRANCH   1  18
TORSDOF 12
ENDMDL
MODEL 3
REMARK VINA RESULT: -8.690078964      1.636      2.757
REMARK  12 active torsions:
REMARK  status: ('A' for Active; 'I' for Inactive)
REMARK    1  A    between atoms: C2_2  and  C3_3 
REMARK    2  A    between atoms: C2_2  and  C11_16 
REMARK    3  A    between atoms: C3_3  and  O1_4 
REMARK    4  A    between atoms: O1_4  and  C4_5 
REMARK    5  A    between atoms: C4_5  and  C5_7 
REMARK    6  A    between atoms: C5_7  and  C7_11 
REMARK    7  A    between atoms: C7_11  and  C8_13 
REMARK    8  A    between atoms: C11_16  and  O4_18 
REMARK    9  A    between atoms: O4_18  and  C12_19 
REMARK   10  A    between atoms: C12_19  and  C13_20 
REMARK   11  A    between atoms: C13_20  and  C15_25 
REMARK   12  A    between atoms: N1_21  and  O5_23 
ROOT
HETATM    1  C11 UNL     1      19.616  -2.026  29.846  1.00  0.00     0.291 C 
HETATM    2  O3  UNL     1      20.555  -1.541  29.173  1.00  0.00    -0.260 OA
ENDROOT
BRANCH   1   3
HETATM    3  C2  UNL     1      18.501  -1.183  30.275  1.00  0.00     0.032 C 
HETATM    4  C1  UNL     1      17.777  -0.574  29.389  1.00  0.00     0.027 C 
BRANCH   3   5
HETATM    5  C3  UNL     1      18.249  -1.091  31.714  1.00  0.00     0.223 C 
BRANCH   5   6
HETATM    6  O1  UNL     1      19.159  -0.383  32.484  1.00  0.00    -0.313 OA
BRANCH   6   7
HETATM    7  C4  UNL     1      18.952  -0.136  33.846  1.00  0.00     0.297 C 
HETATM    8  O2  UNL     1      19.811  -0.631  34.656  1.00  0.00    -0.259 OA
BRANCH   7   9
HETATM    9  C5  UNL     1      17.848   0.626  34.391  1.00  0.00     0.094 C 
HETATM   10  C6  UNL     1      18.152   1.485  35.413  1.00  0.00     0.121 C 
HETATM   11 CL1  UNL     1      16.880   2.431  36.110  1.00  0.00    -0.070 Cl
HETATM   12 CL2  UNL     1      19.764   1.639  36.041  1.00  0.00    -0.070 Cl
BRANCH   9  13
HETATM   13  C7  UNL     1      16.441   0.463  34.061  1.00  0.00     0.054 C 
HETATM   14 CL3  UNL     1      16.644   1.941  32.498  1.00  0.00    -0.083 Cl
BRANCH  13  15
HETATM   15  C8  UNL     1      15.315   0.338  33.780  1.00  0.00    -0.065 C 
HETATM   16  C9  UNL     1      14.260   1.322  34.350  1.00  0.00     0.044 C 
HETATM   17  C10 UNL     1      14.624  -0.723  32.946  1.00  0.00     0.044 C 
ENDBRANCH  13  15
ENDBRANCH   9  13
ENDBRANCH   7   9
ENDBRANCH   6   7
ENDBRANCH   5   6
ENDBRANCH   3   5
ENDBRANCH   1   3
BRANCH   1  18
HETATM   18  O4  UNL     1      19.690  -3.374  30.159  1.00  0.00    -0.312 OA
BRANCH  18  19
HETATM   19  C12 UNL     1      20.798  -3.818  30.919  1.00  0.00     0.238 C 
BRANCH  19  20
HETATM   20  C13 UNL     1      20.613  -3.636  32.362  1.00  0.00     0.066 C 
HETATM   21  N1  UNL     1      21.253  -2.689  32.977  1.00  0.00    -0.268 N 
ATOM     22  H1  UNL     1      21.131  -2.558  33.981  1.00  0.00     0.194 HD
BRANCH  21  23
HETATM   23  O5  UNL     1      22.086  -1.875  32.280  1.00  0.00    -0.285 OA
HETATM   24  C14 UNL     1      23.133  -1.108  32.799  1.00  0.00     0.237 C 
ENDBRANCH  21  23
BRANCH  20  25
HETATM   25  C15 UNL     1      19.709  -4.460  33.135  1.00  0.00    -0.008 A 
HETATM   26  C16 UNL     1      18.711  -3.971  33.950  1.00  0.00     0.013 A 
HETATM   27  C17 UNL     1      17.867  -4.754  34.708  1.00  0.00     0.003 A 
HETATM   28  C18 UNL     1      18.015  -6.125  34.659  1.00  0.00     0.024 A 
HETATM   29  C19 UNL     1      19.002  -6.656  33.856  1.00  0.00     0.035 A 
HETATM   30 CL4  UNL     1      19.234  -8.414  33.772  1.00  0.00    -0.084 Cl
HETATM   31  C20 UNL     1      19.826  -5.856  33.113  1.00  0.00     0.037 A 
ENDBRANCH  20  25
ENDBRANCH  19  20
ENDBRANCH  18  19
ENDBRANCH   1  18
TORSDOF 12
ENDMDL
MODEL 4
REMARK VINA RESULT: -8.562365413      2.621      5.197
REMARK  12 active torsions:
REMARK  status: ('A' for Active; 'I' for Inactive)
REMARK    1  A    between atoms: C2_2  and  C3_3 
REMARK    2  A    between atoms: C2_2  and  C11_16 
REMARK    3  A    between atoms: C3_3  and  O1_4 
REMARK    4  A    between atoms: O1_4  and  C4_5 
REMARK    5  A    between atoms: C4_5  and  C5_7 
REMARK    6  A    between atoms: C5_7  and  C7_11 
REMARK    7  A    between atoms: C7_11  and  C8_13 
REMARK    8  A    between atoms: C11_16  and  O4_18 
REMARK    9  A    between atoms: O4_18  and  C12_19 
REMARK   10  A    between atoms: C12_19  and  C13_20 
REMARK   11  A    between atoms: C13_20  and  C15_25 
REMARK   12  A    between atoms: N1_21  and  O5_23 
ROOT
HETATM    1  C11 UNL     1      19.875  -4.424  31.797  1.00  0.00     0.291 C 
HETATM    2  O3  UNL     1      20.732  -5.335  31.731  1.00  0.00    -0.260 OA
ENDROOT
BRANCH   1   3
HETATM    3  C2  UNL     1      19.260  -4.078  33.076  1.00  0.00     0.032 C 
HETATM    4  C1  UNL     1      19.295  -4.925  34.058  1.00  0.00     0.027 C 
BRANCH   3   5
HETATM    5  C3  UNL     1      18.642  -2.755  33.184  1.00  0.00     0.223 C 
BRANCH   5   6
HETATM    6  O1  UNL     1      19.227  -1.839  34.045  1.00  0.00    -0.313 OA
BRANCH   6   7
HETATM    7  C4  UNL     1      19.135  -0.458  33.839  1.00  0.00     0.297 C 
HETATM    8  O2  UNL     1      20.074   0.085  33.158  1.00  0.00    -0.259 OA
BRANCH   7   9
HETATM    9  C5  UNL     1      18.068   0.385  34.338  1.00  0.00     0.094 C 
HETATM   10  C6  UNL     1      18.406   1.267  35.329  1.00  0.00     0.121 C 
HETATM   11 CL1  UNL     1      17.181   2.309  35.970  1.00  0.00    -0.070 Cl
HETATM   12 CL2  UNL     1      20.017   1.359  35.972  1.00  0.00    -0.070 Cl
BRANCH   9  13
HETATM   13  C7  UNL     1      16.658   0.285  33.996  1.00  0.00     0.054 C 
HETATM   14 CL3  UNL     1      16.947   1.728  32.414  1.00  0.00    -0.083 Cl
BRANCH  13  15
HETATM   15  C8  UNL     1      15.530   0.211  33.704  1.00  0.00    -0.065 C 
HETATM   16  C9  UNL     1      14.511   1.228  34.283  1.00  0.00     0.044 C 
HETATM   17  C10 UNL     1      14.804  -0.808  32.849  1.00  0.00     0.044 C 
ENDBRANCH  13  15
ENDBRANCH   9  13
ENDBRANCH   7   9
ENDBRANCH   6   7
ENDBRANCH   5   6
ENDBRANCH   3   5
ENDBRANCH   1   3
BRANCH   1  18
HETATM   18  O4  UNL     1      19.546  -3.776  30.616  1.00  0.00    -0.312 OA
BRANCH  18  19
HETATM   19  C12 UNL     1      20.591  -3.168  29.881  1.00  0.00     0.238 C 
BRANCH  19  20
HETATM   20  C13 UNL     1      20.799  -1.761  30.237  1.00  0.00     0.066 C 
HETATM   21  N1  UNL     1      21.828  -1.426  30.954  1.00  0.00    -0.268 N 
ATOM     22  H1  UNL     1      21.979  -0.449  31.208  1.00  0.00     0.194 HD
BRANCH  21  23
HETATM   23  O5  UNL     1      22.703  -2.379  31.366  1.00  0.00    -0.285 OA
HETATM   24  C14 UNL     1      24.044  -2.501  30.991  1.00  0.00     0.237 C 
ENDBRANCH  21  23
BRANCH  20  25
HETATM   25  C15 UNL     1      19.911  -0.711  29.790  1.00  0.00    -0.008 A 
HETATM   26  C16 UNL     1      20.324   0.531  29.360  1.00  0.00     0.013 A 
HETATM   27  C17 UNL     1      19.477   1.542  28.960  1.00  0.00     0.003 A 
HETATM   28  C18 UNL     1      18.117   1.312  28.982  1.00  0.00     0.024 A 
HETATM   29  C19 UNL     1      17.660   0.082  29.405  1.00  0.00     0.035 A 
HETATM   30 CL4  UNL     1      15.918  -0.252  29.459  1.00  0.00    -0.084 Cl
HETATM   31  C20 UNL     1      18.523  -0.905  29.797  1.00  0.00     0.037 A 
ENDBRANCH  20  25
ENDBRANCH  19  20
ENDBRANCH  18  19
ENDBRANCH   1  18
TORSDOF 12
ENDMDL
MODEL 5
REMARK VINA RESULT: -8.411832371      4.219      6.805
REMARK  12 active torsions:
REMARK  status: ('A' for Active; 'I' for Inactive)
REMARK    1  A    between atoms: C2_2  and  C3_3 
REMARK    2  A    between atoms: C2_2  and  C11_16 
REMARK    3  A    between atoms: C3_3  and  O1_4 
REMARK    4  A    between atoms: O1_4  and  C4_5 
REMARK    5  A    between atoms: C4_5  and  C5_7 
REMARK    6  A    between atoms: C5_7  and  C7_11 
REMARK    7  A    between atoms: C7_11  and  C8_13 
REMARK    8  A    between atoms: C11_16  and  O4_18 
REMARK    9  A    between atoms: O4_18  and  C12_19 
REMARK   10  A    between atoms: C12_19  and  C13_20 
REMARK   11  A    between atoms: C13_20  and  C15_25 
REMARK   12  A    between atoms: N1_21  and  O5_23 
ROOT
HETATM    1  C11 UNL     1      21.101  -6.359  30.524  1.00  0.00     0.291 C 
HETATM    2  O3  UNL     1      20.887  -5.345  31.227  1.00  0.00    -0.260 OA
ENDROOT
BRANCH   1   3
HETATM    3  C2  UNL     1      21.365  -6.225  29.093  1.00  0.00     0.032 C 
HETATM    4  C1  UNL     1      20.487  -6.637  28.234  1.00  0.00     0.027 C 
BRANCH   3   5
HETATM    5  C3  UNL     1      22.630  -5.597  28.704  1.00  0.00     0.223 C 
BRANCH   5   6
HETATM    6  O1  UNL     1      22.622  -4.235  28.448  1.00  0.00    -0.313 OA
BRANCH   6   7
HETATM    7  C4  UNL     1      22.839  -3.285  29.452  1.00  0.00     0.297 C 
HETATM    8  O2  UNL     1      23.810  -3.511  30.256  1.00  0.00    -0.259 OA
BRANCH   7   9
HETATM    9  C5  UNL     1      22.051  -2.085  29.642  1.00  0.00     0.094 C 
HETATM   10  C6  UNL     1      22.067  -1.181  28.614  1.00  0.00     0.121 C 
HETATM   11 CL1  UNL     1      21.143   0.275  28.771  1.00  0.00    -0.070 Cl
HETATM   12 CL2  UNL     1      22.997  -1.442  27.171  1.00  0.00    -0.070 Cl
BRANCH   9  13
HETATM   13  C7  UNL     1      21.369  -1.685  30.863  1.00  0.00     0.054 C 
HETATM   14 CL3  UNL     1      19.566  -2.648  30.164  1.00  0.00    -0.083 Cl
BRANCH  13  15
HETATM   15  C8  UNL     1      20.810  -1.377  31.840  1.00  0.00    -0.065 C 
HETATM   16  C9  UNL     1      21.113  -2.115  33.172  1.00  0.00     0.044 C 
HETATM   17  C10 UNL     1      19.713  -0.355  32.062  1.00  0.00     0.044 C 
ENDBRANCH  13  15
ENDBRANCH   9  13
ENDBRANCH   7   9
ENDBRANCH   6   7
ENDBRANCH   5   6
ENDBRANCH   3   5
ENDBRANCH   1   3
BRANCH   1  18
HETATM   18  O4  UNL     1      21.073  -7.590  31.161  1.00  0.00    -0.312 OA
BRANCH  18  19
HETATM   19  C12 UNL     1      21.353  -7.625  32.548  1.00  0.00     0.238 C 
BRANCH  19  20
HETATM   20  C13 UNL     1      20.303  -8.284  33.330  1.00  0.00     0.066 C 
HETATM   21  N1  UNL     1      20.405  -9.549  33.602  1.00  0.00    -0.268 N 
ATOM     22  H1  UNL     1      19.677 -10.016  34.144  1.00  0.00     0.194 HD
BRANCH  21  23
HETATM   23  O5  UNL     1      21.482 -10.250  33.164  1.00  0.00    -0.285 OA
HETATM   24  C14 UNL     1      21.467 -11.492  32.523  1.00  0.00     0.237 C 
ENDBRANCH  21  23
BRANCH  20  25
HETATM   25  C15 UNL     1      19.157  -7.567  33.844  1.00  0.00    -0.008 A 
HETATM   26  C16 UNL     1      17.996  -8.164  34.286  1.00  0.00     0.013 A 
HETATM   27  C17 UNL     1      16.894  -7.480  34.751  1.00  0.00     0.003 A 
HETATM   28  C18 UNL     1      16.937  -6.102  34.787  1.00  0.00     0.024 A 
HETATM   29  C19 UNL     1      18.080  -5.464  34.354  1.00  0.00     0.035 A 
HETATM   30 CL4  UNL     1      18.174  -3.692  34.372  1.00  0.00    -0.084 Cl
HETATM   31  C20 UNL     1      19.161  -6.167  33.897  1.00  0.00     0.037 A 
ENDBRANCH  20  25
ENDBRANCH  19  20
ENDBRANCH  18  19
ENDBRANCH   1  18
TORSDOF 12
ENDMDL
