MODEL 1
REMARK VINA RESULT: -7.757341811      0.000      0.000
REMARK  9 active torsions:
REMARK  status: ('A' for Active; 'I' for Inactive)
REMARK    1  A    between atoms: C2_2  and  C3_3 
REMARK    2  A    between atoms: C3_3  and  C4_4 
REMARK    3  A    between atoms: C5_5  and  C6_6 
REMARK       I    between atoms: C6_6  and  N1_8 
REMARK    4  A    between atoms: N1_8  and  C7_9 
REMARK    5  A    between atoms: N1_8  and  C11_14 
REMARK    6  A    between atoms: C7_9  and  C8_10 
REMARK    7  A    between atoms: C8_10  and  C9_11 
REMARK    8  A    between atoms: C9_11  and  O2_12 
REMARK    9  A    between atoms: C16_24  and  C17_25 
ROOT
HETATM    1  C11 UNL     1      22.954  -1.952  30.777  1.00  0.00     0.091 C 
HETATM    2  C12 UNL     1      22.732  -1.083  29.589  1.00  0.00     0.081 C 
HETATM    3  C13 UNL     1      24.384  -2.361  30.919  1.00  0.00     0.113 C 
HETATM    4  N2  UNL     1      25.504  -2.668  31.048  1.00  0.00    -0.190 NA
ENDROOT
BRANCH   1   5
HETATM    5  N1  UNL     1      22.049  -2.990  31.093  1.00  0.00    -0.307 N 
HETATM    6  C6  UNL     1      20.867  -2.990  31.914  1.00  0.00     0.277 C 
HETATM    7  O1  UNL     1      20.307  -4.142  31.945  1.00  0.00    -0.265 OA
BRANCH   6   8
HETATM    8  C5  UNL     1      20.317  -1.862  32.645  1.00  0.00     0.126 A 
HETATM    9  C4  UNL     1      19.064  -1.236  32.596  1.00  0.00     0.051 A 
HETATM   10  N4  UNL     1      19.028  -0.282  33.613  1.00  0.00    -0.290 N 
HETATM   11  C14 UNL     1      20.237  -0.382  34.186  1.00  0.00     0.158 A 
HETATM   12  C16 UNL     1      18.170   0.596  34.130  1.00  0.00     0.101 A 
HETATM   13  N3  UNL     1      21.017  -1.318  33.620  1.00  0.00    -0.330 N 
HETATM   14  S1  UNL     1      20.240   0.745  35.457  1.00  0.00    -0.039 SA
ATOM     15  H3  UNL     1      21.969  -1.560  33.893  1.00  0.00     0.168 HD
HETATM   16  C15 UNL     1      18.695   1.331  35.254  1.00  0.00     0.105 A 
HETATM   17 CL1  UNL     1      17.813   2.574  36.183  1.00  0.00    -0.074 Cl
BRANCH   9  18
HETATM   18  C3  UNL     1      18.107  -1.479  31.537  1.00  0.00     0.060 C 
BRANCH  18  19
HETATM   19  C2  UNL     1      18.423  -0.757  30.249  1.00  0.00     0.002 C 
HETATM   20  C1  UNL     1      17.355  -0.364  29.330  1.00  0.00     0.005 C 
ENDBRANCH  18  19
ENDBRANCH   9  18
BRANCH  12  21
HETATM   21  C17 UNL     1      16.742   0.940  33.891  1.00  0.00     0.233 C 
HETATM   22 CL2  UNL     1      16.632   1.755  32.245  1.00  0.00    -0.077 Cl
HETATM   23 CL3  UNL     1      15.902  -0.660  33.411  1.00  0.00    -0.077 Cl
HETATM   24 CL4  UNL     1      15.640   1.585  34.974  1.00  0.00    -0.077 Cl
ENDBRANCH  12  21
ENDBRANCH   6   8
BRANCH   5  25
HETATM   25  C7  UNL     1      22.286  -4.294  30.453  1.00  0.00     0.135 C 
BRANCH  25  26
HETATM   26  C8  UNL     1      21.934  -4.473  29.048  1.00  0.00     0.046 C 
BRANCH  26  27
HETATM   27  C9  UNL     1      23.090  -4.647  28.136  1.00  0.00     0.168 C 
BRANCH  27  28
HETATM   28  O2  UNL     1      24.041  -5.558  28.623  1.00  0.00    -0.396 OA
HETATM   29  C10 UNL     1      24.658  -6.311  27.667  1.00  0.00     0.201 C 
ENDBRANCH  27  28
ENDBRANCH  26  27
ENDBRANCH  25  26
ENDBRANCH   5  25
ENDBRANCH   1   5
TORSDOF 9
ENDMDL
MODEL 2
REMARK VINA RESULT: -7.599917037      0.883      1.012
REMARK  9 active torsions:
REMARK  status: ('A' for Active; 'I' for Inactive)
REMARK    1  A    between atoms: C2_2  and  C3_3 
REMARK    2  A    between atoms: C3_3  and  C4_4 
REMARK    3  A    between atoms: C5_5  and  C6_6 
REMARK       I    between atoms: C6_6  and  N1_8 
REMARK    4  A    between atoms: N1_8  and  C7_9 
REMARK    5  A    between atoms: N1_8  and  C11_14 
REMARK    6  A    between atoms: C7_9  and  C8_10 
REMARK    7  A    between atoms: C8_10  and  C9_11 
REMARK    8  A    between atoms: C9_11  and  O2_12 
REMARK    9  A    between atoms: C16_24  and  C17_25 
ROOT
HETATM    1  C11 UNL     1      22.344  -1.382  29.524  1.00  0.00     0.091 C 
HETATM    2  C12 UNL     1      22.449  -1.190  28.051  1.00  0.00     0.081 C 
HETATM    3  C13 UNL     1      23.595  -0.980  30.236  1.00  0.00     0.113 C 
HETATM    4  N2  UNL     1      24.562  -0.649  30.802  1.00  0.00    -0.190 NA
ENDROOT
BRANCH   1   5
HETATM    5  N1  UNL     1      21.753  -2.546  30.061  1.00  0.00    -0.307 N 
HETATM    6  C6  UNL     1      20.883  -2.723  31.194  1.00  0.00     0.277 C 
HETATM    7  O1  UNL     1      20.549  -3.949  31.354  1.00  0.00    -0.265 OA
BRANCH   6   8
HETATM    8  C5  UNL     1      20.401  -1.685  32.089  1.00  0.00     0.126 A 
HETATM    9  C4  UNL     1      19.160  -1.044  32.195  1.00  0.00     0.051 A 
HETATM   10  N4  UNL     1      19.205  -0.220  33.320  1.00  0.00    -0.290 N 
HETATM   11  C14 UNL     1      20.445  -0.402  33.798  1.00  0.00     0.158 A 
HETATM   12  C16 UNL     1      18.398   0.600  33.992  1.00  0.00     0.101 A 
HETATM   13  N3  UNL     1      21.170  -1.271  33.076  1.00  0.00    -0.330 N 
HETATM   14  S1  UNL     1      20.548   0.563  35.193  1.00  0.00    -0.039 SA
ATOM     15  H3  UNL     1      22.133  -1.556  33.256  1.00  0.00     0.168 HD
HETATM   16  C15 UNL     1      19.006   1.187  35.161  1.00  0.00     0.105 A 
HETATM   17 CL1  UNL     1      18.207   2.319  36.287  1.00  0.00    -0.074 Cl
BRANCH   9  18
HETATM   18  C3  UNL     1      18.134  -1.145  31.178  1.00  0.00     0.060 C 
BRANCH  18  19
HETATM   19  C2  UNL     1      18.532  -0.552  29.848  1.00  0.00     0.002 C 
HETATM   20  C1  UNL     1      19.165   0.765  29.774  1.00  0.00     0.005 C 
ENDBRANCH  18  19
ENDBRANCH   9  18
BRANCH  12  21
HETATM   21  C17 UNL     1      16.965   0.987  33.888  1.00  0.00     0.233 C 
HETATM   22 CL2  UNL     1      16.724   1.801  32.256  1.00  0.00    -0.077 Cl
HETATM   23 CL3  UNL     1      16.035  -0.588  33.498  1.00  0.00    -0.077 Cl
HETATM   24 CL4  UNL     1      15.990   1.668  35.067  1.00  0.00    -0.077 Cl
ENDBRANCH  12  21
ENDBRANCH   6   8
BRANCH   5  25
HETATM   25  C7  UNL     1      21.994  -3.807  29.341  1.00  0.00     0.135 C 
BRANCH  25  26
HETATM   26  C8  UNL     1      23.315  -4.425  29.407  1.00  0.00     0.046 C 
BRANCH  26  27
HETATM   27  C9  UNL     1      23.562  -5.473  28.387  1.00  0.00     0.168 C 
BRANCH  27  28
HETATM   28  O2  UNL     1      24.908  -5.871  28.326  1.00  0.00    -0.396 OA
HETATM   29  C10 UNL     1      25.335  -6.260  27.090  1.00  0.00     0.201 C 
ENDBRANCH  27  28
ENDBRANCH  26  27
ENDBRANCH  25  26
ENDBRANCH   5  25
ENDBRANCH   1   5
TORSDOF 9
ENDMDL
MODEL 3
REMARK VINA RESULT: -7.573888503      1.919      2.710
REMARK  9 active torsions:
REMARK  status: ('A' for Active; 'I' for Inactive)
REMARK    1  A    between atoms: C2_2  and  C3_3 
REMARK    2  A    between atoms: C3_3  and  C4_4 
REMARK    3  A    between atoms: C5_5  and  C6_6 
REMARK       I    between atoms: C6_6  and  N1_8 
REMARK    4  A    between atoms: N1_8  and  C7_9 
REMARK    5  A    between atoms: N1_8  and  C11_14 
REMARK    6  A    between atoms: C7_9  and  C8_10 
REMARK    7  A    between atoms: C8_10  and  C9_11 
REMARK    8  A    between atoms: C9_11  and  O2_12 
REMARK    9  A    between atoms: C16_24  and  C17_25 
ROOT
HETATM    1  C11 UNL     1      19.606  -4.961  32.829  1.00  0.00     0.091 C 
HETATM    2  C12 UNL     1      18.819  -4.168  33.813  1.00  0.00     0.081 C 
HETATM    3  C13 UNL     1      20.149  -6.220  33.424  1.00  0.00     0.113 C 
HETATM    4  N2  UNL     1      20.561  -7.215  33.877  1.00  0.00    -0.190 NA
ENDROOT
BRANCH   1   5
HETATM    5  N1  UNL     1      20.514  -4.329  31.952  1.00  0.00    -0.307 N 
HETATM    6  C6  UNL     1      20.873  -2.943  31.807  1.00  0.00     0.277 C 
HETATM    7  O1  UNL     1      21.753  -2.769  30.893  1.00  0.00    -0.265 OA
BRANCH   6   8
HETATM    8  C5  UNL     1      20.344  -1.825  32.570  1.00  0.00     0.126 A 
HETATM    9  C4  UNL     1      19.096  -1.187  32.551  1.00  0.00     0.051 A 
HETATM   10  N4  UNL     1      19.083  -0.255  33.589  1.00  0.00    -0.290 N 
HETATM   11  C14 UNL     1      20.298  -0.379  34.144  1.00  0.00     0.158 A 
HETATM   12  C16 UNL     1      18.241   0.621  34.136  1.00  0.00     0.101 A 
HETATM   13  N3  UNL     1      21.061  -1.310  33.548  1.00  0.00    -0.330 N 
HETATM   14  S1  UNL     1      20.329   0.719  35.439  1.00  0.00    -0.039 SA
ATOM     15  H3  UNL     1      22.014  -1.569  33.803  1.00  0.00     0.168 HD
HETATM   16  C15 UNL     1      18.788   1.325  35.270  1.00  0.00     0.105 A 
HETATM   17 CL1  UNL     1      17.931   2.556  36.236  1.00  0.00    -0.074 Cl
BRANCH   9  18
HETATM   18  C3  UNL     1      18.124  -1.396  31.499  1.00  0.00     0.060 C 
BRANCH  18  19
HETATM   19  C2  UNL     1      18.410  -0.618  30.237  1.00  0.00     0.002 C 
HETATM   20  C1  UNL     1      17.334  -0.281  29.305  1.00  0.00     0.005 C 
ENDBRANCH  18  19
ENDBRANCH   9  18
BRANCH  12  21
HETATM   21  C17 UNL     1      16.814   0.984  33.923  1.00  0.00     0.233 C 
HETATM   22 CL2  UNL     1      16.688   1.817  32.288  1.00  0.00    -0.077 Cl
HETATM   23 CL3  UNL     1      15.947  -0.601  33.440  1.00  0.00    -0.077 Cl
HETATM   24 CL4  UNL     1      15.737   1.631  35.030  1.00  0.00    -0.077 Cl
ENDBRANCH  12  21
ENDBRANCH   6   8
BRANCH   5  25
HETATM   25  C7  UNL     1      21.287  -5.202  31.054  1.00  0.00     0.135 C 
BRANCH  25  26
HETATM   26  C8  UNL     1      20.689  -5.644  29.798  1.00  0.00     0.046 C 
BRANCH  26  27
HETATM   27  C9  UNL     1      21.135  -6.979  29.333  1.00  0.00     0.168 C 
BRANCH  27  28
HETATM   28  O2  UNL     1      20.974  -7.160  27.950  1.00  0.00    -0.396 OA
HETATM   29  C10 UNL     1      22.135  -7.178  27.234  1.00  0.00     0.201 C 
ENDBRANCH  27  28
ENDBRANCH  26  27
ENDBRANCH  25  26
ENDBRANCH   5  25
ENDBRANCH   1   5
TORSDOF 9
ENDMDL
MODEL 4
REMARK VINA RESULT: -7.557596819      1.697      2.912
REMARK  9 active torsions:
REMARK  status: ('A' for Active; 'I' for Inactive)
REMARK    1  A    between atoms: C2_2  and  C3_3 
REMARK    2  A    between atoms: C3_3  and  C4_4 
REMARK    3  A    between atoms: C5_5  and  C6_6 
REMARK       I    between atoms: C6_6  and  N1_8 
REMARK    4  A    between atoms: N1_8  and  C7_9 
REMARK    5  A    between atoms: N1_8  and  C11_14 
REMARK    6  A    between atoms: C7_9  and  C8_10 
REMARK    7  A    between atoms: C8_10  and  C9_11 
REMARK    8  A    between atoms: C9_11  and  O2_12 
REMARK    9  A    between atoms: C16_24  and  C17_25 
ROOT
HETATM    1  C11 UNL     1      19.960  -4.663  32.889  1.00  0.00     0.091 C 
HETATM    2  C12 UNL     1      20.171  -6.135  32.966  1.00  0.00     0.081 C 
HETATM    3  C13 UNL     1      18.795  -4.216  33.711  1.00  0.00     0.113 C 
HETATM    4  N2  UNL     1      17.898  -3.856  34.368  1.00  0.00    -0.190 NA
ENDROOT
BRANCH   1   5
HETATM    5  N1  UNL     1      20.059  -3.981  31.656  1.00  0.00    -0.307 N 
HETATM    6  C6  UNL     1      19.958  -2.580  31.345  1.00  0.00     0.277 C 
HETATM    7  O1  UNL     1      20.116  -2.355  30.094  1.00  0.00    -0.265 OA
BRANCH   6   8
HETATM    8  C5  UNL     1      19.710  -1.498  32.283  1.00  0.00     0.126 A 
HETATM    9  C4  UNL     1      18.563  -0.740  32.554  1.00  0.00     0.051 A 
HETATM   10  N4  UNL     1      18.847   0.079  33.647  1.00  0.00    -0.290 N 
HETATM   11  C14 UNL     1      20.120  -0.221  33.947  1.00  0.00     0.158 A 
HETATM   12  C16 UNL     1      18.227   0.974  34.415  1.00  0.00     0.101 A 
HETATM   13  N3  UNL     1      20.649  -1.158  33.143  1.00  0.00    -0.330 N 
HETATM   14  S1  UNL     1      20.514   0.732  35.297  1.00  0.00    -0.039 SA
ATOM     15  H3  UNL     1      21.596  -1.534  33.189  1.00  0.00     0.168 HD
HETATM   16  C15 UNL     1      19.049   1.503  35.475  1.00  0.00     0.105 A 
HETATM   17 CL1  UNL     1      18.531   2.709  36.685  1.00  0.00    -0.074 Cl
BRANCH   9  18
HETATM   18  C3  UNL     1      17.398  -0.744  31.696  1.00  0.00     0.060 C 
BRANCH  18  19
HETATM   19  C2  UNL     1      17.501   0.198  30.520  1.00  0.00     0.002 C 
HETATM   20  C1  UNL     1      17.066  -0.219  29.187  1.00  0.00     0.005 C 
ENDBRANCH  18  19
ENDBRANCH   9  18
BRANCH  12  21
HETATM   21  C17 UNL     1      16.837   1.497  34.509  1.00  0.00     0.233 C 
HETATM   22 CL2  UNL     1      16.581   2.659  33.106  1.00  0.00    -0.077 Cl
HETATM   23 CL3  UNL     1      15.729   0.129  33.878  1.00  0.00    -0.077 Cl
HETATM   24 CL4  UNL     1      16.010   1.992  35.879  1.00  0.00    -0.077 Cl
ENDBRANCH  12  21
ENDBRANCH   6   8
BRANCH   5  25
HETATM   25  C7  UNL     1      20.373  -4.795  30.471  1.00  0.00     0.135 C 
BRANCH  25  26
HETATM   26  C8  UNL     1      21.713  -5.358  30.327  1.00  0.00     0.046 C 
BRANCH  26  27
HETATM   27  C9  UNL     1      22.660  -4.516  29.557  1.00  0.00     0.168 C 
BRANCH  27  28
HETATM   28  O2  UNL     1      23.735  -4.052  30.333  1.00  0.00    -0.396 OA
HETATM   29  C10 UNL     1      23.651  -2.742  30.705  1.00  0.00     0.201 C 
ENDBRANCH  27  28
ENDBRANCH  26  27
ENDBRANCH  25  26
ENDBRANCH   5  25
ENDBRANCH   1   5
TORSDOF 9
ENDMDL
MODEL 5
REMARK VINA RESULT: -7.484522538      1.072      1.464
REMARK  9 active torsions:
REMARK  status: ('A' for Active; 'I' for Inactive)
REMARK    1  A    between atoms: C2_2  and  C3_3 
REMARK    2  A    between atoms: C3_3  and  C4_4 
REMARK    3  A    between atoms: C5_5  and  C6_6 
REMARK       I    between atoms: C6_6  and  N1_8 
REMARK    4  A    between atoms: N1_8  and  C7_9 
REMARK    5  A    between atoms: N1_8  and  C11_14 
REMARK    6  A    between atoms: C7_9  and  C8_10 
REMARK    7  A    between atoms: C8_10  and  C9_11 
REMARK    8  A    between atoms: C9_11  and  O2_12 
REMARK    9  A    between atoms: C16_24  and  C17_25 
ROOT
HETATM    1  C11 UNL     1      21.916  -2.247  30.759  1.00  0.00     0.091 C 
HETATM    2  C12 UNL     1      21.524  -1.570  29.492  1.00  0.00     0.081 C 
HETATM    3  C13 UNL     1      23.350  -2.665  30.755  1.00  0.00     0.113 C 
HETATM    4  N2  UNL     1      24.476  -2.978  30.768  1.00  0.00    -0.190 NA
ENDROOT
BRANCH   1   5
HETATM    5  N1  UNL     1      21.065  -3.198  31.364  1.00  0.00    -0.307 N 
HETATM    6  C6  UNL     1      20.080  -3.053  32.403  1.00  0.00     0.277 C 
HETATM    7  O1  UNL     1      19.502  -4.163  32.673  1.00  0.00    -0.265 OA
BRANCH   6   8
HETATM    8  C5  UNL     1      19.731  -1.829  33.104  1.00  0.00     0.126 A 
HETATM    9  C4  UNL     1      18.530  -1.111  33.190  1.00  0.00     0.051 A 
HETATM   10  N4  UNL     1      18.721  -0.079  34.109  1.00  0.00    -0.290 N 
HETATM   11  C14 UNL     1      19.997  -0.229  34.496  1.00  0.00     0.158 A 
HETATM   12  C16 UNL     1      18.018   0.905  34.669  1.00  0.00     0.101 A 
HETATM   13  N3  UNL     1      20.612  -1.266  33.906  1.00  0.00    -0.330 N 
HETATM   14  S1  UNL     1      20.278   0.992  35.644  1.00  0.00    -0.039 SA
ATOM     15  H3  UNL     1      21.577  -1.562  34.051  1.00  0.00     0.168 HD
HETATM   16  C15 UNL     1      18.763   1.683  35.628  1.00  0.00     0.105 A 
HETATM   17 CL1  UNL     1      18.126   3.063  36.563  1.00  0.00    -0.074 Cl
BRANCH   9  18
HETATM   18  C3  UNL     1      17.402  -1.359  32.318  1.00  0.00     0.060 C 
BRANCH  18  19
HETATM   19  C2  UNL     1      17.344  -0.444  31.118  1.00  0.00     0.002 C 
HETATM   20  C1  UNL     1      17.986  -0.819  29.858  1.00  0.00     0.005 C 
ENDBRANCH  18  19
ENDBRANCH   9  18
BRANCH  12  21
HETATM   21  C17 UNL     1      16.596   1.342  34.622  1.00  0.00     0.233 C 
HETATM   22 CL2  UNL     1      16.189   2.093  36.251  1.00  0.00    -0.077 Cl
HETATM   23 CL3  UNL     1      16.579   2.926  33.629  1.00  0.00    -0.077 Cl
HETATM   24 CL4  UNL     1      15.285   0.527  33.973  1.00  0.00    -0.077 Cl
ENDBRANCH  12  21
ENDBRANCH   6   8
BRANCH   5  25
HETATM   25  C7  UNL     1      21.121  -4.570  30.835  1.00  0.00     0.135 C 
BRANCH  25  26
HETATM   26  C8  UNL     1      20.617  -4.838  29.492  1.00  0.00     0.046 C 
BRANCH  26  27
HETATM   27  C9  UNL     1      21.521  -5.647  28.639  1.00  0.00     0.168 C 
BRANCH  27  28
HETATM   28  O2  UNL     1      22.618  -4.916  28.155  1.00  0.00    -0.396 OA
HETATM   29  C10 UNL     1      23.817  -5.563  28.229  1.00  0.00     0.201 C 
ENDBRANCH  27  28
ENDBRANCH  26  27
ENDBRANCH  25  26
ENDBRANCH   5  25
ENDBRANCH   1   5
TORSDOF 9
ENDMDL
