MODEL 1
REMARK VINA RESULT: -8.984171146      0.000      0.000
REMARK  12 active torsions:
REMARK  status: ('A' for Active; 'I' for Inactive)
REMARK    1  A    between atoms: C2_2  and  N1_4 
REMARK    2  A    between atoms: N1_4  and  C4_5 
REMARK    3  A    between atoms: N1_4  and  C20_31 
REMARK    4  A    between atoms: C4_5  and  O1_6 
REMARK    5  A    between atoms: C4_5  and  N2_8 
REMARK    6  A    between atoms: N2_8  and  C5_9 
REMARK    7  A    between atoms: N2_8  and  C14_25 
REMARK    8  A    between atoms: C5_9  and  C6_10 
REMARK    9  A    between atoms: N5_14  and  C7_15 
REMARK   10  A    between atoms: C7_15  and  C8_16 
REMARK   11  A    between atoms: C8_16  and  N6_17 
REMARK   12  A    between atoms: C20_31  and  C22_33 
ROOT
HETATM    1  N2  UNL     1      21.662  -4.135  29.510  1.00  0.00    -0.313 N 
ENDROOT
BRANCH   1   2
HETATM    2  C4  UNL     1      22.399  -3.225  30.216  1.00  0.00     0.226 C 
BRANCH   2   3
HETATM    3  N1  UNL     1      22.569  -1.894  30.535  1.00  0.00    -0.308 N 
BRANCH   3   4
HETATM    4  C2  UNL     1      23.270  -1.683  31.878  1.00  0.00     0.085 C 
HETATM    5  C1  UNL     1      22.295  -1.309  32.931  1.00  0.00     0.032 C 
HETATM    6  C3  UNL     1      24.288  -0.555  31.737  1.00  0.00     0.032 C 
ENDBRANCH   3   4
BRANCH   3   7
HETATM    7  C20 UNL     1      22.213  -0.648  29.977  1.00  0.00     0.095 C 
HETATM    8  C21 UNL     1      20.746  -0.289  30.188  1.00  0.00     0.073 C 
BRANCH   7   9
HETATM    9  C22 UNL     1      22.630  -0.140  28.668  1.00  0.00     0.428 C 
HETATM   10  F1  UNL     1      22.155  -0.619  27.525  1.00  0.00    -0.165 F 
HETATM   11  F2  UNL     1      22.162   1.231  28.678  1.00  0.00    -0.165 F 
HETATM   12  F3  UNL     1      24.028   0.121  28.571  1.00  0.00    -0.165 F 
ENDBRANCH   7   9
ENDBRANCH   3   7
ENDBRANCH   2   3
BRANCH   2  13
HETATM   13  O1  UNL     1      23.374  -3.932  30.899  1.00  0.00    -0.332 OA
ATOM     14  H1  UNL     1      22.964  -4.287  31.678  1.00  0.00     0.221 HD
ENDBRANCH   2  13
ENDBRANCH   1   2
BRANCH   1  15
HETATM   15  C5  UNL     1      20.158  -3.995  29.746  1.00  0.00     0.211 C 
BRANCH  15  16
HETATM   16  C6  UNL     1      19.888  -3.886  31.163  1.00  0.00     0.128 A 
HETATM   17  N3  UNL     1      20.355  -4.709  32.116  1.00  0.00    -0.269 N 
HETATM   18  N4  UNL     1      19.877  -4.258  33.271  1.00  0.00    -0.003 NA
ATOM     19  H3  UNL     1      20.957  -5.521  31.981  1.00  0.00     0.185 HD
HETATM   20  N5  UNL     1      19.133  -3.185  33.068  1.00  0.00    -0.215 N 
HETATM   21  N7  UNL     1      19.140  -2.959  31.781  1.00  0.00    -0.272 N 
ATOM     22  H7  UNL     1      18.650  -2.193  31.316  1.00  0.00     0.189 HD
BRANCH  20  23
HETATM   23  C7  UNL     1      18.449  -2.429  34.129  1.00  0.00     0.186 C 
BRANCH  23  24
HETATM   24  C8  UNL     1      17.366  -1.569  33.511  1.00  0.00     0.140 C 
BRANCH  24  25
HETATM   25  N6  UNL     1      17.651  -0.185  33.625  1.00  0.00    -0.411 N 
HETATM   26  C9  UNL     1      18.997   0.143  33.904  1.00  0.00     0.117 C 
HETATM   27  C10 UNL     1      19.248   0.805  35.233  1.00  0.00     0.019 C 
HETATM   28  C11 UNL     1      18.341   2.014  35.321  1.00  0.00     0.003 C 
HETATM   29  C12 UNL     1      16.919   1.439  35.343  1.00  0.00     0.019 C 
HETATM   30  C13 UNL     1      16.632   0.664  34.108  1.00  0.00     0.117 C 
ENDBRANCH  24  25
ENDBRANCH  23  24
ENDBRANCH  20  23
ENDBRANCH  15  16
ENDBRANCH   1  15
BRANCH   1  31
HETATM   31  C14 UNL     1      21.885  -5.246  28.640  1.00  0.00    -0.007 C 
HETATM   32  C15 UNL     1      22.729  -4.944  27.414  1.00  0.00     0.053 C 
HETATM   33  C16 UNL     1      22.517  -6.034  26.416  1.00  0.00     0.006 C 
HETATM   34  C17 UNL     1      22.514  -7.417  27.025  1.00  0.00     0.001 C 
HETATM   35  C18 UNL     1      21.400  -7.568  28.044  1.00  0.00     0.006 C 
HETATM   36  C19 UNL     1      20.801  -6.172  28.324  1.00  0.00     0.053 C 
ENDBRANCH   1  31
TORSDOF 12
ENDMDL
MODEL 2
REMARK VINA RESULT: -8.908374182      2.386      4.249
REMARK  12 active torsions:
REMARK  status: ('A' for Active; 'I' for Inactive)
REMARK    1  A    between atoms: C2_2  and  N1_4 
REMARK    2  A    between atoms: N1_4  and  C4_5 
REMARK    3  A    between atoms: N1_4  and  C20_31 
REMARK    4  A    between atoms: C4_5  and  O1_6 
REMARK    5  A    between atoms: C4_5  and  N2_8 
REMARK    6  A    between atoms: N2_8  and  C5_9 
REMARK    7  A    between atoms: N2_8  and  C14_25 
REMARK    8  A    between atoms: C5_9  and  C6_10 
REMARK    9  A    between atoms: N5_14  and  C7_15 
REMARK   10  A    between atoms: C7_15  and  C8_16 
REMARK   11  A    between atoms: C8_16  and  N6_17 
REMARK   12  A    between atoms: C20_31  and  C22_33 
ROOT
HETATM    1  N2  UNL     1      21.638  -3.991  29.484  1.00  0.00    -0.313 N 
ENDROOT
BRANCH   1   2
HETATM    2  C4  UNL     1      22.367  -3.136  30.263  1.00  0.00     0.226 C 
BRANCH   2   3
HETATM    3  N1  UNL     1      22.531  -1.833  30.684  1.00  0.00    -0.308 N 
BRANCH   3   4
HETATM    4  C2  UNL     1      22.965  -1.724  32.146  1.00  0.00     0.085 C 
HETATM    5  C1  UNL     1      21.860  -1.209  32.990  1.00  0.00     0.032 C 
HETATM    6  C3  UNL     1      24.142  -0.757  32.245  1.00  0.00     0.032 C 
ENDBRANCH   3   4
BRANCH   3   7
HETATM    7  C20 UNL     1      22.348  -0.545  30.138  1.00  0.00     0.095 C 
HETATM    8  C21 UNL     1      20.887  -0.214  29.850  1.00  0.00     0.073 C 
BRANCH   7   9
HETATM    9  C22 UNL     1      23.176   0.079  29.104  1.00  0.00     0.428 C 
HETATM   10  F1  UNL     1      24.485  -0.123  29.010  1.00  0.00    -0.165 F 
HETATM   11  F2  UNL     1      22.660  -0.489  27.876  1.00  0.00    -0.165 F 
HETATM   12  F3  UNL     1      22.850   1.444  28.852  1.00  0.00    -0.165 F 
ENDBRANCH   7   9
ENDBRANCH   3   7
ENDBRANCH   2   3
BRANCH   2  13
HETATM   13  O1  UNL     1      23.338  -3.891  30.899  1.00  0.00    -0.332 OA
ATOM     14  H1  UNL     1      22.889  -4.594  31.353  1.00  0.00     0.221 HD
ENDBRANCH   2  13
ENDBRANCH   1   2
BRANCH   1  15
HETATM   15  C5  UNL     1      20.137  -3.703  29.526  1.00  0.00     0.211 C 
BRANCH  15  16
HETATM   16  C6  UNL     1      19.682  -3.650  30.898  1.00  0.00     0.128 A 
HETATM   17  N3  UNL     1      18.916  -2.684  31.433  1.00  0.00    -0.269 N 
HETATM   18  N4  UNL     1      18.727  -3.016  32.706  1.00  0.00    -0.003 NA
ATOM     19  H3  UNL     1      18.552  -1.860  30.956  1.00  0.00     0.185 HD
HETATM   20  N5  UNL     1      19.347  -4.151  32.978  1.00  0.00    -0.215 N 
HETATM   21  N7  UNL     1      19.930  -4.537  31.874  1.00  0.00    -0.272 N 
ATOM     22  H7  UNL     1      20.489  -5.384  31.770  1.00  0.00     0.189 HD
BRANCH  20  23
HETATM   23  C7  UNL     1      19.347  -4.808  34.294  1.00  0.00     0.186 C 
BRANCH  23  24
HETATM   24  C8  UNL     1      18.225  -5.824  34.345  1.00  0.00     0.140 C 
BRANCH  24  25
HETATM   25  N6  UNL     1      18.705  -7.142  34.552  1.00  0.00    -0.411 N 
HETATM   26  C9  UNL     1      20.016  -7.396  34.091  1.00  0.00     0.117 C 
HETATM   27  C10 UNL     1      20.135  -8.393  32.969  1.00  0.00     0.019 C 
HETATM   28  C11 UNL     1      19.433  -9.662  33.407  1.00  0.00     0.003 C 
HETATM   29  C12 UNL     1      17.956  -9.271  33.535  1.00  0.00     0.019 C 
HETATM   30  C13 UNL     1      17.767  -8.197  34.546  1.00  0.00     0.117 C 
ENDBRANCH  24  25
ENDBRANCH  23  24
ENDBRANCH  20  23
ENDBRANCH  15  16
ENDBRANCH   1  15
BRANCH   1  31
HETATM   31  C14 UNL     1      21.858  -5.142  28.667  1.00  0.00    -0.007 C 
HETATM   32  C15 UNL     1      22.769  -4.918  27.473  1.00  0.00     0.053 C 
HETATM   33  C16 UNL     1      22.562  -6.037  26.505  1.00  0.00     0.006 C 
HETATM   34  C17 UNL     1      22.475  -7.395  27.163  1.00  0.00     0.001 C 
HETATM   35  C18 UNL     1      21.310  -7.465  28.132  1.00  0.00     0.006 C 
HETATM   36  C19 UNL     1      20.754  -6.037  28.332  1.00  0.00     0.053 C 
ENDBRANCH   1  31
TORSDOF 12
ENDMDL
MODEL 3
REMARK VINA RESULT: -8.835226909      3.886      5.698
REMARK  12 active torsions:
REMARK  status: ('A' for Active; 'I' for Inactive)
REMARK    1  A    between atoms: C2_2  and  N1_4 
REMARK    2  A    between atoms: N1_4  and  C4_5 
REMARK    3  A    between atoms: N1_4  and  C20_31 
REMARK    4  A    between atoms: C4_5  and  O1_6 
REMARK    5  A    between atoms: C4_5  and  N2_8 
REMARK    6  A    between atoms: N2_8  and  C5_9 
REMARK    7  A    between atoms: N2_8  and  C14_25 
REMARK    8  A    between atoms: C5_9  and  C6_10 
REMARK    9  A    between atoms: N5_14  and  C7_15 
REMARK   10  A    between atoms: C7_15  and  C8_16 
REMARK   11  A    between atoms: C8_16  and  N6_17 
REMARK   12  A    between atoms: C20_31  and  C22_33 
ROOT
HETATM    1  N2  UNL     1      18.215  -1.821  32.692  1.00  0.00    -0.313 N 
ENDROOT
BRANCH   1   2
HETATM    2  C4  UNL     1      18.730  -0.726  32.056  1.00  0.00     0.226 C 
BRANCH   2   3
HETATM    3  N1  UNL     1      18.640   0.106  30.960  1.00  0.00    -0.308 N 
BRANCH   3   4
HETATM    4  C2  UNL     1      19.950   0.212  30.177  1.00  0.00     0.085 C 
HETATM    5  C1  UNL     1      19.871   1.285  29.156  1.00  0.00     0.032 C 
HETATM    6  C3  UNL     1      20.216  -1.113  29.469  1.00  0.00     0.032 C 
ENDBRANCH   3   4
BRANCH   3   7
HETATM    7  C20 UNL     1      17.666   0.949  30.385  1.00  0.00     0.095 C 
HETATM    8  C21 UNL     1      17.145   2.013  31.346  1.00  0.00     0.073 C 
BRANCH   7   9
HETATM    9  C22 UNL     1      16.561   0.526  29.521  1.00  0.00     0.428 C 
HETATM   10  F1  UNL     1      16.740  -0.218  28.436  1.00  0.00    -0.165 F 
HETATM   11  F2  UNL     1      15.770  -0.325  30.385  1.00  0.00    -0.165 F 
HETATM   12  F3  UNL     1      15.590   1.543  29.289  1.00  0.00    -0.165 F 
ENDBRANCH   7   9
ENDBRANCH   3   7
ENDBRANCH   2   3
BRANCH   2  13
HETATM   13  O1  UNL     1      19.767  -0.249  32.841  1.00  0.00    -0.332 OA
ATOM     14  H1  UNL     1      19.704  -0.689  33.680  1.00  0.00     0.221 HD
ENDBRANCH   2  13
ENDBRANCH   1   2
BRANCH   1  15
HETATM   15  C5  UNL     1      16.724  -1.684  33.000  1.00  0.00     0.211 C 
BRANCH  15  16
HETATM   16  C6  UNL     1      16.481  -0.462  33.735  1.00  0.00     0.128 A 
HETATM   17  N3  UNL     1      15.327   0.226  33.753  1.00  0.00    -0.269 N 
HETATM   18  N4  UNL     1      15.525   1.274  34.546  1.00  0.00    -0.003 NA
ATOM     19  H3  UNL     1      14.468  -0.009  33.255  1.00  0.00     0.185 HD
HETATM   20  N5  UNL     1      16.758   1.259  35.020  1.00  0.00    -0.215 N 
HETATM   21  N7  UNL     1      17.341   0.200  34.524  1.00  0.00    -0.272 N 
ATOM     22  H7  UNL     1      18.304  -0.081  34.709  1.00  0.00     0.189 HD
BRANCH  20  23
HETATM   23  C7  UNL     1      17.316   2.272  35.929  1.00  0.00     0.186 C 
BRANCH  23  24
HETATM   24  C8  UNL     1      18.719   2.627  35.483  1.00  0.00     0.140 C 
BRANCH  24  25
HETATM   25  N6  UNL     1      19.705   2.142  36.379  1.00  0.00    -0.411 N 
HETATM   26  C9  UNL     1      20.321   3.116  37.197  1.00  0.00     0.117 C 
HETATM   27  C10 UNL     1      21.793   3.331  36.965  1.00  0.00     0.019 C 
HETATM   28  C11 UNL     1      22.476   1.984  37.076  1.00  0.00     0.003 C 
HETATM   29  C12 UNL     1      21.928   1.166  35.900  1.00  0.00     0.019 C 
HETATM   30  C13 UNL     1      20.453   1.010  35.992  1.00  0.00     0.117 C 
ENDBRANCH  24  25
ENDBRANCH  23  24
ENDBRANCH  20  23
ENDBRANCH  15  16
ENDBRANCH   1  15
BRANCH   1  31
HETATM   31  C14 UNL     1      18.677  -3.064  33.222  1.00  0.00    -0.007 C 
HETATM   32  C15 UNL     1      19.642  -3.825  32.330  1.00  0.00     0.053 C 
HETATM   33  C16 UNL     1      19.692  -5.245  32.791  1.00  0.00     0.006 C 
HETATM   34  C17 UNL     1      19.758  -5.388  34.294  1.00  0.00     0.001 C 
HETATM   35  C18 UNL     1      18.539  -4.778  34.961  1.00  0.00     0.006 C 
HETATM   36  C19 UNL     1      17.755  -3.970  33.902  1.00  0.00     0.053 C 
ENDBRANCH   1  31
TORSDOF 12
ENDMDL
MODEL 4
REMARK VINA RESULT: -8.797459437      3.272      7.636
REMARK  12 active torsions:
REMARK  status: ('A' for Active; 'I' for Inactive)
REMARK    1  A    between atoms: C2_2  and  N1_4 
REMARK    2  A    between atoms: N1_4  and  C4_5 
REMARK    3  A    between atoms: N1_4  and  C20_31 
REMARK    4  A    between atoms: C4_5  and  O1_6 
REMARK    5  A    between atoms: C4_5  and  N2_8 
REMARK    6  A    between atoms: N2_8  and  C5_9 
REMARK    7  A    between atoms: N2_8  and  C14_25 
REMARK    8  A    between atoms: C5_9  and  C6_10 
REMARK    9  A    between atoms: N5_14  and  C7_15 
REMARK   10  A    between atoms: C7_15  and  C8_16 
REMARK   11  A    between atoms: C8_16  and  N6_17 
REMARK   12  A    between atoms: C20_31  and  C22_33 
ROOT
HETATM    1  N2  UNL     1      18.482  -1.776  32.658  1.00  0.00    -0.313 N 
ENDROOT
BRANCH   1   2
HETATM    2  C4  UNL     1      18.222  -0.554  33.212  1.00  0.00     0.226 C 
BRANCH   2   3
HETATM    3  N1  UNL     1      17.280   0.247  33.823  1.00  0.00    -0.308 N 
BRANCH   3   4
HETATM    4  C2  UNL     1      16.041   0.485  32.959  1.00  0.00     0.085 C 
HETATM    5  C1  UNL     1      15.305  -0.782  32.729  1.00  0.00     0.032 C 
HETATM    6  C3  UNL     1      16.476   1.045  31.607  1.00  0.00     0.032 C 
ENDBRANCH   3   4
BRANCH   3   7
HETATM    7  C20 UNL     1      17.171   0.969  35.031  1.00  0.00     0.095 C 
HETATM    8  C21 UNL     1      15.892   1.795  35.126  1.00  0.00     0.073 C 
BRANCH   7   9
HETATM    9  C22 UNL     1      18.248   1.706  35.695  1.00  0.00     0.428 C 
HETATM   10  F1  UNL     1      19.431   1.165  35.963  1.00  0.00    -0.165 F 
HETATM   11  F2  UNL     1      18.565   2.756  34.750  1.00  0.00    -0.165 F 
HETATM   12  F3  UNL     1      17.804   2.525  36.773  1.00  0.00    -0.165 F 
ENDBRANCH   7   9
ENDBRANCH   3   7
ENDBRANCH   2   3
BRANCH   2  13
HETATM   13  O1  UNL     1      19.390   0.185  33.135  1.00  0.00    -0.332 OA
ATOM     14  H1  UNL     1      19.256   0.846  32.466  1.00  0.00     0.221 HD
ENDBRANCH   2  13
ENDBRANCH   1   2
BRANCH   1  15
HETATM   15  C5  UNL     1      18.483  -1.749  31.130  1.00  0.00     0.211 C 
BRANCH  15  16
HETATM   16  C6  UNL     1      19.842  -1.761  30.635  1.00  0.00     0.128 A 
HETATM   17  N3  UNL     1      20.757  -0.798  30.836  1.00  0.00    -0.269 N 
HETATM   18  N4  UNL     1      21.866  -1.199  30.222  1.00  0.00    -0.003 NA
ATOM     19  H3  UNL     1      20.627   0.069  31.356  1.00  0.00     0.185 HD
HETATM   20  N5  UNL     1      21.671  -2.374  29.650  1.00  0.00    -0.215 N 
HETATM   21  N7  UNL     1      20.435  -2.716  29.902  1.00  0.00    -0.272 N 
ATOM     22  H7  UNL     1      19.989  -3.578  29.589  1.00  0.00     0.189 HD
BRANCH  20  23
HETATM   23  C7  UNL     1      22.689  -3.110  28.885  1.00  0.00     0.186 C 
BRANCH  23  24
HETATM   24  C8  UNL     1      23.247  -4.228  29.741  1.00  0.00     0.140 C 
BRANCH  24  25
HETATM   25  N6  UNL     1      23.009  -5.506  29.176  1.00  0.00    -0.411 N 
HETATM   26  C9  UNL     1      23.721  -5.794  27.990  1.00  0.00     0.117 C 
HETATM   27  C10 UNL     1      22.884  -5.982  26.752  1.00  0.00     0.019 C 
HETATM   28  C11 UNL     1      21.844  -7.039  27.059  1.00  0.00     0.003 C 
HETATM   29  C12 UNL     1      20.953  -6.414  28.139  1.00  0.00     0.019 C 
HETATM   30  C13 UNL     1      21.735  -6.085  29.360  1.00  0.00     0.117 C 
ENDBRANCH  24  25
ENDBRANCH  23  24
ENDBRANCH  20  23
ENDBRANCH  15  16
ENDBRANCH   1  15
BRANCH   1  31
HETATM   31  C14 UNL     1      18.699  -3.121  33.090  1.00  0.00    -0.007 C 
HETATM   32  C15 UNL     1      17.718  -3.627  34.133  1.00  0.00     0.053 C 
HETATM   33  C16 UNL     1      18.307  -4.834  34.787  1.00  0.00     0.006 C 
HETATM   34  C17 UNL     1      18.957  -5.790  33.814  1.00  0.00     0.001 C 
HETATM   35  C18 UNL     1      20.098  -5.126  33.067  1.00  0.00     0.006 C 
HETATM   36  C19 UNL     1      20.051  -3.608  33.350  1.00  0.00     0.053 C 
ENDBRANCH   1  31
TORSDOF 12
ENDMDL
MODEL 5
REMARK VINA RESULT: -8.792845542      3.580      8.110
REMARK  12 active torsions:
REMARK  status: ('A' for Active; 'I' for Inactive)
REMARK    1  A    between atoms: C2_2  and  N1_4 
REMARK    2  A    between atoms: N1_4  and  C4_5 
REMARK    3  A    between atoms: N1_4  and  C20_31 
REMARK    4  A    between atoms: C4_5  and  O1_6 
REMARK    5  A    between atoms: C4_5  and  N2_8 
REMARK    6  A    between atoms: N2_8  and  C5_9 
REMARK    7  A    between atoms: N2_8  and  C14_25 
REMARK    8  A    between atoms: C5_9  and  C6_10 
REMARK    9  A    between atoms: N5_14  and  C7_15 
REMARK   10  A    between atoms: C7_15  and  C8_16 
REMARK   11  A    between atoms: C8_16  and  N6_17 
REMARK   12  A    between atoms: C20_31  and  C22_33 
ROOT
HETATM    1  N2  UNL     1      19.171  -0.494  33.519  1.00  0.00    -0.313 N 
ENDROOT
BRANCH   1   2
HETATM    2  C4  UNL     1      18.488   0.092  32.490  1.00  0.00     0.226 C 
BRANCH   2   3
HETATM    3  N1  UNL     1      17.333   0.744  32.109  1.00  0.00    -0.308 N 
BRANCH   3   4
HETATM    4  C2  UNL     1      17.204   0.903  30.594  1.00  0.00     0.085 C 
HETATM    5  C1  UNL     1      16.923   2.313  30.232  1.00  0.00     0.032 C 
HETATM    6  C3  UNL     1      16.050   0.035  30.098  1.00  0.00     0.032 C 
ENDBRANCH   3   4
BRANCH   3   7
HETATM    7  C20 UNL     1      16.244   1.368  32.754  1.00  0.00     0.095 C 
HETATM    8  C21 UNL     1      16.615   2.688  33.423  1.00  0.00     0.073 C 
BRANCH   7   9
HETATM    9  C22 UNL     1      15.231   0.702  33.575  1.00  0.00     0.428 C 
HETATM   10  F1  UNL     1      14.748  -0.500  33.287  1.00  0.00    -0.165 F 
HETATM   11  F2  UNL     1      15.909   0.498  34.839  1.00  0.00    -0.165 F 
HETATM   12  F3  UNL     1      14.199   1.572  34.033  1.00  0.00    -0.165 F 
ENDBRANCH   7   9
ENDBRANCH   3   7
ENDBRANCH   2   3
BRANCH   2  13
HETATM   13  O1  UNL     1      19.288  -0.001  31.364  1.00  0.00    -0.332 OA
ATOM     14  H1  UNL     1      20.079  -0.459  31.623  1.00  0.00     0.221 HD
ENDBRANCH   2  13
ENDBRANCH   1   2
BRANCH   1  15
HETATM   15  C5  UNL     1      18.551  -1.818  33.968  1.00  0.00     0.211 C 
BRANCH  15  16
HETATM   16  C6  UNL     1      19.141  -2.915  33.232  1.00  0.00     0.128 A 
HETATM   17  N3  UNL     1      19.537  -4.087  33.756  1.00  0.00    -0.269 N 
HETATM   18  N4  UNL     1      20.015  -4.808  32.748  1.00  0.00    -0.003 NA
ATOM     19  H3  UNL     1      19.483  -4.367  34.735  1.00  0.00     0.185 HD
HETATM   20  N5  UNL     1      19.928  -4.126  31.619  1.00  0.00    -0.215 N 
HETATM   21  N7  UNL     1      19.395  -2.971  31.915  1.00  0.00    -0.272 N 
ATOM     22  H7  UNL     1      19.201  -2.225  31.248  1.00  0.00     0.189 HD
BRANCH  20  23
HETATM   23  C7  UNL     1      20.366  -4.625  30.306  1.00  0.00     0.186 C 
BRANCH  23  24
HETATM   24  C8  UNL     1      21.880  -4.670  30.268  1.00  0.00     0.140 C 
BRANCH  24  25
HETATM   25  N6  UNL     1      22.364  -5.743  29.478  1.00  0.00    -0.411 N 
HETATM   26  C9  UNL     1      23.281  -5.390  28.463  1.00  0.00     0.117 C 
HETATM   27  C10 UNL     1      22.816  -5.621  27.050  1.00  0.00     0.019 C 
HETATM   28  C11 UNL     1      22.380  -7.067  26.942  1.00  0.00     0.003 C 
HETATM   29  C12 UNL     1      21.160  -7.182  27.864  1.00  0.00     0.019 C 
HETATM   30  C13 UNL     1      21.513  -6.849  29.269  1.00  0.00     0.117 C 
ENDBRANCH  24  25
ENDBRANCH  23  24
ENDBRANCH  20  23
ENDBRANCH  15  16
ENDBRANCH   1  15
BRANCH   1  31
HETATM   31  C14 UNL     1      20.286  -0.204  34.363  1.00  0.00    -0.007 C 
HETATM   32  C15 UNL     1      20.058   0.914  35.366  1.00  0.00     0.053 C 
HETATM   33  C16 UNL     1      21.389   1.386  35.855  1.00  0.00     0.006 C 
HETATM   34  C17 UNL     1      22.353   0.263  36.160  1.00  0.00     0.001 C 
HETATM   35  C18 UNL     1      22.638  -0.570  34.924  1.00  0.00     0.006 C 
HETATM   36  C19 UNL     1      21.639  -0.161  33.818  1.00  0.00     0.053 C 
ENDBRANCH   1  31
TORSDOF 12
ENDMDL
