MODEL 1
REMARK VINA RESULT: -5.320968657      0.000      0.000
REMARK  5 active torsions:
REMARK  status: ('A' for Active; 'I' for Inactive)
REMARK    1  A    between atoms: C2_2  and  N3_15 
REMARK    2  A    between atoms: N1_3  and  N2_5 
REMARK    3  A    between atoms: N2_5  and  C3_7 
REMARK    4  A    between atoms: N3_15  and  N4_17 
REMARK    5  A    between atoms: C9_19  and  C11_21 
ROOT
HETATM    1  C1  UNL     1      34.594   4.218  54.890  1.00  0.00     0.092 C 
HETATM    2  C2  UNL     1      34.385   2.744  54.957  1.00  0.00     0.106 C 
HETATM    3  N1  UNL     1      35.199   1.974  54.334  1.00  0.00    -0.288 N 
ATOM      4  H1  UNL     1      35.971   2.382  53.807  1.00  0.00     0.188 HD
ENDROOT
BRANCH   3   5
HETATM    5  N2  UNL     1      35.047   0.598  54.367  1.00  0.00    -0.299 N 
ATOM      6  H2  UNL     1      34.950   0.116  55.260  1.00  0.00     0.187 HD
BRANCH   5   7
HETATM    7  C3  UNL     1      35.028  -0.145  53.144  1.00  0.00     0.051 A 
HETATM    8  C4  UNL     1      34.620  -1.468  53.136  1.00  0.00     0.054 A 
HETATM    9  C5  UNL     1      34.595  -2.189  51.983  1.00  0.00     0.037 A 
HETATM   10 CL1  UNL     1      34.081  -3.880  51.933  1.00  0.00    -0.084 Cl
HETATM   11  C6  UNL     1      34.988  -1.569  50.815  1.00  0.00     0.048 A 
HETATM   12  C7  UNL     1      35.399  -0.255  50.789  1.00  0.00     0.037 A 
HETATM   13 CL2  UNL     1      35.900   0.548  49.325  1.00  0.00    -0.084 Cl
HETATM   14  C8  UNL     1      35.418   0.460  51.963  1.00  0.00     0.054 A 
ENDBRANCH   5   7
ENDBRANCH   3   5
BRANCH   2  15
HETATM   15  N3  UNL     1      33.322   2.167  55.683  1.00  0.00    -0.288 N 
ATOM     16  H3  UNL     1      33.259   1.153  55.773  1.00  0.00     0.188 HD
BRANCH  15  17
HETATM   17  N4  UNL     1      32.365   2.973  56.275  1.00  0.00    -0.305 N 
HETATM   18  C9  UNL     1      31.163   3.011  55.806  1.00  0.00     0.033 C 
HETATM   19  C10 UNL     1      30.209   3.922  56.529  1.00  0.00     0.068 C 
ATOM     20  H4  UNL     1      32.611   3.541  57.087  1.00  0.00     0.186 HD
BRANCH  18  21
HETATM   21  C11 UNL     1      30.711   2.232  54.643  1.00  0.00     0.224 C 
HETATM   22 CL3  UNL     1      29.022   1.667  54.830  1.00  0.00    -0.102 Cl
HETATM   23 CL4  UNL     1      30.832   3.145  53.121  1.00  0.00    -0.102 Cl
ENDBRANCH  18  21
ENDBRANCH  15  17
ENDBRANCH   2  15
TORSDOF 5
ENDMDL
MODEL 2
REMARK VINA RESULT: -5.310252590      0.167      2.088
REMARK  5 active torsions:
REMARK  status: ('A' for Active; 'I' for Inactive)
REMARK    1  A    between atoms: C2_2  and  N3_15 
REMARK    2  A    between atoms: N1_3  and  N2_5 
REMARK    3  A    between atoms: N2_5  and  C3_7 
REMARK    4  A    between atoms: N3_15  and  N4_17 
REMARK    5  A    between atoms: C9_19  and  C11_21 
ROOT
HETATM    1  C1  UNL     1      34.617   4.330  54.852  1.00  0.00     0.092 C 
HETATM    2  C2  UNL     1      34.469   2.848  54.929  1.00  0.00     0.106 C 
HETATM    3  N1  UNL     1      35.369   2.108  54.395  1.00  0.00    -0.288 N 
ATOM      4  H1  UNL     1      36.166   2.543  53.930  1.00  0.00     0.188 HD
ENDROOT
BRANCH   3   5
HETATM    5  N2  UNL     1      35.276   0.727  54.440  1.00  0.00    -0.299 N 
ATOM      6  H2  UNL     1      35.277   0.244  55.338  1.00  0.00     0.187 HD
BRANCH   5   7
HETATM    7  C3  UNL     1      35.180  -0.021  53.223  1.00  0.00     0.051 A 
HETATM    8  C4  UNL     1      35.584   0.540  52.024  1.00  0.00     0.054 A 
HETATM    9  C5  UNL     1      35.499  -0.156  50.858  1.00  0.00     0.037 A 
HETATM   10 CL1  UNL     1      36.004   0.526  49.307  1.00  0.00    -0.084 Cl
HETATM   11  C6  UNL     1      34.998  -1.440  50.899  1.00  0.00     0.048 A 
HETATM   12  C7  UNL     1      34.588  -2.027  52.075  1.00  0.00     0.037 A 
HETATM   13 CL2  UNL     1      33.951  -3.649  52.149  1.00  0.00    -0.084 Cl
HETATM   14  C8  UNL     1      34.680  -1.310  53.244  1.00  0.00     0.054 A 
ENDBRANCH   5   7
ENDBRANCH   3   5
BRANCH   2  15
HETATM   15  N3  UNL     1      33.372   2.234  55.569  1.00  0.00    -0.288 N 
ATOM     16  H3  UNL     1      33.288   1.218  55.568  1.00  0.00     0.188 HD
BRANCH  15  17
HETATM   17  N4  UNL     1      32.412   3.007  56.199  1.00  0.00    -0.305 N 
HETATM   18  C9  UNL     1      31.194   3.011  55.770  1.00  0.00     0.033 C 
HETATM   19  C10 UNL     1      30.237   3.888  56.530  1.00  0.00     0.068 C 
ATOM     20  H4  UNL     1      32.667   3.575  57.006  1.00  0.00     0.186 HD
BRANCH  18  21
HETATM   21  C11 UNL     1      30.728   2.227  54.615  1.00  0.00     0.224 C 
HETATM   22 CL3  UNL     1      29.049   1.643  54.837  1.00  0.00    -0.102 Cl
HETATM   23 CL4  UNL     1      30.808   3.141  53.091  1.00  0.00    -0.102 Cl
ENDBRANCH  18  21
ENDBRANCH  15  17
ENDBRANCH   2  15
TORSDOF 5
ENDMDL
MODEL 3
REMARK VINA RESULT: -5.207415776      2.262      6.669
REMARK  5 active torsions:
REMARK  status: ('A' for Active; 'I' for Inactive)
REMARK    1  A    between atoms: C2_2  and  N3_15 
REMARK    2  A    between atoms: N1_3  and  N2_5 
REMARK    3  A    between atoms: N2_5  and  C3_7 
REMARK    4  A    between atoms: N3_15  and  N4_17 
REMARK    5  A    between atoms: C9_19  and  C11_21 
ROOT
HETATM    1  C1  UNL     1      36.661  -1.519  54.284  1.00  0.00     0.092 C 
HETATM    2  C2  UNL     1      35.250  -1.190  53.932  1.00  0.00     0.106 C 
HETATM    3  N1  UNL     1      34.475  -0.735  54.845  1.00  0.00    -0.288 N 
ATOM      4  H1  UNL     1      34.834  -0.605  55.791  1.00  0.00     0.188 HD
ENDROOT
BRANCH   3   5
HETATM    5  N2  UNL     1      33.156  -0.415  54.567  1.00  0.00    -0.299 N 
ATOM      6  H2  UNL     1      32.495  -1.149  54.315  1.00  0.00     0.187 HD
BRANCH   5   7
HETATM    7  C3  UNL     1      32.724   0.948  54.636  1.00  0.00     0.051 A 
HETATM    8  C4  UNL     1      33.651   1.972  54.727  1.00  0.00     0.054 A 
HETATM    9  C5  UNL     1      33.257   3.272  54.793  1.00  0.00     0.037 A 
HETATM   10 CL1  UNL     1      34.411   4.607  54.909  1.00  0.00    -0.084 Cl
HETATM   11  C6  UNL     1      31.906   3.549  54.769  1.00  0.00     0.048 A 
HETATM   12  C7  UNL     1      30.959   2.553  54.680  1.00  0.00     0.037 A 
HETATM   13 CL2  UNL     1      29.247   2.880  54.649  1.00  0.00    -0.084 Cl
HETATM   14  C8  UNL     1      31.373   1.244  54.614  1.00  0.00     0.054 A 
ENDBRANCH   5   7
ENDBRANCH   3   5
BRANCH   2  15
HETATM   15  N3  UNL     1      34.741  -1.364  52.629  1.00  0.00    -0.288 N 
ATOM     16  H3  UNL     1      33.780  -1.093  52.418  1.00  0.00     0.188 HD
BRANCH  15  17
HETATM   17  N4  UNL     1      35.541  -1.901  51.634  1.00  0.00    -0.305 N 
HETATM   18  C9  UNL     1      36.022  -1.145  50.706  1.00  0.00     0.033 C 
HETATM   19  C10 UNL     1      36.876  -1.836  49.678  1.00  0.00     0.068 C 
ATOM     20  H4  UNL     1      35.751  -2.900  51.636  1.00  0.00     0.186 HD
BRANCH  18  21
HETATM   21  C11 UNL     1      35.777   0.303  50.616  1.00  0.00     0.224 C 
HETATM   22 CL3  UNL     1      36.907   1.238  51.645  1.00  0.00    -0.102 Cl
HETATM   23 CL4  UNL     1      35.897   0.915  48.951  1.00  0.00    -0.102 Cl
ENDBRANCH  18  21
ENDBRANCH  15  17
ENDBRANCH   2  15
TORSDOF 5
ENDMDL
MODEL 4
REMARK VINA RESULT: -5.181007766      2.107      6.524
REMARK  5 active torsions:
REMARK  status: ('A' for Active; 'I' for Inactive)
REMARK    1  A    between atoms: C2_2  and  N3_15 
REMARK    2  A    between atoms: N1_3  and  N2_5 
REMARK    3  A    between atoms: N2_5  and  C3_7 
REMARK    4  A    between atoms: N3_15  and  N4_17 
REMARK    5  A    between atoms: C9_19  and  C11_21 
ROOT
HETATM    1  C1  UNL     1      34.096  -2.590  52.263  1.00  0.00     0.092 C 
HETATM    2  C2  UNL     1      34.317  -1.582  53.339  1.00  0.00     0.106 C 
HETATM    3  N1  UNL     1      33.342  -1.281  54.115  1.00  0.00    -0.288 N 
ATOM      4  H1  UNL     1      32.438  -1.734  53.983  1.00  0.00     0.188 HD
ENDROOT
BRANCH   3   5
HETATM    5  N2  UNL     1      33.498  -0.351  55.129  1.00  0.00    -0.299 N 
ATOM      6  H2  UNL     1      33.963  -0.615  55.997  1.00  0.00     0.187 HD
BRANCH   5   7
HETATM    7  C3  UNL     1      33.004   0.982  54.956  1.00  0.00     0.051 A 
HETATM    8  C4  UNL     1      31.654   1.205  54.745  1.00  0.00     0.054 A 
HETATM    9  C5  UNL     1      31.168   2.465  54.578  1.00  0.00     0.037 A 
HETATM   10 CL1  UNL     1      29.452   2.791  54.307  1.00  0.00    -0.084 Cl
HETATM   11  C6  UNL     1      32.056   3.519  54.623  1.00  0.00     0.048 A 
HETATM   12  C7  UNL     1      33.404   3.330  54.831  1.00  0.00     0.037 A 
HETATM   13 CL2  UNL     1      34.543   4.649  54.892  1.00  0.00    -0.084 Cl
HETATM   14  C8  UNL     1      33.879   2.052  54.998  1.00  0.00     0.054 A 
ENDBRANCH   5   7
ENDBRANCH   3   5
BRANCH   2  15
HETATM   15  N3  UNL     1      35.562  -0.949  53.532  1.00  0.00    -0.288 N 
ATOM     16  H3  UNL     1      35.645  -0.183  54.200  1.00  0.00     0.188 HD
BRANCH  15  17
HETATM   17  N4  UNL     1      36.673  -1.365  52.817  1.00  0.00    -0.305 N 
HETATM   18  C9  UNL     1      37.095  -0.677  51.810  1.00  0.00     0.033 C 
HETATM   19  C10 UNL     1      38.309  -1.224  51.109  1.00  0.00     0.068 C 
ATOM     20  H4  UNL     1      37.160  -2.220  53.088  1.00  0.00     0.186 HD
BRANCH  18  21
HETATM   21  C11 UNL     1      36.463   0.567  51.342  1.00  0.00     0.224 C 
HETATM   22 CL3  UNL     1      37.675   1.816  50.919  1.00  0.00    -0.102 Cl
HETATM   23 CL4  UNL     1      35.409   0.308  49.933  1.00  0.00    -0.102 Cl
ENDBRANCH  18  21
ENDBRANCH  15  17
ENDBRANCH   2  15
TORSDOF 5
ENDMDL
MODEL 5
REMARK VINA RESULT: -5.145456201      2.128      6.679
REMARK  5 active torsions:
REMARK  status: ('A' for Active; 'I' for Inactive)
REMARK    1  A    between atoms: C2_2  and  N3_15 
REMARK    2  A    between atoms: N1_3  and  N2_5 
REMARK    3  A    between atoms: N2_5  and  C3_7 
REMARK    4  A    between atoms: N3_15  and  N4_17 
REMARK    5  A    between atoms: C9_19  and  C11_21 
ROOT
HETATM    1  C1  UNL     1      33.963  -2.650  52.309  1.00  0.00     0.092 C 
HETATM    2  C2  UNL     1      34.206  -1.635  53.374  1.00  0.00     0.106 C 
HETATM    3  N1  UNL     1      33.244  -1.319  54.158  1.00  0.00    -0.288 N 
ATOM      4  H1  UNL     1      32.334  -1.764  54.041  1.00  0.00     0.188 HD
ENDROOT
BRANCH   3   5
HETATM    5  N2  UNL     1      33.420  -0.382  55.163  1.00  0.00    -0.299 N 
ATOM      6  H2  UNL     1      33.873  -0.649  56.037  1.00  0.00     0.187 HD
BRANCH   5   7
HETATM    7  C3  UNL     1      32.965   0.962  54.972  1.00  0.00     0.051 A 
HETATM    8  C4  UNL     1      33.860   2.016  55.017  1.00  0.00     0.054 A 
HETATM    9  C5  UNL     1      33.445   3.299  54.838  1.00  0.00     0.037 A 
HETATM   10 CL1  UNL     1      34.557   4.672  54.888  1.00  0.00    -0.084 Cl
HETATM   11  C6  UNL     1      32.104   3.526  54.610  1.00  0.00     0.048 A 
HETATM   12  C7  UNL     1      31.188   2.499  54.560  1.00  0.00     0.037 A 
HETATM   13 CL2  UNL     1      29.488   2.764  54.274  1.00  0.00    -0.084 Cl
HETATM   14  C8  UNL     1      31.624   1.209  54.743  1.00  0.00     0.054 A 
ENDBRANCH   5   7
ENDBRANCH   3   5
BRANCH   2  15
HETATM   15  N3  UNL     1      35.460  -1.012  53.547  1.00  0.00    -0.288 N 
ATOM     16  H3  UNL     1      35.559  -0.247  54.213  1.00  0.00     0.188 HD
BRANCH  15  17
HETATM   17  N4  UNL     1      36.556  -1.438  52.815  1.00  0.00    -0.305 N 
HETATM   18  C9  UNL     1      37.005  -0.723  51.839  1.00  0.00     0.033 C 
HETATM   19  C10 UNL     1      38.199  -1.284  51.115  1.00  0.00     0.068 C 
ATOM     20  H4  UNL     1      37.011  -2.321  53.049  1.00  0.00     0.186 HD
BRANCH  18  21
HETATM   21  C11 UNL     1      36.420   0.562  51.425  1.00  0.00     0.224 C 
HETATM   22 CL3  UNL     1      37.676   1.748  50.951  1.00  0.00    -0.102 Cl
HETATM   23 CL4  UNL     1      35.276   0.388  50.075  1.00  0.00    -0.102 Cl
ENDBRANCH  18  21
ENDBRANCH  15  17
ENDBRANCH   2  15
TORSDOF 5
ENDMDL
