MODEL 1
REMARK VINA RESULT: -7.063784124      0.000      0.000
REMARK  4 active torsions:
REMARK  status: ('A' for Active; 'I' for Inactive)
REMARK    1  A    between atoms: C7_9  and  O1_10 
REMARK    2  A    between atoms: O1_10  and  C8_11 
REMARK    3  A    between atoms: C9_14  and  N2_15 
REMARK    4  A    between atoms: C10_20  and  C11_21 
ROOT
HETATM    1  C8  UNL     1      34.279   1.653  54.557  1.00  0.00     0.204 A 
HETATM    2  N1  UNL     1      34.900   2.834  54.609  1.00  0.00    -0.167 N 
ATOM      3  H1  UNL     1      35.907   2.867  54.447  1.00  0.00     0.186 HD
HETATM    4  C9  UNL     1      34.246   3.989  54.868  1.00  0.00     0.678 A 
HETATM    5  N3  UNL     1      32.928   3.936  55.076  1.00  0.00    -0.192 N 
ATOM      6  H3  UNL     1      32.436   4.808  55.271  1.00  0.00     0.184 HD
HETATM    7  C10 UNL     1      32.210   2.794  55.044  1.00  0.00     0.073 A 
HETATM    8  C14 UNL     1      32.926   1.626  54.775  1.00  0.00     0.191 A 
HETATM    9  F2  UNL     1      32.269   0.448  54.729  1.00  0.00    -0.199 F 
ENDROOT
BRANCH   1  10
HETATM   10  O1  UNL     1      34.957   0.510  54.297  1.00  0.00    -0.287 OA
BRANCH  10  11
HETATM   11  C7  UNL     1      35.294  -0.007  53.081  1.00  0.00     0.124 A 
HETATM   12  C5  UNL     1      34.747  -1.183  52.626  1.00  0.00    -0.000 A 
HETATM   13  C4  UNL     1      35.133  -1.646  51.390  1.00  0.00     0.082 A 
HETATM   14  C6  UNL     1      33.755  -1.964  53.426  1.00  0.00     0.053 C 
HETATM   15  C3  UNL     1      36.042  -0.973  50.604  1.00  0.00     0.147 A 
HETATM   16 CL1  UNL     1      34.442  -3.159  50.781  1.00  0.00    -0.080 Cl
HETATM   17  C2  UNL     1      36.602   0.208  51.043  1.00  0.00     0.020 A 
HETATM   18  F1  UNL     1      36.407  -1.462  49.373  1.00  0.00    -0.204 F 
HETATM   19  C1  UNL     1      37.590   0.961  50.216  1.00  0.00     0.055 C 
HETATM   20  C15 UNL     1      36.197   0.656  52.293  1.00  0.00     0.159 A 
HETATM   21  F3  UNL     1      36.778   1.836  52.693  1.00  0.00    -0.202 F 
ENDBRANCH  10  11
ENDBRANCH   1  10
BRANCH   4  22
HETATM   22  N2  UNL     1      34.850   5.129  54.917  1.00  0.00    -0.234 N 
ATOM     23  H22 UNL     1      35.668   5.288  54.329  1.00  0.00     0.174 HD
ATOM     24  H21 UNL     1      34.540   5.885  55.528  1.00  0.00     0.174 HD
ENDBRANCH   4  22
BRANCH   7  25
HETATM   25  C11 UNL     1      30.760   2.732  55.274  1.00  0.00     0.031 C 
HETATM   26  C12 UNL     1      30.076   3.003  53.944  1.00  0.00     0.016 C 
HETATM   27  C13 UNL     1      30.309   3.791  56.244  1.00  0.00     0.016 C 
ENDBRANCH   7  25
TORSDOF 4
ENDMDL
MODEL 2
REMARK VINA RESULT: -7.003569212      0.986      1.115
REMARK  4 active torsions:
REMARK  status: ('A' for Active; 'I' for Inactive)
REMARK    1  A    between atoms: C7_9  and  O1_10 
REMARK    2  A    between atoms: O1_10  and  C8_11 
REMARK    3  A    between atoms: C9_14  and  N2_15 
REMARK    4  A    between atoms: C10_20  and  C11_21 
ROOT
HETATM    1  C8  UNL     1      34.197   1.473  54.676  1.00  0.00     0.204 A 
HETATM    2  N1  UNL     1      34.849   2.639  54.671  1.00  0.00    -0.167 N 
ATOM      3  H1  UNL     1      35.859   2.635  54.535  1.00  0.00     0.186 HD
HETATM    4  C9  UNL     1      34.220   3.825  54.838  1.00  0.00     0.678 A 
HETATM    5  N3  UNL     1      32.896   3.819  55.013  1.00  0.00    -0.192 N 
ATOM      6  H3  UNL     1      32.424   4.714  55.138  1.00  0.00     0.184 HD
HETATM    7  C10 UNL     1      32.148   2.696  55.033  1.00  0.00     0.073 A 
HETATM    8  C14 UNL     1      32.838   1.495  54.858  1.00  0.00     0.191 A 
HETATM    9  F2  UNL     1      32.150   0.334  54.868  1.00  0.00    -0.199 F 
ENDROOT
BRANCH   1  10
HETATM   10  O1  UNL     1      34.849   0.299  54.507  1.00  0.00    -0.287 OA
BRANCH  10  11
HETATM   11  C7  UNL     1      34.839  -0.517  53.415  1.00  0.00     0.124 A 
HETATM   12  C5  UNL     1      34.351  -1.800  53.484  1.00  0.00    -0.000 A 
HETATM   13  C4  UNL     1      34.371  -2.567  52.342  1.00  0.00     0.082 A 
HETATM   14  C6  UNL     1      33.803  -2.379  54.748  1.00  0.00     0.053 C 
HETATM   15  C3  UNL     1      34.862  -2.092  51.146  1.00  0.00     0.147 A 
HETATM   16 CL1  UNL     1      33.748  -4.223  52.405  1.00  0.00    -0.080 Cl
HETATM   17  C2  UNL     1      35.356  -0.808  51.057  1.00  0.00     0.020 A 
HETATM   18  F1  UNL     1      34.869  -2.884  50.024  1.00  0.00    -0.204 F 
HETATM   19  C1  UNL     1      35.895  -0.263  49.777  1.00  0.00     0.055 C 
HETATM   20  C15 UNL     1      35.324  -0.053  52.221  1.00  0.00     0.159 A 
HETATM   21  F3  UNL     1      35.826   1.221  52.090  1.00  0.00    -0.202 F 
ENDBRANCH  10  11
ENDBRANCH   1  10
BRANCH   4  22
HETATM   22  N2  UNL     1      34.853   4.950  54.832  1.00  0.00    -0.234 N 
ATOM     23  H22 UNL     1      35.793   4.997  55.226  1.00  0.00     0.174 HD
ATOM     24  H21 UNL     1      34.448   5.803  54.448  1.00  0.00     0.174 HD
ENDBRANCH   4  22
BRANCH   7  25
HETATM   25  C11 UNL     1      30.691   2.687  55.226  1.00  0.00     0.031 C 
HETATM   26  C12 UNL     1      30.051   2.997  53.883  1.00  0.00     0.016 C 
HETATM   27  C13 UNL     1      30.256   3.752  56.196  1.00  0.00     0.016 C 
ENDBRANCH   7  25
TORSDOF 4
ENDMDL
MODEL 3
REMARK VINA RESULT: -6.681387278      1.529      2.345
REMARK  4 active torsions:
REMARK  status: ('A' for Active; 'I' for Inactive)
REMARK    1  A    between atoms: C7_9  and  O1_10 
REMARK    2  A    between atoms: O1_10  and  C8_11 
REMARK    3  A    between atoms: C9_14  and  N2_15 
REMARK    4  A    between atoms: C10_20  and  C11_21 
ROOT
HETATM    1  C8  UNL     1      34.410   1.654  54.594  1.00  0.00     0.204 A 
HETATM    2  N1  UNL     1      35.009   2.848  54.632  1.00  0.00    -0.167 N 
ATOM      3  H1  UNL     1      36.019   2.894  54.498  1.00  0.00     0.186 HD
HETATM    4  C9  UNL     1      34.327   3.997  54.843  1.00  0.00     0.678 A 
HETATM    5  N3  UNL     1      33.005   3.925  55.016  1.00  0.00    -0.192 N 
ATOM      6  H3  UNL     1      32.493   4.792  55.174  1.00  0.00     0.184 HD
HETATM    7  C10 UNL     1      32.308   2.769  54.994  1.00  0.00     0.073 A 
HETATM    8  C14 UNL     1      33.052   1.608  54.776  1.00  0.00     0.191 A 
HETATM    9  F2  UNL     1      32.417   0.418  54.742  1.00  0.00    -0.199 F 
ENDROOT
BRANCH   1  10
HETATM   10  O1  UNL     1      35.115   0.518  54.382  1.00  0.00    -0.287 OA
BRANCH  10  11
HETATM   11  C7  UNL     1      35.355  -0.112  53.197  1.00  0.00     0.124 A 
HETATM   12  C5  UNL     1      36.283   0.371  52.305  1.00  0.00    -0.000 A 
HETATM   13  C4  UNL     1      36.474  -0.314  51.128  1.00  0.00     0.082 A 
HETATM   14  C6  UNL     1      37.082   1.605  52.575  1.00  0.00     0.053 C 
HETATM   15  C3  UNL     1      35.771  -1.458  50.821  1.00  0.00     0.147 A 
HETATM   16 CL1  UNL     1      37.664   0.288  49.963  1.00  0.00    -0.080 Cl
HETATM   17  C2  UNL     1      34.835  -1.958  51.703  1.00  0.00     0.020 A 
HETATM   18  F1  UNL     1      35.985  -2.120  49.636  1.00  0.00    -0.204 F 
HETATM   19  C1  UNL     1      34.056  -3.194  51.399  1.00  0.00     0.055 C 
HETATM   20  C15 UNL     1      34.660  -1.250  52.884  1.00  0.00     0.159 A 
HETATM   21  F3  UNL     1      33.720  -1.781  53.734  1.00  0.00    -0.202 F 
ENDBRANCH  10  11
ENDBRANCH   1  10
BRANCH   4  22
HETATM   22  N2  UNL     1      34.909   5.148  54.879  1.00  0.00    -0.234 N 
ATOM     23  H22 UNL     1      35.928   5.195  54.883  1.00  0.00     0.174 HD
ATOM     24  H21 UNL     1      34.387   6.024  54.907  1.00  0.00     0.174 HD
ENDBRANCH   4  22
BRANCH   7  25
HETATM   25  C11 UNL     1      30.854   2.687  55.186  1.00  0.00     0.031 C 
HETATM   26  C12 UNL     1      30.200   2.994  53.848  1.00  0.00     0.016 C 
HETATM   27  C13 UNL     1      30.369   3.710  56.177  1.00  0.00     0.016 C 
ENDBRANCH   7  25
TORSDOF 4
ENDMDL
MODEL 4
REMARK VINA RESULT: -6.373466740      2.113      2.505
REMARK  4 active torsions:
REMARK  status: ('A' for Active; 'I' for Inactive)
REMARK    1  A    between atoms: C7_9  and  O1_10 
REMARK    2  A    between atoms: O1_10  and  C8_11 
REMARK    3  A    between atoms: C9_14  and  N2_15 
REMARK    4  A    between atoms: C10_20  and  C11_21 
ROOT
HETATM    1  C8  UNL     1      34.547   1.771  54.480  1.00  0.00     0.204 A 
HETATM    2  N1  UNL     1      35.128   2.970  54.565  1.00  0.00    -0.167 N 
ATOM      3  H1  UNL     1      36.133   3.040  54.406  1.00  0.00     0.186 HD
HETATM    4  C9  UNL     1      34.436   4.096  54.854  1.00  0.00     0.678 A 
HETATM    5  N3  UNL     1      33.120   3.994  55.059  1.00  0.00    -0.192 N 
ATOM      6  H3  UNL     1      32.600   4.843  55.276  1.00  0.00     0.184 HD
HETATM    7  C10 UNL     1      32.440   2.829  54.995  1.00  0.00     0.073 A 
HETATM    8  C14 UNL     1      33.194   1.694  54.695  1.00  0.00     0.191 A 
HETATM    9  F2  UNL     1      32.577   0.496  54.616  1.00  0.00    -0.199 F 
ENDROOT
BRANCH   1  10
HETATM   10  O1  UNL     1      35.262   0.659  54.190  1.00  0.00    -0.287 OA
BRANCH  10  11
HETATM   11  C7  UNL     1      36.308   0.536  53.325  1.00  0.00     0.124 A 
HETATM   12  C5  UNL     1      37.608   0.517  53.772  1.00  0.00    -0.000 A 
HETATM   13  C4  UNL     1      38.615   0.391  52.843  1.00  0.00     0.082 A 
HETATM   14  C6  UNL     1      37.955   0.626  55.221  1.00  0.00     0.053 C 
HETATM   15  C3  UNL     1      38.361   0.285  51.494  1.00  0.00     0.147 A 
HETATM   16 CL1  UNL     1      40.298   0.363  53.394  1.00  0.00    -0.080 Cl
HETATM   17  C2  UNL     1      37.064   0.303  51.026  1.00  0.00     0.020 A 
HETATM   18  F1  UNL     1      39.390   0.160  50.592  1.00  0.00    -0.204 F 
HETATM   19  C1  UNL     1      36.756   0.190  49.570  1.00  0.00     0.055 C 
HETATM   20  C15 UNL     1      36.065   0.430  51.981  1.00  0.00     0.159 A 
HETATM   21  F3  UNL     1      34.788   0.443  51.474  1.00  0.00    -0.202 F 
ENDBRANCH  10  11
ENDBRANCH   1  10
BRANCH   4  22
HETATM   22  N2  UNL     1      35.002   5.253  54.936  1.00  0.00    -0.234 N 
ATOM     23  H22 UNL     1      35.153   5.798  54.086  1.00  0.00     0.174 HD
ATOM     24  H21 UNL     1      35.309   5.650  55.824  1.00  0.00     0.174 HD
ENDBRANCH   4  22
BRANCH   7  25
HETATM   25  C11 UNL     1      30.993   2.714  55.221  1.00  0.00     0.031 C 
HETATM   26  C12 UNL     1      30.302   2.985  53.895  1.00  0.00     0.016 C 
HETATM   27  C13 UNL     1      30.505   3.739  56.209  1.00  0.00     0.016 C 
ENDBRANCH   7  25
TORSDOF 4
ENDMDL
MODEL 5
REMARK VINA RESULT: -6.185568540      3.336      6.709
REMARK  4 active torsions:
REMARK  status: ('A' for Active; 'I' for Inactive)
REMARK    1  A    between atoms: C7_9  and  O1_10 
REMARK    2  A    between atoms: O1_10  and  C8_11 
REMARK    3  A    between atoms: C9_14  and  N2_15 
REMARK    4  A    between atoms: C10_20  and  C11_21 
ROOT
HETATM    1  C8  UNL     1      34.703  -0.805  52.887  1.00  0.00     0.204 A 
HETATM    2  N1  UNL     1      35.214  -0.111  51.867  1.00  0.00    -0.167 N 
ATOM      3  H1  UNL     1      35.453   0.870  52.011  1.00  0.00     0.186 HD
HETATM    4  C9  UNL     1      35.428  -0.660  50.649  1.00  0.00     0.678 A 
HETATM    5  N3  UNL     1      35.113  -1.945  50.470  1.00  0.00    -0.192 N 
ATOM      6  H3  UNL     1      35.275  -2.357  49.552  1.00  0.00     0.184 HD
HETATM    7  C10 UNL     1      34.593  -2.730  51.437  1.00  0.00     0.073 A 
HETATM    8  C14 UNL     1      34.388  -2.123  52.677  1.00  0.00     0.191 A 
HETATM    9  F2  UNL     1      33.871  -2.851  53.689  1.00  0.00    -0.199 F 
ENDROOT
BRANCH   1  10
HETATM   10  O1  UNL     1      34.498  -0.233  54.097  1.00  0.00    -0.287 OA
BRANCH  10  11
HETATM   11  C7  UNL     1      33.818   0.915  54.378  1.00  0.00     0.124 A 
HETATM   12  C5  UNL     1      34.471   2.113  54.540  1.00  0.00    -0.000 A 
HETATM   13  C4  UNL     1      33.720   3.231  54.823  1.00  0.00     0.082 A 
HETATM   14  C6  UNL     1      35.955   2.236  54.420  1.00  0.00     0.053 C 
HETATM   15  C3  UNL     1      32.350   3.185  54.946  1.00  0.00     0.147 A 
HETATM   16 CL1  UNL     1      34.539   4.787  55.036  1.00  0.00    -0.080 Cl
HETATM   17  C2  UNL     1      31.676   1.992  54.787  1.00  0.00     0.020 A 
HETATM   18  F1  UNL     1      31.629   4.320  55.229  1.00  0.00    -0.204 F 
HETATM   19  C1  UNL     1      30.192   1.908  54.915  1.00  0.00     0.055 C 
HETATM   20  C15 UNL     1      32.454   0.878  54.502  1.00  0.00     0.159 A 
HETATM   21  F3  UNL     1      31.745  -0.290  54.351  1.00  0.00    -0.202 F 
ENDBRANCH  10  11
ENDBRANCH   1  10
BRANCH   4  22
HETATM   22  N2  UNL     1      35.922   0.014  49.665  1.00  0.00    -0.234 N 
ATOM     23  H22 UNL     1      35.922  -0.393  48.729  1.00  0.00     0.174 HD
ATOM     24  H21 UNL     1      36.318   0.946  49.785  1.00  0.00     0.174 HD
ENDBRANCH   4  22
BRANCH   7  25
HETATM   25  C11 UNL     1      34.245  -4.145  51.244  1.00  0.00     0.031 C 
HETATM   26  C12 UNL     1      35.477  -4.967  51.584  1.00  0.00     0.016 C 
HETATM   27  C13 UNL     1      33.884  -4.433  49.812  1.00  0.00     0.016 C 
ENDBRANCH   7  25
TORSDOF 4
ENDMDL
