MODEL 1
REMARK VINA RESULT: -6.231378036      0.000      0.000
REMARK  7 active torsions:
REMARK  status: ('A' for Active; 'I' for Inactive)
REMARK    1  A    between atoms: O1_1  and  C1_3 
REMARK    2  A    between atoms: C3_5  and  C4_6 
REMARK    3  A    between atoms: C4_6  and  C5_7 
REMARK    4  A    between atoms: C5_7  and  C6_8 
REMARK    5  A    between atoms: C11_14  and  O2_15 
REMARK    6  A    between atoms: N1_17  and  C12_18 
REMARK    7  A    between atoms: C12_18  and  C13_19 
ROOT
HETATM    1  C1  UNL     1      33.283  -2.070  53.708  1.00  0.00     0.144 A 
HETATM    2  C2  UNL     1      32.907  -1.008  54.531  1.00  0.00     0.067 A 
HETATM    3  C3  UNL     1      34.013  -0.217  54.756  1.00  0.00    -0.003 A 
HETATM    4  C11 UNL     1      35.046  -0.826  54.054  1.00  0.00     0.150 A 
HETATM    5  N1  UNL     1      34.597  -1.921  53.440  1.00  0.00    -0.304 N 
ENDROOT
BRANCH   3   6
HETATM    6  C4  UNL     1      34.105   1.042  55.581  1.00  0.00     0.043 C 
BRANCH   6   7
HETATM    7  C5  UNL     1      33.357   2.091  54.837  1.00  0.00     0.012 C 
BRANCH   7   8
HETATM    8  C6  UNL     1      32.020   2.453  55.328  1.00  0.00     0.020 C 
HETATM    9  C7  UNL     1      31.878   3.844  55.879  1.00  0.00     0.007 C 
HETATM   10  C8  UNL     1      30.389   3.823  56.257  1.00  0.00     0.003 C 
HETATM   11  C9  UNL     1      29.736   2.912  55.235  1.00  0.00     0.037 C 
HETATM   12  C10 UNL     1      30.889   2.393  54.360  1.00  0.00     0.174 C 
HETATM   13  F1  UNL     1      30.989   3.309  53.323  1.00  0.00    -0.249 F 
ENDBRANCH   7   8
ENDBRANCH   6   7
ENDBRANCH   3   6
BRANCH   4  14
HETATM   14  O2  UNL     1      36.339  -0.336  54.023  1.00  0.00    -0.345 OA
ATOM     15  H2  UNL     1      36.710   0.113  53.272  1.00  0.00     0.219 HD
ENDBRANCH   4  14
BRANCH   1  16
HETATM   16  O1  UNL     1      32.434  -3.075  53.267  1.00  0.00    -0.346 OA
ATOM     17  H1  UNL     1      32.425  -3.434  52.388  1.00  0.00     0.219 HD
ENDBRANCH   1  16
BRANCH   5  18
HETATM   18  C12 UNL     1      35.372  -2.821  52.613  1.00  0.00     0.192 C 
BRANCH  18  19
HETATM   19  C13 UNL     1      35.263  -2.474  51.141  1.00  0.00     0.204 C 
HETATM   20 CL1  UNL     1      35.006  -0.736  50.901  1.00  0.00    -0.082 Cl
HETATM   21 CL2  UNL     1      33.990  -3.449  50.377  1.00  0.00    -0.082 Cl
HETATM   22 CL3  UNL     1      36.803  -2.887  50.328  1.00  0.00    -0.082 Cl
ENDBRANCH  18  19
ENDBRANCH   5  18
TORSDOF 7
ENDMDL
MODEL 2
REMARK VINA RESULT: -6.102666631      1.800      2.645
REMARK  7 active torsions:
REMARK  status: ('A' for Active; 'I' for Inactive)
REMARK    1  A    between atoms: O1_1  and  C1_3 
REMARK    2  A    between atoms: C3_5  and  C4_6 
REMARK    3  A    between atoms: C4_6  and  C5_7 
REMARK    4  A    between atoms: C5_7  and  C6_8 
REMARK    5  A    between atoms: C11_14  and  O2_15 
REMARK    6  A    between atoms: N1_17  and  C12_18 
REMARK    7  A    between atoms: C12_18  and  C13_19 
ROOT
HETATM    1  C1  UNL     1      36.628   1.214  52.633  1.00  0.00     0.144 A 
HETATM    2  C2  UNL     1      35.696   1.711  53.544  1.00  0.00     0.067 A 
HETATM    3  C3  UNL     1      34.921   0.662  53.990  1.00  0.00    -0.003 A 
HETATM    4  C11 UNL     1      35.409  -0.459  53.331  1.00  0.00     0.150 A 
HETATM    5  N1  UNL     1      36.419  -0.116  52.532  1.00  0.00    -0.304 N 
ENDROOT
BRANCH   3   6
HETATM    6  C4  UNL     1      33.784   0.701  54.980  1.00  0.00     0.043 C 
BRANCH   6   7
HETATM    7  C5  UNL     1      33.471   2.138  55.210  1.00  0.00     0.012 C 
BRANCH   7   8
HETATM    8  C6  UNL     1      32.078   2.491  55.518  1.00  0.00     0.020 C 
HETATM    9  C7  UNL     1      31.852   3.889  56.020  1.00  0.00     0.007 C 
HETATM   10  C8  UNL     1      30.327   3.856  56.204  1.00  0.00     0.003 C 
HETATM   11  C9  UNL     1      29.821   2.920  55.123  1.00  0.00     0.037 C 
HETATM   12  C10 UNL     1      31.083   2.400  54.414  1.00  0.00     0.174 C 
HETATM   13  F1  UNL     1      31.306   3.300  53.381  1.00  0.00    -0.249 F 
ENDBRANCH   7   8
ENDBRANCH   6   7
ENDBRANCH   3   6
BRANCH   4  14
HETATM   14  O2  UNL     1      34.893  -1.730  53.507  1.00  0.00    -0.345 OA
ATOM     15  H2  UNL     1      35.378  -2.441  53.910  1.00  0.00     0.219 HD
ENDBRANCH   4  14
BRANCH   1  16
HETATM   16  O1  UNL     1      37.581   1.977  51.972  1.00  0.00    -0.346 OA
ATOM     17  H1  UNL     1      37.597   2.926  51.946  1.00  0.00     0.219 HD
ENDBRANCH   1  16
BRANCH   5  18
HETATM   18  C12 UNL     1      37.184  -1.003  51.684  1.00  0.00     0.192 C 
BRANCH  18  19
HETATM   19  C13 UNL     1      36.654  -1.029  50.264  1.00  0.00     0.204 C 
HETATM   20 CL1  UNL     1      35.049  -0.283  50.157  1.00  0.00    -0.082 Cl
HETATM   21 CL2  UNL     1      36.661  -2.692  49.641  1.00  0.00    -0.082 Cl
HETATM   22 CL3  UNL     1      37.742  -0.069  49.216  1.00  0.00    -0.082 Cl
ENDBRANCH  18  19
ENDBRANCH   5  18
TORSDOF 7
ENDMDL
MODEL 3
REMARK VINA RESULT: -6.100187270      1.836      2.708
REMARK  7 active torsions:
REMARK  status: ('A' for Active; 'I' for Inactive)
REMARK    1  A    between atoms: O1_1  and  C1_3 
REMARK    2  A    between atoms: C3_5  and  C4_6 
REMARK    3  A    between atoms: C4_6  and  C5_7 
REMARK    4  A    between atoms: C5_7  and  C6_8 
REMARK    5  A    between atoms: C11_14  and  O2_15 
REMARK    6  A    between atoms: N1_17  and  C12_18 
REMARK    7  A    between atoms: C12_18  and  C13_19 
ROOT
HETATM    1  C1  UNL     1      36.695   1.239  52.628  1.00  0.00     0.144 A 
HETATM    2  C2  UNL     1      35.774   1.746  53.545  1.00  0.00     0.067 A 
HETATM    3  C3  UNL     1      34.989   0.706  53.994  1.00  0.00    -0.003 A 
HETATM    4  C11 UNL     1      35.459  -0.420  53.330  1.00  0.00     0.150 A 
HETATM    5  N1  UNL     1      36.469  -0.087  52.525  1.00  0.00    -0.304 N 
ENDROOT
BRANCH   3   6
HETATM    6  C4  UNL     1      33.858   0.757  54.991  1.00  0.00     0.043 C 
BRANCH   6   7
HETATM    7  C5  UNL     1      33.502   2.192  55.154  1.00  0.00     0.012 C 
BRANCH   7   8
HETATM    8  C6  UNL     1      32.106   2.515  55.485  1.00  0.00     0.020 C 
HETATM    9  C7  UNL     1      31.858   3.905  55.997  1.00  0.00     0.007 C 
HETATM   10  C8  UNL     1      30.337   3.838  56.203  1.00  0.00     0.003 C 
HETATM   11  C9  UNL     1      29.835   2.896  55.127  1.00  0.00     0.037 C 
HETATM   12  C10 UNL     1      31.096   2.407  54.395  1.00  0.00     0.174 C 
HETATM   13  F1  UNL     1      31.284   3.316  53.364  1.00  0.00    -0.249 F 
ENDBRANCH   7   8
ENDBRANCH   6   7
ENDBRANCH   3   6
BRANCH   4  14
HETATM   14  O2  UNL     1      34.929  -1.685  53.505  1.00  0.00    -0.345 OA
ATOM     15  H2  UNL     1      35.189  -2.438  52.987  1.00  0.00     0.219 HD
ENDBRANCH   4  14
BRANCH   1  16
HETATM   16  O1  UNL     1      37.653   1.992  51.963  1.00  0.00    -0.346 OA
ATOM     17  H1  UNL     1      37.974   1.815  51.086  1.00  0.00     0.219 HD
ENDBRANCH   1  16
BRANCH   5  18
HETATM   18  C12 UNL     1      37.218  -0.982  51.671  1.00  0.00     0.192 C 
BRANCH  18  19
HETATM   19  C13 UNL     1      36.730  -0.938  50.236  1.00  0.00     0.204 C 
HETATM   20 CL1  UNL     1      37.803   0.039  49.216  1.00  0.00    -0.082 Cl
HETATM   21 CL2  UNL     1      35.051  -0.363  50.180  1.00  0.00    -0.082 Cl
HETATM   22 CL3  UNL     1      36.742  -2.595  49.562  1.00  0.00    -0.082 Cl
ENDBRANCH  18  19
ENDBRANCH   5  18
TORSDOF 7
ENDMDL
MODEL 4
REMARK VINA RESULT: -6.030349322      1.818      2.065
REMARK  7 active torsions:
REMARK  status: ('A' for Active; 'I' for Inactive)
REMARK    1  A    between atoms: O1_1  and  C1_3 
REMARK    2  A    between atoms: C3_5  and  C4_6 
REMARK    3  A    between atoms: C4_6  and  C5_7 
REMARK    4  A    between atoms: C5_7  and  C6_8 
REMARK    5  A    between atoms: C11_14  and  O2_15 
REMARK    6  A    between atoms: N1_17  and  C12_18 
REMARK    7  A    between atoms: C12_18  and  C13_19 
ROOT
HETATM    1  C1  UNL     1      35.074  -1.366  52.810  1.00  0.00     0.144 A 
HETATM    2  C2  UNL     1      34.171  -0.898  53.765  1.00  0.00     0.067 A 
HETATM    3  C3  UNL     1      34.629   0.312  54.241  1.00  0.00    -0.003 A 
HETATM    4  C11 UNL     1      35.813   0.551  53.554  1.00  0.00     0.150 A 
HETATM    5  N1  UNL     1      36.062  -0.452  52.710  1.00  0.00    -0.304 N 
ENDROOT
BRANCH   3   6
HETATM    6  C4  UNL     1      33.998   1.201  55.283  1.00  0.00     0.043 C 
BRANCH   6   7
HETATM    7  C5  UNL     1      33.071   2.111  54.557  1.00  0.00     0.012 C 
BRANCH   7   8
HETATM    8  C6  UNL     1      31.800   2.454  55.211  1.00  0.00     0.020 C 
HETATM    9  C7  UNL     1      31.712   3.837  55.790  1.00  0.00     0.007 C 
HETATM   10  C8  UNL     1      30.280   3.795  56.346  1.00  0.00     0.003 C 
HETATM   11  C9  UNL     1      29.517   2.887  55.401  1.00  0.00     0.037 C 
HETATM   12  C10 UNL     1      30.561   2.389  54.387  1.00  0.00     0.174 C 
HETATM   13  F1  UNL     1      30.524   3.317  53.355  1.00  0.00    -0.249 F 
ENDBRANCH   7   8
ENDBRANCH   6   7
ENDBRANCH   3   6
BRANCH   4  14
HETATM   14  O2  UNL     1      36.591   1.678  53.746  1.00  0.00    -0.345 OA
ATOM     15  H2  UNL     1      37.540   1.672  53.704  1.00  0.00     0.219 HD
ENDBRANCH   4  14
BRANCH   1  16
HETATM   16  O1  UNL     1      34.947  -2.558  52.110  1.00  0.00    -0.346 OA
ATOM     17  H1  UNL     1      35.119  -2.667  51.182  1.00  0.00     0.219 HD
ENDBRANCH   1  16
BRANCH   5  18
HETATM   18  C12 UNL     1      37.197  -0.565  51.822  1.00  0.00     0.192 C 
BRANCH  18  19
HETATM   19  C13 UNL     1      37.004   0.235  50.548  1.00  0.00     0.204 C 
HETATM   20 CL1  UNL     1      37.706   1.857  50.688  1.00  0.00    -0.082 Cl
HETATM   21 CL2  UNL     1      35.282   0.288  50.118  1.00  0.00    -0.082 Cl
HETATM   22 CL3  UNL     1      37.857  -0.586  49.207  1.00  0.00    -0.082 Cl
ENDBRANCH  18  19
ENDBRANCH   5  18
TORSDOF 7
ENDMDL
MODEL 5
REMARK VINA RESULT: -6.023397234      2.020      2.439
REMARK  7 active torsions:
REMARK  status: ('A' for Active; 'I' for Inactive)
REMARK    1  A    between atoms: O1_1  and  C1_3 
REMARK    2  A    between atoms: C3_5  and  C4_6 
REMARK    3  A    between atoms: C4_6  and  C5_7 
REMARK    4  A    between atoms: C5_7  and  C6_8 
REMARK    5  A    between atoms: C11_14  and  O2_15 
REMARK    6  A    between atoms: N1_17  and  C12_18 
REMARK    7  A    between atoms: C12_18  and  C13_19 
ROOT
HETATM    1  C1  UNL     1      34.793  -0.718  53.309  1.00  0.00     0.144 A 
HETATM    2  C2  UNL     1      33.976   0.023  54.164  1.00  0.00     0.067 A 
HETATM    3  C3  UNL     1      34.572   1.246  54.383  1.00  0.00    -0.003 A 
HETATM    4  C11 UNL     1      35.750   1.216  53.646  1.00  0.00     0.150 A 
HETATM    5  N1  UNL     1      35.865   0.047  53.016  1.00  0.00    -0.304 N 
ENDROOT
BRANCH   3   6
HETATM    6  C4  UNL     1      34.072   2.385  55.235  1.00  0.00     0.043 C 
BRANCH   6   7
HETATM    7  C5  UNL     1      33.224   3.232  54.353  1.00  0.00     0.012 C 
BRANCH   7   8
HETATM    8  C6  UNL     1      31.801   3.364  54.698  1.00  0.00     0.020 C 
HETATM    9  C7  UNL     1      30.992   2.100  54.641  1.00  0.00     0.007 C 
HETATM   10  C8  UNL     1      29.621   2.649  55.064  1.00  0.00     0.003 C 
HETATM   11  C9  UNL     1      29.930   3.781  56.024  1.00  0.00     0.037 C 
HETATM   12  C10 UNL     1      31.464   3.880  56.054  1.00  0.00     0.174 C 
HETATM   13  F1  UNL     1      31.855   3.039  57.087  1.00  0.00    -0.249 F 
ENDBRANCH   7   8
ENDBRANCH   6   7
ENDBRANCH   3   6
BRANCH   4  14
HETATM   14  O2  UNL     1      36.646   2.268  53.599  1.00  0.00    -0.345 OA
ATOM     15  H2  UNL     1      36.786   2.869  54.322  1.00  0.00     0.219 HD
ENDBRANCH   4  14
BRANCH   1  16
HETATM   16  O1  UNL     1      34.519  -2.004  52.863  1.00  0.00    -0.346 OA
ATOM     17  H1  UNL     1      33.995  -2.644  53.331  1.00  0.00     0.219 HD
ENDBRANCH   1  16
BRANCH   5  18
HETATM   18  C12 UNL     1      36.952  -0.361  52.153  1.00  0.00     0.192 C 
BRANCH  18  19
HETATM   19  C13 UNL     1      36.794   0.183  50.747  1.00  0.00     0.204 C 
HETATM   20 CL1  UNL     1      37.599   1.752  50.563  1.00  0.00    -0.082 Cl
HETATM   21 CL2  UNL     1      35.073   0.261  50.313  1.00  0.00    -0.082 Cl
HETATM   22 CL3  UNL     1      37.577  -0.940  49.594  1.00  0.00    -0.082 Cl
ENDBRANCH  18  19
ENDBRANCH   5  18
TORSDOF 7
ENDMDL
