MODEL 1
REMARK VINA RESULT: -5.435177402      0.000      0.000
REMARK  7 active torsions:
REMARK  status: ('A' for Active; 'I' for Inactive)
REMARK    1  A    between atoms: O1_1  and  C1_3 
REMARK    2  A    between atoms: C3_5  and  O2_6 
REMARK    3  A    between atoms: C4_8  and  C5_9 
REMARK    4  A    between atoms: C5_9  and  C6_10 
REMARK    5  A    between atoms: C6_10  and  C7_11 
REMARK    6  A    between atoms: C7_11  and  C8_12 
REMARK    7  A    between atoms: C8_12  and  C9_13 
ROOT
HETATM    1  C1  UNL     1      30.884   3.437  55.529  1.00  0.00     0.090 A 
HETATM    2  C2  UNL     1      32.176   3.914  55.605  1.00  0.00     0.075 A 
HETATM    3  C3  UNL     1      33.276   3.164  55.138  1.00  0.00     0.075 A 
HETATM    4  C4  UNL     1      33.050   1.933  54.594  1.00  0.00    -0.019 A 
HETATM    5  C12 UNL     1      31.720   1.459  54.523  1.00  0.00     0.037 A 
HETATM    6  C13 UNL     1      30.661   2.201  54.982  1.00  0.00     0.067 A 
HETATM    7 CL4  UNL     1      29.016   1.604  54.891  1.00  0.00    -0.081 Cl
ENDROOT
BRANCH   4   8
HETATM    8  C5  UNL     1      34.150   1.035  54.132  1.00  0.00     0.083 C 
BRANCH   8   9
HETATM    9  C6  UNL     1      34.104  -0.346  54.593  1.00  0.00    -0.013 C 
HETATM   10  C11 UNL     1      34.331  -0.603  55.900  1.00  0.00     0.110 C 
HETATM   11 CL2  UNL     1      34.273  -2.260  56.541  1.00  0.00    -0.070 Cl
HETATM   12 CL3  UNL     1      34.875   0.588  57.029  1.00  0.00    -0.070 Cl
BRANCH   9  13
HETATM   13  C7  UNL     1      33.839  -1.559  53.832  1.00  0.00     0.065 C 
BRANCH  13  14
HETATM   14  C8  UNL     1      34.212  -2.046  52.738  1.00  0.00    -0.127 C 
BRANCH  14  15
HETATM   15  C9  UNL     1      34.618  -2.576  51.547  1.00  0.00     0.067 C 
HETATM   16  C10 UNL     1      35.064  -2.070  50.422  1.00  0.00     0.092 C 
HETATM   17 CL1  UNL     1      35.321  -0.423  50.028  1.00  0.00    -0.096 Cl
ENDBRANCH  14  15
ENDBRANCH  13  14
ENDBRANCH   9  13
ENDBRANCH   8   9
ENDBRANCH   4   8
BRANCH   3  18
HETATM   18  O2  UNL     1      34.492   3.773  55.275  1.00  0.00    -0.360 OA
ATOM     19  H2  UNL     1      35.221   3.310  54.880  1.00  0.00     0.217 HD
ENDBRANCH   3  18
BRANCH   1  20
HETATM   20  O1  UNL     1      29.793   4.162  55.981  1.00  0.00    -0.359 OA
ATOM     21  H1  UNL     1      29.106   4.466  55.401  1.00  0.00     0.217 HD
ENDBRANCH   1  20
TORSDOF 7
ENDMDL
MODEL 2
REMARK VINA RESULT: -5.384337093      2.237      3.205
REMARK  7 active torsions:
REMARK  status: ('A' for Active; 'I' for Inactive)
REMARK    1  A    between atoms: O1_1  and  C1_3 
REMARK    2  A    between atoms: C3_5  and  O2_6 
REMARK    3  A    between atoms: C4_8  and  C5_9 
REMARK    4  A    between atoms: C5_9  and  C6_10 
REMARK    5  A    between atoms: C6_10  and  C7_11 
REMARK    6  A    between atoms: C7_11  and  C8_12 
REMARK    7  A    between atoms: C8_12  and  C9_13 
ROOT
HETATM    1  C1  UNL     1      30.846   3.417  55.677  1.00  0.00     0.090 A 
HETATM    2  C2  UNL     1      32.152   3.850  55.754  1.00  0.00     0.075 A 
HETATM    3  C3  UNL     1      33.214   3.123  55.174  1.00  0.00     0.075 A 
HETATM    4  C4  UNL     1      32.934   1.960  54.519  1.00  0.00    -0.019 A 
HETATM    5  C12 UNL     1      31.589   1.529  54.449  1.00  0.00     0.037 A 
HETATM    6  C13 UNL     1      30.569   2.249  55.018  1.00  0.00     0.067 A 
HETATM    7 CL4  UNL     1      28.905   1.707  54.926  1.00  0.00    -0.081 Cl
ENDROOT
BRANCH   4   8
HETATM    8  C5  UNL     1      33.991   1.085  53.930  1.00  0.00     0.083 C 
BRANCH   8   9
HETATM    9  C6  UNL     1      34.685   0.190  54.846  1.00  0.00    -0.013 C 
HETATM   10  C11 UNL     1      35.994   0.403  55.099  1.00  0.00     0.110 C 
HETATM   11 CL2  UNL     1      36.903  -0.634  56.220  1.00  0.00    -0.070 Cl
HETATM   12 CL3  UNL     1      36.957   1.558  54.244  1.00  0.00    -0.070 Cl
BRANCH   9  13
HETATM   13  C7  UNL     1      34.166  -0.961  55.572  1.00  0.00     0.065 C 
BRANCH  13  14
HETATM   14  C8  UNL     1      33.175  -1.725  55.478  1.00  0.00    -0.127 C 
BRANCH  14  15
HETATM   15  C9  UNL     1      32.097  -2.557  55.376  1.00  0.00     0.067 C 
HETATM   16  C10 UNL     1      31.377  -3.235  56.237  1.00  0.00     0.092 C 
HETATM   17 CL1  UNL     1      31.552  -3.311  57.939  1.00  0.00    -0.096 Cl
ENDBRANCH  14  15
ENDBRANCH  13  14
ENDBRANCH   9  13
ENDBRANCH   8   9
ENDBRANCH   4   8
BRANCH   3  18
HETATM   18  O2  UNL     1      34.452   3.684  55.328  1.00  0.00    -0.360 OA
ATOM     19  H2  UNL     1      35.174   3.066  55.349  1.00  0.00     0.217 HD
ENDBRANCH   3  18
BRANCH   1  20
HETATM   20  O1  UNL     1      29.792   4.121  56.238  1.00  0.00    -0.359 OA
ATOM     21  H1  UNL     1      29.054   3.691  56.652  1.00  0.00     0.217 HD
ENDBRANCH   1  20
TORSDOF 7
ENDMDL
MODEL 3
REMARK VINA RESULT: -5.321254540      1.520      1.635
REMARK  7 active torsions:
REMARK  status: ('A' for Active; 'I' for Inactive)
REMARK    1  A    between atoms: O1_1  and  C1_3 
REMARK    2  A    between atoms: C3_5  and  O2_6 
REMARK    3  A    between atoms: C4_8  and  C5_9 
REMARK    4  A    between atoms: C5_9  and  C6_10 
REMARK    5  A    between atoms: C6_10  and  C7_11 
REMARK    6  A    between atoms: C7_11  and  C8_12 
REMARK    7  A    between atoms: C8_12  and  C9_13 
ROOT
HETATM    1  C1  UNL     1      31.143   3.231  55.042  1.00  0.00     0.090 A 
HETATM    2  C2  UNL     1      32.342   3.899  55.175  1.00  0.00     0.075 A 
HETATM    3  C3  UNL     1      33.581   3.253  54.976  1.00  0.00     0.075 A 
HETATM    4  C4  UNL     1      33.587   1.930  54.641  1.00  0.00    -0.019 A 
HETATM    5  C12 UNL     1      32.349   1.260  54.508  1.00  0.00     0.037 A 
HETATM    6  C13 UNL     1      31.154   1.904  54.705  1.00  0.00     0.067 A 
HETATM    7 CL4  UNL     1      29.624   1.064  54.539  1.00  0.00    -0.081 Cl
ENDROOT
BRANCH   4   8
HETATM    8  C5  UNL     1      34.844   1.141  54.473  1.00  0.00     0.083 C 
BRANCH   8   9
HETATM    9  C6  UNL     1      34.694  -0.243  54.042  1.00  0.00    -0.013 C 
HETATM   10  C11 UNL     1      34.451  -1.191  54.973  1.00  0.00     0.110 C 
HETATM   11 CL2  UNL     1      34.237  -2.897  54.522  1.00  0.00    -0.070 Cl
HETATM   12 CL3  UNL     1      34.508  -0.897  56.676  1.00  0.00    -0.070 Cl
BRANCH   9  13
HETATM   13  C7  UNL     1      34.767  -0.798  52.698  1.00  0.00     0.065 C 
BRANCH  13  14
HETATM   14  C8  UNL     1      35.111  -0.389  51.562  1.00  0.00    -0.127 C 
BRANCH  14  15
HETATM   15  C9  UNL     1      35.485   0.055  50.327  1.00  0.00     0.067 C 
HETATM   16  C10 UNL     1      36.409   0.877  49.889  1.00  0.00     0.092 C 
HETATM   17 CL1  UNL     1      37.571   1.747  50.796  1.00  0.00    -0.096 Cl
ENDBRANCH  14  15
ENDBRANCH  13  14
ENDBRANCH   9  13
ENDBRANCH   8   9
ENDBRANCH   4   8
BRANCH   3  18
HETATM   18  O2  UNL     1      34.682   4.049  55.136  1.00  0.00    -0.360 OA
ATOM     19  H2  UNL     1      35.504   3.583  55.236  1.00  0.00     0.217 HD
ENDBRANCH   3  18
BRANCH   1  20
HETATM   20  O1  UNL     1      29.919   3.851  55.232  1.00  0.00    -0.359 OA
ATOM     21  H1  UNL     1      29.343   4.076  54.511  1.00  0.00     0.217 HD
ENDBRANCH   1  20
TORSDOF 7
ENDMDL
MODEL 4
REMARK VINA RESULT: -5.304162296      1.612      4.103
REMARK  7 active torsions:
REMARK  status: ('A' for Active; 'I' for Inactive)
REMARK    1  A    between atoms: O1_1  and  C1_3 
REMARK    2  A    between atoms: C3_5  and  O2_6 
REMARK    3  A    between atoms: C4_8  and  C5_9 
REMARK    4  A    between atoms: C5_9  and  C6_10 
REMARK    5  A    between atoms: C6_10  and  C7_11 
REMARK    6  A    between atoms: C7_11  and  C8_12 
REMARK    7  A    between atoms: C8_12  and  C9_13 
ROOT
HETATM    1  C1  UNL     1      30.863   3.369  55.688  1.00  0.00     0.090 A 
HETATM    2  C2  UNL     1      32.168   3.807  55.762  1.00  0.00     0.075 A 
HETATM    3  C3  UNL     1      33.229   3.091  55.167  1.00  0.00     0.075 A 
HETATM    4  C4  UNL     1      32.950   1.934  54.499  1.00  0.00    -0.019 A 
HETATM    5  C12 UNL     1      31.606   1.500  54.433  1.00  0.00     0.037 A 
HETATM    6  C13 UNL     1      30.586   2.208  55.017  1.00  0.00     0.067 A 
HETATM    7 CL4  UNL     1      28.924   1.660  54.929  1.00  0.00    -0.081 Cl
ENDROOT
BRANCH   4   8
HETATM    8  C5  UNL     1      34.006   1.071  53.892  1.00  0.00     0.083 C 
BRANCH   8   9
HETATM    9  C6  UNL     1      34.322  -0.166  54.593  1.00  0.00    -0.013 C 
HETATM   10  C11 UNL     1      34.798  -1.213  53.884  1.00  0.00     0.110 C 
HETATM   11 CL2  UNL     1      35.223  -2.749  54.672  1.00  0.00    -0.070 Cl
HETATM   12 CL3  UNL     1      34.868  -1.246  52.157  1.00  0.00    -0.070 Cl
BRANCH   9  13
HETATM   13  C7  UNL     1      34.200  -0.473  56.011  1.00  0.00     0.065 C 
BRANCH  13  14
HETATM   14  C8  UNL     1      34.358   0.143  57.093  1.00  0.00    -0.127 C 
BRANCH  14  15
HETATM   15  C9  UNL     1      34.530   0.814  58.269  1.00  0.00     0.067 C 
HETATM   16  C10 UNL     1      34.311   0.526  59.530  1.00  0.00     0.092 C 
HETATM   17 CL1  UNL     1      33.685  -0.923  60.194  1.00  0.00    -0.096 Cl
ENDBRANCH  14  15
ENDBRANCH  13  14
ENDBRANCH   9  13
ENDBRANCH   8   9
ENDBRANCH   4   8
BRANCH   3  18
HETATM   18  O2  UNL     1      34.466   3.654  55.319  1.00  0.00    -0.360 OA
ATOM     19  H2  UNL     1      35.176   3.187  54.896  1.00  0.00     0.217 HD
ENDBRANCH   3  18
BRANCH   1  20
HETATM   20  O1  UNL     1      29.810   4.061  56.265  1.00  0.00    -0.359 OA
ATOM     21  H1  UNL     1      29.898   4.539  57.081  1.00  0.00     0.217 HD
ENDBRANCH   1  20
TORSDOF 7
ENDMDL
MODEL 5
REMARK VINA RESULT: -5.263886252      2.499      5.775
REMARK  7 active torsions:
REMARK  status: ('A' for Active; 'I' for Inactive)
REMARK    1  A    between atoms: O1_1  and  C1_3 
REMARK    2  A    between atoms: C3_5  and  O2_6 
REMARK    3  A    between atoms: C4_8  and  C5_9 
REMARK    4  A    between atoms: C5_9  and  C6_10 
REMARK    5  A    between atoms: C6_10  and  C7_11 
REMARK    6  A    between atoms: C7_11  and  C8_12 
REMARK    7  A    between atoms: C8_12  and  C9_13 
ROOT
HETATM    1  C1  UNL     1      37.195   1.474  51.448  1.00  0.00     0.090 A 
HETATM    2  C2  UNL     1      37.405   1.582  52.807  1.00  0.00     0.075 A 
HETATM    3  C3  UNL     1      36.503   1.039  53.746  1.00  0.00     0.075 A 
HETATM    4  C4  UNL     1      35.393   0.388  53.293  1.00  0.00    -0.019 A 
HETATM    5  C12 UNL     1      35.192   0.286  51.897  1.00  0.00     0.037 A 
HETATM    6  C13 UNL     1      36.079   0.819  50.997  1.00  0.00     0.067 A 
HETATM    7 CL4  UNL     1      35.821   0.688  49.268  1.00  0.00    -0.081 Cl
ENDROOT
BRANCH   4   8
HETATM    8  C5  UNL     1      34.345  -0.164  54.203  1.00  0.00     0.083 C 
BRANCH   8   9
HETATM    9  C6  UNL     1      33.992   0.648  55.360  1.00  0.00    -0.013 C 
HETATM   10  C11 UNL     1      34.261   0.172  56.595  1.00  0.00     0.110 C 
HETATM   11 CL2  UNL     1      33.877   1.113  58.054  1.00  0.00    -0.070 Cl
HETATM   12 CL3  UNL     1      34.819  -1.436  56.901  1.00  0.00    -0.070 Cl
BRANCH   9  13
HETATM   13  C7  UNL     1      33.361   1.959  55.402  1.00  0.00     0.065 C 
BRANCH  13  14
HETATM   14  C8  UNL     1      32.417   2.535  54.807  1.00  0.00    -0.127 C 
BRANCH  14  15
HETATM   15  C9  UNL     1      31.391   3.160  54.160  1.00  0.00     0.067 C 
HETATM   16  C10 UNL     1      30.097   2.959  54.082  1.00  0.00     0.092 C 
HETATM   17 CL1  UNL     1      29.166   1.739  54.842  1.00  0.00    -0.096 Cl
ENDBRANCH  14  15
ENDBRANCH  13  14
ENDBRANCH   9  13
ENDBRANCH   8   9
ENDBRANCH   4   8
BRANCH   3  18
HETATM   18  O2  UNL     1      36.851   1.220  55.056  1.00  0.00    -0.360 OA
ATOM     19  H2  UNL     1      36.171   1.591  55.606  1.00  0.00     0.217 HD
ENDBRANCH   3  18
BRANCH   1  20
HETATM   20  O1  UNL     1      38.072   1.999  50.513  1.00  0.00    -0.359 OA
ATOM     21  H1  UNL     1      38.425   2.878  50.580  1.00  0.00     0.217 HD
ENDBRANCH   1  20
TORSDOF 7
ENDMDL
