MODEL 1
REMARK VINA RESULT: -6.081652240      0.000      0.000
REMARK  4 active torsions:
REMARK  status: ('A' for Active; 'I' for Inactive)
REMARK    1  A    between atoms: O1_2  and  C2_3 
REMARK    2  A    between atoms: C3_4  and  O2_5 
REMARK    3  A    between atoms: C6_10  and  N1_11 
REMARK    4  A    between atoms: C10_17  and  O4_18 
ROOT
HETATM    1  C2  UNL     1      -4.624   0.747  12.986  1.00  0.00     0.183 C 
HETATM    2  C3  UNL     1      -4.246   0.721  14.427  1.00  0.00     0.181 C 
HETATM    3  C4  UNL     1      -4.720   1.858  15.241  1.00  0.00     0.184 A 
HETATM    4  O3  UNL     1      -3.760   2.967  15.206  1.00  0.00    -0.370 OA
HETATM    5  C5  UNL     1      -5.035   3.084  14.646  1.00  0.00     0.179 A 
HETATM    6  C6  UNL     1      -5.224   3.213  13.186  1.00  0.00     0.153 C 
HETATM    7  C10 UNL     1      -4.822   2.053  12.348  1.00  0.00     0.175 C 
ENDROOT
BRANCH   6   8
HETATM    8  N1  UNL     1      -4.712   4.486  12.649  1.00  0.00    -0.342 N 
HETATM    9  C7  UNL     1      -3.598   4.704  11.934  1.00  0.00     0.109 A 
HETATM   10  C8  UNL     1      -3.488   6.040  11.628  1.00  0.00     0.106 A 
HETATM   11  N2  UNL     1      -4.561   6.640  12.173  1.00  0.00    -0.361 N 
HETATM   12  C9  UNL     1      -5.301   5.702  12.791  1.00  0.00     0.183 A 
ATOM     13  H2  UNL     1      -4.776   7.636  12.127  1.00  0.00     0.166 HD
ENDBRANCH   6   8
BRANCH   7  14
HETATM   14  O4  UNL     1      -5.682   1.895  11.250  1.00  0.00    -0.391 OA
ATOM     15  H4  UNL     1      -5.974   2.752  10.963  1.00  0.00     0.210 HD
ENDBRANCH   7  14
BRANCH   1  16
HETATM   16  O1  UNL     1      -3.634   0.044  12.293  1.00  0.00    -0.385 OA
HETATM   17  C1  UNL     1      -4.100  -1.115  11.709  1.00  0.00     0.202 C 
ENDBRANCH   1  16
BRANCH   2  18
HETATM   18  O2  UNL     1      -4.744  -0.457  15.040  1.00  0.00    -0.390 OA
ATOM     19  H2  UNL     1      -4.025  -0.977  15.379  1.00  0.00     0.210 HD
ENDBRANCH   2  18
TORSDOF 4
ENDMDL
MODEL 2
REMARK VINA RESULT: -5.638436010      2.599      4.807
REMARK  4 active torsions:
REMARK  status: ('A' for Active; 'I' for Inactive)
REMARK    1  A    between atoms: O1_2  and  C2_3 
REMARK    2  A    between atoms: C3_4  and  O2_5 
REMARK    3  A    between atoms: C6_10  and  N1_11 
REMARK    4  A    between atoms: C10_17  and  O4_18 
ROOT
HETATM    1  C2  UNL     1      -4.224   3.400  10.318  1.00  0.00     0.183 C 
HETATM    2  C3  UNL     1      -2.772   3.737  10.331  1.00  0.00     0.181 C 
HETATM    3  C4  UNL     1      -1.881   2.737  10.951  1.00  0.00     0.184 A 
HETATM    4  O3  UNL     1      -1.752   2.968  12.394  1.00  0.00    -0.370 OA
HETATM    5  C5  UNL     1      -2.372   1.822  11.889  1.00  0.00     0.179 A 
HETATM    6  C6  UNL     1      -3.821   1.590  12.063  1.00  0.00     0.153 C 
HETATM    7  C10 UNL     1      -4.743   2.542  11.389  1.00  0.00     0.175 C 
ENDROOT
BRANCH   6   8
HETATM    8  N1  UNL     1      -4.202   1.355  13.467  1.00  0.00    -0.342 N 
HETATM    9  C7  UNL     1      -4.254   0.194  14.135  1.00  0.00     0.109 A 
HETATM   10  C8  UNL     1      -4.659   0.413  15.431  1.00  0.00     0.106 A 
HETATM   11  N2  UNL     1      -4.856   1.738  15.544  1.00  0.00    -0.361 N 
HETATM   12  C9  UNL     1      -4.580   2.308  14.357  1.00  0.00     0.183 A 
ATOM     13  H2  UNL     1      -5.162   2.226  16.385  1.00  0.00     0.166 HD
ENDBRANCH   6   8
BRANCH   7  14
HETATM   14  O4  UNL     1      -5.898   1.893  10.929  1.00  0.00    -0.391 OA
ATOM     15  H4  UNL     1      -5.726   0.959  10.882  1.00  0.00     0.210 HD
ENDBRANCH   7  14
BRANCH   1  16
HETATM   16  O1  UNL     1      -4.923   4.610  10.321  1.00  0.00    -0.385 OA
HETATM   17  C1  UNL     1      -4.622   5.407  11.405  1.00  0.00     0.202 C 
ENDBRANCH   1  16
BRANCH   2  18
HETATM   18  O2  UNL     1      -2.306   3.936   9.006  1.00  0.00    -0.390 OA
ATOM     19  H2  UNL     1      -1.465   4.378   9.019  1.00  0.00     0.210 HD
ENDBRANCH   2  18
TORSDOF 4
ENDMDL
MODEL 3
REMARK VINA RESULT: -5.625330429      2.863      5.005
REMARK  4 active torsions:
REMARK  status: ('A' for Active; 'I' for Inactive)
REMARK    1  A    between atoms: O1_2  and  C2_3 
REMARK    2  A    between atoms: C3_4  and  O2_5 
REMARK    3  A    between atoms: C6_10  and  N1_11 
REMARK    4  A    between atoms: C10_17  and  O4_18 
ROOT
HETATM    1  C2  UNL     1      -3.601   4.164  13.505  1.00  0.00     0.183 C 
HETATM    2  C3  UNL     1      -4.774   4.700  12.757  1.00  0.00     0.181 C 
HETATM    3  C4  UNL     1      -5.987   4.960  13.557  1.00  0.00     0.184 A 
HETATM    4  O3  UNL     1      -6.830   3.762  13.641  1.00  0.00    -0.370 OA
HETATM    5  C5  UNL     1      -6.203   4.297  14.770  1.00  0.00     0.179 A 
HETATM    6  C6  UNL     1      -5.118   3.571  15.462  1.00  0.00     0.153 C 
HETATM    7  C10 UNL     1      -3.857   3.358  14.704  1.00  0.00     0.175 C 
ENDROOT
BRANCH   6   8
HETATM    8  N1  UNL     1      -5.579   2.338  16.122  1.00  0.00    -0.342 N 
HETATM    9  C7  UNL     1      -6.740   2.111  16.754  1.00  0.00     0.109 A 
HETATM   10  C8  UNL     1      -6.774   0.821  17.230  1.00  0.00     0.106 A 
HETATM   11  N2  UNL     1      -5.605   0.259  16.877  1.00  0.00    -0.361 N 
HETATM   12  C9  UNL     1      -4.881   1.174  16.207  1.00  0.00     0.183 A 
ATOM     13  H2  UNL     1      -5.316  -0.697  17.082  1.00  0.00     0.166 HD
ENDBRANCH   6   8
BRANCH   7  14
HETATM   14  O4  UNL     1      -2.737   3.434  15.547  1.00  0.00    -0.391 OA
ATOM     15  H4  UNL     1      -2.323   4.281  15.431  1.00  0.00     0.210 HD
ENDBRANCH   7  14
BRANCH   1  16
HETATM   16  O1  UNL     1      -2.850   3.411  12.599  1.00  0.00    -0.385 OA
HETATM   17  C1  UNL     1      -3.526   2.309  12.119  1.00  0.00     0.202 C 
ENDBRANCH   1  16
BRANCH   2  18
HETATM   18  O2  UNL     1      -4.430   5.922  12.124  1.00  0.00    -0.390 OA
ATOM     19  H2  UNL     1      -4.575   5.856  11.188  1.00  0.00     0.210 HD
ENDBRANCH   2  18
TORSDOF 4
ENDMDL
MODEL 4
REMARK VINA RESULT: -5.622616997      2.513      4.912
REMARK  4 active torsions:
REMARK  status: ('A' for Active; 'I' for Inactive)
REMARK    1  A    between atoms: O1_2  and  C2_3 
REMARK    2  A    between atoms: C3_4  and  O2_5 
REMARK    3  A    between atoms: C6_10  and  N1_11 
REMARK    4  A    between atoms: C10_17  and  O4_18 
ROOT
HETATM    1  C2  UNL     1      -4.381   4.236  11.739  1.00  0.00     0.183 C 
HETATM    2  C3  UNL     1      -3.390   3.520  10.887  1.00  0.00     0.181 C 
HETATM    3  C4  UNL     1      -3.447   2.045  10.929  1.00  0.00     0.184 A 
HETATM    4  O3  UNL     1      -2.613   1.515  12.012  1.00  0.00    -0.370 OA
HETATM    5  C5  UNL     1      -4.004   1.379  12.026  1.00  0.00     0.179 A 
HETATM    6  C6  UNL     1      -4.835   2.085  13.023  1.00  0.00     0.153 C 
HETATM    7  C10 UNL     1      -4.853   3.570  12.958  1.00  0.00     0.175 C 
ENDROOT
BRANCH   6   8
HETATM    8  N1  UNL     1      -4.628   1.595  14.397  1.00  0.00    -0.342 N 
HETATM    9  C7  UNL     1      -4.534   2.303  15.532  1.00  0.00     0.109 A 
HETATM   10  C8  UNL     1      -4.342   1.459  16.600  1.00  0.00     0.106 A 
HETATM   11  N2  UNL     1      -4.318   0.213  16.095  1.00  0.00    -0.361 N 
HETATM   12  C9  UNL     1      -4.491   0.294  14.763  1.00  0.00     0.183 A 
ATOM     13  H2  UNL     1      -4.190  -0.646  16.630  1.00  0.00     0.166 HD
ENDBRANCH   6   8
BRANCH   7  14
HETATM   14  O4  UNL     1      -6.117   4.080  13.292  1.00  0.00    -0.391 OA
ATOM     15  H4  UNL     1      -6.774   3.423  13.095  1.00  0.00     0.210 HD
ENDBRANCH   7  14
BRANCH   1  16
HETATM   16  O1  UNL     1      -3.811   5.466  12.080  1.00  0.00    -0.385 OA
HETATM   17  C1  UNL     1      -2.700   5.343  12.888  1.00  0.00     0.202 C 
ENDBRANCH   1  16
BRANCH   2  18
HETATM   18  O2  UNL     1      -3.551   3.899   9.529  1.00  0.00    -0.390 OA
ATOM     19  H2  UNL     1      -2.748   3.734   9.048  1.00  0.00     0.210 HD
ENDBRANCH   2  18
TORSDOF 4
ENDMDL
MODEL 5
REMARK VINA RESULT: -5.597083285      1.062      1.315
REMARK  4 active torsions:
REMARK  status: ('A' for Active; 'I' for Inactive)
REMARK    1  A    between atoms: O1_2  and  C2_3 
REMARK    2  A    between atoms: C3_4  and  O2_5 
REMARK    3  A    between atoms: C6_10  and  N1_11 
REMARK    4  A    between atoms: C10_17  and  O4_18 
ROOT
HETATM    1  C2  UNL     1      -4.251   0.690  12.276  1.00  0.00     0.183 C 
HETATM    2  C3  UNL     1      -4.128   0.738  13.761  1.00  0.00     0.181 C 
HETATM    3  C4  UNL     1      -4.691   1.934  14.418  1.00  0.00     0.184 A 
HETATM    4  O3  UNL     1      -3.697   3.011  14.493  1.00  0.00    -0.370 OA
HETATM    5  C5  UNL     1      -4.850   3.132  13.713  1.00  0.00     0.179 A 
HETATM    6  C6  UNL     1      -4.779   3.180  12.238  1.00  0.00     0.153 C 
HETATM    7  C10 UNL     1      -4.284   1.962  11.545  1.00  0.00     0.175 C 
ENDROOT
BRANCH   6   8
HETATM    8  N1  UNL     1      -4.132   4.403  11.732  1.00  0.00    -0.342 N 
HETATM    9  C7  UNL     1      -4.672   5.614  11.533  1.00  0.00     0.109 A 
HETATM   10  C8  UNL     1      -3.721   6.481  11.049  1.00  0.00     0.106 A 
HETATM   11  N2  UNL     1      -2.581   5.775  10.955  1.00  0.00    -0.361 N 
HETATM   12  C9  UNL     1      -2.828   4.518  11.367  1.00  0.00     0.183 A 
ATOM     13  H2  UNL     1      -1.683   6.130  10.626  1.00  0.00     0.166 HD
ENDBRANCH   6   8
BRANCH   7  14
HETATM   14  O4  UNL     1      -4.947   1.765  10.325  1.00  0.00    -0.391 OA
ATOM     15  H4  UNL     1      -5.000   2.596   9.868  1.00  0.00     0.210 HD
ENDBRANCH   7  14
BRANCH   1  16
HETATM   16  O1  UNL     1      -3.185  -0.081  11.805  1.00  0.00    -0.385 OA
HETATM   17  C1  UNL     1      -3.572  -1.328  11.361  1.00  0.00     0.202 C 
ENDBRANCH   1  16
BRANCH   2  18
HETATM   18  O2  UNL     1      -4.771  -0.388  14.339  1.00  0.00    -0.390 OA
ATOM     19  H2  UNL     1      -4.996  -0.206  15.244  1.00  0.00     0.210 HD
ENDBRANCH   2  18
TORSDOF 4
ENDMDL
