MODEL 1
REMARK VINA RESULT: -5.429500596      0.000      0.000
REMARK  3 active torsions:
REMARK  status: ('A' for Active; 'I' for Inactive)
REMARK    1  A    between atoms: O1_2  and  C2_3 
REMARK    2  A    between atoms: C5_8  and  O2_9 
REMARK    3  A    between atoms: C6_11  and  N2_12 
ROOT
HETATM    1  C2  UNL     1      -2.418   1.690  11.581  1.00  0.00     0.085 C 
HETATM    2  C3  UNL     1      -2.444   0.687  10.709  1.00  0.00     0.117 C 
HETATM    3  N1  UNL     1      -3.687   0.013  10.419  1.00  0.00    -0.394 N 
ATOM      4  H1  UNL     1      -3.835  -0.542   9.575  1.00  0.00     0.159 HD
HETATM    5  C4  UNL     1      -4.716   0.195  11.440  1.00  0.00     0.153 C 
HETATM    6  C5  UNL     1      -4.839   1.719  11.609  1.00  0.00     0.164 C 
HETATM    7  C6  UNL     1      -3.608   2.181  12.300  1.00  0.00     0.168 C 
ENDROOT
BRANCH   7   8
HETATM    8  N2  UNL     1      -3.496   3.561  12.586  1.00  0.00    -0.396 N 
HETATM    9  C7  UNL     1      -3.777   4.491  11.564  1.00  0.00     0.144 C 
HETATM   10  C8  UNL     1      -4.838   5.520  11.972  1.00  0.00     0.187 C 
HETATM   11  O3  UNL     1      -5.760   4.990  12.850  1.00  0.00    -0.388 OA
HETATM   12  C9  UNL     1      -5.224   4.543  14.031  1.00  0.00     0.187 C 
HETATM   13  C10 UNL     1      -3.845   3.957  13.910  1.00  0.00     0.144 C 
ENDBRANCH   7   8
BRANCH   1  14
HETATM   14  O1  UNL     1      -1.213   2.325  11.846  1.00  0.00    -0.357 OA
HETATM   15  C1  UNL     1      -0.445   2.951  10.835  1.00  0.00     0.209 C 
ENDBRANCH   1  14
BRANCH   6  16
HETATM   16  O2  UNL     1      -4.982   2.213  10.314  1.00  0.00    -0.391 OA
ATOM     17  H2  UNL     1      -4.377   2.944  10.262  1.00  0.00     0.210 HD
ENDBRANCH   6  16
TORSDOF 3
ENDMDL
MODEL 2
REMARK VINA RESULT: -5.357832071      2.362      4.519
REMARK  3 active torsions:
REMARK  status: ('A' for Active; 'I' for Inactive)
REMARK    1  A    between atoms: O1_2  and  C2_3 
REMARK    2  A    between atoms: C5_8  and  O2_9 
REMARK    3  A    between atoms: C6_11  and  N2_12 
ROOT
HETATM    1  C2  UNL     1      -4.743   2.434  15.200  1.00  0.00     0.085 C 
HETATM    2  C3  UNL     1      -5.736   2.596  16.069  1.00  0.00     0.117 C 
HETATM    3  N1  UNL     1      -6.579   3.766  15.995  1.00  0.00    -0.394 N 
ATOM      4  H1  UNL     1      -7.506   3.811  16.419  1.00  0.00     0.159 HD
HETATM    5  C4  UNL     1      -5.986   4.880  15.259  1.00  0.00     0.153 C 
HETATM    6  C5  UNL     1      -5.592   4.288  13.896  1.00  0.00     0.164 C 
HETATM    7  C6  UNL     1      -4.428   3.396  14.129  1.00  0.00     0.168 C 
ENDROOT
BRANCH   7   8
HETATM    8  N2  UNL     1      -3.867   2.743  13.007  1.00  0.00    -0.396 N 
HETATM    9  C7  UNL     1      -4.549   1.639  12.455  1.00  0.00     0.144 C 
HETATM   10  C8  UNL     1      -4.828   1.803  10.956  1.00  0.00     0.187 C 
HETATM   11  O3  UNL     1      -5.025   3.123  10.609  1.00  0.00    -0.388 OA
HETATM   12  C9  UNL     1      -3.953   3.940  10.863  1.00  0.00     0.187 C 
HETATM   13  C10 UNL     1      -3.162   3.571  12.087  1.00  0.00     0.144 C 
ENDBRANCH   7   8
BRANCH   1  14
HETATM   14  O1  UNL     1      -3.944   1.303  15.290  1.00  0.00    -0.357 OA
HETATM   15  C1  UNL     1      -4.422   0.073  15.803  1.00  0.00     0.209 C 
ENDBRANCH   1  14
BRANCH   6  16
HETATM   16  O2  UNL     1      -6.734   3.625  13.449  1.00  0.00    -0.391 OA
ATOM     17  H2  UNL     1      -6.464   3.181  12.653  1.00  0.00     0.210 HD
ENDBRANCH   6  16
TORSDOF 3
ENDMDL
MODEL 3
REMARK VINA RESULT: -5.201135157      1.813      2.445
REMARK  3 active torsions:
REMARK  status: ('A' for Active; 'I' for Inactive)
REMARK    1  A    between atoms: O1_2  and  C2_3 
REMARK    2  A    between atoms: C5_8  and  O2_9 
REMARK    3  A    between atoms: C6_11  and  N2_12 
ROOT
HETATM    1  C2  UNL     1      -4.333   1.204  13.226  1.00  0.00     0.085 C 
HETATM    2  C3  UNL     1      -4.000   0.048  12.660  1.00  0.00     0.117 C 
HETATM    3  N1  UNL     1      -4.208  -0.151  11.245  1.00  0.00    -0.394 N 
ATOM      4  H1  UNL     1      -3.722  -0.868  10.707  1.00  0.00     0.159 HD
HETATM    5  C4  UNL     1      -5.179   0.767  10.652  1.00  0.00     0.153 C 
HETATM    6  C5  UNL     1      -4.679   2.170  11.034  1.00  0.00     0.164 C 
HETATM    7  C6  UNL     1      -4.922   2.337  12.489  1.00  0.00     0.168 C 
ENDROOT
BRANCH   7   8
HETATM    8  N2  UNL     1      -4.558   3.570  13.078  1.00  0.00    -0.396 N 
HETATM    9  C7  UNL     1      -4.113   4.615  12.242  1.00  0.00     0.144 C 
HETATM   10  C8  UNL     1      -4.913   5.909  12.434  1.00  0.00     0.187 C 
HETATM   11  O3  UNL     1      -6.225   5.660  12.778  1.00  0.00    -0.388 OA
HETATM   12  C9  UNL     1      -6.379   4.968  13.952  1.00  0.00     0.187 C 
HETATM   13  C10 UNL     1      -5.300   3.959  14.230  1.00  0.00     0.144 C 
ENDBRANCH   7   8
BRANCH   1  14
HETATM   14  O1  UNL     1      -4.125   1.374  14.588  1.00  0.00    -0.357 OA
HETATM   15  C1  UNL     1      -4.552   0.425  15.547  1.00  0.00     0.209 C 
ENDBRANCH   1  14
BRANCH   6  16
HETATM   16  O2  UNL     1      -3.332   2.181  10.678  1.00  0.00    -0.391 OA
ATOM     17  H2  UNL     1      -3.299   2.661   9.858  1.00  0.00     0.210 HD
ENDBRANCH   6  16
TORSDOF 3
ENDMDL
MODEL 4
REMARK VINA RESULT: -5.185736313      2.808      4.643
REMARK  3 active torsions:
REMARK  status: ('A' for Active; 'I' for Inactive)
REMARK    1  A    between atoms: O1_2  and  C2_3 
REMARK    2  A    between atoms: C5_8  and  O2_9 
REMARK    3  A    between atoms: C6_11  and  N2_12 
ROOT
HETATM    1  C2  UNL     1      -4.678   3.545  12.793  1.00  0.00     0.085 C 
HETATM    2  C3  UNL     1      -3.758   4.329  12.238  1.00  0.00     0.117 C 
HETATM    3  N1  UNL     1      -3.052   5.297  13.044  1.00  0.00    -0.394 N 
ATOM      4  H1  UNL     1      -2.160   5.707  12.766  1.00  0.00     0.159 HD
HETATM    5  C4  UNL     1      -3.727   5.637  14.294  1.00  0.00     0.153 C 
HETATM    6  C5  UNL     1      -3.977   4.287  14.988  1.00  0.00     0.164 C 
HETATM    7  C6  UNL     1      -5.043   3.595  14.220  1.00  0.00     0.168 C 
ENDROOT
BRANCH   7   8
HETATM    8  N2  UNL     1      -5.464   2.326  14.682  1.00  0.00    -0.396 N 
HETATM    9  C7  UNL     1      -4.619   1.216  14.479  1.00  0.00     0.144 C 
HETATM   10  C8  UNL     1      -4.303   0.466  15.778  1.00  0.00     0.187 C 
HETATM   11  O3  UNL     1      -4.270   1.311  16.868  1.00  0.00    -0.388 OA
HETATM   12  C9  UNL     1      -5.451   1.964  17.111  1.00  0.00     0.187 C 
HETATM   13  C10 UNL     1      -6.236   2.319  15.879  1.00  0.00     0.144 C 
ENDBRANCH   7   8
BRANCH   1  14
HETATM   14  O1  UNL     1      -5.346   2.622  12.000  1.00  0.00    -0.357 OA
HETATM   15  C1  UNL     1      -4.737   1.994  10.887  1.00  0.00     0.209 C 
ENDBRANCH   1  14
BRANCH   6  16
HETATM   16  O2  UNL     1      -2.745   3.637  14.962  1.00  0.00    -0.391 OA
ATOM     17  H2  UNL     1      -2.775   3.026  15.689  1.00  0.00     0.210 HD
ENDBRANCH   6  16
TORSDOF 3
ENDMDL
MODEL 5
REMARK VINA RESULT: -5.125169613      2.422      4.789
REMARK  3 active torsions:
REMARK  status: ('A' for Active; 'I' for Inactive)
REMARK    1  A    between atoms: O1_2  and  C2_3 
REMARK    2  A    between atoms: C5_8  and  O2_9 
REMARK    3  A    between atoms: C6_11  and  N2_12 
ROOT
HETATM    1  C2  UNL     1      -6.100   3.171  14.431  1.00  0.00     0.085 C 
HETATM    2  C3  UNL     1      -6.386   3.149  15.730  1.00  0.00     0.117 C 
HETATM    3  N1  UNL     1      -5.734   2.198  16.599  1.00  0.00    -0.394 N 
ATOM      4  H1  UNL     1      -5.681   2.315  17.611  1.00  0.00     0.159 HD
HETATM    5  C4  UNL     1      -5.158   1.052  15.900  1.00  0.00     0.153 C 
HETATM    6  C5  UNL     1      -4.246   1.664  14.823  1.00  0.00     0.164 C 
HETATM    7  C6  UNL     1      -5.132   2.262  13.792  1.00  0.00     0.168 C 
ENDROOT
BRANCH   7   8
HETATM    8  N2  UNL     1      -4.517   2.877  12.676  1.00  0.00    -0.396 N 
HETATM    9  C7  UNL     1      -3.444   3.764  12.897  1.00  0.00     0.144 C 
HETATM   10  C8  UNL     1      -2.186   3.383  12.109  1.00  0.00     0.187 C 
HETATM   11  O3  UNL     1      -2.076   2.019  11.940  1.00  0.00    -0.388 OA
HETATM   12  C9  UNL     1      -3.116   1.449  11.249  1.00  0.00     0.187 C 
HETATM   13  C10 UNL     1      -4.452   2.096  11.486  1.00  0.00     0.144 C 
ENDBRANCH   7   8
BRANCH   1  14
HETATM   14  O1  UNL     1      -6.738   4.093  13.614  1.00  0.00    -0.357 OA
HETATM   15  C1  UNL     1      -6.638   5.490  13.820  1.00  0.00     0.209 C 
ENDBRANCH   1  14
BRANCH   6  16
HETATM   16  O2  UNL     1      -3.460   2.592  15.503  1.00  0.00    -0.391 OA
ATOM     17  H2  UNL     1      -3.724   2.516  16.413  1.00  0.00     0.210 HD
ENDBRANCH   6  16
TORSDOF 3
ENDMDL
