MODEL 1
REMARK VINA RESULT: -8.939528464      0.000      0.000
REMARK  13 active torsions:
REMARK  status: ('A' for Active; 'I' for Inactive)
REMARK    1  A    between atoms: C3_3  and  C4_4 
REMARK    2  A    between atoms: C6_6  and  N1_7 
REMARK    3  A    between atoms: N1_7  and  C7_9 
REMARK    4  A    between atoms: C7_9  and  N2_10 
REMARK    5  A    between atoms: C7_9  and  O1_14 
REMARK    6  A    between atoms: C11_24  and  O4_25 
REMARK    7  A    between atoms: O4_25  and  C12_26 
REMARK    8  A    between atoms: C12_26  and  O5_27 
REMARK    9  A    between atoms: C12_26  and  C13_29 
REMARK   10  A    between atoms: C14_31  and  N5_32 
REMARK   11  A    between atoms: N5_32  and  C15_34 
REMARK   12  A    between atoms: C15_34  and  O7_37 
REMARK   13  A    between atoms: C19_45  and  N8_46 
ROOT
HETATM    1  C4  UNL     1      15.909  49.883  -7.382  1.00  0.00     0.085 C 
HETATM    2  C5  UNL     1      16.991  50.764  -7.334  1.00  0.00     0.110 C 
HETATM    3  C6  UNL     1      16.958  52.115  -7.372  1.00  0.00     0.135 C 
HETATM    4  N3  UNL     1      16.798  52.530  -8.838  1.00  0.00    -0.323 N 
ATOM      5  H3  UNL     1      16.793  53.473  -9.229  1.00  0.00     0.169 HD
HETATM    6  C8  UNL     1      16.663  51.351  -9.496  1.00  0.00     0.186 C 
HETATM    7  C9  UNL     1      15.598  50.517  -9.695  1.00  0.00     0.267 C 
HETATM    8  O2  UNL     1      15.076  50.118 -10.765  1.00  0.00    -0.280 OA
HETATM    9  C10 UNL     1      14.955  49.988  -8.465  1.00  0.00     0.241 C 
HETATM   10  O3  UNL     1      13.905  49.684  -8.286  1.00  0.00    -0.283 OA
HETATM   11  N4  UNL     1      17.628  50.405  -9.895  1.00  0.00    -0.118 N 
HETATM   12  C11 UNL     1      17.657  50.131 -11.200  1.00  0.00     0.257 C 
HETATM   13  C14 UNL     1      18.515  49.721  -8.888  1.00  0.00     0.690 C 
HETATM   14  N6  UNL     1      18.163  49.919  -7.591  1.00  0.00    -0.186 N 
ATOM     15  H6  UNL     1      18.691  49.498  -6.826  1.00  0.00     0.184 HD
ENDROOT
BRANCH   1  16
HETATM   16  C3  UNL     1      15.898  48.970  -6.368  1.00  0.00     0.120 A 
HETATM   17  C2  UNL     1      15.855  47.625  -6.243  1.00  0.00     0.070 A 
HETATM   18  C1  UNL     1      15.829  46.642  -7.287  1.00  0.00     0.074 C 
HETATM   19  N10 UNL     1      15.873  47.298  -4.922  1.00  0.00    -0.206 N 
HETATM   20  C18 UNL     1      15.928  48.442  -4.254  1.00  0.00     0.266 A 
HETATM   21  N9  UNL     1      15.857  46.301  -4.045  1.00  0.00    -0.122 N 
HETATM   22  O8  UNL     1      15.942  49.405  -5.088  1.00  0.00    -0.274 OA
HETATM   23  N7  UNL     1      15.946  48.150  -2.947  1.00  0.00    -0.152 N 
HETATM   24  C19 UNL     1      15.901  46.790  -2.796  1.00  0.00     0.694 A 
ATOM     25  H7  UNL     1      15.986  48.830  -2.187  1.00  0.00     0.188 HD
ATOM     26  H9  UNL     1      15.816  45.311  -4.286  1.00  0.00     0.206 HD
BRANCH  24  27
HETATM   27  N8  UNL     1      15.903  46.141  -1.677  1.00  0.00    -0.233 N 
ATOM     28  H82 UNL     1      16.526  46.256  -0.878  1.00  0.00     0.174 HD
ATOM     29  H81 UNL     1      15.264  45.393  -1.410  1.00  0.00     0.174 HD
ENDBRANCH  24  27
ENDBRANCH   1  16
BRANCH   3  30
HETATM   30  N1  UNL     1      17.027  53.132  -6.500  1.00  0.00    -0.326 N 
ATOM     31  H1  UNL     1      16.688  54.037  -6.827  1.00  0.00     0.165 HD
BRANCH  30  32
HETATM   32  C7  UNL     1      17.534  53.081  -5.137  1.00  0.00     0.425 C 
BRANCH  32  33
HETATM   33  N2  UNL     1      16.709  52.280  -4.271  1.00  0.00    -0.035 N 
ATOM     34  H23 UNL     1      16.145  51.622  -4.808  1.00  0.00     0.279 HD
ATOM     35  H22 UNL     1      17.272  51.616  -3.739  1.00  0.00     0.279 HD
ATOM     36  H21 UNL     1      16.126  52.845  -3.654  1.00  0.00     0.279 HD
ENDBRANCH  32  33
BRANCH  32  37
HETATM   37  O1  UNL     1      17.575  54.393  -4.625  1.00  0.00    -0.355 OA
ATOM     38  H1  UNL     1      18.458  54.573  -4.325  1.00  0.00     0.213 HD
ENDBRANCH  32  37
ENDBRANCH  30  32
ENDBRANCH   3  30
BRANCH  13  39
HETATM   39  N5  UNL     1      19.511  49.018  -9.381  1.00  0.00    -0.194 N 
ATOM     40  H5  UNL     1      19.908  49.369 -10.252  1.00  0.00     0.180 HD
BRANCH  39  41
HETATM   41  C15 UNL     1      20.128  47.799  -8.851  1.00  0.00     0.140 C 
HETATM   42  C16 UNL     1      19.099  46.696  -8.696  1.00  0.00     0.071 C 
HETATM   43  C17 UNL     1      21.225  47.286  -9.757  1.00  0.00     0.071 C 
BRANCH  41  44
HETATM   44  O7  UNL     1      20.695  47.989  -7.593  1.00  0.00    -0.371 OA
ATOM     45  H7  UNL     1      21.598  48.283  -7.639  1.00  0.00     0.212 HD
ENDBRANCH  41  44
ENDBRANCH  39  41
ENDBRANCH  13  39
BRANCH  12  46
HETATM   46  O4  UNL     1      17.851  51.234 -12.077  1.00  0.00    -0.308 OA
BRANCH  46  47
HETATM   47  C12 UNL     1      18.917  52.009 -11.710  1.00  0.00     0.326 C 
BRANCH  47  48
HETATM   48  O5  UNL     1      19.988  51.652 -12.554  1.00  0.00    -0.365 OA
ATOM     49  H5  UNL     1      20.753  52.117 -12.236  1.00  0.00     0.213 HD
ENDBRANCH  47  48
BRANCH  47  50
HETATM   50  C13 UNL     1      18.715  53.454 -11.866  1.00  0.00     0.291 C 
HETATM   51  O6  UNL     1      18.303  54.180 -10.983  1.00  0.00    -0.302 OA
ENDBRANCH  47  50
ENDBRANCH  46  47
ENDBRANCH  12  46
TORSDOF 13
ENDMDL
MODEL 2
REMARK VINA RESULT: -8.489219379      2.494      5.911
REMARK  13 active torsions:
REMARK  status: ('A' for Active; 'I' for Inactive)
REMARK    1  A    between atoms: C3_3  and  C4_4 
REMARK    2  A    between atoms: C6_6  and  N1_7 
REMARK    3  A    between atoms: N1_7  and  C7_9 
REMARK    4  A    between atoms: C7_9  and  N2_10 
REMARK    5  A    between atoms: C7_9  and  O1_14 
REMARK    6  A    between atoms: C11_24  and  O4_25 
REMARK    7  A    between atoms: O4_25  and  C12_26 
REMARK    8  A    between atoms: C12_26  and  O5_27 
REMARK    9  A    between atoms: C12_26  and  C13_29 
REMARK   10  A    between atoms: C14_31  and  N5_32 
REMARK   11  A    between atoms: N5_32  and  C15_34 
REMARK   12  A    between atoms: C15_34  and  O7_37 
REMARK   13  A    between atoms: C19_45  and  N8_46 
ROOT
HETATM    1  C4  UNL     1      17.584  48.371  -5.927  1.00  0.00     0.085 C 
HETATM    2  C5  UNL     1      16.567  47.842  -6.724  1.00  0.00     0.110 C 
HETATM    3  C6  UNL     1      15.846  46.719  -6.506  1.00  0.00     0.135 C 
HETATM    4  N3  UNL     1      16.699  45.530  -6.958  1.00  0.00    -0.323 N 
ATOM      5  H3  UNL     1      16.439  44.544  -6.985  1.00  0.00     0.169 HD
HETATM    6  C8  UNL     1      17.880  46.095  -7.314  1.00  0.00     0.186 C 
HETATM    7  C9  UNL     1      18.967  46.502  -6.594  1.00  0.00     0.267 C 
HETATM    8  O2  UNL     1      20.168  46.144  -6.675  1.00  0.00    -0.280 OA
HETATM    9  C10 UNL     1      18.704  47.533  -5.557  1.00  0.00     0.241 C 
HETATM   10  O3  UNL     1      19.224  47.726  -4.599  1.00  0.00    -0.283 OA
HETATM   11  N4  UNL     1      18.256  46.778  -8.488  1.00  0.00    -0.118 N 
HETATM   12  C11 UNL     1      19.300  46.267  -9.141  1.00  0.00     0.257 C 
HETATM   13  C14 UNL     1      17.544  48.034  -8.922  1.00  0.00     0.690 C 
HETATM   14  N6  UNL     1      16.694  48.555  -8.000  1.00  0.00    -0.186 N 
ATOM     15  H6  UNL     1      16.165  49.407  -8.187  1.00  0.00     0.184 HD
ENDROOT
BRANCH   1  16
HETATM   16  C3  UNL     1      17.403  49.683  -5.603  1.00  0.00     0.120 A 
HETATM   17  C2  UNL     1      16.969  50.393  -4.536  1.00  0.00     0.070 A 
HETATM   18  C1  UNL     1      16.541  49.894  -3.261  1.00  0.00     0.074 C 
HETATM   19  N10 UNL     1      17.023  51.720  -4.831  1.00  0.00    -0.206 N 
HETATM   20  C18 UNL     1      17.489  51.811  -6.068  1.00  0.00     0.266 A 
HETATM   21  N9  UNL     1      16.797  52.947  -4.377  1.00  0.00    -0.122 N 
HETATM   22  O8  UNL     1      17.707  50.637  -6.513  1.00  0.00    -0.274 OA
HETATM   23  N7  UNL     1      17.552  53.110  -6.386  1.00  0.00    -0.152 N 
HETATM   24  C19 UNL     1      17.114  53.849  -5.319  1.00  0.00     0.694 A 
ATOM     25  H7  UNL     1      17.873  53.489  -7.277  1.00  0.00     0.188 HD
ATOM     26  H9  UNL     1      16.435  53.171  -3.450  1.00  0.00     0.206 HD
BRANCH  24  27
HETATM   27  N8  UNL     1      17.035  55.138  -5.258  1.00  0.00    -0.233 N 
ATOM     28  H82 UNL     1      17.093  55.814  -6.020  1.00  0.00     0.174 HD
ATOM     29  H81 UNL     1      16.898  55.698  -4.417  1.00  0.00     0.174 HD
ENDBRANCH  24  27
ENDBRANCH   1  16
BRANCH   3  30
HETATM   30  N1  UNL     1      14.638  46.398  -6.020  1.00  0.00    -0.326 N 
ATOM     31  H1  UNL     1      14.163  45.611  -6.462  1.00  0.00     0.165 HD
BRANCH  30  32
HETATM   32  C7  UNL     1      13.932  47.052  -4.929  1.00  0.00     0.425 C 
BRANCH  32  33
HETATM   33  N2  UNL     1      13.721  48.456  -5.171  1.00  0.00    -0.035 N 
ATOM     34  H23 UNL     1      14.573  48.990  -5.002  1.00  0.00     0.279 HD
ATOM     35  H22 UNL     1      13.607  48.643  -6.167  1.00  0.00     0.279 HD
ATOM     36  H21 UNL     1      12.940  48.832  -4.635  1.00  0.00     0.279 HD
ENDBRANCH  32  33
BRANCH  32  37
HETATM   37  O1  UNL     1      14.696  46.913  -3.753  1.00  0.00    -0.355 OA
ATOM     38  H1  UNL     1      14.123  47.032  -3.004  1.00  0.00     0.213 HD
ENDBRANCH  32  37
ENDBRANCH  30  32
ENDBRANCH   3  30
BRANCH  13  39
HETATM   39  N5  UNL     1      17.834  48.471 -10.128  1.00  0.00    -0.194 N 
ATOM     40  H5  UNL     1      17.746  47.786 -10.878  1.00  0.00     0.180 HD
BRANCH  39  41
HETATM   41  C15 UNL     1      18.266  49.809 -10.542  1.00  0.00     0.140 C 
HETATM   42  C16 UNL     1      19.675  49.774 -11.101  1.00  0.00     0.071 C 
HETATM   43  C17 UNL     1      17.360  50.388 -11.606  1.00  0.00     0.071 C 
BRANCH  41  44
HETATM   44  O7  UNL     1      18.284  50.718  -9.486  1.00  0.00    -0.371 OA
ATOM     45  H7  UNL     1      17.570  51.343  -9.530  1.00  0.00     0.212 HD
ENDBRANCH  41  44
ENDBRANCH  39  41
ENDBRANCH  13  39
BRANCH  12  46
HETATM   46  O4  UNL     1      19.198  44.905  -9.537  1.00  0.00    -0.308 OA
BRANCH  46  47
HETATM   47  C12 UNL     1      19.376  44.739 -10.883  1.00  0.00     0.326 C 
BRANCH  47  48
HETATM   48  O5  UNL     1      19.624  46.019 -11.419  1.00  0.00    -0.365 OA
ATOM     49  H5  UNL     1      20.486  46.280 -11.117  1.00  0.00     0.213 HD
ENDBRANCH  47  48
BRANCH  47  50
HETATM   50  C13 UNL     1      20.514  43.893 -11.258  1.00  0.00     0.291 C 
HETATM   51  O6  UNL     1      21.297  43.418 -10.460  1.00  0.00    -0.302 OA
ENDBRANCH  47  50
ENDBRANCH  46  47
ENDBRANCH  12  46
TORSDOF 13
ENDMDL
MODEL 3
REMARK VINA RESULT: -8.427491200      3.104      5.606
REMARK  13 active torsions:
REMARK  status: ('A' for Active; 'I' for Inactive)
REMARK    1  A    between atoms: C3_3  and  C4_4 
REMARK    2  A    between atoms: C6_6  and  N1_7 
REMARK    3  A    between atoms: N1_7  and  C7_9 
REMARK    4  A    between atoms: C7_9  and  N2_10 
REMARK    5  A    between atoms: C7_9  and  O1_14 
REMARK    6  A    between atoms: C11_24  and  O4_25 
REMARK    7  A    between atoms: O4_25  and  C12_26 
REMARK    8  A    between atoms: C12_26  and  O5_27 
REMARK    9  A    between atoms: C12_26  and  C13_29 
REMARK   10  A    between atoms: C14_31  and  N5_32 
REMARK   11  A    between atoms: N5_32  and  C15_34 
REMARK   12  A    between atoms: C15_34  and  O7_37 
REMARK   13  A    between atoms: C19_45  and  N8_46 
ROOT
HETATM    1  C4  UNL     1      18.225  48.349  -9.832  1.00  0.00     0.085 C 
HETATM    2  C5  UNL     1      19.381  49.024  -9.435  1.00  0.00     0.110 C 
HETATM    3  C6  UNL     1      20.136  49.871 -10.170  1.00  0.00     0.135 C 
HETATM    4  N3  UNL     1      21.045  49.021 -11.063  1.00  0.00    -0.323 N 
ATOM      5  H3  UNL     1      21.777  49.338 -11.699  1.00  0.00     0.169 HD
HETATM    6  C8  UNL     1      20.649  47.748 -10.810  1.00  0.00     0.186 C 
HETATM    7  C9  UNL     1      19.612  46.990 -11.275  1.00  0.00     0.267 C 
HETATM    8  O2  UNL     1      19.625  45.888 -11.877  1.00  0.00    -0.280 OA
HETATM    9  C10 UNL     1      18.253  47.538 -11.031  1.00  0.00     0.241 C 
HETATM   10  O3  UNL     1      17.320  47.412 -11.614  1.00  0.00    -0.283 OA
HETATM   11  N4  UNL     1      20.947  46.889  -9.732  1.00  0.00    -0.118 N 
HETATM   12  C11 UNL     1      21.506  45.725 -10.064  1.00  0.00     0.257 C 
HETATM   13  C14 UNL     1      20.593  47.262  -8.316  1.00  0.00     0.690 C 
HETATM   14  N6  UNL     1      19.790  48.352  -8.197  1.00  0.00    -0.186 N 
ATOM     15  H6  UNL     1      19.484  48.689  -7.284  1.00  0.00     0.184 HD
ENDROOT
BRANCH   1  16
HETATM   16  C3  UNL     1      17.169  48.522  -8.987  1.00  0.00     0.120 A 
HETATM   17  C2  UNL     1      16.256  49.483  -8.722  1.00  0.00     0.070 A 
HETATM   18  C1  UNL     1      16.107  50.758  -9.361  1.00  0.00     0.074 C 
HETATM   19  N10 UNL     1      15.425  49.050  -7.734  1.00  0.00    -0.206 N 
HETATM   20  C18 UNL     1      15.835  47.833  -7.407  1.00  0.00     0.266 A 
HETATM   21  N9  UNL     1      14.380  49.359  -6.977  1.00  0.00    -0.122 N 
HETATM   22  O8  UNL     1      16.840  47.529  -8.129  1.00  0.00    -0.274 OA
HETATM   23  N7  UNL     1      15.034  47.381  -6.434  1.00  0.00    -0.152 N 
HETATM   24  C19 UNL     1      14.100  48.341  -6.147  1.00  0.00     0.694 A 
ATOM     25  H7  UNL     1      15.107  46.470  -5.980  1.00  0.00     0.188 HD
ATOM     26  H9  UNL     1      13.866  50.238  -7.018  1.00  0.00     0.206 HD
BRANCH  24  27
HETATM   27  N8  UNL     1      13.161  48.259  -5.262  1.00  0.00    -0.233 N 
ATOM     28  H82 UNL     1      13.151  47.721  -4.395  1.00  0.00     0.174 HD
ATOM     29  H81 UNL     1      12.258  48.731  -5.292  1.00  0.00     0.174 HD
ENDBRANCH  24  27
ENDBRANCH   1  16
BRANCH   3  30
HETATM   30  N1  UNL     1      20.285  51.197 -10.309  1.00  0.00    -0.326 N 
ATOM     31  H1  UNL     1      20.513  51.722  -9.464  1.00  0.00     0.165 HD
BRANCH  30  32
HETATM   32  C7  UNL     1      20.157  51.967 -11.537  1.00  0.00     0.425 C 
BRANCH  32  33
HETATM   33  N2  UNL     1      18.811  51.972 -12.047  1.00  0.00    -0.035 N 
ATOM     34  H23 UNL     1      18.132  51.872 -11.293  1.00  0.00     0.279 HD
ATOM     35  H22 UNL     1      18.548  52.900 -12.380  1.00  0.00     0.279 HD
ATOM     36  H21 UNL     1      18.664  51.267 -12.769  1.00  0.00     0.279 HD
ENDBRANCH  32  33
BRANCH  32  37
HETATM   37  O1  UNL     1      21.001  51.400 -12.512  1.00  0.00    -0.355 OA
ATOM     38  H1  UNL     1      20.513  51.316 -13.323  1.00  0.00     0.213 HD
ENDBRANCH  32  37
ENDBRANCH  30  32
ENDBRANCH   3  30
BRANCH  13  39
HETATM   39  N5  UNL     1      21.096  46.492  -7.376  1.00  0.00    -0.194 N 
ATOM     40  H5  UNL     1      22.082  46.256  -7.481  1.00  0.00     0.180 HD
BRANCH  39  41
HETATM   41  C15 UNL     1      20.433  45.927  -6.198  1.00  0.00     0.140 C 
HETATM   42  C16 UNL     1      20.626  44.424  -6.138  1.00  0.00     0.071 C 
HETATM   43  C17 UNL     1      20.973  46.515  -4.913  1.00  0.00     0.071 C 
BRANCH  41  44
HETATM   44  O7  UNL     1      19.058  46.147  -6.199  1.00  0.00    -0.371 OA
ATOM     45  H7  UNL     1      18.640  45.856  -5.397  1.00  0.00     0.212 HD
ENDBRANCH  41  44
ENDBRANCH  39  41
ENDBRANCH  13  39
BRANCH  12  46
HETATM   46  O4  UNL     1      22.712  45.789 -10.815  1.00  0.00    -0.308 OA
BRANCH  46  47
HETATM   47  C12 UNL     1      22.629  45.100 -11.994  1.00  0.00     0.326 C 
BRANCH  47  48
HETATM   48  O5  UNL     1      22.594  46.062 -13.024  1.00  0.00    -0.365 OA
ATOM     49  H5  UNL     1      22.242  45.628 -13.792  1.00  0.00     0.213 HD
ENDBRANCH  47  48
BRANCH  47  50
HETATM   50  C13 UNL     1      23.764  44.215 -12.276  1.00  0.00     0.291 C 
HETATM   51  O6  UNL     1      24.720  44.535 -12.955  1.00  0.00    -0.302 OA
ENDBRANCH  47  50
ENDBRANCH  46  47
ENDBRANCH  12  46
TORSDOF 13
ENDMDL
MODEL 4
REMARK VINA RESULT: -8.373645599      3.330      6.458
REMARK  13 active torsions:
REMARK  status: ('A' for Active; 'I' for Inactive)
REMARK    1  A    between atoms: C3_3  and  C4_4 
REMARK    2  A    between atoms: C6_6  and  N1_7 
REMARK    3  A    between atoms: N1_7  and  C7_9 
REMARK    4  A    between atoms: C7_9  and  N2_10 
REMARK    5  A    between atoms: C7_9  and  O1_14 
REMARK    6  A    between atoms: C11_24  and  O4_25 
REMARK    7  A    between atoms: O4_25  and  C12_26 
REMARK    8  A    between atoms: C12_26  and  O5_27 
REMARK    9  A    between atoms: C12_26  and  C13_29 
REMARK   10  A    between atoms: C14_31  and  N5_32 
REMARK   11  A    between atoms: N5_32  and  C15_34 
REMARK   12  A    between atoms: C15_34  and  O7_37 
REMARK   13  A    between atoms: C19_45  and  N8_46 
ROOT
HETATM    1  C4  UNL     1      18.056  49.020 -11.317  1.00  0.00     0.085 C 
HETATM    2  C5  UNL     1      16.747  48.787 -11.745  1.00  0.00     0.110 C 
HETATM    3  C6  UNL     1      16.240  48.965 -12.986  1.00  0.00     0.135 C 
HETATM    4  N3  UNL     1      15.935  50.457 -13.149  1.00  0.00    -0.323 N 
ATOM      5  H3  UNL     1      15.494  50.926 -13.940  1.00  0.00     0.169 HD
HETATM    6  C8  UNL     1      16.390  51.009 -11.996  1.00  0.00     0.186 C 
HETATM    7  C9  UNL     1      17.634  51.387 -11.577  1.00  0.00     0.267 C 
HETATM    8  O2  UNL     1      18.052  52.510 -11.199  1.00  0.00    -0.280 OA
HETATM    9  C10 UNL     1      18.661  50.313 -11.553  1.00  0.00     0.241 C 
HETATM   10  O3  UNL     1      19.758  50.376 -11.685  1.00  0.00    -0.283 OA
HETATM   11  N4  UNL     1      15.815  51.058 -10.710  1.00  0.00    -0.118 N 
HETATM   12  C11 UNL     1      15.641  52.280 -10.206  1.00  0.00     0.257 C 
HETATM   13  C14 UNL     1      15.482  49.797  -9.955  1.00  0.00     0.690 C 
HETATM   14  N6  UNL     1      15.975  48.657 -10.505  1.00  0.00    -0.186 N 
ATOM     15  H6  UNL     1      15.815  47.747 -10.072  1.00  0.00     0.184 HD
ENDROOT
BRANCH   1  16
HETATM   16  C3  UNL     1      18.621  47.958 -10.676  1.00  0.00     0.120 A 
HETATM   17  C2  UNL     1      19.218  47.718  -9.486  1.00  0.00     0.070 A 
HETATM   18  C1  UNL     1      19.433  48.637  -8.406  1.00  0.00     0.074 C 
HETATM   19  N10 UNL     1      19.584  46.408  -9.426  1.00  0.00    -0.206 N 
HETATM   20  C18 UNL     1      19.207  45.861 -10.573  1.00  0.00     0.266 A 
HETATM   21  N9  UNL     1      20.161  45.471  -8.684  1.00  0.00    -0.122 N 
HETATM   22  O8  UNL     1      18.653  46.754 -11.293  1.00  0.00    -0.274 OA
HETATM   23  N7  UNL     1      19.556  44.568 -10.541  1.00  0.00    -0.152 N 
HETATM   24  C19 UNL     1      20.166  44.303  -9.344  1.00  0.00     0.694 A 
ATOM     25  H7  UNL     1      19.395  43.891 -11.288  1.00  0.00     0.188 HD
ATOM     26  H9  UNL     1      20.545  45.618  -7.751  1.00  0.00     0.206 HD
BRANCH  24  27
HETATM   27  N8  UNL     1      20.635  43.161  -8.958  1.00  0.00    -0.233 N 
ATOM     28  H82 UNL     1      20.149  42.407  -8.472  1.00  0.00     0.174 HD
ATOM     29  H81 UNL     1      21.589  42.825  -9.082  1.00  0.00     0.174 HD
ENDBRANCH  24  27
ENDBRANCH   1  16
BRANCH   3  30
HETATM   30  N1  UNL     1      15.950  48.207 -14.054  1.00  0.00    -0.326 N 
ATOM     31  H1  UNL     1      16.146  47.209 -13.972  1.00  0.00     0.165 HD
BRANCH  30  32
HETATM   32  C7  UNL     1      15.385  48.657 -15.317  1.00  0.00     0.425 C 
BRANCH  32  33
HETATM   33  N2  UNL     1      14.136  48.010 -15.624  1.00  0.00    -0.035 N 
ATOM     34  H23 UNL     1      14.217  47.435 -16.463  1.00  0.00     0.279 HD
ATOM     35  H22 UNL     1      13.925  47.279 -14.945  1.00  0.00     0.279 HD
ATOM     36  H21 UNL     1      13.363  48.670 -15.706  1.00  0.00     0.279 HD
ENDBRANCH  32  33
BRANCH  32  37
HETATM   37  O1  UNL     1      16.302  48.368 -16.347  1.00  0.00    -0.355 OA
ATOM     38  H1  UNL     1      16.898  47.694 -16.041  1.00  0.00     0.213 HD
ENDBRANCH  32  37
ENDBRANCH  30  32
ENDBRANCH   3  30
BRANCH  13  39
HETATM   39  N5  UNL     1      14.766  49.953  -8.863  1.00  0.00    -0.194 N 
ATOM     40  H5  UNL     1      13.831  50.336  -9.001  1.00  0.00     0.180 HD
BRANCH  39  41
HETATM   41  C15 UNL     1      15.126  49.651  -7.475  1.00  0.00     0.140 C 
HETATM   42  C16 UNL     1      15.605  48.218  -7.341  1.00  0.00     0.071 C 
HETATM   43  C17 UNL     1      16.227  50.556  -6.971  1.00  0.00     0.071 C 
BRANCH  41  44
HETATM   44  O7  UNL     1      14.052  49.791  -6.600  1.00  0.00    -0.371 OA
ATOM     45  H7  UNL     1      14.297  49.641  -5.694  1.00  0.00     0.212 HD
ENDBRANCH  41  44
ENDBRANCH  39  41
ENDBRANCH  13  39
BRANCH  12  46
HETATM   46  O4  UNL     1      14.863  53.184 -10.981  1.00  0.00    -0.308 OA
BRANCH  46  47
HETATM   47  C12 UNL     1      15.131  54.492 -10.681  1.00  0.00     0.326 C 
BRANCH  47  48
HETATM   48  O5  UNL     1      16.483  54.714 -11.011  1.00  0.00    -0.365 OA
ATOM     49  H5  UNL     1      16.856  55.229 -10.305  1.00  0.00     0.213 HD
ENDBRANCH  47  48
BRANCH  47  50
HETATM   50  C13 UNL     1      14.342  55.474 -11.433  1.00  0.00     0.291 C 
HETATM   51  O6  UNL     1      13.987  55.319 -12.584  1.00  0.00    -0.302 OA
ENDBRANCH  47  50
ENDBRANCH  46  47
ENDBRANCH  12  46
TORSDOF 13
ENDMDL
MODEL 5
REMARK VINA RESULT: -8.338023281      2.952      7.102
REMARK  13 active torsions:
REMARK  status: ('A' for Active; 'I' for Inactive)
REMARK    1  A    between atoms: C3_3  and  C4_4 
REMARK    2  A    between atoms: C6_6  and  N1_7 
REMARK    3  A    between atoms: N1_7  and  C7_9 
REMARK    4  A    between atoms: C7_9  and  N2_10 
REMARK    5  A    between atoms: C7_9  and  O1_14 
REMARK    6  A    between atoms: C11_24  and  O4_25 
REMARK    7  A    between atoms: O4_25  and  C12_26 
REMARK    8  A    between atoms: C12_26  and  O5_27 
REMARK    9  A    between atoms: C12_26  and  C13_29 
REMARK   10  A    between atoms: C14_31  and  N5_32 
REMARK   11  A    between atoms: N5_32  and  C15_34 
REMARK   12  A    between atoms: C15_34  and  O7_37 
REMARK   13  A    between atoms: C19_45  and  N8_46 
ROOT
HETATM    1  C4  UNL     1      18.839  48.614 -10.098  1.00  0.00     0.085 C 
HETATM    2  C5  UNL     1      17.590  48.071 -10.406  1.00  0.00     0.110 C 
HETATM    3  C6  UNL     1      16.615  48.620 -11.165  1.00  0.00     0.135 C 
HETATM    4  N3  UNL     1      15.864  49.629 -10.292  1.00  0.00    -0.323 N 
ATOM      5  H3  UNL     1      15.039  50.178 -10.532  1.00  0.00     0.169 HD
HETATM    6  C8  UNL     1      16.554  49.622  -9.123  1.00  0.00     0.186 C 
HETATM    7  C9  UNL     1      17.702  50.244  -8.720  1.00  0.00     0.267 C 
HETATM    8  O2  UNL     1      17.898  51.037  -7.766  1.00  0.00    -0.280 OA
HETATM    9  C10 UNL     1      18.915  49.939  -9.521  1.00  0.00     0.241 C 
HETATM   10  O3  UNL     1      19.811  50.559  -9.719  1.00  0.00    -0.283 OA
HETATM   11  N4  UNL     1      16.531  48.712  -8.047  1.00  0.00    -0.118 N 
HETATM   12  C11 UNL     1      16.228  49.237  -6.858  1.00  0.00     0.257 C 
HETATM   13  C14 UNL     1      16.885  47.261  -8.244  1.00  0.00     0.690 C 
HETATM   14  N6  UNL     1      17.427  46.966  -9.454  1.00  0.00    -0.186 N 
ATOM     15  H6  UNL     1      17.709  46.015  -9.692  1.00  0.00     0.184 HD
ENDROOT
BRANCH   1  16
HETATM   16  C3  UNL     1      19.883  47.778 -10.366  1.00  0.00     0.120 A 
HETATM   17  C2  UNL     1      20.803  47.079  -9.664  1.00  0.00     0.070 A 
HETATM   18  C1  UNL     1      20.943  46.990  -8.240  1.00  0.00     0.074 C 
HETATM   19  N10 UNL     1      21.608  46.404 -10.529  1.00  0.00    -0.206 N 
HETATM   20  C18 UNL     1      21.174  46.694 -11.748  1.00  0.00     0.266 A 
HETATM   21  N9  UNL     1      22.643  45.581 -10.638  1.00  0.00    -0.122 N 
HETATM   22  O8  UNL     1      20.180  47.485 -11.654  1.00  0.00    -0.274 OA
HETATM   23  N7  UNL     1      21.951  46.042 -12.622  1.00  0.00    -0.152 N 
HETATM   24  C19 UNL     1      22.893  45.327 -11.932  1.00  0.00     0.694 A 
ATOM     25  H7  UNL     1      21.856  46.073 -13.638  1.00  0.00     0.188 HD
ATOM     26  H9  UNL     1      23.171  45.198  -9.854  1.00  0.00     0.206 HD
BRANCH  24  27
HETATM   27  N8  UNL     1      23.813  44.576 -12.442  1.00  0.00    -0.233 N 
ATOM     28  H82 UNL     1      24.811  44.561 -12.229  1.00  0.00     0.174 HD
ATOM     29  H81 UNL     1      23.684  43.861 -13.158  1.00  0.00     0.174 HD
ENDBRANCH  24  27
ENDBRANCH   1  16
BRANCH   3  30
HETATM   30  N1  UNL     1      16.162  48.511 -12.423  1.00  0.00    -0.326 N 
ATOM     31  H1  UNL     1      16.196  47.581 -12.841  1.00  0.00     0.165 HD
BRANCH  30  32
HETATM   32  C7  UNL     1      15.626  49.578 -13.254  1.00  0.00     0.425 C 
BRANCH  32  33
HETATM   33  N2  UNL     1      15.539  49.205 -14.642  1.00  0.00    -0.035 N 
ATOM     34  H23 UNL     1      16.459  49.212 -15.082  1.00  0.00     0.279 HD
ATOM     35  H22 UNL     1      15.317  48.215 -14.743  1.00  0.00     0.279 HD
ATOM     36  H21 UNL     1      14.881  49.784 -15.162  1.00  0.00     0.279 HD
ENDBRANCH  32  33
BRANCH  32  37
HETATM   37  O1  UNL     1      16.471  50.699 -13.145  1.00  0.00    -0.355 OA
ATOM     38  H1  UNL     1      17.276  50.431 -12.716  1.00  0.00     0.213 HD
ENDBRANCH  32  37
ENDBRANCH  30  32
ENDBRANCH   3  30
BRANCH  13  39
HETATM   39  N5  UNL     1      16.633  46.465  -7.228  1.00  0.00    -0.194 N 
ATOM     40  H5  UNL     1      15.649  46.249  -7.071  1.00  0.00     0.180 HD
BRANCH  39  41
HETATM   41  C15 UNL     1      17.573  45.844  -6.290  1.00  0.00     0.140 C 
HETATM   42  C16 UNL     1      18.343  44.722  -6.960  1.00  0.00     0.071 C 
HETATM   43  C17 UNL     1      18.578  46.842  -5.759  1.00  0.00     0.071 C 
BRANCH  41  44
HETATM   44  O7  UNL     1      16.936  45.282  -5.187  1.00  0.00    -0.371 OA
ATOM     45  H7  UNL     1      16.985  45.834  -4.415  1.00  0.00     0.212 HD
ENDBRANCH  41  44
ENDBRANCH  39  41
ENDBRANCH  13  39
BRANCH  12  46
HETATM   46  O4  UNL     1      14.991  49.932  -6.766  1.00  0.00    -0.308 OA
BRANCH  46  47
HETATM   47  C12 UNL     1      13.981  49.136  -6.299  1.00  0.00     0.326 C 
BRANCH  47  48
HETATM   48  O5  UNL     1      13.500  48.402  -7.402  1.00  0.00    -0.365 OA
ATOM     49  H5  UNL     1      12.721  47.945  -7.107  1.00  0.00     0.213 HD
ENDBRANCH  47  48
BRANCH  47  50
HETATM   50  C13 UNL     1      14.382  48.159  -5.280  1.00  0.00     0.291 C 
HETATM   51  O6  UNL     1      14.246  46.958  -5.403  1.00  0.00    -0.302 OA
ENDBRANCH  47  50
ENDBRANCH  46  47
ENDBRANCH  12  46
TORSDOF 13
ENDMDL
