MODEL 1
REMARK VINA RESULT: -9.074036437      0.000      0.000
REMARK  11 active torsions:
REMARK  status: ('A' for Active; 'I' for Inactive)
REMARK    1  A    between atoms: C2_2  and  O1_3 
REMARK    2  A    between atoms: C2_2  and  C3_5 
REMARK    3  A    between atoms: C3_5  and  O2_6 
REMARK    4  A    between atoms: C3_5  and  C4_8 
REMARK    5  A    between atoms: C4_8  and  N1_10 
REMARK    6  A    between atoms: C7_14  and  N2_15 
REMARK    7  A    between atoms: C8_19  and  C9_20 
REMARK       I    between atoms: C9_20  and  N5_22 
REMARK    8  A    between atoms: N5_22  and  N6_24 
REMARK    9  A    between atoms: N7_26  and  C10_28 
REMARK   10  A    between atoms: C13_43  and  N14_44 
REMARK   11  A    between atoms: N16_50  and  O5_51 
ROOT
HETATM    1  N1  UNL     1      16.844  49.301  -4.085  1.00  0.00    -0.210 N 
HETATM    2  C5  UNL     1      17.055  49.505  -5.401  1.00  0.00     0.283 A 
HETATM    3  O3  UNL     1      17.168  48.657  -6.324  1.00  0.00    -0.265 OA
HETATM    4  C6  UNL     1      17.138  50.862  -5.635  1.00  0.00     0.130 A 
HETATM    5  C7  UNL     1      17.343  51.590  -6.789  1.00  0.00     0.178 A 
HETATM    6  N13 UNL     1      17.367  52.941  -6.645  1.00  0.00    -0.173 N 
ATOM      7  H13 UNL     1      17.515  53.521  -7.471  1.00  0.00     0.186 HD
HETATM    8  C13 UNL     1      17.202  53.542  -5.454  1.00  0.00     0.679 A 
HETATM    9  N15 UNL     1      17.005  52.798  -4.349  1.00  0.00    -0.172 N 
ATOM     10  H15 UNL     1      16.882  53.266  -3.451  1.00  0.00     0.186 HD
HETATM   11  C14 UNL     1      16.965  51.440  -4.399  1.00  0.00     0.186 A 
HETATM   12  N16 UNL     1      16.789  50.471  -3.475  1.00  0.00    -0.138 N 
ENDROOT
BRANCH   5  13
HETATM   13  N2  UNL     1      17.520  50.986  -8.061  1.00  0.00    -0.160 N 
HETATM   14  N3  UNL     1      16.846  51.125  -9.191  1.00  0.00     0.004 NA
HETATM   15  N4  UNL     1      17.358  50.363 -10.146  1.00  0.00    -0.262 N 
HETATM   16  C8  UNL     1      18.391  49.716  -9.615  1.00  0.00     0.205 A 
ATOM     17  H4  UNL     1      17.024  50.288 -11.106  1.00  0.00     0.186 HD
HETATM   18  N12 UNL     1      18.475  50.110  -8.340  1.00  0.00    -0.258 N 
ATOM     19  H12 UNL     1      19.176  49.782  -7.676  1.00  0.00     0.190 HD
BRANCH  16  20
HETATM   20  C9  UNL     1      19.250  48.756 -10.341  1.00  0.00     0.307 C 
HETATM   21  O4  UNL     1      20.149  49.178 -11.130  1.00  0.00    -0.262 OA
HETATM   22  N5  UNL     1      19.100  47.367 -10.182  1.00  0.00    -0.249 N 
ATOM     23  H5  UNL     1      18.384  47.001  -9.554  1.00  0.00     0.192 HD
BRANCH  22  24
HETATM   24  N6  UNL     1      19.919  46.493 -10.876  1.00  0.00    -0.238 N 
HETATM   25  N7  UNL     1      21.151  46.358 -10.568  1.00  0.00    -0.268 N 
ATOM     26  H7  UNL     1      21.526  46.910  -9.797  1.00  0.00     0.190 HD
ATOM     27  H6  UNL     1      19.533  45.946 -11.646  1.00  0.00     0.208 HD
BRANCH  25  28
HETATM   28  C10 UNL     1      22.016  45.474 -11.256  1.00  0.00     0.178 A 
HETATM   29  N8  UNL     1      23.189  45.768 -11.837  1.00  0.00    -0.172 N 
HETATM   30  C11 UNL     1      23.664  44.635 -12.367  1.00  0.00     0.678 A 
ATOM     31  H8  UNL     1      23.636  46.685 -11.867  1.00  0.00     0.186 HD
HETATM   32  N9  UNL     1      24.788  44.547 -13.011  1.00  0.00    -0.234 N 
HETATM   33  N10 UNL     1      22.836  43.604 -12.152  1.00  0.00    -0.175 N 
ATOM     34  H92 UNL     1      25.419  45.331 -13.175  1.00  0.00     0.174 HD
ATOM     35  H91 UNL     1      25.150  43.683 -13.415  1.00  0.00     0.174 HD
HETATM   36  C12 UNL     1      21.810  44.127 -11.459  1.00  0.00     0.177 A 
ATOM     37  H10 UNL     1      22.957  42.636 -12.449  1.00  0.00     0.185 HD
HETATM   38  N11 UNL     1      20.690  43.348 -11.023  1.00  0.00    -0.078 NA
ENDBRANCH  25  28
ENDBRANCH  22  24
ENDBRANCH  16  20
ENDBRANCH   5  13
BRANCH   8  39
HETATM   39  N14 UNL     1      17.229  54.844  -5.334  1.00  0.00    -0.234 N 
ATOM     40 2H14 UNL     1      16.766  55.409  -6.046  1.00  0.00     0.174 HD
ATOM     41 1H14 UNL     1      17.698  55.299  -4.551  1.00  0.00     0.174 HD
ENDBRANCH   8  39
BRANCH   1  42
HETATM   42  C4  UNL     1      16.704  48.024  -3.483  1.00  0.00     0.217 C 
HETATM   43  S1  UNL     1      18.257  47.111  -3.771  1.00  0.00    -0.065 SA
BRANCH  42  44
HETATM   44  C3  UNL     1      15.584  47.165  -3.903  1.00  0.00     0.182 C 
BRANCH  44  45
HETATM   45  C2  UNL     1      14.332  47.884  -4.327  1.00  0.00     0.145 C 
HETATM   46  C1  UNL     1      13.936  47.700  -5.744  1.00  0.00     0.042 C 
BRANCH  45  47
HETATM   47  O1  UNL     1      13.265  47.588  -3.479  1.00  0.00    -0.393 OA
ATOM     48  H1  UNL     1      13.335  46.697  -3.155  1.00  0.00     0.210 HD
ENDBRANCH  45  47
ENDBRANCH  44  45
BRANCH  44  49
HETATM   49  O2  UNL     1      15.868  46.219  -4.869  1.00  0.00    -0.390 OA
ATOM     50  H2  UNL     1      16.667  45.775  -4.609  1.00  0.00     0.210 HD
ENDBRANCH  44  49
ENDBRANCH  42  44
ENDBRANCH   1  42
BRANCH  12  51
HETATM   51  O5  UNL     1      16.589  50.769  -2.149  1.00  0.00    -0.266 OA
ATOM     52  H5  UNL     1      15.790  50.770  -1.635  1.00  0.00     0.247 HD
ENDBRANCH  12  51
TORSDOF 11
ENDMDL
MODEL 2
REMARK VINA RESULT: -9.060360148      4.627      8.588
REMARK  11 active torsions:
REMARK  status: ('A' for Active; 'I' for Inactive)
REMARK    1  A    between atoms: C2_2  and  O1_3 
REMARK    2  A    between atoms: C2_2  and  C3_5 
REMARK    3  A    between atoms: C3_5  and  O2_6 
REMARK    4  A    between atoms: C3_5  and  C4_8 
REMARK    5  A    between atoms: C4_8  and  N1_10 
REMARK    6  A    between atoms: C7_14  and  N2_15 
REMARK    7  A    between atoms: C8_19  and  C9_20 
REMARK       I    between atoms: C9_20  and  N5_22 
REMARK    8  A    between atoms: N5_22  and  N6_24 
REMARK    9  A    between atoms: N7_26  and  C10_28 
REMARK   10  A    between atoms: C13_43  and  N14_44 
REMARK   11  A    between atoms: N16_50  and  O5_51 
ROOT
HETATM    1  N1  UNL     1      16.774  49.126  -6.027  1.00  0.00    -0.210 N 
HETATM    2  C5  UNL     1      16.635  49.549  -7.300  1.00  0.00     0.283 A 
HETATM    3  O3  UNL     1      15.711  50.237  -7.807  1.00  0.00    -0.265 OA
HETATM    4  C6  UNL     1      17.711  49.105  -8.040  1.00  0.00     0.130 A 
HETATM    5  C7  UNL     1      18.047  49.259  -9.369  1.00  0.00     0.178 A 
HETATM    6  N13 UNL     1      19.207  48.673  -9.763  1.00  0.00    -0.173 N 
ATOM      7  H13 UNL     1      19.496  48.762 -10.737  1.00  0.00     0.186 HD
HETATM    8  C13 UNL     1      19.989  47.981  -8.916  1.00  0.00     0.679 A 
HETATM    9  N15 UNL     1      19.629  47.851  -7.625  1.00  0.00    -0.172 N 
ATOM     10  H15 UNL     1      20.230  47.323  -6.992  1.00  0.00     0.186 HD
HETATM   11  C14 UNL     1      18.484  48.405  -7.143  1.00  0.00     0.186 A 
HETATM   12  N16 UNL     1      17.894  48.433  -5.929  1.00  0.00    -0.138 N 
ENDROOT
BRANCH   5  13
HETATM   13  N2  UNL     1      17.244  49.984 -10.288  1.00  0.00    -0.160 N 
HETATM   14  N3  UNL     1      16.469  49.574 -11.278  1.00  0.00     0.004 NA
HETATM   15  N4  UNL     1      15.895  50.599 -11.888  1.00  0.00    -0.262 N 
HETATM   16  C8  UNL     1      16.311  51.701 -11.273  1.00  0.00     0.205 A 
ATOM     17  H4  UNL     1      15.254  50.552 -12.681  1.00  0.00     0.186 HD
HETATM   18  N12 UNL     1      17.135  51.306 -10.297  1.00  0.00    -0.258 N 
ATOM     19  H12 UNL     1      17.613  51.934  -9.650  1.00  0.00     0.190 HD
BRANCH  16  20
HETATM   20  C9  UNL     1      15.910  53.076 -11.638  1.00  0.00     0.307 C 
HETATM   21  O4  UNL     1      15.772  53.396 -12.858  1.00  0.00    -0.262 OA
HETATM   22  N5  UNL     1      15.671  54.059 -10.660  1.00  0.00    -0.249 N 
ATOM     23  H5  UNL     1      15.775  53.828  -9.672  1.00  0.00     0.192 HD
BRANCH  22  24
HETATM   24  N6  UNL     1      15.297  55.339 -11.034  1.00  0.00    -0.238 N 
HETATM   25  N7  UNL     1      14.306  55.535 -11.813  1.00  0.00    -0.268 N 
ATOM     26  H7  UNL     1      13.788  54.728 -12.161  1.00  0.00     0.190 HD
ATOM     27  H6  UNL     1      15.822  56.139 -10.680  1.00  0.00     0.208 HD
BRANCH  25  28
HETATM   28  C10 UNL     1      13.896  56.829 -12.215  1.00  0.00     0.178 A 
HETATM   29  N8  UNL     1      12.719  57.182 -12.751  1.00  0.00    -0.172 N 
HETATM   30  C11 UNL     1      12.764  58.501 -12.975  1.00  0.00     0.678 A 
ATOM     31  H8  UNL     1      11.935  56.561 -12.952  1.00  0.00     0.186 HD
HETATM   32  N9  UNL     1      11.791  59.187 -13.491  1.00  0.00    -0.234 N 
HETATM   33  N10 UNL     1      13.939  59.025 -12.600  1.00  0.00    -0.175 N 
ATOM     34  H92 UNL     1      10.896  58.788 -13.776  1.00  0.00     0.174 HD
ATOM     35  H91 UNL     1      11.825  60.192 -13.661  1.00  0.00     0.174 HD
HETATM   36  C12 UNL     1      14.643  57.983 -12.126  1.00  0.00     0.177 A 
ATOM     37  H10 UNL     1      14.234  60.000 -12.661  1.00  0.00     0.185 HD
HETATM   38  N11 UNL     1      15.976  58.114 -11.615  1.00  0.00    -0.078 NA
ENDBRANCH  25  28
ENDBRANCH  22  24
ENDBRANCH  16  20
ENDBRANCH   5  13
BRANCH   8  39
HETATM   39  N14 UNL     1      21.102  47.423  -9.313  1.00  0.00    -0.234 N 
ATOM     40 2H14 UNL     1      21.837  48.018  -9.696  1.00  0.00     0.174 HD
ATOM     41 1H14 UNL     1      21.248  46.415  -9.249  1.00  0.00     0.174 HD
ENDBRANCH   8  39
BRANCH   1  42
HETATM   42  C4  UNL     1      15.853  49.399  -4.985  1.00  0.00     0.217 C 
HETATM   43  S1  UNL     1      16.746  50.335  -3.698  1.00  0.00    -0.065 SA
BRANCH  42  44
HETATM   44  C3  UNL     1      15.167  48.269  -4.335  1.00  0.00     0.182 C 
BRANCH  44  45
HETATM   45  C2  UNL     1      14.380  47.369  -5.249  1.00  0.00     0.145 C 
HETATM   46  C1  UNL     1      15.105  46.178  -5.756  1.00  0.00     0.042 C 
BRANCH  45  47
HETATM   47  O1  UNL     1      13.169  46.994  -4.670  1.00  0.00    -0.393 OA
ATOM     48  H1  UNL     1      12.640  47.759  -4.478  1.00  0.00     0.210 HD
ENDBRANCH  45  47
ENDBRANCH  44  45
BRANCH  44  49
HETATM   49  O2  UNL     1      15.948  47.463  -3.528  1.00  0.00    -0.390 OA
ATOM     50  H2  UNL     1      16.099  47.932  -2.715  1.00  0.00     0.210 HD
ENDBRANCH  44  49
ENDBRANCH  42  44
ENDBRANCH   1  42
BRANCH  12  51
HETATM   51  O5  UNL     1      18.457  47.810  -4.840  1.00  0.00    -0.266 OA
ATOM     52  H5  UNL     1      19.346  47.507  -4.701  1.00  0.00     0.247 HD
ENDBRANCH  12  51
TORSDOF 11
ENDMDL
MODEL 3
REMARK VINA RESULT: -9.031923910      1.371      2.014
REMARK  11 active torsions:
REMARK  status: ('A' for Active; 'I' for Inactive)
REMARK    1  A    between atoms: C2_2  and  O1_3 
REMARK    2  A    between atoms: C2_2  and  C3_5 
REMARK    3  A    between atoms: C3_5  and  O2_6 
REMARK    4  A    between atoms: C3_5  and  C4_8 
REMARK    5  A    between atoms: C4_8  and  N1_10 
REMARK    6  A    between atoms: C7_14  and  N2_15 
REMARK    7  A    between atoms: C8_19  and  C9_20 
REMARK       I    between atoms: C9_20  and  N5_22 
REMARK    8  A    between atoms: N5_22  and  N6_24 
REMARK    9  A    between atoms: N7_26  and  C10_28 
REMARK   10  A    between atoms: C13_43  and  N14_44 
REMARK   11  A    between atoms: N16_50  and  O5_51 
ROOT
HETATM    1  N1  UNL     1      17.033  49.002  -4.367  1.00  0.00    -0.210 N 
HETATM    2  C5  UNL     1      17.259  49.271  -5.668  1.00  0.00     0.283 A 
HETATM    3  O3  UNL     1      17.459  48.468  -6.618  1.00  0.00    -0.265 OA
HETATM    4  C6  UNL     1      17.243  50.638  -5.853  1.00  0.00     0.130 A 
HETATM    5  C7  UNL     1      17.418  51.421  -6.974  1.00  0.00     0.178 A 
HETATM    6  N13 UNL     1      17.334  52.764  -6.783  1.00  0.00    -0.173 N 
ATOM      7  H13 UNL     1      17.457  53.383  -7.585  1.00  0.00     0.186 HD
HETATM    8  C13 UNL     1      17.096  53.307  -5.576  1.00  0.00     0.679 A 
HETATM    9  N15 UNL     1      16.931  52.509  -4.504  1.00  0.00    -0.172 N 
ATOM     10  H15 UNL     1      16.751  52.933  -3.593  1.00  0.00     0.186 HD
HETATM   11  C14 UNL     1      16.997  51.154  -4.603  1.00  0.00     0.186 A 
HETATM   12  N16 UNL     1      16.874  50.141  -3.718  1.00  0.00    -0.138 N 
ENDROOT
BRANCH   5  13
HETATM   13  N2  UNL     1      17.671  50.880  -8.262  1.00  0.00    -0.160 N 
HETATM   14  N3  UNL     1      17.042  51.044  -9.414  1.00  0.00     0.004 NA
HETATM   15  N4  UNL     1      17.621  50.343 -10.376  1.00  0.00    -0.262 N 
HETATM   16  C8  UNL     1      18.653  49.709  -9.829  1.00  0.00     0.205 A 
ATOM     17  H4  UNL     1      17.330  50.298 -11.353  1.00  0.00     0.186 HD
HETATM   18  N12 UNL     1      18.668  50.049  -8.536  1.00  0.00    -0.258 N 
ATOM     19  H12 UNL     1      19.351  49.717  -7.855  1.00  0.00     0.190 HD
BRANCH  16  20
HETATM   20  C9  UNL     1      19.576  48.811 -10.555  1.00  0.00     0.307 C 
HETATM   21  O4  UNL     1      20.607  49.284 -11.122  1.00  0.00    -0.262 OA
HETATM   22  N5  UNL     1      19.344  47.427 -10.639  1.00  0.00    -0.249 N 
ATOM     23  H5  UNL     1      18.522  47.021 -10.192  1.00  0.00     0.192 HD
BRANCH  22  24
HETATM   24  N6  UNL     1      20.227  46.612 -11.327  1.00  0.00    -0.238 N 
HETATM   25  N7  UNL     1      21.380  46.340 -10.853  1.00  0.00    -0.268 N 
ATOM     26  H7  UNL     1      21.644  46.736  -9.951  1.00  0.00     0.190 HD
ATOM     27  H6  UNL     1      19.952  46.222 -12.229  1.00  0.00     0.208 HD
BRANCH  25  28
HETATM   28  C10 UNL     1      22.306  45.511 -11.530  1.00  0.00     0.178 A 
HETATM   29  N8  UNL     1      23.465  45.877 -12.098  1.00  0.00    -0.172 N 
HETATM   30  C11 UNL     1      24.016  44.776 -12.621  1.00  0.00     0.678 A 
ATOM     31  H8  UNL     1      23.854  46.820 -12.126  1.00  0.00     0.186 HD
HETATM   32  N9  UNL     1      25.150  44.757 -13.252  1.00  0.00    -0.234 N 
HETATM   33  N10 UNL     1      23.251  43.695 -12.413  1.00  0.00    -0.175 N 
ATOM     34  H92 UNL     1      25.732  45.579 -13.411  1.00  0.00     0.174 HD
ATOM     35  H91 UNL     1      25.570  43.917 -13.652  1.00  0.00     0.174 HD
HETATM   36  C12 UNL     1      22.187  44.154 -11.732  1.00  0.00     0.177 A 
ATOM     37  H10 UNL     1      23.436  42.736 -12.707  1.00  0.00     0.185 HD
HETATM   38  N11 UNL     1      21.114  43.306 -11.306  1.00  0.00    -0.078 NA
ENDBRANCH  25  28
ENDBRANCH  22  24
ENDBRANCH  16  20
ENDBRANCH   5  13
BRANCH   8  39
HETATM   39  N14 UNL     1      17.019  54.601  -5.411  1.00  0.00    -0.234 N 
ATOM     40 2H14 UNL     1      16.633  55.167  -6.166  1.00  0.00     0.174 HD
ATOM     41 1H14 UNL     1      17.335  55.049  -4.551  1.00  0.00     0.174 HD
ENDBRANCH   8  39
BRANCH   1  42
HETATM   42  C4  UNL     1      16.978  47.698  -3.813  1.00  0.00     0.217 C 
HETATM   43  S1  UNL     1      15.247  47.381  -3.332  1.00  0.00    -0.065 SA
BRANCH  42  44
HETATM   44  C3  UNL     1      17.838  47.385  -2.659  1.00  0.00     0.182 C 
BRANCH  44  45
HETATM   45  C2  UNL     1      18.592  46.085  -2.739  1.00  0.00     0.145 C 
HETATM   46  C1  UNL     1      20.065  46.190  -2.592  1.00  0.00     0.042 C 
BRANCH  45  47
HETATM   47  O1  UNL     1      18.078  45.145  -1.849  1.00  0.00    -0.393 OA
ATOM     48  H1  UNL     1      17.998  44.296  -2.270  1.00  0.00     0.210 HD
ENDBRANCH  45  47
ENDBRANCH  44  45
BRANCH  44  49
HETATM   49  O2  UNL     1      18.736  48.366  -2.282  1.00  0.00    -0.390 OA
ATOM     50  H2  UNL     1      18.844  48.954  -3.020  1.00  0.00     0.210 HD
ENDBRANCH  44  49
ENDBRANCH  42  44
ENDBRANCH   1  42
BRANCH  12  51
HETATM   51  O5  UNL     1      16.621  50.375  -2.388  1.00  0.00    -0.266 OA
ATOM     52  H5  UNL     1      16.378  51.178  -1.942  1.00  0.00     0.247 HD
ENDBRANCH  12  51
TORSDOF 11
ENDMDL
MODEL 4
REMARK VINA RESULT: -8.961887094      1.332      1.647
REMARK  11 active torsions:
REMARK  status: ('A' for Active; 'I' for Inactive)
REMARK    1  A    between atoms: C2_2  and  O1_3 
REMARK    2  A    between atoms: C2_2  and  C3_5 
REMARK    3  A    between atoms: C3_5  and  O2_6 
REMARK    4  A    between atoms: C3_5  and  C4_8 
REMARK    5  A    between atoms: C4_8  and  N1_10 
REMARK    6  A    between atoms: C7_14  and  N2_15 
REMARK    7  A    between atoms: C8_19  and  C9_20 
REMARK       I    between atoms: C9_20  and  N5_22 
REMARK    8  A    between atoms: N5_22  and  N6_24 
REMARK    9  A    between atoms: N7_26  and  C10_28 
REMARK   10  A    between atoms: C13_43  and  N14_44 
REMARK   11  A    between atoms: N16_50  and  O5_51 
ROOT
HETATM    1  N1  UNL     1      16.326  48.490  -5.024  1.00  0.00    -0.210 N 
HETATM    2  C5  UNL     1      16.776  48.864  -6.238  1.00  0.00     0.283 A 
HETATM    3  O3  UNL     1      16.998  48.151  -7.252  1.00  0.00    -0.265 OA
HETATM    4  C6  UNL     1      16.979  50.228  -6.240  1.00  0.00     0.130 A 
HETATM    5  C7  UNL     1      17.425  51.095  -7.216  1.00  0.00     0.178 A 
HETATM    6  N13 UNL     1      17.504  52.404  -6.860  1.00  0.00    -0.173 N 
ATOM      7  H13 UNL     1      17.828  53.082  -7.550  1.00  0.00     0.186 HD
HETATM    8  C13 UNL     1      17.170  52.839  -5.632  1.00  0.00     0.679 A 
HETATM    9  N15 UNL     1      16.739  51.962  -4.705  1.00  0.00    -0.172 N 
ATOM     10  H15 UNL     1      16.489  52.304  -3.777  1.00  0.00     0.186 HD
HETATM   11  C14 UNL     1      16.628  50.634  -4.974  1.00  0.00     0.186 A 
HETATM   12  N16 UNL     1      16.235  49.560  -4.255  1.00  0.00    -0.138 N 
ENDROOT
BRANCH   5  13
HETATM   13  N2  UNL     1      17.785  50.668  -8.521  1.00  0.00    -0.160 N 
HETATM   14  N3  UNL     1      17.310  51.005  -9.708  1.00  0.00     0.004 NA
HETATM   15  N4  UNL     1      17.943  50.358 -10.675  1.00  0.00    -0.262 N 
HETATM   16  C8  UNL     1      18.852  49.582 -10.093  1.00  0.00     0.205 A 
ATOM     17  H4  UNL     1      17.767  50.439 -11.676  1.00  0.00     0.186 HD
HETATM   18  N12 UNL     1      18.741  49.785  -8.776  1.00  0.00    -0.258 N 
ATOM     19  H12 UNL     1      19.312  49.325  -8.067  1.00  0.00     0.190 HD
BRANCH  16  20
HETATM   20  C9  UNL     1      19.782  48.685 -10.811  1.00  0.00     0.307 C 
HETATM   21  O4  UNL     1      20.755  49.170 -11.465  1.00  0.00    -0.262 OA
HETATM   22  N5  UNL     1      19.622  47.288 -10.793  1.00  0.00    -0.249 N 
ATOM     23  H5  UNL     1      18.847  46.872 -10.274  1.00  0.00     0.192 HD
BRANCH  22  24
HETATM   24  N6  UNL     1      20.510  46.474 -11.475  1.00  0.00    -0.238 N 
HETATM   25  N7  UNL     1      21.687  46.264 -11.030  1.00  0.00    -0.268 N 
ATOM     26  H7  UNL     1      21.968  46.708 -10.156  1.00  0.00     0.190 HD
ATOM     27  H6  UNL     1      20.218  46.035 -12.349  1.00  0.00     0.208 HD
BRANCH  25  28
HETATM   28  C10 UNL     1      22.619  45.438 -11.703  1.00  0.00     0.178 A 
HETATM   29  N8  UNL     1      23.780  45.808 -12.265  1.00  0.00    -0.172 N 
HETATM   30  C11 UNL     1      24.337  44.709 -12.786  1.00  0.00     0.678 A 
ATOM     31  H8  UNL     1      24.166  46.752 -12.289  1.00  0.00     0.186 HD
HETATM   32  N9  UNL     1      25.474  44.693 -13.411  1.00  0.00    -0.234 N 
HETATM   33  N10 UNL     1      23.574  43.625 -12.583  1.00  0.00    -0.175 N 
ATOM     34  H92 UNL     1      26.055  45.517 -13.566  1.00  0.00     0.174 HD
ATOM     35  H91 UNL     1      25.899  43.855 -13.809  1.00  0.00     0.174 HD
HETATM   36  C12 UNL     1      22.505  44.081 -11.908  1.00  0.00     0.177 A 
ATOM     37  H10 UNL     1      23.763  42.667 -12.877  1.00  0.00     0.185 HD
HETATM   38  N11 UNL     1      21.431  43.230 -11.488  1.00  0.00    -0.078 NA
ENDBRANCH  25  28
ENDBRANCH  22  24
ENDBRANCH  16  20
ENDBRANCH   5  13
BRANCH   8  39
HETATM   39  N14 UNL     1      17.253  54.102  -5.308  1.00  0.00    -0.234 N 
ATOM     40 2H14 UNL     1      16.812  54.792  -5.916  1.00  0.00     0.174 HD
ATOM     41 1H14 UNL     1      17.744  54.407  -4.467  1.00  0.00     0.174 HD
ENDBRANCH   8  39
BRANCH   1  42
HETATM   42  C4  UNL     1      16.008  47.157  -4.660  1.00  0.00     0.217 C 
HETATM   43  S1  UNL     1      17.553  46.354  -4.116  1.00  0.00    -0.065 SA
BRANCH  42  44
HETATM   44  C3  UNL     1      15.368  46.287  -5.661  1.00  0.00     0.182 C 
BRANCH  44  45
HETATM   45  C2  UNL     1      16.132  45.044  -6.030  1.00  0.00     0.145 C 
HETATM   46  C1  UNL     1      15.306  43.842  -6.304  1.00  0.00     0.042 C 
BRANCH  45  47
HETATM   47  O1  UNL     1      17.010  45.283  -7.086  1.00  0.00    -0.393 OA
ATOM     48  H1  UNL     1      17.829  45.642  -6.763  1.00  0.00     0.210 HD
ENDBRANCH  45  47
ENDBRANCH  44  45
BRANCH  44  49
HETATM   49  O2  UNL     1      14.063  45.912  -5.401  1.00  0.00    -0.390 OA
ATOM     50  H2  UNL     1      13.562  46.048  -6.196  1.00  0.00     0.210 HD
ENDBRANCH  44  49
ENDBRANCH  42  44
ENDBRANCH   1  42
BRANCH  12  51
HETATM   51  O5  UNL     1      15.825  49.680  -2.949  1.00  0.00    -0.266 OA
ATOM     52  H5  UNL     1      14.951  49.660  -2.577  1.00  0.00     0.247 HD
ENDBRANCH  12  51
TORSDOF 11
ENDMDL
MODEL 5
REMARK VINA RESULT: -8.957001211      4.774      6.716
REMARK  11 active torsions:
REMARK  status: ('A' for Active; 'I' for Inactive)
REMARK    1  A    between atoms: C2_2  and  O1_3 
REMARK    2  A    between atoms: C2_2  and  C3_5 
REMARK    3  A    between atoms: C3_5  and  O2_6 
REMARK    4  A    between atoms: C3_5  and  C4_8 
REMARK    5  A    between atoms: C4_8  and  N1_10 
REMARK    6  A    between atoms: C7_14  and  N2_15 
REMARK    7  A    between atoms: C8_19  and  C9_20 
REMARK       I    between atoms: C9_20  and  N5_22 
REMARK    8  A    between atoms: N5_22  and  N6_24 
REMARK    9  A    between atoms: N7_26  and  C10_28 
REMARK   10  A    between atoms: C13_43  and  N14_44 
REMARK   11  A    between atoms: N16_50  and  O5_51 
ROOT
HETATM    1  N1  UNL     1      18.046  46.232  -6.973  1.00  0.00    -0.210 N 
HETATM    2  C5  UNL     1      17.654  47.275  -7.731  1.00  0.00     0.283 A 
HETATM    3  O3  UNL     1      18.253  47.820  -8.696  1.00  0.00    -0.265 OA
HETATM    4  C6  UNL     1      16.421  47.710  -7.291  1.00  0.00     0.130 A 
HETATM    5  C7  UNL     1      15.595  48.729  -7.717  1.00  0.00     0.178 A 
HETATM    6  N13 UNL     1      14.428  48.874  -7.036  1.00  0.00    -0.173 N 
ATOM      7  H13 UNL     1      13.784  49.615  -7.316  1.00  0.00     0.186 HD
HETATM    8  C13 UNL     1      14.089  48.078  -6.007  1.00  0.00     0.679 A 
HETATM    9  N15 UNL     1      14.923  47.093  -5.620  1.00  0.00    -0.172 N 
ATOM     10  H15 UNL     1      14.655  46.495  -4.838  1.00  0.00     0.186 HD
HETATM   11  C14 UNL     1      16.111  46.875  -6.244  1.00  0.00     0.186 A 
HETATM   12  N16 UNL     1      17.113  45.986  -6.071  1.00  0.00    -0.138 N 
ENDROOT
BRANCH   5  13
HETATM   13  N2  UNL     1      15.923  49.587  -8.799  1.00  0.00    -0.160 N 
HETATM   14  N3  UNL     1      16.419  50.813  -8.818  1.00  0.00     0.004 NA
HETATM   15  N4  UNL     1      16.571  51.245 -10.061  1.00  0.00    -0.262 N 
HETATM   16  C8  UNL     1      16.160  50.269 -10.865  1.00  0.00     0.205 A 
ATOM     17  H4  UNL     1      16.934  52.154 -10.347  1.00  0.00     0.186 HD
HETATM   18  N12 UNL     1      15.767  49.264 -10.076  1.00  0.00    -0.258 N 
ATOM     19  H12 UNL     1      15.400  48.372 -10.410  1.00  0.00     0.190 HD
BRANCH  16  20
HETATM   20  C9  UNL     1      16.159  50.335 -12.342  1.00  0.00     0.307 C 
HETATM   21  O4  UNL     1      16.720  51.306 -12.935  1.00  0.00    -0.262 OA
HETATM   22  N5  UNL     1      15.545  49.340 -13.124  1.00  0.00    -0.249 N 
ATOM     23  H5  UNL     1      15.087  48.548 -12.671  1.00  0.00     0.192 HD
BRANCH  22  24
HETATM   24  N6  UNL     1      15.560  49.430 -14.505  1.00  0.00    -0.238 N 
HETATM   25  N7  UNL     1      15.740  48.396 -15.231  1.00  0.00    -0.268 N 
ATOM     26  H7  UNL     1      15.874  47.494 -14.775  1.00  0.00     0.190 HD
ATOM     27  H6  UNL     1      15.425  50.338 -14.951  1.00  0.00     0.208 HD
BRANCH  25  28
HETATM   28  C10 UNL     1      15.761  48.453 -16.646  1.00  0.00     0.178 A 
HETATM   29  N8  UNL     1      16.703  47.966 -17.468  1.00  0.00    -0.172 N 
HETATM   30  C11 UNL     1      16.318  48.241 -18.719  1.00  0.00     0.678 A 
ATOM     31  H8  UNL     1      17.553  47.476 -17.190  1.00  0.00     0.186 HD
HETATM   32  N9  UNL     1      16.994  47.915 -19.778  1.00  0.00    -0.234 N 
HETATM   33  N10 UNL     1      15.149  48.897 -18.743  1.00  0.00    -0.175 N 
ATOM     34  H92 UNL     1      17.883  47.416 -19.760  1.00  0.00     0.174 HD
ATOM     35  H91 UNL     1      16.701  48.125 -20.733  1.00  0.00     0.174 HD
HETATM   36  C12 UNL     1      14.803  49.027 -17.452  1.00  0.00     0.177 A 
ATOM     37  H10 UNL     1      14.637  49.225 -19.562  1.00  0.00     0.185 HD
HETATM   38  N11 UNL     1      13.599  49.681 -17.033  1.00  0.00    -0.078 NA
ENDBRANCH  25  28
ENDBRANCH  22  24
ENDBRANCH  16  20
ENDBRANCH   5  13
BRANCH   8  39
HETATM   39  N14 UNL     1      12.963  48.232  -5.364  1.00  0.00    -0.234 N 
ATOM     40 2H14 UNL     1      12.299  48.929  -5.702  1.00  0.00     0.174 HD
ATOM     41 1H14 UNL     1      12.737  47.675  -4.540  1.00  0.00     0.174 HD
ENDBRANCH   8  39
BRANCH   1  42
HETATM   42  C4  UNL     1      19.266  45.529  -7.142  1.00  0.00     0.217 C 
HETATM   43  S1  UNL     1      20.615  46.645  -6.629  1.00  0.00    -0.065 SA
BRANCH  42  44
HETATM   44  C3  UNL     1      19.595  44.997  -8.475  1.00  0.00     0.182 C 
BRANCH  44  45
HETATM   45  C2  UNL     1      20.863  45.518  -9.093  1.00  0.00     0.145 C 
HETATM   46  C1  UNL     1      21.806  44.486  -9.590  1.00  0.00     0.042 C 
BRANCH  45  47
HETATM   47  O1  UNL     1      20.594  46.454 -10.090  1.00  0.00    -0.393 OA
ATOM     48  H1  UNL     1      21.353  47.006 -10.244  1.00  0.00     0.210 HD
ENDBRANCH  45  47
ENDBRANCH  44  45
BRANCH  44  49
HETATM   49  O2  UNL     1      19.607  43.619  -8.597  1.00  0.00    -0.390 OA
ATOM     50  H2  UNL     1      20.479  43.365  -8.875  1.00  0.00     0.210 HD
ENDBRANCH  44  49
ENDBRANCH  42  44
ENDBRANCH   1  42
BRANCH  12  51
HETATM   51  O5  UNL     1      17.062  45.026  -5.089  1.00  0.00    -0.266 OA
ATOM     52  H5  UNL     1      16.874  45.109  -4.161  1.00  0.00     0.247 HD
ENDBRANCH  12  51
TORSDOF 11
ENDMDL
