MODEL 1
REMARK VINA RESULT: -9.792909207      0.000      0.000
REMARK  14 active torsions:
REMARK  status: ('A' for Active; 'I' for Inactive)
REMARK    1  A    between atoms: O1_2  and  C2_3 
REMARK    2  A    between atoms: C6_14  and  C7_15 
REMARK       I    between atoms: C7_15  and  N6_17 
REMARK    3  A    between atoms: N6_17  and  C8_19 
REMARK    4  A    between atoms: C9_20  and  C10_21 
REMARK    5  A    between atoms: C10_21  and  O3_22 
REMARK    6  A    between atoms: C10_21  and  O4_24 
REMARK    7  A    between atoms: C11_29  and  C12_30 
REMARK    8  A    between atoms: C13_31  and  C14_32 
REMARK    9  A    between atoms: C14_32  and  O6_33 
REMARK   10  A    between atoms: C14_32  and  O7_35 
REMARK   11  A    between atoms: C15_38  and  C16_39 
REMARK   12  A    between atoms: C16_39  and  O9_40 
REMARK   13  A    between atoms: C16_39  and  O10_42 
REMARK   14  A    between atoms: C17_44  and  O11_45 
ROOT
HETATM    1  C8  UNL     1      16.550  51.256 -10.765  1.00  0.00     0.102 A 
HETATM    2  C9  UNL     1      16.012  52.383 -11.426  1.00  0.00     0.116 A 
HETATM    3  N7  UNL     1      16.742  52.558 -12.532  1.00  0.00    -0.258 N 
ATOM      4  H7  UNL     1      16.595  53.297 -13.220  1.00  0.00     0.195 HD
HETATM    5  O5  UNL     1      17.647  51.664 -12.598  1.00  0.00    -0.234 OA
HETATM    6  C11 UNL     1      17.571  50.828 -11.526  1.00  0.00     0.144 A 
ENDROOT
BRANCH   6   7
HETATM    7  C12 UNL     1      18.489  49.727 -11.352  1.00  0.00     0.090 A 
HETATM    8  C13 UNL     1      19.861  49.942 -11.476  1.00  0.00     0.125 A 
HETATM    9  O8  UNL     1      20.728  48.935 -11.437  1.00  0.00    -0.305 OA
HETATM   10  C15 UNL     1      20.421  47.681 -11.282  1.00  0.00     0.144 A 
HETATM   11  C17 UNL     1      19.097  47.381 -11.151  1.00  0.00     0.152 A 
HETATM   12  C18 UNL     1      18.130  48.415 -11.188  1.00  0.00     0.223 A 
HETATM   13  O12 UNL     1      16.931  48.057 -11.066  1.00  0.00    -0.284 OA
BRANCH   8  14
HETATM   14  C14 UNL     1      20.448  51.301 -11.650  1.00  0.00     0.313 C 
BRANCH  14  15
HETATM   15  O6  UNL     1      20.968  51.618 -10.347  1.00  0.00    -0.365 OA
ATOM     16  H6  UNL     1      21.819  51.195 -10.335  1.00  0.00     0.213 HD
ENDBRANCH  14  15
BRANCH  14  17
HETATM   17  O7  UNL     1      21.510  51.339 -12.512  1.00  0.00    -0.365 OA
ATOM     18  H7  UNL     1      22.282  51.760 -12.152  1.00  0.00     0.213 HD
ENDBRANCH  14  17
ENDBRANCH   8  14
BRANCH  10  19
HETATM   19  C16 UNL     1      21.508  46.629 -11.253  1.00  0.00     0.315 C 
BRANCH  19  20
HETATM   20  O9  UNL     1      21.293  45.909 -12.458  1.00  0.00    -0.365 OA
ATOM     21  H9  UNL     1      20.428  45.535 -12.336  1.00  0.00     0.213 HD
ENDBRANCH  19  20
BRANCH  19  22
HETATM   22  O10 UNL     1      21.330  45.738 -10.221  1.00  0.00    -0.365 OA
ATOM     23  H10 UNL     1      21.676  44.878 -10.433  1.00  0.00     0.213 HD
ENDBRANCH  19  22
ENDBRANCH  10  19
BRANCH  11  24
HETATM   24  O11 UNL     1      18.667  46.080 -10.983  1.00  0.00    -0.355 OA
ATOM     25  H11 UNL     1      17.972  45.714 -11.518  1.00  0.00     0.218 HD
ENDBRANCH  11  24
ENDBRANCH   6   7
BRANCH   1  26
HETATM   26  N6  UNL     1      16.022  50.853  -9.542  1.00  0.00    -0.321 N 
HETATM   27  C7  UNL     1      16.827  50.754  -8.344  1.00  0.00     0.249 C 
HETATM   28  O2  UNL     1      18.041  51.055  -8.471  1.00  0.00    -0.271 OA
ATOM     29  H6  UNL     1      15.030  50.619  -9.488  1.00  0.00     0.169 HD
BRANCH  27  30
HETATM   30  C6  UNL     1      16.277  50.329  -7.042  1.00  0.00     0.242 C 
HETATM   31  C3  UNL     1      16.866  49.071  -6.577  1.00  0.00     0.088 A 
HETATM   32  N1  UNL     1      18.092  48.741  -6.148  1.00  0.00    -0.320 N 
HETATM   33  C4  UNL     1      16.101  47.932  -6.524  1.00  0.00     0.148 A 
HETATM   34  C2  UNL     1      18.134  47.435  -5.827  1.00  0.00     0.227 A 
ATOM     35  H1  UNL     1      18.879  49.386  -6.074  1.00  0.00     0.169 HD
HETATM   36  N2  UNL     1      16.903  46.959  -6.065  1.00  0.00    -0.301 N 
HETATM   37  C5  UNL     1      16.483  45.589  -5.861  1.00  0.00     0.161 C 
HETATM   38  N3  UNL     1      14.732  48.025  -6.938  1.00  0.00    -0.271 N 
HETATM   39  N4  UNL     1      14.390  49.106  -7.753  1.00  0.00    -0.029 NA
ATOM     40  H3  UNL     1      14.040  47.333  -6.650  1.00  0.00     0.185 HD
HETATM   41  N5  UNL     1      14.841  50.283  -7.138  1.00  0.00    -0.105 NA
BRANCH  34  42
HETATM   42  O1  UNL     1      19.263  46.795  -5.353  1.00  0.00    -0.327 OA
HETATM   43  C1  UNL     1      20.569  47.130  -5.728  1.00  0.00     0.213 C 
ENDBRANCH  34  42
ENDBRANCH  27  30
ENDBRANCH   1  26
BRANCH   2  44
HETATM   44  C10 UNL     1      14.885  53.223 -11.021  1.00  0.00     0.309 C 
BRANCH  44  45
HETATM   45  O3  UNL     1      15.141  53.708  -9.726  1.00  0.00    -0.366 OA
ATOM     46  H3  UNL     1      15.306  54.641  -9.786  1.00  0.00     0.213 HD
ENDBRANCH  44  45
BRANCH  44  47
HETATM   47  O4  UNL     1      14.835  54.319 -11.888  1.00  0.00    -0.366 OA
ATOM     48  H4  UNL     1      14.030  54.256 -12.389  1.00  0.00     0.213 HD
ENDBRANCH  44  47
ENDBRANCH   2  44
TORSDOF 14
ENDMDL
MODEL 2
REMARK VINA RESULT: -9.470955298      1.584      2.096
REMARK  14 active torsions:
REMARK  status: ('A' for Active; 'I' for Inactive)
REMARK    1  A    between atoms: O1_2  and  C2_3 
REMARK    2  A    between atoms: C6_14  and  C7_15 
REMARK       I    between atoms: C7_15  and  N6_17 
REMARK    3  A    between atoms: N6_17  and  C8_19 
REMARK    4  A    between atoms: C9_20  and  C10_21 
REMARK    5  A    between atoms: C10_21  and  O3_22 
REMARK    6  A    between atoms: C10_21  and  O4_24 
REMARK    7  A    between atoms: C11_29  and  C12_30 
REMARK    8  A    between atoms: C13_31  and  C14_32 
REMARK    9  A    between atoms: C14_32  and  O6_33 
REMARK   10  A    between atoms: C14_32  and  O7_35 
REMARK   11  A    between atoms: C15_38  and  C16_39 
REMARK   12  A    between atoms: C16_39  and  O9_40 
REMARK   13  A    between atoms: C16_39  and  O10_42 
REMARK   14  A    between atoms: C17_44  and  O11_45 
ROOT
HETATM    1  C8  UNL     1      16.440  51.327 -10.962  1.00  0.00     0.102 A 
HETATM    2  C9  UNL     1      16.020  52.538 -11.556  1.00  0.00     0.116 A 
HETATM    3  N7  UNL     1      16.939  52.849 -12.475  1.00  0.00    -0.258 N 
ATOM      4  H7  UNL     1      16.913  53.674 -13.074  1.00  0.00     0.195 HD
HETATM    5  O5  UNL     1      17.852  51.960 -12.490  1.00  0.00    -0.234 OA
HETATM    6  C11 UNL     1      17.590  50.992 -11.570  1.00  0.00     0.144 A 
ENDROOT
BRANCH   6   7
HETATM    7  C12 UNL     1      18.474  49.866 -11.376  1.00  0.00     0.090 A 
HETATM    8  C13 UNL     1      19.853  50.042 -11.480  1.00  0.00     0.125 A 
HETATM    9  O8  UNL     1      20.691  49.012 -11.422  1.00  0.00    -0.305 OA
HETATM   10  C15 UNL     1      20.347  47.767 -11.266  1.00  0.00     0.144 A 
HETATM   11  C17 UNL     1      19.013  47.506 -11.153  1.00  0.00     0.152 A 
HETATM   12  C18 UNL     1      18.076  48.566 -11.210  1.00  0.00     0.223 A 
HETATM   13  O12 UNL     1      16.866  48.242 -11.104  1.00  0.00    -0.284 OA
BRANCH   8  14
HETATM   14  C14 UNL     1      20.481  51.383 -11.653  1.00  0.00     0.313 C 
BRANCH  14  15
HETATM   15  O6  UNL     1      20.978  51.699 -10.341  1.00  0.00    -0.365 OA
ATOM     16  H6  UNL     1      20.737  52.611 -10.223  1.00  0.00     0.213 HD
ENDBRANCH  14  15
BRANCH  14  17
HETATM   17  O7  UNL     1      21.564  51.384 -12.489  1.00  0.00    -0.365 OA
ATOM     18  H7  UNL     1      22.168  50.666 -12.337  1.00  0.00     0.213 HD
ENDBRANCH  14  17
ENDBRANCH   8  14
BRANCH  10  19
HETATM   19  C16 UNL     1      21.403  46.685 -11.215  1.00  0.00     0.315 C 
BRANCH  19  20
HETATM   20  O9  UNL     1      21.200  45.978 -12.429  1.00  0.00    -0.365 OA
ATOM     21  H9  UNL     1      20.816  45.158 -12.140  1.00  0.00     0.213 HD
ENDBRANCH  19  20
BRANCH  19  22
HETATM   22  O10 UNL     1      21.174  45.794 -10.192  1.00  0.00    -0.365 OA
ATOM     23  H10 UNL     1      21.156  46.225  -9.345  1.00  0.00     0.213 HD
ENDBRANCH  19  22
ENDBRANCH  10  19
BRANCH  11  24
HETATM   24  O11 UNL     1      18.544  46.218 -10.983  1.00  0.00    -0.355 OA
ATOM     25  H11 UNL     1      18.694  45.545 -11.638  1.00  0.00     0.218 HD
ENDBRANCH  11  24
ENDBRANCH   6   7
BRANCH   1  26
HETATM   26  N6  UNL     1      15.700  50.773  -9.921  1.00  0.00    -0.321 N 
HETATM   27  C7  UNL     1      16.208  50.685  -8.569  1.00  0.00     0.249 C 
HETATM   28  O2  UNL     1      17.364  51.141  -8.385  1.00  0.00    -0.271 OA
ATOM     29  H6  UNL     1      14.765  50.415 -10.119  1.00  0.00     0.169 HD
BRANCH  27  30
HETATM   30  C6  UNL     1      15.431  50.100  -7.459  1.00  0.00     0.242 C 
HETATM   31  C3  UNL     1      16.093  50.279  -6.165  1.00  0.00     0.088 A 
HETATM   32  N1  UNL     1      16.336  51.356  -5.405  1.00  0.00    -0.320 N 
HETATM   33  C4  UNL     1      16.607  49.193  -5.500  1.00  0.00     0.148 A 
HETATM   34  C2  UNL     1      16.987  50.995  -4.284  1.00  0.00     0.227 A 
ATOM     35  H1  UNL     1      16.067  52.311  -5.641  1.00  0.00     0.169 HD
HETATM   36  N2  UNL     1      17.142  49.664  -4.363  1.00  0.00    -0.301 N 
HETATM   37  C5  UNL     1      17.794  48.839  -3.369  1.00  0.00     0.161 C 
HETATM   38  N3  UNL     1      16.473  47.906  -6.115  1.00  0.00    -0.271 N 
HETATM   39  N4  UNL     1      16.238  47.884  -7.491  1.00  0.00    -0.029 NA
ATOM     40  H3  UNL     1      16.545  47.045  -5.572  1.00  0.00     0.185 HD
HETATM   41  N5  UNL     1      15.148  48.723  -7.767  1.00  0.00    -0.105 NA
BRANCH  34  42
HETATM   42  O1  UNL     1      17.377  51.882  -3.300  1.00  0.00    -0.327 OA
HETATM   43  C1  UNL     1      16.634  52.147  -2.144  1.00  0.00     0.213 C 
ENDBRANCH  34  42
ENDBRANCH  27  30
ENDBRANCH   1  26
BRANCH   2  44
HETATM   44  C10 UNL     1      14.826  53.330 -11.260  1.00  0.00     0.309 C 
BRANCH  44  45
HETATM   45  O3  UNL     1      14.992  53.918  -9.993  1.00  0.00    -0.366 OA
ATOM     46  H3  UNL     1      14.945  54.861 -10.095  1.00  0.00     0.213 HD
ENDBRANCH  44  45
BRANCH  44  47
HETATM   47  O4  UNL     1      14.750  54.359 -12.204  1.00  0.00    -0.366 OA
ATOM     48  H4  UNL     1      15.574  54.831 -12.186  1.00  0.00     0.213 HD
ENDBRANCH  44  47
ENDBRANCH   2  44
TORSDOF 14
ENDMDL
MODEL 3
REMARK VINA RESULT: -9.011855098      2.799      5.892
REMARK  14 active torsions:
REMARK  status: ('A' for Active; 'I' for Inactive)
REMARK    1  A    between atoms: O1_2  and  C2_3 
REMARK    2  A    between atoms: C6_14  and  C7_15 
REMARK       I    between atoms: C7_15  and  N6_17 
REMARK    3  A    between atoms: N6_17  and  C8_19 
REMARK    4  A    between atoms: C9_20  and  C10_21 
REMARK    5  A    between atoms: C10_21  and  O3_22 
REMARK    6  A    between atoms: C10_21  and  O4_24 
REMARK    7  A    between atoms: C11_29  and  C12_30 
REMARK    8  A    between atoms: C13_31  and  C14_32 
REMARK    9  A    between atoms: C14_32  and  O6_33 
REMARK   10  A    between atoms: C14_32  and  O7_35 
REMARK   11  A    between atoms: C15_38  and  C16_39 
REMARK   12  A    between atoms: C16_39  and  O9_40 
REMARK   13  A    between atoms: C16_39  and  O10_42 
REMARK   14  A    between atoms: C17_44  and  O11_45 
ROOT
HETATM    1  C8  UNL     1      17.123  51.341 -10.025  1.00  0.00     0.102 A 
HETATM    2  C9  UNL     1      16.556  52.055 -11.104  1.00  0.00     0.116 A 
HETATM    3  N7  UNL     1      15.576  52.804 -10.590  1.00  0.00    -0.258 N 
ATOM      4  H7  UNL     1      14.978  53.434 -11.124  1.00  0.00     0.195 HD
HETATM    5  O5  UNL     1      15.502  52.613  -9.332  1.00  0.00    -0.234 OA
HETATM    6  C11 UNL     1      16.442  51.714  -8.930  1.00  0.00     0.144 A 
ENDROOT
BRANCH   6   7
HETATM    7  C12 UNL     1      16.571  51.312  -7.548  1.00  0.00     0.090 A 
HETATM    8  C13 UNL     1      15.911  50.170  -7.095  1.00  0.00     0.125 A 
HETATM    9  O8  UNL     1      15.911  49.832  -5.810  1.00  0.00    -0.305 OA
HETATM   10  C15 UNL     1      16.501  50.492  -4.856  1.00  0.00     0.144 A 
HETATM   11  C17 UNL     1      17.172  51.624  -5.213  1.00  0.00     0.152 A 
HETATM   12  C18 UNL     1      17.203  52.032  -6.569  1.00  0.00     0.223 A 
HETATM   13  O12 UNL     1      17.837  53.089  -6.817  1.00  0.00    -0.284 OA
BRANCH   8  14
HETATM   14  C14 UNL     1      15.176  49.251  -8.010  1.00  0.00     0.313 C 
BRANCH  14  15
HETATM   15  O6  UNL     1      15.988  48.064  -8.027  1.00  0.00    -0.365 OA
ATOM     16  H6  UNL     1      16.168  47.928  -8.950  1.00  0.00     0.213 HD
ENDBRANCH  14  15
BRANCH  14  17
HETATM   17  O7  UNL     1      13.946  48.873  -7.544  1.00  0.00    -0.365 OA
ATOM     18  H7  UNL     1      13.266  48.876  -8.207  1.00  0.00     0.213 HD
ENDBRANCH  14  17
ENDBRANCH   8  14
BRANCH  10  19
HETATM   19  C16 UNL     1      16.426  49.998  -3.428  1.00  0.00     0.315 C 
BRANCH  19  20
HETATM   20  O9  UNL     1      17.749  49.555  -3.170  1.00  0.00    -0.365 OA
ATOM     21  H9  UNL     1      17.618  48.788  -2.624  1.00  0.00     0.213 HD
ENDBRANCH  19  20
BRANCH  19  22
HETATM   22  O10 UNL     1      15.608  48.898  -3.310  1.00  0.00    -0.365 OA
ATOM     23  H10 UNL     1      16.079  48.089  -3.474  1.00  0.00     0.213 HD
ENDBRANCH  19  22
ENDBRANCH  10  19
BRANCH  11  24
HETATM   24  O11 UNL     1      17.831  52.396  -4.276  1.00  0.00    -0.355 OA
ATOM     25  H11 UNL     1      17.606  52.356  -3.354  1.00  0.00     0.218 HD
ENDBRANCH  11  24
ENDBRANCH   6   7
BRANCH   1  26
HETATM   26  N6  UNL     1      18.149  50.429 -10.262  1.00  0.00    -0.321 N 
HETATM   27  C7  UNL     1      17.894  49.064 -10.670  1.00  0.00     0.249 C 
HETATM   28  O2  UNL     1      16.686  48.745 -10.800  1.00  0.00    -0.271 OA
ATOM     29  H6  UNL     1      19.115  50.734 -10.142  1.00  0.00     0.169 HD
BRANCH  27  30
HETATM   30  C6  UNL     1      18.974  48.090 -10.923  1.00  0.00     0.242 C 
HETATM   31  C3  UNL     1      19.161  47.167  -9.801  1.00  0.00     0.088 A 
HETATM   32  N1  UNL     1      18.409  46.179  -9.297  1.00  0.00    -0.320 N 
HETATM   33  C4  UNL     1      20.301  47.234  -9.040  1.00  0.00     0.148 A 
HETATM   34  C2  UNL     1      19.030  45.617  -8.243  1.00  0.00     0.227 A 
ATOM     35  H1  UNL     1      17.499  45.893  -9.659  1.00  0.00     0.169 HD
HETATM   36  N2  UNL     1      20.188  46.279  -8.104  1.00  0.00    -0.301 N 
HETATM   37  C5  UNL     1      21.186  46.012  -7.090  1.00  0.00     0.161 C 
HETATM   38  N3  UNL     1      21.279  48.225  -9.382  1.00  0.00    -0.271 N 
HETATM   39  N4  UNL     1      20.840  49.306 -10.148  1.00  0.00    -0.029 NA
ATOM     40  H3  UNL     1      22.249  48.144  -9.079  1.00  0.00     0.185 HD
HETATM   41  N5  UNL     1      20.171  48.806 -11.276  1.00  0.00    -0.105 NA
BRANCH  34  42
HETATM   42  O1  UNL     1      18.506  44.570  -7.510  1.00  0.00    -0.327 OA
HETATM   43  C1  UNL     1      17.696  44.733  -6.379  1.00  0.00     0.213 C 
ENDBRANCH  34  42
ENDBRANCH  27  30
ENDBRANCH   1  26
BRANCH   2  44
HETATM   44  C10 UNL     1      16.930  52.017 -12.518  1.00  0.00     0.309 C 
BRANCH  44  45
HETATM   45  O3  UNL     1      18.334  52.038 -12.601  1.00  0.00    -0.366 OA
ATOM     46  H3  UNL     1      18.575  52.278 -13.488  1.00  0.00     0.213 HD
ENDBRANCH  44  45
BRANCH  44  47
HETATM   47  O4  UNL     1      16.486  50.800 -13.045  1.00  0.00    -0.366 OA
ATOM     48  H4  UNL     1      16.717  50.781 -13.966  1.00  0.00     0.213 HD
ENDBRANCH  44  47
ENDBRANCH   2  44
TORSDOF 14
ENDMDL
MODEL 4
REMARK VINA RESULT: -8.909164361      2.836      6.722
REMARK  14 active torsions:
REMARK  status: ('A' for Active; 'I' for Inactive)
REMARK    1  A    between atoms: O1_2  and  C2_3 
REMARK    2  A    between atoms: C6_14  and  C7_15 
REMARK       I    between atoms: C7_15  and  N6_17 
REMARK    3  A    between atoms: N6_17  and  C8_19 
REMARK    4  A    between atoms: C9_20  and  C10_21 
REMARK    5  A    between atoms: C10_21  and  O3_22 
REMARK    6  A    between atoms: C10_21  and  O4_24 
REMARK    7  A    between atoms: C11_29  and  C12_30 
REMARK    8  A    between atoms: C13_31  and  C14_32 
REMARK    9  A    between atoms: C14_32  and  O6_33 
REMARK   10  A    between atoms: C14_32  and  O7_35 
REMARK   11  A    between atoms: C15_38  and  C16_39 
REMARK   12  A    between atoms: C16_39  and  O9_40 
REMARK   13  A    between atoms: C16_39  and  O10_42 
REMARK   14  A    between atoms: C17_44  and  O11_45 
ROOT
HETATM    1  C8  UNL     1      16.919  50.207  -6.013  1.00  0.00     0.102 A 
HETATM    2  C9  UNL     1      16.984  51.274  -5.090  1.00  0.00     0.116 A 
HETATM    3  N7  UNL     1      16.857  50.733  -3.875  1.00  0.00    -0.258 N 
ATOM      4  H7  UNL     1      16.864  51.253  -2.998  1.00  0.00     0.195 HD
HETATM    5  O5  UNL     1      16.725  49.469  -3.977  1.00  0.00    -0.234 OA
HETATM    6  C11 UNL     1      16.758  49.090  -5.284  1.00  0.00     0.144 A 
ENDROOT
BRANCH   6   7
HETATM    7  C12 UNL     1      16.623  47.708  -5.680  1.00  0.00     0.090 A 
HETATM    8  C13 UNL     1      15.579  46.938  -5.166  1.00  0.00     0.125 A 
HETATM    9  O8  UNL     1      15.488  45.637  -5.416  1.00  0.00    -0.305 OA
HETATM   10  C15 UNL     1      16.320  44.947  -6.140  1.00  0.00     0.144 A 
HETATM   11  C17 UNL     1      17.371  45.624  -6.684  1.00  0.00     0.152 A 
HETATM   12  C18 UNL     1      17.518  47.013  -6.449  1.00  0.00     0.223 A 
HETATM   13  O12 UNL     1      18.516  47.563  -6.980  1.00  0.00    -0.284 OA
BRANCH   8  14
HETATM   14  C14 UNL     1      14.499  47.516  -4.316  1.00  0.00     0.313 C 
BRANCH  14  15
HETATM   15  O6  UNL     1      13.321  46.801  -4.728  1.00  0.00    -0.365 OA
ATOM     16  H6  UNL     1      12.612  47.278  -4.313  1.00  0.00     0.213 HD
ENDBRANCH  14  15
BRANCH  14  17
HETATM   17  O7  UNL     1      14.655  47.269  -2.979  1.00  0.00    -0.365 OA
ATOM     18  H7  UNL     1      13.936  47.585  -2.444  1.00  0.00     0.213 HD
ENDBRANCH  14  17
ENDBRANCH   8  14
BRANCH  10  19
HETATM   19  C16 UNL     1      16.101  43.465  -6.349  1.00  0.00     0.315 C 
BRANCH  19  20
HETATM   20  O9  UNL     1      14.957  43.192  -5.553  1.00  0.00    -0.365 OA
ATOM     21  H9  UNL     1      15.112  42.306  -5.249  1.00  0.00     0.213 HD
ENDBRANCH  19  20
BRANCH  19  22
HETATM   22  O10 UNL     1      17.133  42.717  -5.832  1.00  0.00    -0.365 OA
ATOM     23  H10 UNL     1      17.470  42.094  -6.465  1.00  0.00     0.213 HD
ENDBRANCH  19  22
ENDBRANCH  10  19
BRANCH  11  24
HETATM   24  O11 UNL     1      18.311  44.984  -7.469  1.00  0.00    -0.355 OA
ATOM     25  H11 UNL     1      19.132  44.674  -7.106  1.00  0.00     0.218 HD
ENDBRANCH  11  24
ENDBRANCH   6   7
BRANCH   1  26
HETATM   26  N6  UNL     1      16.975  50.469  -7.380  1.00  0.00    -0.321 N 
HETATM   27  C7  UNL     1      15.847  50.247  -8.258  1.00  0.00     0.249 C 
HETATM   28  O2  UNL     1      14.806  49.801  -7.715  1.00  0.00    -0.271 OA
ATOM     29  H6  UNL     1      17.843  50.830  -7.776  1.00  0.00     0.169 HD
BRANCH  27  30
HETATM   30  C6  UNL     1      15.896  50.522  -9.708  1.00  0.00     0.242 C 
HETATM   31  C3  UNL     1      17.204  50.208 -10.287  1.00  0.00     0.088 A 
HETATM   32  N1  UNL     1      17.856  49.056 -10.500  1.00  0.00    -0.320 N 
HETATM   33  C4  UNL     1      18.015  51.218 -10.740  1.00  0.00     0.148 A 
HETATM   34  C2  UNL     1      19.050  49.298 -11.069  1.00  0.00     0.227 A 
ATOM     35  H1  UNL     1      17.498  48.130 -10.265  1.00  0.00     0.169 HD
HETATM   36  N2  UNL     1      19.127  50.630 -11.207  1.00  0.00    -0.301 N 
HETATM   37  C5  UNL     1      20.246  51.347 -11.779  1.00  0.00     0.161 C 
HETATM   38  N3  UNL     1      17.538  52.565 -10.622  1.00  0.00    -0.271 N 
HETATM   39  N4  UNL     1      16.522  52.796  -9.693  1.00  0.00    -0.029 NA
ATOM     40  H3  UNL     1      17.923  53.319 -11.191  1.00  0.00     0.185 HD
HETATM   41  N5  UNL     1      15.485  51.882  -9.936  1.00  0.00    -0.105 NA
BRANCH  34  42
HETATM   42  O1  UNL     1      19.954  48.311 -11.411  1.00  0.00    -0.327 OA
HETATM   43  C1  UNL     1      19.660  46.942 -11.403  1.00  0.00     0.213 C 
ENDBRANCH  34  42
ENDBRANCH  27  30
ENDBRANCH   1  26
BRANCH   2  44
HETATM   44  C10 UNL     1      17.156  52.701  -5.360  1.00  0.00     0.309 C 
BRANCH  44  45
HETATM   45  O3  UNL     1      16.310  53.051  -6.428  1.00  0.00    -0.366 OA
ATOM     46  H3  UNL     1      15.843  53.843  -6.189  1.00  0.00     0.213 HD
ENDBRANCH  44  45
BRANCH  44  47
HETATM   47  O4  UNL     1      16.733  53.405  -4.228  1.00  0.00    -0.366 OA
ATOM     48  H4  UNL     1      16.071  54.028  -4.503  1.00  0.00     0.213 HD
ENDBRANCH  44  47
ENDBRANCH   2  44
TORSDOF 14
ENDMDL
MODEL 5
REMARK VINA RESULT: -8.835968415      2.512      5.817
REMARK  14 active torsions:
REMARK  status: ('A' for Active; 'I' for Inactive)
REMARK    1  A    between atoms: O1_2  and  C2_3 
REMARK    2  A    between atoms: C6_14  and  C7_15 
REMARK       I    between atoms: C7_15  and  N6_17 
REMARK    3  A    between atoms: N6_17  and  C8_19 
REMARK    4  A    between atoms: C9_20  and  C10_21 
REMARK    5  A    between atoms: C10_21  and  O3_22 
REMARK    6  A    between atoms: C10_21  and  O4_24 
REMARK    7  A    between atoms: C11_29  and  C12_30 
REMARK    8  A    between atoms: C13_31  and  C14_32 
REMARK    9  A    between atoms: C14_32  and  O6_33 
REMARK   10  A    between atoms: C14_32  and  O7_35 
REMARK   11  A    between atoms: C15_38  and  C16_39 
REMARK   12  A    between atoms: C16_39  and  O9_40 
REMARK   13  A    between atoms: C16_39  and  O10_42 
REMARK   14  A    between atoms: C17_44  and  O11_45 
ROOT
HETATM    1  C8  UNL     1      15.897  48.334  -7.440  1.00  0.00     0.102 A 
HETATM    2  C9  UNL     1      14.903  48.069  -6.472  1.00  0.00     0.116 A 
HETATM    3  N7  UNL     1      14.007  49.056  -6.568  1.00  0.00    -0.258 N 
ATOM      4  H7  UNL     1      13.167  49.143  -5.996  1.00  0.00     0.195 HD
HETATM    5  O5  UNL     1      14.360  49.872  -7.482  1.00  0.00    -0.234 OA
HETATM    6  C11 UNL     1      15.526  49.469  -8.056  1.00  0.00     0.144 A 
ENDROOT
BRANCH   6   7
HETATM    7  C12 UNL     1      16.153  50.221  -9.119  1.00  0.00     0.090 A 
HETATM    8  C13 UNL     1      16.730  51.460  -8.843  1.00  0.00     0.125 A 
HETATM    9  O8  UNL     1      17.212  52.232  -9.812  1.00  0.00    -0.305 OA
HETATM   10  C15 UNL     1      17.210  51.942 -11.080  1.00  0.00     0.144 A 
HETATM   11  C17 UNL     1      16.664  50.745 -11.437  1.00  0.00     0.152 A 
HETATM   12  C18 UNL     1      16.133  49.884 -10.446  1.00  0.00     0.223 A 
HETATM   13  O12 UNL     1      15.642  48.802 -10.857  1.00  0.00    -0.284 OA
BRANCH   8  14
HETATM   14  C14 UNL     1      16.855  51.998  -7.459  1.00  0.00     0.313 C 
BRANCH  14  15
HETATM   15  O6  UNL     1      17.820  51.129  -6.841  1.00  0.00    -0.365 OA
ATOM     16  H6  UNL     1      17.589  51.154  -5.919  1.00  0.00     0.213 HD
ENDBRANCH  14  15
BRANCH  14  17
HETATM   17  O7  UNL     1      17.376  53.261  -7.400  1.00  0.00    -0.365 OA
ATOM     18  H7  UNL     1      16.846  53.917  -7.838  1.00  0.00     0.213 HD
ENDBRANCH  14  17
ENDBRANCH   8  14
BRANCH  10  19
HETATM   19  C16 UNL     1      17.794  52.911 -12.084  1.00  0.00     0.315 C 
BRANCH  19  20
HETATM   20  O9  UNL     1      16.753  53.053 -13.039  1.00  0.00    -0.365 OA
ATOM     21  H9  UNL     1      17.021  53.815 -13.539  1.00  0.00     0.213 HD
ENDBRANCH  19  20
BRANCH  19  22
HETATM   22  O10 UNL     1      18.872  52.372 -12.747  1.00  0.00    -0.365 OA
ATOM     23  H10 UNL     1      19.379  53.039 -13.197  1.00  0.00     0.213 HD
ENDBRANCH  19  22
ENDBRANCH  10  19
BRANCH  11  24
HETATM   24  O11 UNL     1      16.612  50.343 -12.758  1.00  0.00    -0.355 OA
ATOM     25  H11 UNL     1      15.852  49.893 -13.110  1.00  0.00     0.218 HD
ENDBRANCH  11  24
ENDBRANCH   6   7
BRANCH   1  26
HETATM   26  N6  UNL     1      17.003  47.494  -7.546  1.00  0.00    -0.321 N 
HETATM   27  C7  UNL     1      18.184  47.659  -6.727  1.00  0.00     0.249 C 
HETATM   28  O2  UNL     1      18.156  48.612  -5.908  1.00  0.00    -0.271 OA
ATOM     29  H6  UNL     1      16.979  46.734  -8.226  1.00  0.00     0.169 HD
BRANCH  27  30
HETATM   30  C6  UNL     1      19.360  46.774  -6.831  1.00  0.00     0.242 C 
HETATM   31  C3  UNL     1      19.622  46.362  -8.212  1.00  0.00     0.088 A 
HETATM   32  N1  UNL     1      20.045  47.025  -9.298  1.00  0.00    -0.320 N 
HETATM   33  C4  UNL     1      19.433  45.055  -8.586  1.00  0.00     0.148 A 
HETATM   34  C2  UNL     1      20.130  46.187 -10.347  1.00  0.00     0.227 A 
ATOM     35  H1  UNL     1      20.271  48.019  -9.325  1.00  0.00     0.169 HD
HETATM   36  N2  UNL     1      19.750  44.985  -9.888  1.00  0.00    -0.301 N 
HETATM   37  C5  UNL     1      19.686  43.772 -10.676  1.00  0.00     0.161 C 
HETATM   38  N3  UNL     1      18.976  44.132  -7.590  1.00  0.00    -0.271 N 
HETATM   39  N4  UNL     1      18.351  44.674  -6.465  1.00  0.00    -0.029 NA
ATOM     40  H3  UNL     1      19.101  43.125  -7.697  1.00  0.00     0.185 HD
HETATM   41  N5  UNL     1      19.187  45.665  -5.930  1.00  0.00    -0.105 NA
BRANCH  34  42
HETATM   42  O1  UNL     1      20.536  46.573 -11.609  1.00  0.00    -0.327 OA
HETATM   43  C1  UNL     1      21.749  46.189 -12.193  1.00  0.00     0.213 C 
ENDBRANCH  34  42
ENDBRANCH  27  30
ENDBRANCH   1  26
BRANCH   2  44
HETATM   44  C10 UNL     1      14.825  46.953  -5.530  1.00  0.00     0.309 C 
BRANCH  44  45
HETATM   45  O3  UNL     1      13.485  46.808  -5.131  1.00  0.00    -0.366 OA
ATOM     46  H3  UNL     1      13.110  46.077  -5.608  1.00  0.00     0.213 HD
ENDBRANCH  44  45
BRANCH  44  47
HETATM   47  O4  UNL     1      15.199  45.791  -6.212  1.00  0.00    -0.366 OA
ATOM     48  H4  UNL     1      15.915  46.013  -6.794  1.00  0.00     0.213 HD
ENDBRANCH  44  47
ENDBRANCH   2  44
TORSDOF 14
ENDMDL
