MODEL 1
REMARK VINA RESULT: -8.602567039      0.000      0.000
REMARK  6 active torsions:
REMARK  status: ('A' for Active; 'I' for Inactive)
REMARK    1  A    between atoms: C6_6  and  N1_7 
REMARK    2  A    between atoms: C9_10  and  N2_11 
REMARK       I    between atoms: N2_11  and  C10_13 
REMARK    3  A    between atoms: C10_13  and  C11_15 
REMARK    4  A    between atoms: C17_21  and  C18_22 
REMARK       I    between atoms: C18_22  and  N3_24 
REMARK    5  A    between atoms: N4_32  and  C24_33 
REMARK    6  A    between atoms: C24_33  and  C25_34 
ROOT
HETATM    1  C1  UNL     1      20.638  -1.323 -23.599  1.00  0.00     0.026 C 
HETATM    2  C2  UNL     1      21.484  -0.341 -22.823  1.00  0.00     0.043 C 
HETATM    3  C3  UNL     1      22.393   0.446 -23.749  1.00  0.00     0.019 C 
HETATM    4  C4  UNL     1      22.441   1.866 -23.292  1.00  0.00     0.003 C 
HETATM    5  C5  UNL     1      21.059   2.489 -23.409  1.00  0.00     0.036 C 
HETATM    6  C6  UNL     1      19.970   1.519 -22.946  1.00  0.00     0.228 C 
HETATM    7  C15 UNL     1      20.646   0.595 -21.983  1.00  0.00     0.039 C 
HETATM    8  C16 UNL     1      19.773  -0.109 -21.018  1.00  0.00     0.043 C 
HETATM    9  C17 UNL     1      20.538  -1.085 -20.175  1.00  0.00     0.179 C 
HETATM   10  N4  UNL     1      21.879  -1.342 -20.583  1.00  0.00    -0.338 N 
HETATM   11  C28 UNL     1      22.347  -1.112 -21.902  1.00  0.00     0.229 C 
HETATM   12  O3  UNL     1      23.472  -1.550 -22.296  1.00  0.00    -0.272 OA
ENDROOT
BRANCH   6  13
HETATM   13  N1  UNL     1      18.775   2.149 -22.519  1.00  0.00     0.095 N 
HETATM   14  C7  UNL     1      17.581   1.660 -23.141  1.00  0.00     0.275 C 
HETATM   15  C8  UNL     1      16.749   2.860 -23.511  1.00  0.00     0.057 C 
HETATM   16  C9  UNL     1      17.804   3.914 -23.757  1.00  0.00     0.114 C 
HETATM   17  C14 UNL     1      18.773   3.599 -22.628  1.00  0.00     0.298 C 
BRANCH  16  18
HETATM   18  N2  UNL     1      17.278   5.236 -23.736  1.00  0.00    -0.354 N 
HETATM   19  C10 UNL     1      18.010   6.376 -24.134  1.00  0.00     0.222 C 
HETATM   20  O1  UNL     1      19.209   6.181 -24.526  1.00  0.00    -0.273 OA
ATOM     21  H2  UNL     1      16.319   5.368 -23.414  1.00  0.00     0.162 HD
BRANCH  19  22
HETATM   22  C11 UNL     1      17.494   7.744 -24.131  1.00  0.00     0.078 A 
HETATM   23  C12 UNL     1      17.444   8.326 -22.699  1.00  0.00     0.015 A 
HETATM   24  C13 UNL     1      18.282   8.936 -23.790  1.00  0.00     0.015 A 
ENDBRANCH  19  22
ENDBRANCH  16  18
ENDBRANCH   6  13
BRANCH   9  25
HETATM   25  C18 UNL     1      19.852  -2.430 -20.160  1.00  0.00     0.242 C 
HETATM   26  O2  UNL     1      19.688  -3.061 -21.263  1.00  0.00    -0.271 OA
HETATM   27  N3  UNL     1      19.368  -3.060 -19.005  1.00  0.00    -0.350 N 
HETATM   28  C19 UNL     1      18.686  -4.352 -19.137  1.00  0.00     0.131 C 
HETATM   29  C23 UNL     1      19.497  -2.565 -17.664  1.00  0.00     0.131 C 
HETATM   30  C20 UNL     1      18.703  -4.997 -17.755  1.00  0.00     0.099 C 
HETATM   31  C21 UNL     1      20.054  -4.867 -17.084  1.00  0.00     0.246 C 
HETATM   32  F1  UNL     1      19.921  -5.358 -15.803  1.00  0.00    -0.206 F 
HETATM   33  F2  UNL     1      20.937  -5.667 -17.814  1.00  0.00    -0.206 F 
HETATM   34  C22 UNL     1      20.543  -3.456 -16.986  1.00  0.00     0.099 C 
ENDBRANCH   9  25
BRANCH  10  35
HETATM   35  C24 UNL     1      22.827  -1.913 -19.661  1.00  0.00     0.131 C 
BRANCH  35  36
HETATM   36  C25 UNL     1      22.782  -3.376 -19.473  1.00  0.00     0.004 A 
HETATM   37  C26 UNL     1      22.836  -4.394 -20.577  1.00  0.00     0.007 A 
HETATM   38  C27 UNL     1      24.091  -4.094 -19.827  1.00  0.00     0.007 A 
ENDBRANCH  35  36
ENDBRANCH  10  35
TORSDOF 6
ENDMDL
MODEL 2
REMARK VINA RESULT: -8.488771462      4.487      9.336
REMARK  6 active torsions:
REMARK  status: ('A' for Active; 'I' for Inactive)
REMARK    1  A    between atoms: C6_6  and  N1_7 
REMARK    2  A    between atoms: C9_10  and  N2_11 
REMARK       I    between atoms: N2_11  and  C10_13 
REMARK    3  A    between atoms: C10_13  and  C11_15 
REMARK    4  A    between atoms: C17_21  and  C18_22 
REMARK       I    between atoms: C18_22  and  N3_24 
REMARK    5  A    between atoms: N4_32  and  C24_33 
REMARK    6  A    between atoms: C24_33  and  C25_34 
ROOT
HETATM    1  C1  UNL     1      21.092   1.167 -25.498  1.00  0.00     0.026 C 
HETATM    2  C2  UNL     1      19.974   0.895 -24.519  1.00  0.00     0.043 C 
HETATM    3  C3  UNL     1      19.399  -0.495 -24.719  1.00  0.00     0.019 C 
HETATM    4  C4  UNL     1      19.114  -1.100 -23.386  1.00  0.00     0.003 C 
HETATM    5  C5  UNL     1      20.412  -1.276 -22.615  1.00  0.00     0.036 C 
HETATM    6  C6  UNL     1      21.328  -0.061 -22.781  1.00  0.00     0.228 C 
HETATM    7  C15 UNL     1      20.414   1.084 -23.085  1.00  0.00     0.039 C 
HETATM    8  C16 UNL     1      20.937   2.439 -22.807  1.00  0.00     0.043 C 
HETATM    9  C17 UNL     1      19.984   3.511 -23.246  1.00  0.00     0.179 C 
HETATM   10  N4  UNL     1      18.885   3.079 -24.043  1.00  0.00    -0.338 N 
HETATM   11  C28 UNL     1      18.892   1.867 -24.782  1.00  0.00     0.229 C 
HETATM   12  O3  UNL     1      17.999   1.612 -25.649  1.00  0.00    -0.272 OA
ENDROOT
BRANCH   6  13
HETATM   13  N1  UNL     1      22.262   0.109 -21.729  1.00  0.00     0.095 N 
HETATM   14  C7  UNL     1      23.144  -1.000 -21.522  1.00  0.00     0.275 C 
HETATM   15  C8  UNL     1      23.220  -1.237 -20.037  1.00  0.00     0.057 C 
HETATM   16  C9  UNL     1      21.859  -0.769 -19.571  1.00  0.00     0.114 C 
HETATM   17  C14 UNL     1      21.681   0.463 -20.444  1.00  0.00     0.298 C 
BRANCH  16  18
HETATM   18  N2  UNL     1      21.812  -0.517 -18.171  1.00  0.00    -0.354 N 
HETATM   19  C10 UNL     1      20.685  -0.786 -17.366  1.00  0.00     0.222 C 
HETATM   20  O1  UNL     1      19.663  -1.278 -17.951  1.00  0.00    -0.273 OA
ATOM     21  H2  UNL     1      22.639  -0.119 -17.725  1.00  0.00     0.162 HD
BRANCH  19  22
HETATM   22  C11 UNL     1      20.611  -0.545 -15.925  1.00  0.00     0.078 A 
HETATM   23  C12 UNL     1      19.521   0.498 -15.582  1.00  0.00     0.015 A 
HETATM   24  C13 UNL     1      19.475  -0.918 -15.071  1.00  0.00     0.015 A 
ENDBRANCH  19  22
ENDBRANCH  16  18
ENDBRANCH   6  13
BRANCH   9  25
HETATM   25  C18 UNL     1      20.699   4.555 -24.071  1.00  0.00     0.242 C 
HETATM   26  O2  UNL     1      21.432   4.183 -25.053  1.00  0.00    -0.271 OA
HETATM   27  N3  UNL     1      20.622   5.936 -23.841  1.00  0.00    -0.350 N 
HETATM   28  C19 UNL     1      21.399   6.840 -24.696  1.00  0.00     0.131 C 
HETATM   29  C23 UNL     1      19.818   6.575 -22.839  1.00  0.00     0.131 C 
HETATM   30  C20 UNL     1      20.777   8.224 -24.545  1.00  0.00     0.099 C 
HETATM   31  C21 UNL     1      19.264   8.176 -24.592  1.00  0.00     0.246 C 
HETATM   32  F1  UNL     1      18.808   9.447 -24.314  1.00  0.00    -0.206 F 
HETATM   33  F2  UNL     1      18.921   7.820 -25.899  1.00  0.00    -0.206 F 
HETATM   34  C22 UNL     1      18.661   7.243 -23.590  1.00  0.00     0.099 C 
ENDBRANCH   9  25
BRANCH  10  35
HETATM   35  C24 UNL     1      17.711   3.901 -24.178  1.00  0.00     0.131 C 
BRANCH  35  36
HETATM   36  C25 UNL     1      16.629   3.693 -23.196  1.00  0.00     0.004 A 
HETATM   37  C26 UNL     1      15.689   2.521 -23.179  1.00  0.00     0.007 A 
HETATM   38  C27 UNL     1      16.860   2.505 -22.254  1.00  0.00     0.007 A 
ENDBRANCH  35  36
ENDBRANCH  10  35
TORSDOF 6
ENDMDL
MODEL 3
REMARK VINA RESULT: -8.233235815      3.694      9.283
REMARK  6 active torsions:
REMARK  status: ('A' for Active; 'I' for Inactive)
REMARK    1  A    between atoms: C6_6  and  N1_7 
REMARK    2  A    between atoms: C9_10  and  N2_11 
REMARK       I    between atoms: N2_11  and  C10_13 
REMARK    3  A    between atoms: C10_13  and  C11_15 
REMARK    4  A    between atoms: C17_21  and  C18_22 
REMARK       I    between atoms: C18_22  and  N3_24 
REMARK    5  A    between atoms: N4_32  and  C24_33 
REMARK    6  A    between atoms: C24_33  and  C25_34 
ROOT
HETATM    1  C1  UNL     1      21.705  -0.205 -19.528  1.00  0.00     0.026 C 
HETATM    2  C2  UNL     1      22.335  -0.789 -20.771  1.00  0.00     0.043 C 
HETATM    3  C3  UNL     1      23.764  -1.225 -20.505  1.00  0.00     0.019 C 
HETATM    4  C4  UNL     1      24.019  -2.515 -21.209  1.00  0.00     0.003 C 
HETATM    5  C5  UNL     1      23.121  -3.599 -20.633  1.00  0.00     0.036 C 
HETATM    6  C6  UNL     1      21.707  -3.073 -20.377  1.00  0.00     0.228 C 
HETATM    7  C15 UNL     1      21.528  -1.937 -21.334  1.00  0.00     0.039 C 
HETATM    8  C16 UNL     1      20.136  -1.565 -21.666  1.00  0.00     0.043 C 
HETATM    9  C17 UNL     1      20.072  -0.352 -22.545  1.00  0.00     0.179 C 
HETATM   10  N4  UNL     1      21.295   0.360 -22.714  1.00  0.00    -0.338 N 
HETATM   11  C28 UNL     1      22.377   0.271 -21.801  1.00  0.00     0.229 C 
HETATM   12  O3  UNL     1      23.361   1.073 -21.854  1.00  0.00    -0.272 OA
ENDROOT
BRANCH   6  13
HETATM   13  N1  UNL     1      20.708  -4.079 -20.362  1.00  0.00     0.095 N 
HETATM   14  C7  UNL     1      19.365  -3.591 -20.269  1.00  0.00     0.275 C 
HETATM   15  C8  UNL     1      18.649  -4.449 -19.260  1.00  0.00     0.057 C 
HETATM   16  C9  UNL     1      19.774  -4.855 -18.334  1.00  0.00     0.114 C 
HETATM   17  C14 UNL     1      20.883  -5.102 -19.344  1.00  0.00     0.298 C 
BRANCH  16  18
HETATM   18  N2  UNL     1      19.445  -5.980 -17.526  1.00  0.00    -0.354 N 
HETATM   19  C10 UNL     1      19.445  -5.956 -16.115  1.00  0.00     0.222 C 
HETATM   20  O1  UNL     1      19.766  -4.853 -15.558  1.00  0.00    -0.273 OA
ATOM     21  H2  UNL     1      19.196  -6.852 -17.994  1.00  0.00     0.162 HD
BRANCH  19  22
HETATM   22  C11 UNL     1      19.104  -7.093 -15.260  1.00  0.00     0.078 A 
HETATM   23  C12 UNL     1      17.811  -7.793 -15.739  1.00  0.00     0.015 A 
HETATM   24  C13 UNL     1      19.140  -8.499 -15.682  1.00  0.00     0.015 A 
ENDBRANCH  19  22
ENDBRANCH  16  18
ENDBRANCH   6  13
BRANCH   9  25
HETATM   25  C18 UNL     1      19.089   0.655 -21.995  1.00  0.00     0.242 C 
HETATM   26  O2  UNL     1      19.038   0.853 -20.731  1.00  0.00    -0.271 OA
HETATM   27  N3  UNL     1      18.204   1.409 -22.780  1.00  0.00    -0.350 N 
HETATM   28  C19 UNL     1      17.274   2.325 -22.112  1.00  0.00     0.131 C 
HETATM   29  C23 UNL     1      18.131   1.391 -24.212  1.00  0.00     0.131 C 
HETATM   30  C20 UNL     1      16.802   3.315 -23.172  1.00  0.00     0.099 C 
HETATM   31  C21 UNL     1      17.945   3.815 -24.031  1.00  0.00     0.246 C 
HETATM   32  F1  UNL     1      17.394   4.589 -25.030  1.00  0.00    -0.206 F 
HETATM   33  F2  UNL     1      18.747   4.603 -23.202  1.00  0.00    -0.206 F 
HETATM   34  C22 UNL     1      18.732   2.720 -24.681  1.00  0.00     0.099 C 
ENDBRANCH   9  25
BRANCH  10  35
HETATM   35  C24 UNL     1      21.468   1.265 -23.821  1.00  0.00     0.131 C 
BRANCH  35  36
HETATM   36  C25 UNL     1      22.218   2.509 -23.560  1.00  0.00     0.004 A 
HETATM   37  C26 UNL     1      21.873   3.861 -24.118  1.00  0.00     0.007 A 
HETATM   38  C27 UNL     1      21.449   3.539 -22.724  1.00  0.00     0.007 A 
ENDBRANCH  35  36
ENDBRANCH  10  35
TORSDOF 6
ENDMDL
MODEL 4
REMARK VINA RESULT: -7.996822698      4.177      9.817
REMARK  6 active torsions:
REMARK  status: ('A' for Active; 'I' for Inactive)
REMARK    1  A    between atoms: C6_6  and  N1_7 
REMARK    2  A    between atoms: C9_10  and  N2_11 
REMARK       I    between atoms: N2_11  and  C10_13 
REMARK    3  A    between atoms: C10_13  and  C11_15 
REMARK    4  A    between atoms: C17_21  and  C18_22 
REMARK       I    between atoms: C18_22  and  N3_24 
REMARK    5  A    between atoms: N4_32  and  C24_33 
REMARK    6  A    between atoms: C24_33  and  C25_34 
ROOT
HETATM    1  C1  UNL     1      21.096   0.987 -25.312  1.00  0.00     0.026 C 
HETATM    2  C2  UNL     1      19.829   0.754 -24.524  1.00  0.00     0.043 C 
HETATM    3  C3  UNL     1      19.173  -0.556 -24.918  1.00  0.00     0.019 C 
HETATM    4  C4  UNL     1      18.646  -1.225 -23.694  1.00  0.00     0.003 C 
HETATM    5  C5  UNL     1      19.799  -1.580 -22.768  1.00  0.00     0.036 C 
HETATM    6  C6  UNL     1      20.829  -0.450 -22.702  1.00  0.00     0.228 C 
HETATM    7  C15 UNL     1      20.070   0.797 -23.032  1.00  0.00     0.039 C 
HETATM    8  C16 UNL     1      20.661   2.072 -22.571  1.00  0.00     0.043 C 
HETATM    9  C17 UNL     1      19.877   3.259 -23.045  1.00  0.00     0.179 C 
HETATM   10  N4  UNL     1      18.872   2.993 -24.020  1.00  0.00    -0.338 N 
HETATM   11  C28 UNL     1      18.883   1.843 -24.851  1.00  0.00     0.229 C 
HETATM   12  O3  UNL     1      18.108   1.737 -25.851  1.00  0.00    -0.272 OA
ENDROOT
BRANCH   6  13
HETATM   13  N1  UNL     1      21.612  -0.446 -21.521  1.00  0.00     0.095 N 
HETATM   14  C7  UNL     1      22.983  -0.817 -21.707  1.00  0.00     0.275 C 
HETATM   15  C8  UNL     1      23.343  -1.765 -20.594  1.00  0.00     0.057 C 
HETATM   16  C9  UNL     1      22.017  -2.435 -20.307  1.00  0.00     0.114 C 
HETATM   17  C14 UNL     1      21.078  -1.245 -20.429  1.00  0.00     0.298 C 
BRANCH  16  18
HETATM   18  N2  UNL     1      21.990  -3.085 -19.042  1.00  0.00    -0.354 N 
HETATM   19  C10 UNL     1      21.177  -4.203 -18.755  1.00  0.00     0.222 C 
HETATM   20  O1  UNL     1      20.430  -4.629 -19.698  1.00  0.00    -0.273 OA
ATOM     21  H2  UNL     1      22.592  -2.724 -18.302  1.00  0.00     0.162 HD
BRANCH  19  22
HETATM   22  C11 UNL     1      21.134  -4.896 -17.468  1.00  0.00     0.078 A 
HETATM   23  C12 UNL     1      19.937  -4.422 -16.610  1.00  0.00     0.015 A 
HETATM   24  C13 UNL     1      20.092  -5.849 -17.065  1.00  0.00     0.015 A 
ENDBRANCH  19  22
ENDBRANCH  16  18
ENDBRANCH   6  13
BRANCH   9  25
HETATM   25  C18 UNL     1      20.790   4.285 -23.672  1.00  0.00     0.242 C 
HETATM   26  O2  UNL     1      21.799   3.892 -24.356  1.00  0.00    -0.271 OA
HETATM   27  N3  UNL     1      20.616   5.673 -23.562  1.00  0.00    -0.350 N 
HETATM   28  C19 UNL     1      21.601   6.560 -24.190  1.00  0.00     0.131 C 
HETATM   29  C23 UNL     1      19.528   6.331 -22.898  1.00  0.00     0.131 C 
HETATM   30  C20 UNL     1      20.934   7.925 -24.323  1.00  0.00     0.099 C 
HETATM   31  C21 UNL     1      19.512   7.816 -24.831  1.00  0.00     0.246 C 
HETATM   32  F1  UNL     1      18.966   9.081 -24.786  1.00  0.00    -0.206 F 
HETATM   33  F2  UNL     1      19.598   7.380 -26.156  1.00  0.00    -0.206 F 
HETATM   34  C22 UNL     1      18.647   6.913 -24.008  1.00  0.00     0.099 C 
ENDBRANCH   9  25
BRANCH  10  35
HETATM   35  C24 UNL     1      17.805   3.932 -24.246  1.00  0.00     0.131 C 
BRANCH  35  36
HETATM   36  C25 UNL     1      16.599   3.792 -23.407  1.00  0.00     0.004 A 
HETATM   37  C26 UNL     1      15.754   2.553 -23.305  1.00  0.00     0.007 A 
HETATM   38  C27 UNL     1      16.761   2.815 -22.236  1.00  0.00     0.007 A 
ENDBRANCH  35  36
ENDBRANCH  10  35
TORSDOF 6
ENDMDL
MODEL 5
REMARK VINA RESULT: -7.975061170      4.293      7.618
REMARK  6 active torsions:
REMARK  status: ('A' for Active; 'I' for Inactive)
REMARK    1  A    between atoms: C6_6  and  N1_7 
REMARK    2  A    between atoms: C9_10  and  N2_11 
REMARK       I    between atoms: N2_11  and  C10_13 
REMARK    3  A    between atoms: C10_13  and  C11_15 
REMARK    4  A    between atoms: C17_21  and  C18_22 
REMARK       I    between atoms: C18_22  and  N3_24 
REMARK    5  A    between atoms: N4_32  and  C24_33 
REMARK    6  A    between atoms: C24_33  and  C25_34 
ROOT
HETATM    1  C1  UNL     1      22.185  -2.279 -19.847  1.00  0.00     0.026 C 
HETATM    2  C2  UNL     1      20.686  -2.430 -19.734  1.00  0.00     0.043 C 
HETATM    3  C3  UNL     1      20.314  -3.804 -19.209  1.00  0.00     0.019 C 
HETATM    4  C4  UNL     1      19.179  -3.668 -18.250  1.00  0.00     0.003 C 
HETATM    5  C5  UNL     1      19.620  -2.850 -17.047  1.00  0.00     0.036 C 
HETATM    6  C6  UNL     1      20.480  -1.656 -17.469  1.00  0.00     0.228 C 
HETATM    7  C15 UNL     1      20.068  -1.350 -18.875  1.00  0.00     0.039 C 
HETATM    8  C16 UNL     1      20.348   0.017 -19.363  1.00  0.00     0.043 C 
HETATM    9  C17 UNL     1      19.993   0.182 -20.811  1.00  0.00     0.179 C 
HETATM   10  N4  UNL     1      19.683  -1.018 -21.516  1.00  0.00    -0.338 N 
HETATM   11  C28 UNL     1      20.112  -2.301 -21.090  1.00  0.00     0.229 C 
HETATM   12  O3  UNL     1      20.012  -3.320 -21.842  1.00  0.00    -0.272 OA
ENDROOT
BRANCH   6  13
HETATM   13  N1  UNL     1      20.483  -0.586 -16.541  1.00  0.00     0.095 N 
HETATM   14  C7  UNL     1      20.150  -0.954 -15.197  1.00  0.00     0.275 C 
HETATM   15  C8  UNL     1      19.192   0.084 -14.676  1.00  0.00     0.057 C 
HETATM   16  C9  UNL     1      18.484   0.525 -15.938  1.00  0.00     0.114 C 
HETATM   17  C14 UNL     1      19.652   0.549 -16.911  1.00  0.00     0.298 C 
BRANCH  16  18
HETATM   18  N2  UNL     1      17.812   1.770 -15.787  1.00  0.00    -0.354 N 
HETATM   19  C10 UNL     1      16.617   2.100 -16.462  1.00  0.00     0.222 C 
HETATM   20  O1  UNL     1      16.138   1.217 -17.249  1.00  0.00    -0.273 OA
ATOM     21  H2  UNL     1      18.216   2.462 -15.155  1.00  0.00     0.162 HD
BRANCH  19  22
HETATM   22  C11 UNL     1      15.900   3.367 -16.320  1.00  0.00     0.078 A 
HETATM   23  C12 UNL     1      14.814   3.283 -15.221  1.00  0.00     0.015 A 
HETATM   24  C13 UNL     1      15.972   4.243 -15.144  1.00  0.00     0.015 A 
ENDBRANCH  19  22
ENDBRANCH  16  18
ENDBRANCH   6  13
BRANCH   9  25
HETATM   25  C18 UNL     1      21.133   0.817 -21.571  1.00  0.00     0.242 C 
HETATM   26  O2  UNL     1      22.266   0.222 -21.613  1.00  0.00    -0.271 OA
HETATM   27  N3  UNL     1      21.046   2.040 -22.253  1.00  0.00    -0.350 N 
HETATM   28  C19 UNL     1      22.243   2.563 -22.920  1.00  0.00     0.131 C 
HETATM   29  C23 UNL     1      19.865   2.842 -22.387  1.00  0.00     0.131 C 
HETATM   30  C20 UNL     1      21.761   3.596 -23.933  1.00  0.00     0.099 C 
HETATM   31  C21 UNL     1      20.555   3.110 -24.710  1.00  0.00     0.246 C 
HETATM   32  F1  UNL     1      20.125   4.160 -25.492  1.00  0.00    -0.206 F 
HETATM   33  F2  UNL     1      21.003   2.063 -25.520  1.00  0.00    -0.206 F 
HETATM   34  C22 UNL     1      19.412   2.685 -23.843  1.00  0.00     0.099 C 
ENDBRANCH   9  25
BRANCH  10  35
HETATM   35  C24 UNL     1      18.946  -0.969 -22.753  1.00  0.00     0.131 C 
BRANCH  35  36
HETATM   36  C25 UNL     1      19.733  -0.920 -24.001  1.00  0.00     0.004 A 
HETATM   37  C26 UNL     1      19.428  -1.701 -25.248  1.00  0.00     0.007 A 
HETATM   38  C27 UNL     1      18.995  -0.275 -25.181  1.00  0.00     0.007 A 
ENDBRANCH  35  36
ENDBRANCH  10  35
TORSDOF 6
ENDMDL
