MODEL 1
REMARK VINA RESULT: -8.681653131      0.000      0.000
REMARK  5 active torsions:
REMARK  status: ('A' for Active; 'I' for Inactive)
REMARK    1  A    between atoms: C1_2  and  C2_3 
REMARK       I    between atoms: C1_2  and  N2_21 
REMARK    2  A    between atoms: C4_5  and  N1_6 
REMARK    3  A    between atoms: N1_6  and  C5_9 
REMARK    4  A    between atoms: N3_24  and  C17_26 
REMARK    5  A    between atoms: C17_26  and  C18_27 
ROOT
HETATM    1  C2  UNL     1      20.199  -1.860 -21.396  1.00  0.00     0.219 C 
HETATM    2  C3  UNL     1      19.366  -3.004 -20.833  1.00  0.00     0.075 C 
HETATM    3  C4  UNL     1      20.089  -3.597 -19.671  1.00  0.00     0.194 C 
HETATM    4  C9  UNL     1      21.567  -3.656 -19.771  1.00  0.00     0.106 C 
HETATM    5  C10 UNL     1      22.196  -2.660 -20.710  1.00  0.00     0.185 C 
HETATM    6  C11 UNL     1      22.540  -1.463 -19.923  1.00  0.00     0.037 C 
HETATM    7  C12 UNL     1      23.705  -0.872 -20.035  1.00  0.00    -0.023 C 
HETATM    8  C13 UNL     1      24.745  -1.356 -20.946  1.00  0.00     0.053 C 
HETATM    9  C14 UNL     1      24.135  -2.345 -21.912  1.00  0.00     0.175 C 
HETATM   10  O2  UNL     1      23.341  -3.277 -21.246  1.00  0.00    -0.351 OA
HETATM   11  O3  UNL     1      21.381  -2.393 -21.811  1.00  0.00    -0.337 OA
ENDROOT
BRANCH   1  12
HETATM   12  C1  UNL     1      19.389  -1.185 -22.423  1.00  0.00     0.249 C 
HETATM   13  O1  UNL     1      18.308  -1.798 -22.723  1.00  0.00    -0.270 OA
HETATM   14  N2  UNL     1      19.663   0.021 -23.088  1.00  0.00    -0.347 N 
HETATM   15  C15 UNL     1      18.670   0.503 -24.050  1.00  0.00     0.155 C 
HETATM   16  C20 UNL     1      20.880   0.720 -22.820  1.00  0.00     0.155 C 
HETATM   17  C16 UNL     1      19.370   1.337 -25.098  1.00  0.00     0.271 C 
HETATM   18  N3  UNL     1      20.003   2.438 -24.377  1.00  0.00    -0.007 N 
HETATM   19 BR1  UNL     1      18.882   3.200 -23.083  1.00  0.00     0.164 Br
HETATM   20  C19 UNL     1      21.162   1.891 -23.719  1.00  0.00     0.271 C 
BRANCH  18  21
HETATM   21  C17 UNL     1      20.473   3.452 -25.284  1.00  0.00     0.262 C 
BRANCH  21  22
HETATM   22  C18 UNL     1      21.218   4.577 -24.644  1.00  0.00     0.114 C 
HETATM   23 BR2  UNL     1      21.256   6.190 -25.669  1.00  0.00    -0.095 Br
ENDBRANCH  21  22
ENDBRANCH  18  21
ENDBRANCH   1  12
BRANCH   3  24
HETATM   24  N1  UNL     1      19.628  -3.076 -18.378  1.00  0.00    -0.066 N 
ATOM     25  H12 UNL     1      20.384  -2.681 -17.818  1.00  0.00     0.278 HD
ATOM     26  H11 UNL     1      19.070  -2.227 -18.469  1.00  0.00     0.278 HD
BRANCH  24  27
HETATM   27  C5  UNL     1      18.932  -4.129 -17.706  1.00  0.00     0.186 C 
HETATM   28  C6  UNL     1      18.840  -5.432 -18.509  1.00  0.00     0.033 C 
HETATM   29  C7  UNL     1      19.006  -6.159 -17.193  1.00  0.00     0.004 C 
HETATM   30  C8  UNL     1      19.798  -4.929 -16.727  1.00  0.00     0.033 C 
ENDBRANCH  24  27
ENDBRANCH   3  24
TORSDOF 5
ENDMDL
MODEL 2
REMARK VINA RESULT: -8.633539948      2.181      2.771
REMARK  5 active torsions:
REMARK  status: ('A' for Active; 'I' for Inactive)
REMARK    1  A    between atoms: C1_2  and  C2_3 
REMARK       I    between atoms: C1_2  and  N2_21 
REMARK    2  A    between atoms: C4_5  and  N1_6 
REMARK    3  A    between atoms: N1_6  and  C5_9 
REMARK    4  A    between atoms: N3_24  and  C17_26 
REMARK    5  A    between atoms: C17_26  and  C18_27 
ROOT
HETATM    1  C2  UNL     1      20.467  -2.451 -19.543  1.00  0.00     0.219 C 
HETATM    2  C3  UNL     1      19.073  -3.023 -19.312  1.00  0.00     0.075 C 
HETATM    3  C4  UNL     1      19.206  -4.388 -18.725  1.00  0.00     0.194 C 
HETATM    4  C9  UNL     1      20.338  -5.210 -19.215  1.00  0.00     0.106 C 
HETATM    5  C10 UNL     1      21.502  -4.443 -19.784  1.00  0.00     0.185 C 
HETATM    6  C11 UNL     1      22.461  -4.212 -18.689  1.00  0.00     0.037 C 
HETATM    7  C12 UNL     1      23.747  -4.416 -18.840  1.00  0.00    -0.023 C 
HETATM    8  C13 UNL     1      24.323  -4.887 -20.101  1.00  0.00     0.053 C 
HETATM    9  C14 UNL     1      23.294  -4.742 -21.200  1.00  0.00     0.175 C 
HETATM   10  O2  UNL     1      22.056  -5.242 -20.800  1.00  0.00    -0.351 OA
HETATM   11  O3  UNL     1      21.093  -3.274 -20.427  1.00  0.00    -0.337 OA
ENDROOT
BRANCH   1  12
HETATM   12  C1  UNL     1      20.307  -1.047 -19.954  1.00  0.00     0.249 C 
HETATM   13  O1  UNL     1      20.518  -0.201 -19.020  1.00  0.00    -0.270 OA
HETATM   14  N2  UNL     1      19.960  -0.550 -21.220  1.00  0.00    -0.347 N 
HETATM   15  C15 UNL     1      19.902   0.904 -21.382  1.00  0.00     0.155 C 
HETATM   16  C20 UNL     1      19.671  -1.457 -22.286  1.00  0.00     0.155 C 
HETATM   17  C16 UNL     1      18.915   1.235 -22.479  1.00  0.00     0.271 C 
HETATM   18  N3  UNL     1      19.417   0.576 -23.681  1.00  0.00    -0.007 N 
HETATM   19 BR1  UNL     1      21.265   0.787 -23.908  1.00  0.00     0.164 Br
HETATM   20  C19 UNL     1      19.127  -0.828 -23.538  1.00  0.00     0.271 C 
BRANCH  18  21
HETATM   21  C17 UNL     1      18.719   1.032 -24.855  1.00  0.00     0.262 C 
BRANCH  21  22
HETATM   22  C18 UNL     1      17.945   2.297 -24.680  1.00  0.00     0.114 C 
HETATM   23 BR2  UNL     1      18.994   3.892 -24.783  1.00  0.00    -0.095 Br
ENDBRANCH  21  22
ENDBRANCH  18  21
ENDBRANCH   1  12
BRANCH   3  24
HETATM   24  N1  UNL     1      19.085  -4.402 -17.262  1.00  0.00    -0.066 N 
ATOM     25  H12 UNL     1      19.641  -3.675 -16.812  1.00  0.00     0.278 HD
ATOM     26  H11 UNL     1      18.169  -4.092 -16.937  1.00  0.00     0.278 HD
BRANCH  24  27
HETATM   27  C5  UNL     1      19.419  -5.717 -16.810  1.00  0.00     0.186 C 
HETATM   28  C6  UNL     1      19.344  -5.894 -15.288  1.00  0.00     0.033 C 
HETATM   29  C7  UNL     1      18.819  -7.287 -15.558  1.00  0.00     0.004 C 
HETATM   30  C8  UNL     1      18.256  -6.714 -16.867  1.00  0.00     0.033 C 
ENDBRANCH  24  27
ENDBRANCH   3  24
TORSDOF 5
ENDMDL
MODEL 3
REMARK VINA RESULT: -8.609852255      2.174      2.661
REMARK  5 active torsions:
REMARK  status: ('A' for Active; 'I' for Inactive)
REMARK    1  A    between atoms: C1_2  and  C2_3 
REMARK       I    between atoms: C1_2  and  N2_21 
REMARK    2  A    between atoms: C4_5  and  N1_6 
REMARK    3  A    between atoms: N1_6  and  C5_9 
REMARK    4  A    between atoms: N3_24  and  C17_26 
REMARK    5  A    between atoms: C17_26  and  C18_27 
ROOT
HETATM    1  C2  UNL     1      20.865  -2.240 -20.998  1.00  0.00     0.219 C 
HETATM    2  C3  UNL     1      19.777  -2.097 -19.940  1.00  0.00     0.075 C 
HETATM    3  C4  UNL     1      20.290  -2.637 -18.648  1.00  0.00     0.194 C 
HETATM    4  C9  UNL     1      21.173  -3.825 -18.732  1.00  0.00     0.106 C 
HETATM    5  C10 UNL     1      21.889  -4.012 -20.044  1.00  0.00     0.185 C 
HETATM    6  C11 UNL     1      23.200  -3.348 -19.935  1.00  0.00     0.037 C 
HETATM    7  C12 UNL     1      24.305  -3.927 -20.336  1.00  0.00    -0.023 C 
HETATM    8  C13 UNL     1      24.320  -5.270 -20.918  1.00  0.00     0.053 C 
HETATM    9  C14 UNL     1      22.907  -5.667 -21.281  1.00  0.00     0.175 C 
HETATM   10  O2  UNL     1      22.024  -5.399 -20.236  1.00  0.00    -0.351 OA
HETATM   11  O3  UNL     1      21.124  -3.571 -21.124  1.00  0.00    -0.337 OA
ENDROOT
BRANCH   1  12
HETATM   12  C1  UNL     1      20.401  -1.545 -22.209  1.00  0.00     0.249 C 
HETATM   13  O1  UNL     1      19.615  -2.237 -22.941  1.00  0.00    -0.270 OA
HETATM   14  N2  UNL     1      20.716  -0.245 -22.635  1.00  0.00    -0.347 N 
HETATM   15  C15 UNL     1      20.090   0.231 -23.870  1.00  0.00     0.155 C 
HETATM   16  C20 UNL     1      21.626   0.552 -21.875  1.00  0.00     0.155 C 
HETATM   17  C16 UNL     1      20.993   1.259 -24.511  1.00  0.00     0.271 C 
HETATM   18  N3  UNL     1      21.140   2.331 -23.531  1.00  0.00    -0.007 N 
HETATM   19 BR1  UNL     1      19.518   2.800 -22.718  1.00  0.00     0.164 Br
HETATM   20  C19 UNL     1      22.041   1.846 -22.517  1.00  0.00     0.271 C 
BRANCH  18  21
HETATM   21  C17 UNL     1      21.753   3.493 -24.117  1.00  0.00     0.262 C 
BRANCH  21  22
HETATM   22  C18 UNL     1      20.915   4.729 -24.100  1.00  0.00     0.114 C 
HETATM   23 BR2  UNL     1      21.225   5.921 -25.562  1.00  0.00    -0.095 Br
ENDBRANCH  21  22
ENDBRANCH  18  21
ENDBRANCH   1  12
BRANCH   3  24
HETATM   24  N1  UNL     1      20.820  -1.597 -17.757  1.00  0.00    -0.066 N 
ATOM     25  H12 UNL     1      21.652  -1.897 -17.249  1.00  0.00     0.278 HD
ATOM     26  H11 UNL     1      21.244  -0.819 -18.263  1.00  0.00     0.278 HD
BRANCH  24  27
HETATM   27  C5  UNL     1      19.760  -1.183 -16.890  1.00  0.00     0.186 C 
HETATM   28  C6  UNL     1      20.228  -0.717 -15.506  1.00  0.00     0.033 C 
HETATM   29  C7  UNL     1      19.130   0.320 -15.575  1.00  0.00     0.004 C 
HETATM   30  C8  UNL     1      19.309   0.266 -17.099  1.00  0.00     0.033 C 
ENDBRANCH  24  27
ENDBRANCH   3  24
TORSDOF 5
ENDMDL
MODEL 4
REMARK VINA RESULT: -8.505194047      2.244      2.597
REMARK  5 active torsions:
REMARK  status: ('A' for Active; 'I' for Inactive)
REMARK    1  A    between atoms: C1_2  and  C2_3 
REMARK       I    between atoms: C1_2  and  N2_21 
REMARK    2  A    between atoms: C4_5  and  N1_6 
REMARK    3  A    between atoms: N1_6  and  C5_9 
REMARK    4  A    between atoms: N3_24  and  C17_26 
REMARK    5  A    between atoms: C17_26  and  C18_27 
ROOT
HETATM    1  C2  UNL     1      20.566  -1.573 -20.738  1.00  0.00     0.219 C 
HETATM    2  C3  UNL     1      19.766  -1.865 -19.474  1.00  0.00     0.075 C 
HETATM    3  C4  UNL     1      20.706  -1.939 -18.318  1.00  0.00     0.194 C 
HETATM    4  C9  UNL     1      22.033  -2.543 -18.583  1.00  0.00     0.106 C 
HETATM    5  C10 UNL     1      22.494  -2.499 -20.016  1.00  0.00     0.185 C 
HETATM    6  C11 UNL     1      23.289  -1.271 -20.190  1.00  0.00     0.037 C 
HETATM    7  C12 UNL     1      24.441  -1.274 -20.815  1.00  0.00    -0.023 C 
HETATM    8  C13 UNL     1      25.022  -2.493 -21.382  1.00  0.00     0.053 C 
HETATM    9  C14 UNL     1      23.960  -3.568 -21.435  1.00  0.00     0.175 C 
HETATM   10  O2  UNL     1      23.269  -3.654 -20.227  1.00  0.00    -0.351 OA
HETATM   11  O3  UNL     1      21.429  -2.610 -20.910  1.00  0.00    -0.337 OA
ENDROOT
BRANCH   1  12
HETATM   12  C1  UNL     1      19.604  -1.332 -21.825  1.00  0.00     0.249 C 
HETATM   13  O1  UNL     1      18.923  -2.360 -22.159  1.00  0.00    -0.270 OA
HETATM   14  N2  UNL     1      19.360  -0.134 -22.515  1.00  0.00    -0.347 N 
HETATM   15  C15 UNL     1      18.315  -0.146 -23.541  1.00  0.00     0.155 C 
HETATM   16  C20 UNL     1      20.128   1.032 -22.210  1.00  0.00     0.155 C 
HETATM   17  C16 UNL     1      18.638   0.903 -24.580  1.00  0.00     0.271 C 
HETATM   18  N3  UNL     1      18.679   2.176 -23.865  1.00  0.00    -0.007 N 
HETATM   19 BR1  UNL     1      17.263   2.376 -22.655  1.00  0.00     0.164 Br
HETATM   20  C19 UNL     1      19.919   2.201 -23.132  1.00  0.00     0.271 C 
BRANCH  18  21
HETATM   21  C17 UNL     1      18.709   3.286 -24.780  1.00  0.00     0.262 C 
BRANCH  21  22
HETATM   22  C18 UNL     1      19.357   4.524 -24.253  1.00  0.00     0.114 C 
HETATM   23 BR2  UNL     1      18.189   6.030 -24.101  1.00  0.00    -0.095 Br
ENDBRANCH  21  22
ENDBRANCH  18  21
ENDBRANCH   1  12
BRANCH   3  24
HETATM   24  N1  UNL     1      20.794  -0.682 -17.564  1.00  0.00    -0.066 N 
ATOM     25  H12 UNL     1      21.725  -0.514 -17.182  1.00  0.00     0.278 HD
ATOM     26  H11 UNL     1      20.743   0.143 -18.161  1.00  0.00     0.278 HD
BRANCH  24  27
HETATM   27  C5  UNL     1      19.777  -0.704 -16.558  1.00  0.00     0.186 C 
HETATM   28  C6  UNL     1      20.301  -0.500 -15.132  1.00  0.00     0.033 C 
HETATM   29  C7  UNL     1      19.037   0.288 -14.868  1.00  0.00     0.004 C 
HETATM   30  C8  UNL     1      19.060   0.636 -16.363  1.00  0.00     0.033 C 
ENDBRANCH  24  27
ENDBRANCH   3  24
TORSDOF 5
ENDMDL
MODEL 5
REMARK VINA RESULT: -8.152559792      2.213      3.616
REMARK  5 active torsions:
REMARK  status: ('A' for Active; 'I' for Inactive)
REMARK    1  A    between atoms: C1_2  and  C2_3 
REMARK       I    between atoms: C1_2  and  N2_21 
REMARK    2  A    between atoms: C4_5  and  N1_6 
REMARK    3  A    between atoms: N1_6  and  C5_9 
REMARK    4  A    between atoms: N3_24  and  C17_26 
REMARK    5  A    between atoms: C17_26  and  C18_27 
ROOT
HETATM    1  C2  UNL     1      20.827  -0.770 -21.708  1.00  0.00     0.219 C 
HETATM    2  C3  UNL     1      22.254  -0.410 -22.101  1.00  0.00     0.075 C 
HETATM    3  C4  UNL     1      23.187  -0.955 -21.072  1.00  0.00     0.194 C 
HETATM    4  C9  UNL     1      22.712  -0.927 -19.668  1.00  0.00     0.106 C 
HETATM    5  C10 UNL     1      21.217  -0.893 -19.487  1.00  0.00     0.185 C 
HETATM    6  C11 UNL     1      20.751  -2.285 -19.361  1.00  0.00     0.037 C 
HETATM    7  C12 UNL     1      19.901  -2.650 -18.433  1.00  0.00    -0.023 C 
HETATM    8  C13 UNL     1      19.354  -1.706 -17.456  1.00  0.00     0.053 C 
HETATM    9  C14 UNL     1      19.639  -0.295 -17.919  1.00  0.00     0.175 C 
HETATM   10  O2  UNL     1      20.968  -0.154 -18.317  1.00  0.00    -0.351 OA
HETATM   11  O3  UNL     1      20.584  -0.179 -20.506  1.00  0.00    -0.337 OA
ENDROOT
BRANCH   1  12
HETATM   12  C1  UNL     1      19.948  -0.377 -22.821  1.00  0.00     0.249 C 
HETATM   13  O1  UNL     1      19.560  -1.351 -23.551  1.00  0.00    -0.270 OA
HETATM   14  N2  UNL     1      19.502   0.911 -23.158  1.00  0.00    -0.347 N 
HETATM   15  C15 UNL     1      18.596   1.034 -24.302  1.00  0.00     0.155 C 
HETATM   16  C20 UNL     1      19.944   2.038 -22.400  1.00  0.00     0.155 C 
HETATM   17  C16 UNL     1      18.768   2.404 -24.917  1.00  0.00     0.271 C 
HETATM   18  N3  UNL     1      18.442   3.360 -23.864  1.00  0.00    -0.007 N 
HETATM   19 BR1  UNL     1      16.905   2.886 -22.902  1.00  0.00     0.164 Br
HETATM   20  C19 UNL     1      19.563   3.381 -22.959  1.00  0.00     0.271 C 
BRANCH  18  21
HETATM   21  C17 UNL     1      18.304   4.691 -24.393  1.00  0.00     0.262 C 
BRANCH  21  22
HETATM   22  C18 UNL     1      19.354   5.658 -23.956  1.00  0.00     0.114 C 
HETATM   23 BR2  UNL     1      20.697   6.020 -25.267  1.00  0.00    -0.095 Br
ENDBRANCH  21  22
ENDBRANCH  18  21
ENDBRANCH   1  12
BRANCH   3  24
HETATM   24  N1  UNL     1      23.770  -2.248 -21.448  1.00  0.00    -0.066 N 
ATOM     25  H12 UNL     1      23.436  -2.586 -22.351  1.00  0.00     0.278 HD
ATOM     26  H11 UNL     1      24.760  -2.183 -21.687  1.00  0.00     0.278 HD
BRANCH  24  27
HETATM   27  C5  UNL     1      23.516  -3.169 -20.383  1.00  0.00     0.186 C 
HETATM   28  C6  UNL     1      22.759  -4.431 -20.812  1.00  0.00     0.033 C 
HETATM   29  C7  UNL     1      23.615  -5.183 -19.818  1.00  0.00     0.004 C 
HETATM   30  C8  UNL     1      24.684  -4.112 -20.078  1.00  0.00     0.033 C 
ENDBRANCH  24  27
ENDBRANCH   3  24
TORSDOF 5
ENDMDL
