MODEL 1
REMARK VINA RESULT: -9.538517751      0.000      0.000
REMARK  5 active torsions:
REMARK  status: ('A' for Active; 'I' for Inactive)
REMARK    1  A    between atoms: C2_2  and  C3_3 
REMARK       I    between atoms: C3_3  and  N1_5 
REMARK    2  A    between atoms: N2_8  and  C6_9 
REMARK    3  A    between atoms: C6_9  and  N3_11 
REMARK    4  A    between atoms: C6_9  and  C9_16 
REMARK       I    between atoms: N3_11  and  C8_13 
REMARK       I    between atoms: N4_23  and  C14_24 
REMARK    5  A    between atoms: C14_24  and  C15_26 
ROOT
HETATM    1  C3  UNL     1      19.982   2.430 -23.660  1.00  0.00     0.248 C 
HETATM    2  O1  UNL     1      21.154   1.916 -23.540  1.00  0.00    -0.271 OA
HETATM    3  N1  UNL     1      19.936   3.816 -23.866  1.00  0.00    -0.347 N 
HETATM    4  C4  UNL     1      21.215   4.563 -23.922  1.00  0.00     0.145 C 
HETATM    5  C5  UNL     1      20.838   5.944 -23.357  1.00  0.00     0.139 C 
HETATM    6  N2  UNL     1      20.080   6.579 -24.364  1.00  0.00    -0.378 N 
HETATM    7  C10 UNL     1      18.934   5.864 -24.778  1.00  0.00     0.139 C 
HETATM    8  C11 UNL     1      18.727   4.558 -24.030  1.00  0.00     0.145 C 
ENDROOT
BRANCH   1   9
HETATM    9  C2  UNL     1      18.844   1.528 -23.571  1.00  0.00     0.114 C 
HETATM   10  C1  UNL     1      18.029   1.732 -22.309  1.00  0.00     0.049 C 
HETATM   11  C12 UNL     1      18.008   1.317 -24.809  1.00  0.00     0.061 C 
HETATM   12  C13 UNL     1      19.098   0.339 -25.156  1.00  0.00     0.130 C 
HETATM   13  N4  UNL     1      19.278   0.128 -23.735  1.00  0.00    -0.334 N 
HETATM   14  C14 UNL     1      19.710  -0.977 -22.965  1.00  0.00     0.225 C 
HETATM   15  O4  UNL     1      19.998  -2.040 -23.632  1.00  0.00    -0.273 OA
BRANCH  14  16
HETATM   16  C15 UNL     1      19.857  -1.023 -21.503  1.00  0.00     0.086 C 
HETATM   17  C16 UNL     1      21.048  -0.227 -21.056  1.00  0.00    -0.000 C 
HETATM   18  C17 UNL     1      22.377  -0.859 -21.236  1.00  0.00     0.010 C 
HETATM   19  C21 UNL     1      20.859  -0.017 -19.545  1.00  0.00     0.010 C 
HETATM   20  C18 UNL     1      22.416  -2.225 -20.546  1.00  0.00    -0.013 C 
HETATM   21  C19 UNL     1      22.234  -2.066 -19.068  1.00  0.00     0.009 C 
HETATM   22  C24 UNL     1      21.342  -3.043 -21.190  1.00  0.00     0.010 C 
HETATM   23  C20 UNL     1      20.904  -1.362 -18.846  1.00  0.00    -0.013 C 
HETATM   24  C22 UNL     1      19.844  -2.259 -19.413  1.00  0.00     0.010 C 
HETATM   25  C23 UNL     1      20.004  -2.416 -20.933  1.00  0.00    -0.000 C 
ENDBRANCH  14  16
ENDBRANCH   1   9
BRANCH   6  26
HETATM   26  C6  UNL     1      20.036   7.995 -24.405  1.00  0.00     0.179 C 
HETATM   27  C7  UNL     1      18.932   8.534 -25.289  1.00  0.00     0.073 C 
BRANCH  26  28
HETATM   28  N3  UNL     1      19.693   8.455 -23.048  1.00  0.00    -0.314 N 
HETATM   29  C8  UNL     1      18.366   8.606 -22.615  1.00  0.00     0.316 C 
HETATM   30  O2  UNL     1      17.360   8.360 -23.333  1.00  0.00    -0.254 OA
HETATM   31 CL1  UNL     1      18.086   9.173 -20.963  1.00  0.00    -0.020 Cl
ATOM     32  H3  UNL     1      20.449   8.673 -22.398  1.00  0.00     0.166 HD
ENDBRANCH  26  28
BRANCH  26  33
HETATM   33  C9  UNL     1      21.319   8.607 -24.863  1.00  0.00     0.267 C 
HETATM   34  O3  UNL     1      22.021   9.335 -24.214  1.00  0.00    -0.275 OA
HETATM   35 CL2  UNL     1      21.813   8.199 -26.519  1.00  0.00    -0.039 Cl
ENDBRANCH  26  33
ENDBRANCH   6  26
TORSDOF 5
ENDMDL
MODEL 2
REMARK VINA RESULT: -9.326792405      1.111      2.440
REMARK  5 active torsions:
REMARK  status: ('A' for Active; 'I' for Inactive)
REMARK    1  A    between atoms: C2_2  and  C3_3 
REMARK       I    between atoms: C3_3  and  N1_5 
REMARK    2  A    between atoms: N2_8  and  C6_9 
REMARK    3  A    between atoms: C6_9  and  N3_11 
REMARK    4  A    between atoms: C6_9  and  C9_16 
REMARK       I    between atoms: N3_11  and  C8_13 
REMARK       I    between atoms: N4_23  and  C14_24 
REMARK    5  A    between atoms: C14_24  and  C15_26 
ROOT
HETATM    1  C3  UNL     1      20.021   2.787 -23.898  1.00  0.00     0.248 C 
HETATM    2  O1  UNL     1      21.199   2.274 -23.941  1.00  0.00    -0.271 OA
HETATM    3  N1  UNL     1      19.943   4.170 -24.116  1.00  0.00    -0.347 N 
HETATM    4  C4  UNL     1      21.200   4.915 -24.366  1.00  0.00     0.145 C 
HETATM    5  C5  UNL     1      20.906   6.305 -23.773  1.00  0.00     0.139 C 
HETATM    6  N2  UNL     1      20.009   6.925 -24.669  1.00  0.00    -0.378 N 
HETATM    7  C10 UNL     1      18.817   6.204 -24.904  1.00  0.00     0.139 C 
HETATM    8  C11 UNL     1      18.722   4.910 -24.115  1.00  0.00     0.145 C 
ENDROOT
BRANCH   1   9
HETATM    9  C2  UNL     1      18.909   1.887 -23.633  1.00  0.00     0.114 C 
HETATM   10  C1  UNL     1      18.259   2.137 -22.287  1.00  0.00     0.049 C 
HETATM   11  C12 UNL     1      17.925   1.628 -24.747  1.00  0.00     0.061 C 
HETATM   12  C13 UNL     1      18.968   0.640 -25.193  1.00  0.00     0.130 C 
HETATM   13  N4  UNL     1      19.328   0.482 -23.799  1.00  0.00    -0.334 N 
HETATM   14  C14 UNL     1      19.861  -0.592 -23.050  1.00  0.00     0.225 C 
HETATM   15  O4  UNL     1      20.069  -1.679 -23.708  1.00  0.00    -0.273 OA
BRANCH  14  16
HETATM   16  C15 UNL     1      20.191  -0.584 -21.618  1.00  0.00     0.086 C 
HETATM   17  C16 UNL     1      21.602  -0.124 -21.393  1.00  0.00    -0.000 C 
HETATM   18  C17 UNL     1      22.675  -1.112 -21.662  1.00  0.00     0.010 C 
HETATM   19  C21 UNL     1      21.687   0.227 -19.899  1.00  0.00     0.010 C 
HETATM   20  C18 UNL     1      22.442  -2.388 -20.848  1.00  0.00    -0.013 C 
HETATM   21  C19 UNL     1      22.515  -2.089 -19.382  1.00  0.00     0.009 C 
HETATM   22  C24 UNL     1      21.109  -2.913 -21.278  1.00  0.00     0.010 C 
HETATM   23  C20 UNL     1      21.468  -1.030 -19.079  1.00  0.00    -0.013 C 
HETATM   24  C22 UNL     1      20.138  -1.630 -19.427  1.00  0.00     0.010 C 
HETATM   25  C23 UNL     1      20.038  -1.923 -20.933  1.00  0.00    -0.000 C 
ENDBRANCH  14  16
ENDBRANCH   1   9
BRANCH   6  26
HETATM   26  C6  UNL     1      19.957   8.341 -24.724  1.00  0.00     0.179 C 
HETATM   27  C7  UNL     1      21.200   9.007 -24.175  1.00  0.00     0.073 C 
BRANCH  26  28
HETATM   28  N3  UNL     1      19.924   8.717 -26.148  1.00  0.00    -0.314 N 
HETATM   29  C8  UNL     1      20.982   8.436 -27.028  1.00  0.00     0.316 C 
HETATM   30  O2  UNL     1      22.039   7.841 -26.689  1.00  0.00    -0.254 OA
HETATM   31 CL1  UNL     1      20.822   8.945 -28.714  1.00  0.00    -0.020 Cl
ATOM     32  H3  UNL     1      19.101   9.199 -26.509  1.00  0.00     0.166 HD
ENDBRANCH  26  28
BRANCH  26  33
HETATM   33  C9  UNL     1      18.783   8.911 -23.998  1.00  0.00     0.267 C 
HETATM   34  O3  UNL     1      17.917   9.586 -24.485  1.00  0.00    -0.275 OA
HETATM   35 CL2  UNL     1      18.699   8.536 -22.265  1.00  0.00    -0.039 Cl
ENDBRANCH  26  33
ENDBRANCH   6  26
TORSDOF 5
ENDMDL
MODEL 3
REMARK VINA RESULT: -9.290231158      1.198      1.944
REMARK  5 active torsions:
REMARK  status: ('A' for Active; 'I' for Inactive)
REMARK    1  A    between atoms: C2_2  and  C3_3 
REMARK       I    between atoms: C3_3  and  N1_5 
REMARK    2  A    between atoms: N2_8  and  C6_9 
REMARK    3  A    between atoms: C6_9  and  N3_11 
REMARK    4  A    between atoms: C6_9  and  C9_16 
REMARK       I    between atoms: N3_11  and  C8_13 
REMARK       I    between atoms: N4_23  and  C14_24 
REMARK    5  A    between atoms: C14_24  and  C15_26 
ROOT
HETATM    1  C3  UNL     1      19.977   2.496 -23.588  1.00  0.00     0.248 C 
HETATM    2  O1  UNL     1      21.135   1.975 -23.387  1.00  0.00    -0.271 OA
HETATM    3  N1  UNL     1      19.959   3.870 -23.865  1.00  0.00    -0.347 N 
HETATM    4  C4  UNL     1      21.249   4.599 -23.895  1.00  0.00     0.145 C 
HETATM    5  C5  UNL     1      20.864   6.011 -23.418  1.00  0.00     0.139 C 
HETATM    6  N2  UNL     1      20.162   6.603 -24.491  1.00  0.00    -0.378 N 
HETATM    7  C10 UNL     1      19.028   5.880 -24.923  1.00  0.00     0.139 C 
HETATM    8  C11 UNL     1      18.768   4.615 -24.123  1.00  0.00     0.145 C 
ENDROOT
BRANCH   1   9
HETATM    9  C2  UNL     1      18.824   1.611 -23.509  1.00  0.00     0.114 C 
HETATM   10  C1  UNL     1      18.029   1.795 -22.233  1.00  0.00     0.049 C 
HETATM   11  C12 UNL     1      17.970   1.448 -24.742  1.00  0.00     0.061 C 
HETATM   12  C13 UNL     1      19.038   0.462 -25.129  1.00  0.00     0.130 C 
HETATM   13  N4  UNL     1      19.231   0.208 -23.717  1.00  0.00    -0.334 N 
HETATM   14  C14 UNL     1      19.653  -0.924 -22.983  1.00  0.00     0.225 C 
HETATM   15  O4  UNL     1      19.914  -1.973 -23.681  1.00  0.00    -0.273 OA
BRANCH  14  16
HETATM   16  C15 UNL     1      19.817  -1.013 -21.525  1.00  0.00     0.086 C 
HETATM   17  C16 UNL     1      21.037  -0.264 -21.073  1.00  0.00    -0.000 C 
HETATM   18  C17 UNL     1      22.344  -0.930 -21.287  1.00  0.00     0.010 C 
HETATM   19  C21 UNL     1      20.872  -0.088 -19.555  1.00  0.00     0.010 C 
HETATM   20  C18 UNL     1      22.351  -2.315 -20.632  1.00  0.00    -0.013 C 
HETATM   21  C19 UNL     1      22.192  -2.188 -19.149  1.00  0.00     0.009 C 
HETATM   22  C24 UNL     1      21.245  -3.083 -21.283  1.00  0.00     0.010 C 
HETATM   23  C20 UNL     1      20.887  -1.451 -18.891  1.00  0.00    -0.013 C 
HETATM   24  C22 UNL     1      19.793  -2.302 -19.467  1.00  0.00     0.010 C 
HETATM   25  C23 UNL     1      19.930  -2.424 -20.993  1.00  0.00    -0.000 C 
ENDBRANCH  14  16
ENDBRANCH   1   9
BRANCH   6  26
HETATM   26  C6  UNL     1      20.138   8.016 -24.603  1.00  0.00     0.179 C 
HETATM   27  C7  UNL     1      21.502   8.618 -24.865  1.00  0.00     0.073 C 
BRANCH  26  28
HETATM   28  N3  UNL     1      19.344   8.340 -25.801  1.00  0.00    -0.314 N 
HETATM   29  C8  UNL     1      19.087   9.661 -26.201  1.00  0.00     0.316 C 
HETATM   30  O2  UNL     1      19.507  10.676 -25.585  1.00  0.00    -0.254 OA
HETATM   31 CL1  UNL     1      18.114   9.918 -27.656  1.00  0.00    -0.020 Cl
ATOM     32  H3  UNL     1      18.968   7.575 -26.362  1.00  0.00     0.166 HD
ENDBRANCH  26  28
BRANCH  26  33
HETATM   33  C9  UNL     1      19.573   8.689 -23.396  1.00  0.00     0.267 C 
HETATM   34  O3  UNL     1      20.162   9.445 -22.673  1.00  0.00    -0.275 OA
HETATM   35 CL2  UNL     1      17.877   8.310 -23.033  1.00  0.00    -0.039 Cl
ENDBRANCH  26  33
ENDBRANCH   6  26
TORSDOF 5
ENDMDL
MODEL 4
REMARK VINA RESULT: -9.110392901      1.495      1.918
REMARK  5 active torsions:
REMARK  status: ('A' for Active; 'I' for Inactive)
REMARK    1  A    between atoms: C2_2  and  C3_3 
REMARK       I    between atoms: C3_3  and  N1_5 
REMARK    2  A    between atoms: N2_8  and  C6_9 
REMARK    3  A    between atoms: C6_9  and  N3_11 
REMARK    4  A    between atoms: C6_9  and  C9_16 
REMARK       I    between atoms: N3_11  and  C8_13 
REMARK       I    between atoms: N4_23  and  C14_24 
REMARK    5  A    between atoms: C14_24  and  C15_26 
ROOT
HETATM    1  C3  UNL     1      20.008   2.822 -24.020  1.00  0.00     0.248 C 
HETATM    2  O1  UNL     1      21.160   2.273 -24.177  1.00  0.00    -0.271 OA
HETATM    3  N1  UNL     1      19.965   4.216 -24.161  1.00  0.00    -0.347 N 
HETATM    4  C4  UNL     1      21.227   4.932 -24.467  1.00  0.00     0.145 C 
HETATM    5  C5  UNL     1      21.029   6.297 -23.784  1.00  0.00     0.139 C 
HETATM    6  N2  UNL     1      20.092   6.993 -24.578  1.00  0.00    -0.378 N 
HETATM    7  C10 UNL     1      18.860   6.325 -24.758  1.00  0.00     0.139 C 
HETATM    8  C11 UNL     1      18.775   4.995 -24.030  1.00  0.00     0.145 C 
ENDROOT
BRANCH   1   9
HETATM    9  C2  UNL     1      18.886   1.946 -23.717  1.00  0.00     0.114 C 
HETATM   10  C1  UNL     1      18.262   2.236 -22.366  1.00  0.00     0.049 C 
HETATM   11  C12 UNL     1      17.880   1.679 -24.809  1.00  0.00     0.061 C 
HETATM   12  C13 UNL     1      18.900   0.665 -25.250  1.00  0.00     0.130 C 
HETATM   13  N4  UNL     1      19.279   0.531 -23.859  1.00  0.00    -0.334 N 
HETATM   14  C14 UNL     1      19.807  -0.535 -23.095  1.00  0.00     0.225 C 
HETATM   15  O4  UNL     1      19.987  -1.639 -23.732  1.00  0.00    -0.273 OA
BRANCH  14  16
HETATM   16  C15 UNL     1      20.161  -0.501 -21.669  1.00  0.00     0.086 C 
HETATM   17  C16 UNL     1      21.579  -0.046 -21.476  1.00  0.00    -0.000 C 
HETATM   18  C17 UNL     1      22.641  -1.046 -21.743  1.00  0.00     0.010 C 
HETATM   19  C21 UNL     1      21.690   0.333 -19.991  1.00  0.00     0.010 C 
HETATM   20  C18 UNL     1      22.413  -2.304 -20.900  1.00  0.00    -0.013 C 
HETATM   21  C19 UNL     1      22.512  -1.978 -19.442  1.00  0.00     0.009 C 
HETATM   22  C24 UNL     1      21.070  -2.829 -21.299  1.00  0.00     0.010 C 
HETATM   23  C20 UNL     1      21.476  -0.906 -19.142  1.00  0.00    -0.013 C 
HETATM   24  C22 UNL     1      20.137  -1.504 -19.457  1.00  0.00     0.010 C 
HETATM   25  C23 UNL     1      20.011  -1.825 -20.955  1.00  0.00    -0.000 C 
ENDBRANCH  14  16
ENDBRANCH   1   9
BRANCH   6  26
HETATM   26  C6  UNL     1      20.088   8.410 -24.558  1.00  0.00     0.179 C 
HETATM   27  C7  UNL     1      19.412   8.989 -23.333  1.00  0.00     0.073 C 
BRANCH  26  28
HETATM   28  N3  UNL     1      21.492   8.844 -24.456  1.00  0.00    -0.314 N 
HETATM   29  C8  UNL     1      21.859  10.197 -24.370  1.00  0.00     0.316 C 
HETATM   30  O2  UNL     1      21.036  11.150 -24.367  1.00  0.00    -0.254 OA
HETATM   31 CL1  UNL     1      23.581  10.588 -24.259  1.00  0.00    -0.020 Cl
ATOM     32  H3  UNL     1      22.226   8.135 -24.448  1.00  0.00     0.166 HD
ENDBRANCH  26  28
BRANCH  26  33
HETATM   33  C9  UNL     1      19.434   9.011 -25.759  1.00  0.00     0.267 C 
HETATM   34  O3  UNL     1      18.335   9.494 -25.792  1.00  0.00    -0.275 OA
HETATM   35 CL2  UNL     1      20.401   8.987 -27.248  1.00  0.00    -0.039 Cl
ENDBRANCH  26  33
ENDBRANCH   6  26
TORSDOF 5
ENDMDL
MODEL 5
REMARK VINA RESULT: -8.743322853      1.370      2.363
REMARK  5 active torsions:
REMARK  status: ('A' for Active; 'I' for Inactive)
REMARK    1  A    between atoms: C2_2  and  C3_3 
REMARK       I    between atoms: C3_3  and  N1_5 
REMARK    2  A    between atoms: N2_8  and  C6_9 
REMARK    3  A    between atoms: C6_9  and  N3_11 
REMARK    4  A    between atoms: C6_9  and  C9_16 
REMARK       I    between atoms: N3_11  and  C8_13 
REMARK       I    between atoms: N4_23  and  C14_24 
REMARK    5  A    between atoms: C14_24  and  C15_26 
ROOT
HETATM    1  C3  UNL     1      20.307   2.717 -23.786  1.00  0.00     0.248 C 
HETATM    2  O1  UNL     1      21.531   2.375 -23.972  1.00  0.00    -0.271 OA
HETATM    3  N1  UNL     1      20.011   4.074 -23.971  1.00  0.00    -0.347 N 
HETATM    4  C4  UNL     1      21.113   4.990 -24.351  1.00  0.00     0.145 C 
HETATM    5  C5  UNL     1      20.699   6.324 -23.706  1.00  0.00     0.139 C 
HETATM    6  N2  UNL     1      19.626   6.812 -24.483  1.00  0.00    -0.378 N 
HETATM    7  C10 UNL     1      18.527   5.930 -24.590  1.00  0.00     0.139 C 
HETATM    8  C11 UNL     1      18.707   4.635 -23.816  1.00  0.00     0.145 C 
ENDROOT
BRANCH   1   9
HETATM    9  C2  UNL     1      19.370   1.669 -23.409  1.00  0.00     0.114 C 
HETATM   10  C1  UNL     1      18.769   1.884 -22.034  1.00  0.00     0.049 C 
HETATM   11  C12 UNL     1      18.377   1.200 -24.442  1.00  0.00     0.061 C 
HETATM   12  C13 UNL     1      19.536   0.366 -24.914  1.00  0.00     0.130 C 
HETATM   13  N4  UNL     1      19.997   0.340 -23.543  1.00  0.00    -0.334 N 
HETATM   14  C14 UNL     1      20.738  -0.597 -22.785  1.00  0.00     0.225 C 
HETATM   15  O4  UNL     1      21.078  -1.670 -23.408  1.00  0.00    -0.273 OA
BRANCH  14  16
HETATM   16  C15 UNL     1      21.147  -0.461 -21.380  1.00  0.00     0.086 C 
HETATM   17  C16 UNL     1      22.408  -1.228 -21.108  1.00  0.00    -0.000 C 
HETATM   18  C17 UNL     1      22.274  -2.697 -20.955  1.00  0.00     0.010 C 
HETATM   19  C21 UNL     1      22.938  -0.690 -19.770  1.00  0.00     0.010 C 
HETATM   20  C18 UNL     1      21.256  -3.028 -19.860  1.00  0.00    -0.013 C 
HETATM   21  C19 UNL     1      21.734  -2.518 -18.536  1.00  0.00     0.009 C 
HETATM   22  C24 UNL     1      19.965  -2.415 -20.299  1.00  0.00     0.010 C 
HETATM   23  C20 UNL     1      21.945  -1.018 -18.673  1.00  0.00    -0.013 C 
HETATM   24  C22 UNL     1      20.608  -0.428 -19.012  1.00  0.00     0.010 C 
HETATM   25  C23 UNL     1      20.113  -0.924 -20.380  1.00  0.00    -0.000 C 
ENDBRANCH  14  16
ENDBRANCH   1   9
BRANCH   6  26
HETATM   26  C6  UNL     1      19.370   8.205 -24.508  1.00  0.00     0.179 C 
HETATM   27  C7  UNL     1      20.618   9.046 -24.340  1.00  0.00     0.073 C 
BRANCH  26  28
HETATM   28  N3  UNL     1      18.873   8.529 -25.857  1.00  0.00    -0.314 N 
HETATM   29  C8  UNL     1      18.713   9.850 -26.305  1.00  0.00     0.316 C 
HETATM   30  O2  UNL     1      18.980  10.865 -25.609  1.00  0.00    -0.254 OA
HETATM   31 CL1  UNL     1      18.102  10.106 -27.945  1.00  0.00    -0.020 Cl
ATOM     32  H3  UNL     1      18.637   7.764 -26.489  1.00  0.00     0.166 HD
ENDBRANCH  26  28
BRANCH  26  33
HETATM   33  C9  UNL     1      18.392   8.640 -23.466  1.00  0.00     0.267 C 
HETATM   34  O3  UNL     1      17.207   8.446 -23.490  1.00  0.00    -0.275 OA
HETATM   35 CL2  UNL     1      19.083   9.518 -22.087  1.00  0.00    -0.039 Cl
ENDBRANCH  26  33
ENDBRANCH   6  26
TORSDOF 5
ENDMDL
