MODEL 1
REMARK VINA RESULT: -7.031620596      0.000      0.000
REMARK  6 active torsions:
REMARK  status: ('A' for Active; 'I' for Inactive)
REMARK    1  A    between atoms: C2_2  and  N1_3 
REMARK    2  A    between atoms: C3_4  and  O1_5 
REMARK    3  A    between atoms: C6_9  and  O2_10 
REMARK    4  A    between atoms: C7_12  and  C8_13 
REMARK    5  A    between atoms: C8_13  and  C9_14 
REMARK    6  A    between atoms: C9_14  and  C10_15 
ROOT
HETATM    1  N1  UNL     1      22.346  -0.385  -8.933  1.00  0.00    -0.308 N 
HETATM    2  C3  UNL     1      23.260  -1.262  -8.485  1.00  0.00     0.151 A 
HETATM    3  C4  UNL     1      23.307  -2.354  -9.313  1.00  0.00     0.008 A 
HETATM    4  C5  UNL     1      22.388  -2.136 -10.304  1.00  0.00     0.009 A 
HETATM    5  C6  UNL     1      21.814  -0.933 -10.056  1.00  0.00     0.151 A 
HETATM    6  C7  UNL     1      22.258  -3.221 -11.363  1.00  0.00     0.032 C 
HETATM    7  C11 UNL     1      22.139  -4.476 -10.554  1.00  0.00    -0.036 C 
HETATM    8  C12 UNL     1      21.051  -4.162  -9.505  1.00  0.00     0.016 C 
HETATM    9  C13 UNL     1      21.671  -5.710 -11.227  1.00  0.00     0.016 C 
HETATM   10  C14 UNL     1      23.467  -4.778  -9.810  1.00  0.00     0.002 C 
HETATM   11  C15 UNL     1      24.310  -5.781 -10.496  1.00  0.00     0.006 C 
HETATM   12  C16 UNL     1      25.708  -5.353 -10.861  1.00  0.00     0.005 C 
HETATM   13  C17 UNL     1      26.310  -4.480  -9.785  1.00  0.00    -0.018 C 
HETATM   14  C18 UNL     1      27.756  -4.210 -10.023  1.00  0.00     0.010 C 
HETATM   15  C19 UNL     1      25.460  -3.211  -9.894  1.00  0.00     0.014 C 
HETATM   16  C20 UNL     1      24.135  -3.582  -9.259  1.00  0.00     0.029 C 
ENDROOT
BRANCH   6  17
HETATM   17  C8  UNL     1      21.149  -2.905 -12.270  1.00  0.00     0.020 C 
BRANCH  17  18
HETATM   18  C9  UNL     1      21.351  -2.706 -13.717  1.00  0.00     0.114 C 
BRANCH  18  19
HETATM   19  C10 UNL     1      21.548  -1.302 -14.140  1.00  0.00     0.172 C 
HETATM   20  O3  UNL     1      20.911  -0.392 -13.595  1.00  0.00    -0.648 OA
HETATM   21  O4  UNL     1      22.448  -1.025 -15.143  1.00  0.00    -0.648 OA
ENDBRANCH  18  19
ENDBRANCH  17  18
ENDBRANCH   6  17
BRANCH   5  22
HETATM   22  O2  UNL     1      20.844  -0.339 -10.806  1.00  0.00    -0.345 OA
ATOM     23  H2  UNL     1      19.968  -0.152 -10.488  1.00  0.00     0.219 HD
ENDBRANCH   5  22
BRANCH   2  24
HETATM   24  O1  UNL     1      24.014  -1.010  -7.322  1.00  0.00    -0.345 OA
ATOM     25  H1  UNL     1      24.933  -1.242  -7.267  1.00  0.00     0.219 HD
ENDBRANCH   2  24
BRANCH   1  26
HETATM   26  C2  UNL     1      21.993   0.900  -8.336  1.00  0.00     0.129 C 
HETATM   27  C1  UNL     1      20.896   0.781  -7.326  1.00  0.00     0.027 C 
ENDBRANCH   1  26
TORSDOF 6
ENDMDL
MODEL 2
REMARK VINA RESULT: -6.882027453      1.060      1.222
REMARK  6 active torsions:
REMARK  status: ('A' for Active; 'I' for Inactive)
REMARK    1  A    between atoms: C2_2  and  N1_3 
REMARK    2  A    between atoms: C3_4  and  O1_5 
REMARK    3  A    between atoms: C6_9  and  O2_10 
REMARK    4  A    between atoms: C7_12  and  C8_13 
REMARK    5  A    between atoms: C8_13  and  C9_14 
REMARK    6  A    between atoms: C9_14  and  C10_15 
ROOT
HETATM    1  N1  UNL     1      22.412  -0.380  -8.873  1.00  0.00    -0.308 N 
HETATM    2  C3  UNL     1      23.344  -1.249  -8.444  1.00  0.00     0.151 A 
HETATM    3  C4  UNL     1      23.375  -2.347  -9.266  1.00  0.00     0.008 A 
HETATM    4  C5  UNL     1      22.428  -2.141 -10.233  1.00  0.00     0.009 A 
HETATM    5  C6  UNL     1      21.854  -0.940  -9.978  1.00  0.00     0.151 A 
HETATM    6  C7  UNL     1      22.277  -3.234 -11.280  1.00  0.00     0.032 C 
HETATM    7  C11 UNL     1      22.187  -4.484 -10.460  1.00  0.00    -0.036 C 
HETATM    8  C12 UNL     1      21.125  -4.169  -9.385  1.00  0.00     0.016 C 
HETATM    9  C13 UNL     1      21.708  -5.725 -11.112  1.00  0.00     0.016 C 
HETATM   10  C14 UNL     1      23.535  -4.773  -9.750  1.00  0.00     0.002 C 
HETATM   11  C15 UNL     1      24.366  -5.776 -10.450  1.00  0.00     0.006 C 
HETATM   12  C16 UNL     1      25.750  -5.343 -10.856  1.00  0.00     0.005 C 
HETATM   13  C17 UNL     1      26.376  -4.459  -9.803  1.00  0.00    -0.018 C 
HETATM   14  C18 UNL     1      27.814  -4.183 -10.081  1.00  0.00     0.010 C 
HETATM   15  C19 UNL     1      25.516  -3.196  -9.898  1.00  0.00     0.014 C 
HETATM   16  C20 UNL     1      24.210  -3.569  -9.225  1.00  0.00     0.029 C 
ENDROOT
BRANCH   6  17
HETATM   17  C8  UNL     1      21.142  -2.931 -12.159  1.00  0.00     0.020 C 
BRANCH  17  18
HETATM   18  C9  UNL     1      21.325  -2.515 -13.562  1.00  0.00     0.114 C 
BRANCH  18  19
HETATM   19  C10 UNL     1      20.893  -3.502 -14.576  1.00  0.00     0.172 C 
HETATM   20  O3  UNL     1      20.967  -3.231 -15.781  1.00  0.00    -0.648 OA
HETATM   21  O4  UNL     1      20.410  -4.721 -14.160  1.00  0.00    -0.648 OA
ENDBRANCH  18  19
ENDBRANCH  17  18
ENDBRANCH   6  17
BRANCH   5  22
HETATM   22  O2  UNL     1      20.860  -0.357 -10.706  1.00  0.00    -0.345 OA
ATOM     23  H2  UNL     1      19.942  -0.582 -10.625  1.00  0.00     0.219 HD
ENDBRANCH   5  22
BRANCH   2  24
HETATM   24  O1  UNL     1      24.126  -0.985  -7.304  1.00  0.00    -0.345 OA
ATOM     25  H1  UNL     1      25.044  -0.751  -7.375  1.00  0.00     0.219 HD
ENDBRANCH   2  24
BRANCH   1  26
HETATM   26  C2  UNL     1      22.068   0.907  -8.276  1.00  0.00     0.129 C 
HETATM   27  C1  UNL     1      21.014   0.786  -7.221  1.00  0.00     0.027 C 
ENDBRANCH   1  26
TORSDOF 6
ENDMDL
MODEL 3
REMARK VINA RESULT: -6.469993325      8.917     12.179
REMARK  6 active torsions:
REMARK  status: ('A' for Active; 'I' for Inactive)
REMARK    1  A    between atoms: C2_2  and  N1_3 
REMARK    2  A    between atoms: C3_4  and  O1_5 
REMARK    3  A    between atoms: C6_9  and  O2_10 
REMARK    4  A    between atoms: C7_12  and  C8_13 
REMARK    5  A    between atoms: C8_13  and  C9_14 
REMARK    6  A    between atoms: C9_14  and  C10_15 
ROOT
HETATM    1  N1  UNL     1      23.085   0.538 -20.808  1.00  0.00    -0.308 N 
HETATM    2  C3  UNL     1      23.089   0.899 -19.513  1.00  0.00     0.151 A 
HETATM    3  C4  UNL     1      22.562   2.158 -19.375  1.00  0.00     0.008 A 
HETATM    4  C5  UNL     1      22.223   2.581 -20.632  1.00  0.00     0.009 A 
HETATM    5  C6  UNL     1      22.548   1.582 -21.489  1.00  0.00     0.151 A 
HETATM    6  C7  UNL     1      21.603   3.966 -20.739  1.00  0.00     0.032 C 
HETATM    7  C11 UNL     1      22.534   4.821 -19.934  1.00  0.00    -0.036 C 
HETATM    8  C12 UNL     1      23.941   4.464 -20.458  1.00  0.00     0.016 C 
HETATM    9  C13 UNL     1      22.441   6.293 -20.072  1.00  0.00     0.016 C 
HETATM   10  C14 UNL     1      22.460   4.447 -18.430  1.00  0.00     0.002 C 
HETATM   11  C15 UNL     1      21.596   5.352 -17.641  1.00  0.00     0.006 C 
HETATM   12  C16 UNL     1      20.457   4.715 -16.889  1.00  0.00     0.005 C 
HETATM   13  C17 UNL     1      20.864   3.379 -16.312  1.00  0.00    -0.018 C 
HETATM   14  C18 UNL     1      19.828   2.822 -15.396  1.00  0.00     0.010 C 
HETATM   15  C19 UNL     1      21.038   2.529 -17.573  1.00  0.00     0.014 C 
HETATM   16  C20 UNL     1      22.349   2.997 -18.174  1.00  0.00     0.029 C 
ENDROOT
BRANCH   6  17
HETATM   17  C8  UNL     1      21.421   4.326 -22.149  1.00  0.00     0.020 C 
BRANCH  17  18
HETATM   18  C9  UNL     1      20.120   4.766 -22.686  1.00  0.00     0.114 C 
BRANCH  18  19
HETATM   19  C10 UNL     1      19.311   3.708 -23.330  1.00  0.00     0.172 C 
HETATM   20  O3  UNL     1      19.470   2.523 -23.012  1.00  0.00    -0.648 OA
HETATM   21  O4  UNL     1      18.385   4.061 -24.283  1.00  0.00    -0.648 OA
ENDBRANCH  18  19
ENDBRANCH  17  18
ENDBRANCH   6  17
BRANCH   5  22
HETATM   22  O2  UNL     1      22.372   1.599 -22.841  1.00  0.00    -0.345 OA
ATOM     23  H2  UNL     1      21.812   0.992 -23.310  1.00  0.00     0.219 HD
ENDBRANCH   5  22
BRANCH   2  24
HETATM   24  O1  UNL     1      23.585   0.041 -18.512  1.00  0.00    -0.345 OA
ATOM     25  H1  UNL     1      23.568  -0.903 -18.613  1.00  0.00     0.219 HD
ENDBRANCH   2  24
BRANCH   1  26
HETATM   26  C2  UNL     1      23.560  -0.722 -21.371  1.00  0.00     0.129 C 
HETATM   27  C1  UNL     1      25.016  -0.952 -21.114  1.00  0.00     0.027 C 
ENDBRANCH   1  26
TORSDOF 6
ENDMDL
MODEL 4
REMARK VINA RESULT: -6.468625886      3.063      5.507
REMARK  6 active torsions:
REMARK  status: ('A' for Active; 'I' for Inactive)
REMARK    1  A    between atoms: C2_2  and  N1_3 
REMARK    2  A    between atoms: C3_4  and  O1_5 
REMARK    3  A    between atoms: C6_9  and  O2_10 
REMARK    4  A    between atoms: C7_12  and  C8_13 
REMARK    5  A    between atoms: C8_13  and  C9_14 
REMARK    6  A    between atoms: C9_14  and  C10_15 
ROOT
HETATM    1  N1  UNL     1      24.425  -4.465  -9.620  1.00  0.00    -0.308 N 
HETATM    2  C3  UNL     1      23.983  -3.239  -9.288  1.00  0.00     0.151 A 
HETATM    3  C4  UNL     1      22.791  -2.985  -9.917  1.00  0.00     0.008 A 
HETATM    4  C5  UNL     1      22.493  -4.097 -10.659  1.00  0.00     0.009 A 
HETATM    5  C6  UNL     1      23.498  -4.985 -10.464  1.00  0.00     0.151 A 
HETATM    6  C7  UNL     1      21.195  -4.058 -11.452  1.00  0.00     0.032 C 
HETATM    7  C11 UNL     1      21.264  -2.737 -12.156  1.00  0.00    -0.036 C 
HETATM    8  C12 UNL     1      22.667  -2.711 -12.799  1.00  0.00     0.016 C 
HETATM    9  C13 UNL     1      20.330  -2.484 -13.277  1.00  0.00     0.016 C 
HETATM   10  C14 UNL     1      21.166  -1.568 -11.141  1.00  0.00     0.002 C 
HETATM   11  C15 UNL     1      19.810  -0.988 -11.042  1.00  0.00     0.006 C 
HETATM   12  C16 UNL     1      19.174  -0.982  -9.677  1.00  0.00     0.005 C 
HETATM   13  C17 UNL     1      20.194  -0.688  -8.601  1.00  0.00    -0.018 C 
HETATM   14  C18 UNL     1      19.561  -0.476  -7.268  1.00  0.00     0.010 C 
HETATM   15  C19 UNL     1      21.063  -1.947  -8.635  1.00  0.00     0.014 C 
HETATM   16  C20 UNL     1      21.907  -1.797  -9.885  1.00  0.00     0.029 C 
ENDROOT
BRANCH   6  17
HETATM   17  C8  UNL     1      21.086  -5.256 -12.292  1.00  0.00     0.020 C 
BRANCH  17  18
HETATM   18  C9  UNL     1      19.859  -6.073 -12.338  1.00  0.00     0.114 C 
BRANCH  18  19
HETATM   19  C10 UNL     1      19.978  -7.426 -11.752  1.00  0.00     0.172 C 
HETATM   20  O3  UNL     1      19.350  -8.373 -12.241  1.00  0.00    -0.648 OA
HETATM   21  O4  UNL     1      20.795  -7.615 -10.662  1.00  0.00    -0.648 OA
ENDBRANCH  18  19
ENDBRANCH  17  18
ENDBRANCH   6  17
BRANCH   5  22
HETATM   22  O2  UNL     1      23.590  -6.225 -11.023  1.00  0.00    -0.345 OA
ATOM     23  H2  UNL     1      22.967  -6.924 -10.867  1.00  0.00     0.219 HD
ENDBRANCH   5  22
BRANCH   2  24
HETATM   24  O1  UNL     1      24.709  -2.406  -8.415  1.00  0.00    -0.345 OA
ATOM     25  H1  UNL     1      24.322  -2.067  -7.616  1.00  0.00     0.219 HD
ENDBRANCH   2  24
BRANCH   1  26
HETATM   26  C2  UNL     1      25.653  -5.110  -9.164  1.00  0.00     0.129 C 
HETATM   27  C1  UNL     1      26.837  -4.746 -10.003  1.00  0.00     0.027 C 
ENDBRANCH   1  26
TORSDOF 6
ENDMDL
MODEL 5
REMARK VINA RESULT: -6.462748724      2.850      6.206
REMARK  6 active torsions:
REMARK  status: ('A' for Active; 'I' for Inactive)
REMARK    1  A    between atoms: C2_2  and  N1_3 
REMARK    2  A    between atoms: C3_4  and  O1_5 
REMARK    3  A    between atoms: C6_9  and  O2_10 
REMARK    4  A    between atoms: C7_12  and  C8_13 
REMARK    5  A    between atoms: C8_13  and  C9_14 
REMARK    6  A    between atoms: C9_14  and  C10_15 
ROOT
HETATM    1  N1  UNL     1      21.647  -4.538 -11.085  1.00  0.00    -0.308 N 
HETATM    2  C3  UNL     1      21.181  -4.051 -12.248  1.00  0.00     0.151 A 
HETATM    3  C4  UNL     1      20.963  -2.702 -12.138  1.00  0.00     0.008 A 
HETATM    4  C5  UNL     1      21.310  -2.350 -10.860  1.00  0.00     0.009 A 
HETATM    5  C6  UNL     1      21.724  -3.480 -10.237  1.00  0.00     0.151 A 
HETATM    6  C7  UNL     1      21.159  -0.881 -10.494  1.00  0.00     0.032 C 
HETATM    7  C11 UNL     1      19.776  -0.551 -10.966  1.00  0.00    -0.036 C 
HETATM    8  C12 UNL     1      18.889  -1.676 -10.392  1.00  0.00     0.016 C 
HETATM    9  C13 UNL     1      19.148   0.704 -10.492  1.00  0.00     0.016 C 
HETATM   10  C14 UNL     1      19.697  -0.603 -12.515  1.00  0.00     0.002 C 
HETATM   11  C15 UNL     1      19.796   0.727 -13.154  1.00  0.00     0.006 C 
HETATM   12  C16 UNL     1      20.904   0.914 -14.156  1.00  0.00     0.005 C 
HETATM   13  C17 UNL     1      21.106  -0.332 -14.987  1.00  0.00    -0.018 C 
HETATM   14  C18 UNL     1      22.052  -0.108 -16.117  1.00  0.00     0.010 C 
HETATM   15  C19 UNL     1      21.661  -1.316 -13.954  1.00  0.00     0.014 C 
HETATM   16  C20 UNL     1      20.459  -1.714 -13.120  1.00  0.00     0.029 C 
ENDROOT
BRANCH   6  17
HETATM   17  C8  UNL     1      21.440  -0.690  -9.067  1.00  0.00     0.020 C 
BRANCH  17  18
HETATM   18  C9  UNL     1      22.558   0.146  -8.592  1.00  0.00     0.114 C 
BRANCH  18  19
HETATM   19  C10 UNL     1      23.545  -0.545  -7.735  1.00  0.00     0.172 C 
HETATM   20  O3  UNL     1      23.845  -0.077  -6.629  1.00  0.00    -0.648 OA
HETATM   21  O4  UNL     1      24.120  -1.711  -8.183  1.00  0.00    -0.648 OA
ENDBRANCH  18  19
ENDBRANCH  17  18
ENDBRANCH   6  17
BRANCH   5  22
HETATM   22  O2  UNL     1      22.158  -3.569  -8.947  1.00  0.00    -0.345 OA
ATOM     23  H2  UNL     1      21.983  -2.913  -8.283  1.00  0.00     0.219 HD
ENDBRANCH   5  22
BRANCH   2  24
HETATM   24  O1  UNL     1      20.976  -4.884 -13.364  1.00  0.00    -0.345 OA
ATOM     25  H1  UNL     1      20.669  -4.536 -14.194  1.00  0.00     0.219 HD
ENDBRANCH   2  24
BRANCH   1  26
HETATM   26  C2  UNL     1      22.003  -5.923 -10.790  1.00  0.00     0.129 C 
HETATM   27  C1  UNL     1      20.882  -6.678 -10.148  1.00  0.00     0.027 C 
ENDBRANCH   1  26
TORSDOF 6
ENDMDL
