MODEL 1
REMARK VINA RESULT: -8.070056174      0.000      0.000
REMARK  8 active torsions:
REMARK  status: ('A' for Active; 'I' for Inactive)
REMARK    1  A    between atoms: C2_2  and  C3_3 
REMARK    2  A    between atoms: C3_3  and  C4_4 
REMARK    3  A    between atoms: C4_4  and  C5_5 
REMARK    4  A    between atoms: C9_9  and  N1_10 
REMARK    5  A    between atoms: C12_16  and  O1_17 
REMARK    6  A    between atoms: N2_19  and  C13_20 
REMARK    7  A    between atoms: C13_20  and  N3_21 
REMARK    8  A    between atoms: C20_28  and  O2_29 
ROOT
HETATM    1  C5  UNL     1      21.662  -0.346 -14.492  1.00  0.00     0.012 C 
HETATM    2  C6  UNL     1      20.944   0.241 -13.338  1.00  0.00    -0.026 C 
HETATM    3  C7  UNL     1      19.749   0.046 -12.810  1.00  0.00    -0.028 C 
HETATM    4  C8  UNL     1      18.527  -0.779 -13.015  1.00  0.00     0.064 C 
HETATM    5  C9  UNL     1      18.684  -2.097 -12.290  1.00  0.00     0.224 C 
HETATM    6  C10 UNL     1      20.105  -2.550 -12.397  1.00  0.00     0.034 A 
HETATM    7  C11 UNL     1      21.137  -2.440 -13.303  1.00  0.00     0.007 A 
HETATM    8  C12 UNL     1      22.254  -3.081 -12.850  1.00  0.00     0.156 A 
HETATM    9  N2  UNL     1      21.922  -3.605 -11.636  1.00  0.00    -0.272 N 
HETATM   10  C20 UNL     1      20.655  -3.302 -11.351  1.00  0.00     0.158 A 
HETATM   11  C21 UNL     1      21.281  -1.789 -14.629  1.00  0.00     0.052 C 
ENDROOT
BRANCH   9  12
HETATM   12  C13 UNL     1      22.809  -4.384 -10.837  1.00  0.00     0.163 C 
BRANCH  12  13
HETATM   13  N3  UNL     1      24.186  -4.077 -10.881  1.00  0.00    -0.279 NA
HETATM   14  C14 UNL     1      25.016  -5.218 -10.501  1.00  0.00     0.096 C 
HETATM   15  C15 UNL     1      26.438  -4.773 -10.527  1.00  0.00     0.015 C 
HETATM   16  C16 UNL     1      27.014  -4.396  -9.215  1.00  0.00     0.001 C 
HETATM   17  C17 UNL     1      26.226  -3.522  -8.339  1.00  0.00     0.001 C 
HETATM   18  C18 UNL     1      24.799  -3.309  -8.686  1.00  0.00     0.015 C 
HETATM   19  C19 UNL     1      24.583  -2.944 -10.140  1.00  0.00     0.096 C 
ENDBRANCH  12  13
ENDBRANCH   9  12
BRANCH   8  20
HETATM   20  O1  UNL     1      23.495  -3.206 -13.451  1.00  0.00    -0.345 OA
ATOM     21  H1  UNL     1      23.901  -3.974 -13.837  1.00  0.00     0.219 HD
ENDBRANCH   8  20
BRANCH  10  22
HETATM   22  O2  UNL     1      19.864  -3.611 -10.240  1.00  0.00    -0.345 OA
ATOM     23  H2  UNL     1      20.283  -3.810  -9.412  1.00  0.00     0.219 HD
ENDBRANCH  10  22
BRANCH   5  24
HETATM   24  N1  UNL     1      17.757  -3.099 -12.731  1.00  0.00    -0.071 N 
ATOM     25  H13 UNL     1      16.926  -3.108 -12.141  1.00  0.00     0.275 HD
ATOM     26  H12 UNL     1      17.331  -2.833 -13.619  1.00  0.00     0.275 HD
ATOM     27  H11 UNL     1      18.170  -4.029 -12.792  1.00  0.00     0.275 HD
ENDBRANCH   5  24
BRANCH   1  28
HETATM   28  C4  UNL     1      21.306   0.463 -15.718  1.00  0.00     0.009 C 
BRANCH  28  29
HETATM   29  C3  UNL     1      22.311   0.223 -16.843  1.00  0.00     0.000 C 
BRANCH  29  30
HETATM   30  C2  UNL     1      22.405   1.533 -17.625  1.00  0.00    -0.005 C 
HETATM   31  C1  UNL     1      21.412   2.502 -16.976  1.00  0.00     0.005 C 
ENDBRANCH  29  30
ENDBRANCH  28  29
ENDBRANCH   1  28
TORSDOF 8
ENDMDL
MODEL 2
REMARK VINA RESULT: -7.548730803      0.704      1.349
REMARK  8 active torsions:
REMARK  status: ('A' for Active; 'I' for Inactive)
REMARK    1  A    between atoms: C2_2  and  C3_3 
REMARK    2  A    between atoms: C3_3  and  C4_4 
REMARK    3  A    between atoms: C4_4  and  C5_5 
REMARK    4  A    between atoms: C9_9  and  N1_10 
REMARK    5  A    between atoms: C12_16  and  O1_17 
REMARK    6  A    between atoms: N2_19  and  C13_20 
REMARK    7  A    between atoms: C13_20  and  N3_21 
REMARK    8  A    between atoms: C20_28  and  O2_29 
ROOT
HETATM    1  C5  UNL     1      21.304  -0.126 -13.867  1.00  0.00     0.012 C 
HETATM    2  C6  UNL     1      20.633   0.162 -12.580  1.00  0.00    -0.026 C 
HETATM    3  C7  UNL     1      19.464  -0.173 -12.064  1.00  0.00    -0.028 C 
HETATM    4  C8  UNL     1      18.242  -0.952 -12.406  1.00  0.00     0.064 C 
HETATM    5  C9  UNL     1      18.444  -2.399 -12.014  1.00  0.00     0.224 C 
HETATM    6  C10 UNL     1      19.863  -2.786 -12.281  1.00  0.00     0.034 A 
HETATM    7  C11 UNL     1      20.853  -2.449 -13.178  1.00  0.00     0.007 A 
HETATM    8  C12 UNL     1      21.995  -3.155 -12.932  1.00  0.00     0.156 A 
HETATM    9  N2  UNL     1      21.722  -3.953 -11.861  1.00  0.00    -0.272 N 
HETATM   10  C20 UNL     1      20.466  -3.750 -11.463  1.00  0.00     0.158 A 
HETATM   11  C21 UNL     1      20.932  -1.505 -14.320  1.00  0.00     0.052 C 
ENDROOT
BRANCH   9  12
HETATM   12  C13 UNL     1      22.651  -4.879 -11.302  1.00  0.00     0.163 C 
BRANCH  12  13
HETATM   13  N3  UNL     1      23.375  -4.484 -10.158  1.00  0.00    -0.279 NA
HETATM   14  C14 UNL     1      23.803  -3.089 -10.232  1.00  0.00     0.096 C 
HETATM   15  C15 UNL     1      24.602  -2.792  -9.008  1.00  0.00     0.015 C 
HETATM   16  C16 UNL     1      26.072  -2.861  -9.172  1.00  0.00     0.001 C 
HETATM   17  C17 UNL     1      26.636  -4.018  -9.878  1.00  0.00     0.001 C 
HETATM   18  C18 UNL     1      25.698  -4.887 -10.629  1.00  0.00     0.015 C 
HETATM   19  C19 UNL     1      24.482  -5.294  -9.825  1.00  0.00     0.096 C 
ENDBRANCH  12  13
ENDBRANCH   9  12
BRANCH   8  20
HETATM   20  O1  UNL     1      23.209  -3.113 -13.596  1.00  0.00    -0.345 OA
ATOM     21  H1  UNL     1      23.390  -2.906 -14.506  1.00  0.00     0.219 HD
ENDBRANCH   8  20
BRANCH  10  22
HETATM   22  O2  UNL     1      19.728  -4.323 -10.423  1.00  0.00    -0.345 OA
ATOM     23  H2  UNL     1      19.989  -5.169 -10.078  1.00  0.00     0.219 HD
ENDBRANCH  10  22
BRANCH   5  24
HETATM   24  N1  UNL     1      17.508  -3.289 -12.638  1.00  0.00    -0.071 N 
ATOM     25  H13 UNL     1      17.951  -3.808 -13.395  1.00  0.00     0.275 HD
ATOM     26  H12 UNL     1      17.275  -4.064 -12.016  1.00  0.00     0.275 HD
ATOM     27  H11 UNL     1      16.664  -2.820 -12.964  1.00  0.00     0.275 HD
ENDBRANCH   5  24
BRANCH   1  28
HETATM   28  C4  UNL     1      20.887   0.939 -14.856  1.00  0.00     0.009 C 
BRANCH  28  29
HETATM   29  C3  UNL     1      21.715   0.851 -16.136  1.00  0.00     0.000 C 
BRANCH  29  30
HETATM   30  C2  UNL     1      21.515   2.176 -16.871  1.00  0.00    -0.005 C 
HETATM   31  C1  UNL     1      22.464   2.157 -18.073  1.00  0.00     0.005 C 
ENDBRANCH  29  30
ENDBRANCH  28  29
ENDBRANCH   1  28
TORSDOF 8
ENDMDL
MODEL 3
REMARK VINA RESULT: -7.472368826      7.723      9.303
REMARK  8 active torsions:
REMARK  status: ('A' for Active; 'I' for Inactive)
REMARK    1  A    between atoms: C2_2  and  C3_3 
REMARK    2  A    between atoms: C3_3  and  C4_4 
REMARK    3  A    between atoms: C4_4  and  C5_5 
REMARK    4  A    between atoms: C9_9  and  N1_10 
REMARK    5  A    between atoms: C12_16  and  O1_17 
REMARK    6  A    between atoms: N2_19  and  C13_20 
REMARK    7  A    between atoms: C13_20  and  N3_21 
REMARK    8  A    between atoms: C20_28  and  O2_29 
ROOT
HETATM    1  C5  UNL     1      23.035   4.043 -21.722  1.00  0.00     0.012 C 
HETATM    2  C6  UNL     1      23.641   4.506 -20.453  1.00  0.00    -0.026 C 
HETATM    3  C7  UNL     1      23.176   4.680 -19.229  1.00  0.00    -0.028 C 
HETATM    4  C8  UNL     1      21.913   4.540 -18.452  1.00  0.00     0.064 C 
HETATM    5  C9  UNL     1      21.803   3.127 -17.924  1.00  0.00     0.224 C 
HETATM    6  C10 UNL     1      22.342   2.178 -18.946  1.00  0.00     0.034 A 
HETATM    7  C11 UNL     1      22.429   2.110 -20.319  1.00  0.00     0.007 A 
HETATM    8  C12 UNL     1      23.050   0.961 -20.712  1.00  0.00     0.156 A 
HETATM    9  N2  UNL     1      23.362   0.289 -19.568  1.00  0.00    -0.272 N 
HETATM   10  C20 UNL     1      22.951   0.993 -18.512  1.00  0.00     0.158 A 
HETATM   11  C21 UNL     1      22.000   3.002 -21.424  1.00  0.00     0.052 C 
ENDROOT
BRANCH   9  12
HETATM   12  C13 UNL     1      23.998  -0.986 -19.542  1.00  0.00     0.163 C 
BRANCH  12  13
HETATM   13  N3  UNL     1      23.506  -1.992 -20.400  1.00  0.00    -0.279 NA
HETATM   14  C14 UNL     1      23.100  -3.189 -19.669  1.00  0.00     0.096 C 
HETATM   15  C15 UNL     1      22.651  -4.202 -20.667  1.00  0.00     0.015 C 
HETATM   16  C16 UNL     1      23.657  -5.225 -21.036  1.00  0.00     0.001 C 
HETATM   17  C17 UNL     1      25.019  -4.775 -21.346  1.00  0.00     0.001 C 
HETATM   18  C18 UNL     1      25.378  -3.380 -20.993  1.00  0.00     0.015 C 
HETATM   19  C19 UNL     1      24.360  -2.361 -21.461  1.00  0.00     0.096 C 
ENDBRANCH  12  13
ENDBRANCH   9  12
BRANCH   8  20
HETATM   20  O1  UNL     1      23.335   0.513 -21.992  1.00  0.00    -0.345 OA
ATOM     21  H1  UNL     1      24.051  -0.035 -22.291  1.00  0.00     0.219 HD
ENDBRANCH   8  20
BRANCH  10  22
HETATM   22  O2  UNL     1      23.036   0.729 -17.142  1.00  0.00    -0.345 OA
ATOM     23  H2  UNL     1      22.472   1.202 -16.541  1.00  0.00     0.219 HD
ENDBRANCH  10  22
BRANCH   5  24
HETATM   24  N1  UNL     1      20.476   2.782 -17.505  1.00  0.00    -0.071 N 
ATOM     25  H13 UNL     1      20.476   1.907 -16.981  1.00  0.00     0.275 HD
ATOM     26  H12 UNL     1      20.150   3.416 -16.774  1.00  0.00     0.275 HD
ATOM     27  H11 UNL     1      19.808   2.743 -18.275  1.00  0.00     0.275 HD
ENDBRANCH   5  24
BRANCH   1  28
HETATM   28  C4  UNL     1      22.455   5.250 -22.424  1.00  0.00     0.009 C 
BRANCH  28  29
HETATM   29  C3  UNL     1      20.930   5.246 -22.347  1.00  0.00     0.000 C 
BRANCH  29  30
HETATM   30  C2  UNL     1      20.536   6.463 -21.511  1.00  0.00    -0.005 C 
HETATM   31  C1  UNL     1      21.636   7.508 -21.715  1.00  0.00     0.005 C 
ENDBRANCH  29  30
ENDBRANCH  28  29
ENDBRANCH   1  28
TORSDOF 8
ENDMDL
MODEL 4
REMARK VINA RESULT: -7.408591587      1.739      2.400
REMARK  8 active torsions:
REMARK  status: ('A' for Active; 'I' for Inactive)
REMARK    1  A    between atoms: C2_2  and  C3_3 
REMARK    2  A    between atoms: C3_3  and  C4_4 
REMARK    3  A    between atoms: C4_4  and  C5_5 
REMARK    4  A    between atoms: C9_9  and  N1_10 
REMARK    5  A    between atoms: C12_16  and  O1_17 
REMARK    6  A    between atoms: N2_19  and  C13_20 
REMARK    7  A    between atoms: C13_20  and  N3_21 
REMARK    8  A    between atoms: C20_28  and  O2_29 
ROOT
HETATM    1  C5  UNL     1      20.660  -1.699 -13.009  1.00  0.00     0.012 C 
HETATM    2  C6  UNL     1      19.566  -2.256 -12.182  1.00  0.00    -0.026 C 
HETATM    3  C7  UNL     1      18.808  -3.334 -12.275  1.00  0.00    -0.028 C 
HETATM    4  C8  UNL     1      18.601  -4.516 -13.156  1.00  0.00     0.064 C 
HETATM    5  C9  UNL     1      19.535  -5.628 -12.731  1.00  0.00     0.224 C 
HETATM    6  C10 UNL     1      20.842  -5.037 -12.308  1.00  0.00     0.034 A 
HETATM    7  C11 UNL     1      21.610  -3.941 -12.635  1.00  0.00     0.007 A 
HETATM    8  C12 UNL     1      22.755  -3.909 -11.893  1.00  0.00     0.156 A 
HETATM    9  N2  UNL     1      22.709  -5.004 -11.081  1.00  0.00    -0.272 N 
HETATM   10  C20 UNL     1      21.586  -5.684 -11.313  1.00  0.00     0.158 A 
HETATM   11  C21 UNL     1      21.455  -2.823 -13.599  1.00  0.00     0.052 C 
ENDROOT
BRANCH   9  12
HETATM   12  C13 UNL     1      23.741  -5.357 -10.163  1.00  0.00     0.163 C 
BRANCH  12  13
HETATM   13  N3  UNL     1      24.871  -4.517 -10.080  1.00  0.00    -0.279 NA
HETATM   14  C14 UNL     1      26.075  -5.161 -10.601  1.00  0.00     0.096 C 
HETATM   15  C15 UNL     1      27.213  -4.216 -10.415  1.00  0.00     0.015 C 
HETATM   16  C16 UNL     1      28.056  -4.457  -9.221  1.00  0.00     0.001 C 
HETATM   17  C17 UNL     1      27.385  -4.702  -7.939  1.00  0.00     0.001 C 
HETATM   18  C18 UNL     1      25.928  -4.980  -7.969  1.00  0.00     0.015 C 
HETATM   19  C19 UNL     1      25.144  -3.986  -8.800  1.00  0.00     0.096 C 
ENDBRANCH  12  13
ENDBRANCH   9  12
BRANCH   8  20
HETATM   20  O1  UNL     1      23.785  -2.984 -11.912  1.00  0.00    -0.345 OA
ATOM     21  H1  UNL     1      23.752  -2.046 -11.763  1.00  0.00     0.219 HD
ENDBRANCH   8  20
BRANCH  10  22
HETATM   22  O2  UNL     1      21.090  -6.862 -10.745  1.00  0.00    -0.345 OA
ATOM     23  H2  UNL     1      20.691  -7.517 -11.305  1.00  0.00     0.219 HD
ENDBRANCH  10  22
BRANCH   5  24
HETATM   24  N1  UNL     1      19.693  -6.646 -13.729  1.00  0.00    -0.071 N 
ATOM     25  H13 UNL     1      19.935  -6.236 -14.631  1.00  0.00     0.275 HD
ATOM     26  H12 UNL     1      20.539  -7.191 -13.560  1.00  0.00     0.275 HD
ATOM     27  H11 UNL     1      18.880  -7.255 -13.814  1.00  0.00     0.275 HD
ENDBRANCH   5  24
BRANCH   1  28
HETATM   28  C4  UNL     1      20.035  -0.817 -14.067  1.00  0.00     0.009 C 
BRANCH  28  29
HETATM   29  C3  UNL     1      20.882   0.431 -14.307  1.00  0.00     0.000 C 
BRANCH  29  30
HETATM   30  C2  UNL     1      21.699   0.162 -15.571  1.00  0.00    -0.005 C 
HETATM   31  C1  UNL     1      21.636   1.440 -16.413  1.00  0.00     0.005 C 
ENDBRANCH  29  30
ENDBRANCH  28  29
ENDBRANCH   1  28
TORSDOF 8
ENDMDL
MODEL 5
REMARK VINA RESULT: -7.102076215      3.378      5.745
REMARK  8 active torsions:
REMARK  status: ('A' for Active; 'I' for Inactive)
REMARK    1  A    between atoms: C2_2  and  C3_3 
REMARK    2  A    between atoms: C3_3  and  C4_4 
REMARK    3  A    between atoms: C4_4  and  C5_5 
REMARK    4  A    between atoms: C9_9  and  N1_10 
REMARK    5  A    between atoms: C12_16  and  O1_17 
REMARK    6  A    between atoms: N2_19  and  C13_20 
REMARK    7  A    between atoms: C13_20  and  N3_21 
REMARK    8  A    between atoms: C20_28  and  O2_29 
ROOT
HETATM    1  C5  UNL     1      19.166  -6.429 -10.379  1.00  0.00     0.012 C 
HETATM    2  C6  UNL     1      19.859  -7.007 -11.552  1.00  0.00    -0.026 C 
HETATM    3  C7  UNL     1      19.919  -6.678 -12.831  1.00  0.00    -0.028 C 
HETATM    4  C8  UNL     1      19.396  -5.654 -13.776  1.00  0.00     0.064 C 
HETATM    5  C9  UNL     1      20.319  -4.456 -13.778  1.00  0.00     0.224 C 
HETATM    6  C10 UNL     1      20.828  -4.225 -12.391  1.00  0.00     0.034 A 
HETATM    7  C11 UNL     1      20.374  -4.407 -11.104  1.00  0.00     0.007 A 
HETATM    8  C12 UNL     1      21.307  -3.999 -10.195  1.00  0.00     0.156 A 
HETATM    9  N2  UNL     1      22.371  -3.552 -10.922  1.00  0.00    -0.272 N 
HETATM   10  C20 UNL     1      22.106  -3.677 -12.223  1.00  0.00     0.158 A 
HETATM   11  C21 UNL     1      19.118  -4.938 -10.518  1.00  0.00     0.052 C 
ENDROOT
BRANCH   9  12
HETATM   12  C13 UNL     1      23.555  -3.006 -10.345  1.00  0.00     0.163 C 
BRANCH  12  13
HETATM   13  N3  UNL     1      24.341  -3.843  -9.525  1.00  0.00    -0.279 NA
HETATM   14  C14 UNL     1      25.272  -3.083  -8.695  1.00  0.00     0.096 C 
HETATM   15  C15 UNL     1      26.087  -4.058  -7.916  1.00  0.00     0.015 C 
HETATM   16  C16 UNL     1      27.423  -4.366  -8.475  1.00  0.00     0.001 C 
HETATM   17  C17 UNL     1      27.523  -4.655  -9.910  1.00  0.00     0.001 C 
HETATM   18  C18 UNL     1      26.346  -4.340 -10.757  1.00  0.00     0.015 C 
HETATM   19  C19 UNL     1      25.044  -4.869 -10.195  1.00  0.00     0.096 C 
ENDBRANCH  12  13
ENDBRANCH   9  12
BRANCH   8  20
HETATM   20  O1  UNL     1      21.247  -4.013  -8.812  1.00  0.00    -0.345 OA
ATOM     21  H1  UNL     1      21.660  -3.428  -8.186  1.00  0.00     0.219 HD
ENDBRANCH   8  20
BRANCH  10  22
HETATM   22  O2  UNL     1      22.868  -3.359 -13.351  1.00  0.00    -0.345 OA
ATOM     23  H2  UNL     1      23.797  -3.186 -13.250  1.00  0.00     0.219 HD
ENDBRANCH  10  22
BRANCH   5  24
HETATM   24  N1  UNL     1      19.720  -3.282 -14.342  1.00  0.00    -0.071 N 
ATOM     25  H13 UNL     1      19.676  -2.530 -13.654  1.00  0.00     0.275 HD
ATOM     26  H12 UNL     1      20.342  -2.849 -15.025  1.00  0.00     0.275 HD
ATOM     27  H11 UNL     1      18.801  -3.455 -14.749  1.00  0.00     0.275 HD
ENDBRANCH   5  24
BRANCH   1  28
HETATM   28  C4  UNL     1      17.788  -7.047 -10.306  1.00  0.00     0.009 C 
BRANCH  28  29
HETATM   29  C3  UNL     1      16.745  -6.131 -10.943  1.00  0.00     0.000 C 
BRANCH  29  30
HETATM   30  C2  UNL     1      16.191  -6.883 -12.153  1.00  0.00    -0.005 C 
HETATM   31  C1  UNL     1      16.385  -8.376 -11.866  1.00  0.00     0.005 C 
ENDBRANCH  29  30
ENDBRANCH  28  29
ENDBRANCH   1  28
TORSDOF 8
ENDMDL
