MODEL 1
REMARK VINA RESULT: -8.111507462      0.000      0.000
REMARK  6 active torsions:
REMARK  status: ('A' for Active; 'I' for Inactive)
REMARK    1  A    between atoms: C2_2  and  O1_4 
REMARK    2  A    between atoms: O1_4  and  C4_5 
REMARK    3  A    between atoms: C6_9  and  C7_10 
REMARK    4  A    between atoms: C7_10  and  C8_11 
REMARK    5  A    between atoms: N3_16  and  C11_17 
REMARK    6  A    between atoms: C20_26  and  N4_27 
ROOT
HETATM    1  C4  UNL     1      22.045   0.396 -16.097  1.00  0.00     0.226 A 
HETATM    2  N1  UNL     1      22.543  -0.304 -17.169  1.00  0.00    -0.318 N 
ATOM      3  H1  UNL     1      22.787  -1.288 -17.063  1.00  0.00     0.169 HD
HETATM    4  C5  UNL     1      22.711   0.300 -18.352  1.00  0.00     0.092 A 
HETATM    5  C6  UNL     1      23.188  -0.159 -19.579  1.00  0.00     0.055 A 
HETATM    6  N2  UNL     1      23.123   0.889 -20.376  1.00  0.00    -0.299 N 
ATOM      7  H2  UNL     1      23.408   0.867 -21.356  1.00  0.00     0.187 HD
HETATM    8  N3  UNL     1      22.653   1.973 -19.782  1.00  0.00    -0.278 N 
HETATM    9  C19 UNL     1      22.382   1.653 -18.514  1.00  0.00     0.124 A 
HETATM   10  C20 UNL     1      21.880   2.350 -17.425  1.00  0.00     0.133 A 
HETATM   11  N5  UNL     1      21.731   1.686 -16.252  1.00  0.00    -0.306 N 
ATOM     12  H5  UNL     1      21.361   2.196 -15.450  1.00  0.00     0.171 HD
ENDROOT
BRANCH   8  13
HETATM   13  C11 UNL     1      22.464   3.277 -20.382  1.00  0.00     0.131 C 
HETATM   14  C12 UNL     1      21.087   3.518 -20.945  1.00  0.00     0.031 C 
HETATM   15  C13 UNL     1      21.032   4.766 -21.786  1.00  0.00     0.002 C 
HETATM   16  C14 UNL     1      21.426   4.643 -23.198  1.00  0.00     0.000 C 
HETATM   17  C15 UNL     1      21.332   3.303 -23.822  1.00  0.00     0.004 C 
HETATM   18  C16 UNL     1      22.326   2.284 -23.413  1.00  0.00     0.027 C 
HETATM   19  C17 UNL     1      23.508   2.680 -22.657  1.00  0.00    -0.029 C 
HETATM   20  C18 UNL     1      23.542   3.407 -21.429  1.00  0.00    -0.004 C 
ENDBRANCH   8  13
BRANCH   5  21
HETATM   21  C7  UNL     1      23.648  -1.555 -19.834  1.00  0.00     0.065 C 
BRANCH  21  22
HETATM   22  C8  UNL     1      24.315  -1.609 -21.177  1.00  0.00    -0.009 A 
HETATM   23  C9  UNL     1      25.288  -2.665 -21.522  1.00  0.00     0.005 A 
HETATM   24  C10 UNL     1      25.751  -1.243 -21.228  1.00  0.00     0.005 A 
ENDBRANCH  21  22
ENDBRANCH   5  21
BRANCH  10  25
HETATM   25  N4  UNL     1      21.570   3.586 -17.540  1.00  0.00    -0.383 N 
ATOM     26  H42 UNL     1      20.737   3.883 -18.049  1.00  0.00     0.157 HD
ATOM     27  H41 UNL     1      22.160   4.304 -17.118  1.00  0.00     0.157 HD
ENDBRANCH  10  25
BRANCH   1  28
HETATM   28  O1  UNL     1      21.883  -0.251 -14.892  1.00  0.00    -0.317 OA
BRANCH  28  29
HETATM   29  C2  UNL     1      20.712  -0.810 -14.453  1.00  0.00     0.123 C 
HETATM   30  C1  UNL     1      20.584  -0.420 -12.961  1.00  0.00     0.040 C 
HETATM   31  C3  UNL     1      20.707  -2.329 -14.554  1.00  0.00     0.040 C 
ENDBRANCH  28  29
ENDBRANCH   1  28
TORSDOF 6
ENDMDL
MODEL 2
REMARK VINA RESULT: -8.032278011      0.880      1.017
REMARK  6 active torsions:
REMARK  status: ('A' for Active; 'I' for Inactive)
REMARK    1  A    between atoms: C2_2  and  O1_4 
REMARK    2  A    between atoms: O1_4  and  C4_5 
REMARK    3  A    between atoms: C6_9  and  C7_10 
REMARK    4  A    between atoms: C7_10  and  C8_11 
REMARK    5  A    between atoms: N3_16  and  C11_17 
REMARK    6  A    between atoms: C20_26  and  N4_27 
ROOT
HETATM    1  C4  UNL     1      22.401  -0.042 -17.014  1.00  0.00     0.226 A 
HETATM    2  N1  UNL     1      22.728  -0.549 -18.248  1.00  0.00    -0.318 N 
ATOM      3  H1  UNL     1      22.871  -1.552 -18.363  1.00  0.00     0.169 HD
HETATM    4  C5  UNL     1      22.860   0.268 -19.301  1.00  0.00     0.092 A 
HETATM    5  C6  UNL     1      23.179   0.030 -20.637  1.00  0.00     0.055 A 
HETATM    6  N2  UNL     1      23.161   1.222 -21.202  1.00  0.00    -0.299 N 
ATOM      7  H2  UNL     1      23.358   1.375 -22.192  1.00  0.00     0.187 HD
HETATM    8  N3  UNL     1      22.863   2.197 -20.361  1.00  0.00    -0.278 N 
HETATM    9  C19 UNL     1      22.666   1.650 -19.160  1.00  0.00     0.124 A 
HETATM   10  C20 UNL     1      22.337   2.149 -17.909  1.00  0.00     0.133 A 
HETATM   11  N5  UNL     1      22.216   1.275 -16.879  1.00  0.00    -0.306 N 
ATOM     12  H5  UNL     1      21.972   1.639 -15.959  1.00  0.00     0.171 HD
ENDROOT
BRANCH   8  13
HETATM   13  C11 UNL     1      22.766   3.608 -20.671  1.00  0.00     0.131 C 
HETATM   14  C12 UNL     1      21.361   4.117 -20.862  1.00  0.00     0.031 C 
HETATM   15  C13 UNL     1      21.338   5.506 -21.443  1.00  0.00     0.002 C 
HETATM   16  C14 UNL     1      21.422   5.625 -22.906  1.00  0.00     0.000 C 
HETATM   17  C15 UNL     1      20.998   4.458 -23.714  1.00  0.00     0.004 C 
HETATM   18  C16 UNL     1      21.880   3.269 -23.719  1.00  0.00     0.027 C 
HETATM   19  C17 UNL     1      23.235   3.364 -23.189  1.00  0.00    -0.029 C 
HETATM   20  C18 UNL     1      23.624   3.820 -21.893  1.00  0.00    -0.004 C 
ENDBRANCH   8  13
BRANCH   5  21
HETATM   21  C7  UNL     1      23.462  -1.319 -21.208  1.00  0.00     0.065 C 
BRANCH  21  22
HETATM   22  C8  UNL     1      24.810  -1.775 -20.732  1.00  0.00    -0.009 A 
HETATM   23  C9  UNL     1      25.671  -2.651 -21.552  1.00  0.00     0.005 A 
HETATM   24  C10 UNL     1      24.934  -3.199 -20.334  1.00  0.00     0.005 A 
ENDBRANCH  21  22
ENDBRANCH   5  21
BRANCH  10  25
HETATM   25  N4  UNL     1      22.154   3.406 -17.746  1.00  0.00    -0.383 N 
ATOM     26  H42 UNL     1      21.293   3.864 -18.046  1.00  0.00     0.157 HD
ATOM     27  H41 UNL     1      22.877   3.976 -17.307  1.00  0.00     0.157 HD
ENDBRANCH  10  25
BRANCH   1  28
HETATM   28  O1  UNL     1      22.272  -0.906 -15.949  1.00  0.00    -0.317 OA
BRANCH  28  29
HETATM   29  C2  UNL     1      21.096  -1.190 -15.307  1.00  0.00     0.123 C 
HETATM   30  C1  UNL     1      21.240  -0.620 -13.876  1.00  0.00     0.040 C 
HETATM   31  C3  UNL     1      20.824  -2.685 -15.203  1.00  0.00     0.040 C 
ENDBRANCH  28  29
ENDBRANCH   1  28
TORSDOF 6
ENDMDL
MODEL 3
REMARK VINA RESULT: -7.954058980      2.270      4.798
REMARK  6 active torsions:
REMARK  status: ('A' for Active; 'I' for Inactive)
REMARK    1  A    between atoms: C2_2  and  O1_4 
REMARK    2  A    between atoms: O1_4  and  C4_5 
REMARK    3  A    between atoms: C6_9  and  C7_10 
REMARK    4  A    between atoms: C7_10  and  C8_11 
REMARK    5  A    between atoms: N3_16  and  C11_17 
REMARK    6  A    between atoms: C20_26  and  N4_27 
ROOT
HETATM    1  C4  UNL     1      23.337  -1.221 -19.992  1.00  0.00     0.226 A 
HETATM    2  N1  UNL     1      23.133  -0.090 -19.240  1.00  0.00    -0.318 N 
ATOM      3  H1  UNL     1      23.149  -0.149 -18.222  1.00  0.00     0.169 HD
HETATM    4  C5  UNL     1      22.913   1.088 -19.836  1.00  0.00     0.092 A 
HETATM    5  C6  UNL     1      22.679   2.365 -19.330  1.00  0.00     0.055 A 
HETATM    6  N2  UNL     1      22.533   3.127 -20.396  1.00  0.00    -0.299 N 
ATOM      7  H2  UNL     1      22.348   4.129 -20.348  1.00  0.00     0.187 HD
HETATM    8  N3  UNL     1      22.650   2.464 -21.535  1.00  0.00    -0.278 N 
HETATM    9  C19 UNL     1      22.887   1.185 -21.235  1.00  0.00     0.124 A 
HETATM   10  C20 UNL     1      23.094   0.036 -21.984  1.00  0.00     0.133 A 
HETATM   11  N5  UNL     1      23.313  -1.129 -21.326  1.00  0.00    -0.306 N 
ATOM     12  H5  UNL     1      23.466  -1.975 -21.874  1.00  0.00     0.171 HD
ENDROOT
BRANCH   8  13
HETATM   13  C11 UNL     1      22.539   3.011 -22.870  1.00  0.00     0.131 C 
HETATM   14  C12 UNL     1      23.182   4.361 -23.053  1.00  0.00     0.031 C 
HETATM   15  C13 UNL     1      22.804   4.993 -24.367  1.00  0.00     0.002 C 
HETATM   16  C14 UNL     1      21.545   5.752 -24.410  1.00  0.00     0.000 C 
HETATM   17  C15 UNL     1      21.024   6.290 -23.132  1.00  0.00     0.004 C 
HETATM   18  C16 UNL     1      20.458   5.326 -22.161  1.00  0.00     0.027 C 
HETATM   19  C17 UNL     1      20.164   3.959 -22.577  1.00  0.00    -0.029 C 
HETATM   20  C18 UNL     1      21.063   3.031 -23.184  1.00  0.00    -0.004 C 
ENDBRANCH   8  13
BRANCH   5  21
HETATM   21  C7  UNL     1      22.626   2.697 -17.876  1.00  0.00     0.065 C 
BRANCH  21  22
HETATM   22  C8  UNL     1      21.396   2.076 -17.280  1.00  0.00    -0.009 A 
HETATM   23  C9  UNL     1      20.824   2.551 -16.004  1.00  0.00     0.005 A 
HETATM   24  C10 UNL     1      21.588   1.233 -16.075  1.00  0.00     0.005 A 
ENDBRANCH  21  22
ENDBRANCH   5  21
BRANCH  10  25
HETATM   25  N4  UNL     1      23.076   0.091 -23.263  1.00  0.00    -0.383 N 
ATOM     26  H42 UNL     1      23.937   0.149 -23.807  1.00  0.00     0.157 HD
ATOM     27  H41 UNL     1      22.188   0.077 -23.764  1.00  0.00     0.157 HD
ENDBRANCH  10  25
BRANCH   1  28
HETATM   28  O1  UNL     1      23.561  -2.420 -19.352  1.00  0.00    -0.317 OA
BRANCH  28  29
HETATM   29  C2  UNL     1      23.315  -3.655 -19.891  1.00  0.00     0.123 C 
HETATM   30  C1  UNL     1      22.307  -4.345 -18.941  1.00  0.00     0.040 C 
HETATM   31  C3  UNL     1      24.564  -4.522 -19.978  1.00  0.00     0.040 C 
ENDBRANCH  28  29
ENDBRANCH   1  28
TORSDOF 6
ENDMDL
MODEL 4
REMARK VINA RESULT: -7.782841500      2.690      5.625
REMARK  6 active torsions:
REMARK  status: ('A' for Active; 'I' for Inactive)
REMARK    1  A    between atoms: C2_2  and  O1_4 
REMARK    2  A    between atoms: O1_4  and  C4_5 
REMARK    3  A    between atoms: C6_9  and  C7_10 
REMARK    4  A    between atoms: C7_10  and  C8_11 
REMARK    5  A    between atoms: N3_16  and  C11_17 
REMARK    6  A    between atoms: C20_26  and  N4_27 
ROOT
HETATM    1  C4  UNL     1      23.073   0.542 -21.908  1.00  0.00     0.226 A 
HETATM    2  N1  UNL     1      22.986   1.360 -20.807  1.00  0.00    -0.318 N 
ATOM      3  H1  UNL     1      23.179   0.984 -19.879  1.00  0.00     0.169 HD
HETATM    4  C5  UNL     1      22.649   2.648 -20.947  1.00  0.00     0.092 A 
HETATM    5  C6  UNL     1      22.488   3.680 -20.024  1.00  0.00     0.055 A 
HETATM    6  N2  UNL     1      22.148   4.728 -20.749  1.00  0.00    -0.299 N 
ATOM      7  H2  UNL     1      21.960   5.648 -20.350  1.00  0.00     0.187 HD
HETATM    8  N3  UNL     1      22.076   4.469 -22.044  1.00  0.00    -0.278 N 
HETATM    9  C19 UNL     1      22.380   3.181 -22.216  1.00  0.00     0.124 A 
HETATM   10  C20 UNL     1      22.471   2.346 -23.319  1.00  0.00     0.133 A 
HETATM   11  N5  UNL     1      22.817   1.050 -23.118  1.00  0.00    -0.306 N 
ATOM     12  H5  UNL     1      22.886   0.434 -23.927  1.00  0.00     0.171 HD
ENDROOT
BRANCH   8  13
HETATM   13  C11 UNL     1      21.727   5.402 -23.095  1.00  0.00     0.131 C 
HETATM   14  C12 UNL     1      22.092   6.835 -22.811  1.00  0.00     0.031 C 
HETATM   15  C13 UNL     1      21.469   7.783 -23.802  1.00  0.00     0.002 C 
HETATM   16  C14 UNL     1      20.096   8.234 -23.529  1.00  0.00     0.000 C 
HETATM   17  C15 UNL     1      19.624   8.186 -22.127  1.00  0.00     0.004 C 
HETATM   18  C16 UNL     1      19.348   6.855 -21.540  1.00  0.00     0.027 C 
HETATM   19  C17 UNL     1      19.265   5.681 -22.401  1.00  0.00    -0.029 C 
HETATM   20  C18 UNL     1      20.248   5.222 -23.329  1.00  0.00    -0.004 C 
ENDBRANCH   8  13
BRANCH   5  21
HETATM   21  C7  UNL     1      22.682   3.530 -18.552  1.00  0.00     0.065 C 
BRANCH  21  22
HETATM   22  C8  UNL     1      21.606   2.638 -18.008  1.00  0.00    -0.009 A 
HETATM   23  C9  UNL     1      21.270   2.608 -16.569  1.00  0.00     0.005 A 
HETATM   24  C10 UNL     1      22.045   1.464 -17.214  1.00  0.00     0.005 A 
ENDBRANCH  21  22
ENDBRANCH   5  21
BRANCH  10  25
HETATM   25  N4  UNL     1      22.231   2.800 -24.492  1.00  0.00    -0.383 N 
ATOM     26  H42 UNL     1      21.836   3.730 -24.634  1.00  0.00     0.157 HD
ATOM     27  H41 UNL     1      22.434   2.231 -25.314  1.00  0.00     0.157 HD
ENDBRANCH  10  25
BRANCH   1  28
HETATM   28  O1  UNL     1      23.422  -0.779 -21.734  1.00  0.00    -0.317 OA
BRANCH  28  29
HETATM   29  C2  UNL     1      24.208  -1.255 -20.718  1.00  0.00     0.123 C 
HETATM   30  C1  UNL     1      25.427  -1.924 -21.396  1.00  0.00     0.040 C 
HETATM   31  C3  UNL     1      23.502  -2.299 -19.863  1.00  0.00     0.040 C 
ENDBRANCH  28  29
ENDBRANCH   1  28
TORSDOF 6
ENDMDL
MODEL 5
REMARK VINA RESULT: -7.687062513      7.184     10.829
REMARK  6 active torsions:
REMARK  status: ('A' for Active; 'I' for Inactive)
REMARK    1  A    between atoms: C2_2  and  O1_4 
REMARK    2  A    between atoms: O1_4  and  C4_5 
REMARK    3  A    between atoms: C6_9  and  C7_10 
REMARK    4  A    between atoms: C7_10  and  C8_11 
REMARK    5  A    between atoms: N3_16  and  C11_17 
REMARK    6  A    between atoms: C20_26  and  N4_27 
ROOT
HETATM    1  C4  UNL     1      24.021  -4.259 -10.615  1.00  0.00     0.226 A 
HETATM    2  N1  UNL     1      23.461  -3.479 -11.598  1.00  0.00    -0.318 N 
ATOM      3  H1  UNL     1      23.948  -2.644 -11.922  1.00  0.00     0.169 HD
HETATM    4  C5  UNL     1      22.279  -3.809 -12.132  1.00  0.00     0.092 A 
HETATM    5  C6  UNL     1      21.497  -3.212 -13.119  1.00  0.00     0.055 A 
HETATM    6  N2  UNL     1      20.437  -3.991 -13.223  1.00  0.00    -0.299 N 
ATOM      7  H2  UNL     1      19.672  -3.811 -13.874  1.00  0.00     0.187 HD
HETATM    8  N3  UNL     1      20.463  -5.026 -12.400  1.00  0.00    -0.278 N 
HETATM    9  C19 UNL     1      21.596  -4.955 -11.698  1.00  0.00     0.124 A 
HETATM   10  C20 UNL     1      22.171  -5.734 -10.705  1.00  0.00     0.133 A 
HETATM   11  N5  UNL     1      23.370  -5.351 -10.201  1.00  0.00    -0.306 N 
ATOM     12  H5  UNL     1      23.796  -5.923  -9.473  1.00  0.00     0.171 HD
ENDROOT
BRANCH   8  13
HETATM   13  C11 UNL     1      19.453  -6.055 -12.272  1.00  0.00     0.131 C 
HETATM   14  C12 UNL     1      18.625  -6.283 -13.509  1.00  0.00     0.031 C 
HETATM   15  C13 UNL     1      17.431  -7.158 -13.236  1.00  0.00     0.002 C 
HETATM   16  C14 UNL     1      16.218  -6.500 -12.725  1.00  0.00     0.000 C 
HETATM   17  C15 UNL     1      16.052  -5.056 -13.008  1.00  0.00     0.004 C 
HETATM   18  C16 UNL     1      16.924  -4.108 -12.276  1.00  0.00     0.027 C 
HETATM   19  C17 UNL     1      17.695  -4.565 -11.126  1.00  0.00    -0.029 C 
HETATM   20  C18 UNL     1      18.612  -5.658 -11.084  1.00  0.00    -0.004 C 
ENDBRANCH   8  13
BRANCH   5  21
HETATM   21  C7  UNL     1      21.867  -1.962 -13.844  1.00  0.00     0.065 C 
BRANCH  21  22
HETATM   22  C8  UNL     1      20.680  -1.044 -13.868  1.00  0.00    -0.009 A 
HETATM   23  C9  UNL     1      20.815   0.399 -14.154  1.00  0.00     0.005 A 
HETATM   24  C10 UNL     1      20.544  -0.094 -12.737  1.00  0.00     0.005 A 
ENDBRANCH  21  22
ENDBRANCH   5  21
BRANCH  10  25
HETATM   25  N4  UNL     1      21.574  -6.786 -10.286  1.00  0.00    -0.383 N 
ATOM     26  H42 UNL     1      20.655  -6.738  -9.844  1.00  0.00     0.157 HD
ATOM     27  H41 UNL     1      22.013  -7.701 -10.388  1.00  0.00     0.157 HD
ENDBRANCH  10  25
BRANCH   1  28
HETATM   28  O1  UNL     1      25.238  -3.894 -10.084  1.00  0.00    -0.317 OA
BRANCH  28  29
HETATM   29  C2  UNL     1      26.208  -4.769  -9.673  1.00  0.00     0.123 C 
HETATM   30  C1  UNL     1      26.241  -4.678  -8.128  1.00  0.00     0.040 C 
HETATM   31  C3  UNL     1      27.591  -4.413 -10.203  1.00  0.00     0.040 C 
ENDBRANCH  28  29
ENDBRANCH   1  28
TORSDOF 6
ENDMDL
