MODEL 1
REMARK VINA RESULT: -6.358628759      0.000      0.000
REMARK  8 active torsions:
REMARK  status: ('A' for Active; 'I' for Inactive)
REMARK    1  A    between atoms: C8_8  and  N1_9 
REMARK    2  A    between atoms: N1_9  and  C9_10 
REMARK    3  A    between atoms: N1_9  and  C16_25 
REMARK    4  A    between atoms: C9_10  and  C10_11 
REMARK    5  A    between atoms: C9_10  and  C15_18 
REMARK    6  A    between atoms: C10_11  and  C11_12 
REMARK    7  A    between atoms: C15_18  and  O2_19 
REMARK    8  A    between atoms: N3_21  and  O3_23 
ROOT
HETATM    1  C9  UNL     1      22.496  -4.559  -9.978  1.00  0.00     0.167 C 
ENDROOT
BRANCH   1   2
HETATM    2  N1  UNL     1      21.957  -3.325 -10.291  1.00  0.00    -0.366 N 
BRANCH   2   3
HETATM    3  C8  UNL     1      21.192  -2.959 -11.376  1.00  0.00    -0.006 C 
HETATM    4  C2  UNL     1      21.588  -2.995 -12.787  1.00  0.00    -0.009 C 
HETATM    5  C1  UNL     1      21.038  -4.115 -13.640  1.00  0.00     0.021 C 
HETATM    6  C3  UNL     1      23.005  -2.783 -13.165  1.00  0.00     0.021 C 
HETATM    7  C4  UNL     1      20.861  -1.775 -13.458  1.00  0.00     0.015 C 
HETATM    8  C5  UNL     1      19.394  -1.851 -13.300  1.00  0.00     0.001 C 
HETATM    9  C6  UNL     1      18.854  -2.473 -12.079  1.00  0.00     0.006 C 
HETATM   10  C7  UNL     1      19.744  -3.490 -11.392  1.00  0.00     0.053 C 
ENDBRANCH   2   3
BRANCH   2  11
HETATM   11  C16 UNL     1      22.070  -2.327  -9.242  1.00  0.00     0.022 C 
HETATM   12  C17 UNL     1      21.802  -0.915  -9.737  1.00  0.00     0.037 C 
HETATM   13  C18 UNL     1      21.127  -2.534  -8.086  1.00  0.00     0.037 C 
HETATM   14  C19 UNL     1      23.436  -2.225  -8.601  1.00  0.00     0.037 C 
ENDBRANCH   2  11
ENDBRANCH   1   2
BRANCH   1  15
HETATM   15  C10 UNL     1      23.621  -5.130 -10.785  1.00  0.00     0.099 C 
BRANCH  15  16
HETATM   16  C11 UNL     1      24.974  -4.702 -10.320  1.00  0.00     0.057 A 
HETATM   17  C12 UNL     1      25.915  -3.882 -10.874  1.00  0.00     0.036 A 
HETATM   18  C13 UNL     1      26.969  -3.841 -10.015  1.00  0.00     0.055 A 
HETATM   19  C14 UNL     1      26.621  -4.663  -8.940  1.00  0.00     0.157 A 
HETATM   20  N2  UNL     1      27.413  -4.930  -7.794  1.00  0.00    -0.075 NA
HETATM   21  O1  UNL     1      25.449  -5.137  -9.172  1.00  0.00    -0.300 OA
ENDBRANCH  15  16
ENDBRANCH   1  15
BRANCH   1  22
HETATM   22  C15 UNL     1      21.414  -5.636  -9.865  1.00  0.00     0.159 C 
HETATM   23  N3  UNL     1      21.540  -6.705 -10.536  1.00  0.00    -0.249 N 
ATOM     24  H3  UNL     1      22.364  -6.805 -11.129  1.00  0.00     0.196 HD
BRANCH  22  25
HETATM   25  O2  UNL     1      20.304  -5.509  -9.071  1.00  0.00    -0.347 OA
ATOM     26  H2  UNL     1      19.609  -6.155  -9.039  1.00  0.00     0.219 HD
ENDBRANCH  22  25
BRANCH  23  27
HETATM   27  O3  UNL     1      20.647  -7.720 -10.513  1.00  0.00    -0.288 OA
ATOM     28  H3  UNL     1      20.250  -8.095 -11.290  1.00  0.00     0.244 HD
ENDBRANCH  23  27
ENDBRANCH   1  22
TORSDOF 8
ENDMDL
MODEL 2
REMARK VINA RESULT: -6.286542021      2.421      3.609
REMARK  8 active torsions:
REMARK  status: ('A' for Active; 'I' for Inactive)
REMARK    1  A    between atoms: C8_8  and  N1_9 
REMARK    2  A    between atoms: N1_9  and  C9_10 
REMARK    3  A    between atoms: N1_9  and  C16_25 
REMARK    4  A    between atoms: C9_10  and  C10_11 
REMARK    5  A    between atoms: C9_10  and  C15_18 
REMARK    6  A    between atoms: C10_11  and  C11_12 
REMARK    7  A    between atoms: C15_18  and  O2_19 
REMARK    8  A    between atoms: N3_21  and  O3_23 
ROOT
HETATM    1  C9  UNL     1      22.197  -3.692 -11.942  1.00  0.00     0.167 C 
ENDROOT
BRANCH   1   2
HETATM    2  N1  UNL     1      21.041  -3.609 -11.190  1.00  0.00    -0.366 N 
BRANCH   2   3
HETATM    3  C8  UNL     1      20.285  -2.502 -10.874  1.00  0.00    -0.006 C 
HETATM    4  C2  UNL     1      20.664  -1.399  -9.986  1.00  0.00    -0.009 C 
HETATM    5  C1  UNL     1      21.071  -0.092 -10.629  1.00  0.00     0.021 C 
HETATM    6  C3  UNL     1      21.567  -1.647  -8.839  1.00  0.00     0.021 C 
HETATM    7  C4  UNL     1      19.332  -0.943  -9.291  1.00  0.00     0.015 C 
HETATM    8  C5  UNL     1      18.310  -0.528 -10.273  1.00  0.00     0.001 C 
HETATM    9  C6  UNL     1      18.285  -1.201 -11.583  1.00  0.00     0.006 C 
HETATM   10  C7  UNL     1      19.596  -1.794 -12.059  1.00  0.00     0.053 C 
ENDBRANCH   2   3
BRANCH   2  11
HETATM   11  C16 UNL     1      20.454  -4.888 -10.831  1.00  0.00     0.022 C 
HETATM   12  C17 UNL     1      20.227  -5.037  -9.335  1.00  0.00     0.037 C 
HETATM   13  C18 UNL     1      19.116  -5.156 -11.470  1.00  0.00     0.037 C 
HETATM   14  C19 UNL     1      21.290  -6.098 -11.186  1.00  0.00     0.037 C 
ENDBRANCH   2  11
ENDBRANCH   1   2
BRANCH   1  15
HETATM   15  C10 UNL     1      23.460  -3.032 -11.481  1.00  0.00     0.099 C 
BRANCH  15  16
HETATM   16  C11 UNL     1      24.274  -3.871 -10.551  1.00  0.00     0.057 A 
HETATM   17  C12 UNL     1      24.738  -5.152 -10.644  1.00  0.00     0.036 A 
HETATM   18  C13 UNL     1      25.430  -5.411  -9.502  1.00  0.00     0.055 A 
HETATM   19  C14 UNL     1      25.358  -4.246  -8.734  1.00  0.00     0.157 A 
HETATM   20  N2  UNL     1      25.936  -4.043  -7.455  1.00  0.00    -0.075 NA
HETATM   21  O1  UNL     1      24.673  -3.383  -9.396  1.00  0.00    -0.300 OA
ENDBRANCH  15  16
ENDBRANCH   1  15
BRANCH   1  22
HETATM   22  C15 UNL     1      21.958  -3.271 -13.394  1.00  0.00     0.159 C 
HETATM   23  N3  UNL     1      21.292  -4.040 -14.153  1.00  0.00    -0.249 N 
ATOM     24  H3  UNL     1      20.941  -4.914 -13.763  1.00  0.00     0.196 HD
BRANCH  22  25
HETATM   25  O2  UNL     1      22.427  -2.099 -13.927  1.00  0.00    -0.347 OA
ATOM     26  H2  UNL     1      23.278  -2.017 -14.340  1.00  0.00     0.219 HD
ENDBRANCH  22  25
BRANCH  23  27
HETATM   27  O3  UNL     1      21.022  -3.769 -15.451  1.00  0.00    -0.288 OA
ATOM     28  H3  UNL     1      20.344  -3.168 -15.736  1.00  0.00     0.244 HD
ENDBRANCH  23  27
ENDBRANCH   1  22
TORSDOF 8
ENDMDL
MODEL 3
REMARK VINA RESULT: -6.265823970      2.563      3.714
REMARK  8 active torsions:
REMARK  status: ('A' for Active; 'I' for Inactive)
REMARK    1  A    between atoms: C8_8  and  N1_9 
REMARK    2  A    between atoms: N1_9  and  C9_10 
REMARK    3  A    between atoms: N1_9  and  C16_25 
REMARK    4  A    between atoms: C9_10  and  C10_11 
REMARK    5  A    between atoms: C9_10  and  C15_18 
REMARK    6  A    between atoms: C10_11  and  C11_12 
REMARK    7  A    between atoms: C15_18  and  O2_19 
REMARK    8  A    between atoms: N3_21  and  O3_23 
ROOT
HETATM    1  C9  UNL     1      21.910  -3.568 -12.155  1.00  0.00     0.167 C 
ENDROOT
BRANCH   1   2
HETATM    2  N1  UNL     1      20.708  -3.436 -11.486  1.00  0.00    -0.366 N 
BRANCH   2   3
HETATM    3  C8  UNL     1      19.909  -2.322 -11.343  1.00  0.00    -0.006 C 
HETATM    4  C2  UNL     1      20.216  -1.109 -10.581  1.00  0.00    -0.009 C 
HETATM    5  C1  UNL     1      20.620   0.123 -11.360  1.00  0.00     0.021 C 
HETATM    6  C3  UNL     1      21.068  -1.187  -9.372  1.00  0.00     0.021 C 
HETATM    7  C4  UNL     1      18.840  -0.614 -10.008  1.00  0.00     0.015 C 
HETATM    8  C5  UNL     1      17.856  -0.354 -11.079  1.00  0.00     0.001 C 
HETATM    9  C6  UNL     1      17.913  -1.181 -12.295  1.00  0.00     0.006 C 
HETATM   10  C7  UNL     1      19.261  -1.786 -12.636  1.00  0.00     0.053 C 
ENDBRANCH   2   3
BRANCH   2  11
HETATM   11  C16 UNL     1      20.129  -4.683 -11.019  1.00  0.00     0.022 C 
HETATM   12  C17 UNL     1      20.315  -4.900  -9.526  1.00  0.00     0.037 C 
HETATM   13  C18 UNL     1      18.647  -4.807 -11.263  1.00  0.00     0.037 C 
HETATM   14  C19 UNL     1      20.718  -5.932 -11.637  1.00  0.00     0.037 C 
ENDBRANCH   2  11
ENDBRANCH   1   2
BRANCH   1  15
HETATM   15  C10 UNL     1      23.160  -2.941 -11.617  1.00  0.00     0.099 C 
BRANCH  15  16
HETATM   16  C11 UNL     1      24.114  -3.920 -11.016  1.00  0.00     0.057 A 
HETATM   17  C12 UNL     1      23.925  -5.139 -10.429  1.00  0.00     0.036 A 
HETATM   18  C13 UNL     1      25.151  -5.599 -10.058  1.00  0.00     0.055 A 
HETATM   19  C14 UNL     1      26.065  -4.614 -10.441  1.00  0.00     0.157 A 
HETATM   20  N2  UNL     1      27.470  -4.653 -10.258  1.00  0.00    -0.075 NA
HETATM   21  O1  UNL     1      25.404  -3.661 -10.994  1.00  0.00    -0.300 OA
ENDBRANCH  15  16
ENDBRANCH   1  15
BRANCH   1  22
HETATM   22  C15 UNL     1      21.785  -3.164 -13.626  1.00  0.00     0.159 C 
HETATM   23  N3  UNL     1      21.176  -3.939 -14.425  1.00  0.00    -0.249 N 
ATOM     24  H3  UNL     1      20.791  -4.807 -14.052  1.00  0.00     0.196 HD
BRANCH  22  25
HETATM   25  O2  UNL     1      22.300  -2.001 -14.136  1.00  0.00    -0.347 OA
ATOM     26  H2  UNL     1      22.353  -1.816 -15.066  1.00  0.00     0.219 HD
ENDBRANCH  22  25
BRANCH  23  27
HETATM   27  O3  UNL     1      21.008  -3.683 -15.742  1.00  0.00    -0.288 OA
ATOM     28  H3  UNL     1      20.969  -2.809 -16.112  1.00  0.00     0.244 HD
ENDBRANCH  23  27
ENDBRANCH   1  22
TORSDOF 8
ENDMDL
MODEL 4
REMARK VINA RESULT: -6.246912630      0.838      1.154
REMARK  8 active torsions:
REMARK  status: ('A' for Active; 'I' for Inactive)
REMARK    1  A    between atoms: C8_8  and  N1_9 
REMARK    2  A    between atoms: N1_9  and  C9_10 
REMARK    3  A    between atoms: N1_9  and  C16_25 
REMARK    4  A    between atoms: C9_10  and  C10_11 
REMARK    5  A    between atoms: C9_10  and  C15_18 
REMARK    6  A    between atoms: C10_11  and  C11_12 
REMARK    7  A    between atoms: C15_18  and  O2_19 
REMARK    8  A    between atoms: N3_21  and  O3_23 
ROOT
HETATM    1  C9  UNL     1      21.894  -4.317  -9.908  1.00  0.00     0.167 C 
ENDROOT
BRANCH   1   2
HETATM    2  N1  UNL     1      21.619  -3.025 -10.314  1.00  0.00    -0.366 N 
BRANCH   2   3
HETATM    3  C8  UNL     1      21.064  -2.583 -11.495  1.00  0.00    -0.006 C 
HETATM    4  C2  UNL     1      21.616  -2.744 -12.843  1.00  0.00    -0.009 C 
HETATM    5  C1  UNL     1      20.990  -3.793 -13.735  1.00  0.00     0.021 C 
HETATM    6  C3  UNL     1      23.083  -2.787 -13.044  1.00  0.00     0.021 C 
HETATM    7  C4  UNL     1      21.193  -1.451 -13.627  1.00  0.00     0.015 C 
HETATM    8  C5  UNL     1      19.726  -1.275 -13.653  1.00  0.00     0.001 C 
HETATM    9  C6  UNL     1      18.945  -1.746 -12.497  1.00  0.00     0.006 C 
HETATM   10  C7  UNL     1      19.560  -2.867 -11.682  1.00  0.00     0.053 C 
ENDBRANCH   2   3
BRANCH   2  11
HETATM   11  C16 UNL     1      21.779  -2.015  -9.284  1.00  0.00     0.022 C 
HETATM   12  C17 UNL     1      23.228  -1.810  -8.875  1.00  0.00     0.037 C 
HETATM   13  C18 UNL     1      21.273  -0.650  -9.672  1.00  0.00     0.037 C 
HETATM   14  C19 UNL     1      21.080  -2.318  -7.976  1.00  0.00     0.037 C 
ENDBRANCH   2  11
ENDBRANCH   1   2
BRANCH   1  15
HETATM   15  C10 UNL     1      22.946  -5.130 -10.597  1.00  0.00     0.099 C 
BRANCH  15  16
HETATM   16  C11 UNL     1      24.309  -4.978 -10.005  1.00  0.00     0.057 A 
HETATM   17  C12 UNL     1      25.557  -5.063 -10.552  1.00  0.00     0.036 A 
HETATM   18  C13 UNL     1      26.450  -4.835  -9.550  1.00  0.00     0.055 A 
HETATM   19  C14 UNL     1      25.689  -4.617  -8.399  1.00  0.00     0.157 A 
HETATM   20  N2  UNL     1      26.188  -4.338  -7.101  1.00  0.00    -0.075 NA
HETATM   21  O1  UNL     1      24.450  -4.712  -8.724  1.00  0.00    -0.300 OA
ENDBRANCH  15  16
ENDBRANCH   1  15
BRANCH   1  22
HETATM   22  C15 UNL     1      20.624  -5.169  -9.834  1.00  0.00     0.159 C 
HETATM   23  N3  UNL     1      20.472  -6.115 -10.666  1.00  0.00    -0.249 N 
ATOM     24  H3  UNL     1      21.207  -6.272 -11.355  1.00  0.00     0.196 HD
BRANCH  22  25
HETATM   25  O2  UNL     1      19.631  -4.965  -8.913  1.00  0.00    -0.347 OA
ATOM     26  H2  UNL     1      19.607  -5.396  -8.067  1.00  0.00     0.219 HD
ENDBRANCH  22  25
BRANCH  23  27
HETATM   27  O3  UNL     1      19.391  -6.928 -10.693  1.00  0.00    -0.288 OA
ATOM     28  H3  UNL     1      19.028  -7.353  -9.925  1.00  0.00     0.244 HD
ENDBRANCH  23  27
ENDBRANCH   1  22
TORSDOF 8
ENDMDL
MODEL 5
REMARK VINA RESULT: -6.226473064      2.640      5.091
REMARK  8 active torsions:
REMARK  status: ('A' for Active; 'I' for Inactive)
REMARK    1  A    between atoms: C8_8  and  N1_9 
REMARK    2  A    between atoms: N1_9  and  C9_10 
REMARK    3  A    between atoms: N1_9  and  C16_25 
REMARK    4  A    between atoms: C9_10  and  C10_11 
REMARK    5  A    between atoms: C9_10  and  C15_18 
REMARK    6  A    between atoms: C10_11  and  C11_12 
REMARK    7  A    between atoms: C15_18  and  O2_19 
REMARK    8  A    between atoms: N3_21  and  O3_23 
ROOT
HETATM    1  C9  UNL     1      22.385  -2.787 -11.378  1.00  0.00     0.167 C 
ENDROOT
BRANCH   1   2
HETATM    2  N1  UNL     1      21.256  -3.156 -10.672  1.00  0.00    -0.366 N 
BRANCH   2   3
HETATM    3  C8  UNL     1      20.595  -4.365 -10.657  1.00  0.00    -0.006 C 
HETATM    4  C2  UNL     1      19.717  -4.903 -11.699  1.00  0.00    -0.009 C 
HETATM    5  C1  UNL     1      20.272  -5.994 -12.587  1.00  0.00     0.021 C 
HETATM    6  C3  UNL     1      18.918  -3.985 -12.544  1.00  0.00     0.021 C 
HETATM    7  C4  UNL     1      18.615  -5.724 -10.937  1.00  0.00     0.015 C 
HETATM    8  C5  UNL     1      19.201  -6.797 -10.107  1.00  0.00     0.001 C 
HETATM    9  C6  UNL     1      20.525  -6.569  -9.504  1.00  0.00     0.006 C 
HETATM   10  C7  UNL     1      21.430  -5.585 -10.219  1.00  0.00     0.053 C 
ENDBRANCH   2   3
BRANCH   2  11
HETATM   11  C16 UNL     1      20.811  -2.189  -9.684  1.00  0.00     0.022 C 
HETATM   12  C17 UNL     1      19.373  -1.746  -9.895  1.00  0.00     0.037 C 
HETATM   13  C18 UNL     1      20.876  -2.682  -8.262  1.00  0.00     0.037 C 
HETATM   14  C19 UNL     1      21.585  -0.889  -9.668  1.00  0.00     0.037 C 
ENDBRANCH   2  11
ENDBRANCH   1   2
BRANCH   1  15
HETATM   15  C10 UNL     1      22.435  -2.918 -12.869  1.00  0.00     0.099 C 
BRANCH  15  16
HETATM   16  C11 UNL     1      21.901  -1.728 -13.597  1.00  0.00     0.057 A 
HETATM   17  C12 UNL     1      20.918  -0.832 -13.287  1.00  0.00     0.036 A 
HETATM   18  C13 UNL     1      20.849   0.058 -14.314  1.00  0.00     0.055 A 
HETATM   19  C14 UNL     1      21.819  -0.342 -15.237  1.00  0.00     0.157 A 
HETATM   20  N2  UNL     1      22.115   0.287 -16.472  1.00  0.00    -0.075 NA
HETATM   21  O1  UNL     1      22.400  -1.387 -14.766  1.00  0.00    -0.300 OA
ENDBRANCH  15  16
ENDBRANCH   1  15
BRANCH   1  22
HETATM   22  C15 UNL     1      23.645  -3.448 -10.813  1.00  0.00     0.159 C 
HETATM   23  N3  UNL     1      24.386  -4.122 -11.592  1.00  0.00    -0.249 N 
ATOM     24  H3  UNL     1      24.111  -4.196 -12.571  1.00  0.00     0.196 HD
BRANCH  22  25
HETATM   25  O2  UNL     1      24.022  -3.353  -9.499  1.00  0.00    -0.347 OA
ATOM     26  H2  UNL     1      23.643  -3.884  -8.807  1.00  0.00     0.219 HD
ENDBRANCH  22  25
BRANCH  23  27
HETATM   27  O3  UNL     1      25.520  -4.747 -11.200  1.00  0.00    -0.288 OA
ATOM     28  H3  UNL     1      25.782  -5.609 -11.504  1.00  0.00     0.244 HD
ENDBRANCH  23  27
ENDBRANCH   1  22
TORSDOF 8
ENDMDL
