MODEL 1
REMARK VINA RESULT: -7.595680751      0.000      0.000
REMARK  7 active torsions:
REMARK  status: ('A' for Active; 'I' for Inactive)
REMARK    1  A    between atoms: C9_9  and  O1_10 
REMARK    2  A    between atoms: N1_12  and  C10_13 
REMARK    3  A    between atoms: C10_13  and  C11_14 
REMARK    4  A    between atoms: C11_14  and  C12_15 
REMARK    5  A    between atoms: C12_15  and  C13_16 
REMARK    6  A    between atoms: C13_16  and  N2_17 
REMARK    7  A    between atoms: C20_24  and  O2_25 
ROOT
HETATM    1  C1  UNL     1      20.435   7.907 -24.789  1.00  0.00     0.032 C 
HETATM    2  C2  UNL     1      21.510   7.042 -24.160  1.00  0.00     0.079 C 
HETATM    3  C3  UNL     1      21.600   7.213 -22.685  1.00  0.00     0.038 C 
HETATM    4  C4  UNL     1      20.858   6.146 -21.915  1.00  0.00    -0.012 C 
HETATM    5  C5  UNL     1      21.170   6.317 -20.430  1.00  0.00     0.020 C 
HETATM    6  C6  UNL     1      19.376   6.395 -22.085  1.00  0.00     0.020 C 
HETATM    7  C7  UNL     1      21.249   4.790 -22.366  1.00  0.00     0.032 A 
HETATM    8  C8  UNL     1      21.506   4.591 -23.698  1.00  0.00     0.091 A 
HETATM    9  C9  UNL     1      21.845   3.252 -23.840  1.00  0.00     0.172 A 
HETATM   10  N1  UNL     1      21.800   2.645 -22.646  1.00  0.00    -0.306 N 
HETATM   11  C20 UNL     1      21.439   3.571 -21.745  1.00  0.00     0.153 A 
HETATM   12  N3  UNL     1      21.381   5.675 -24.601  1.00  0.00    -0.382 N 
ATOM     13  H3  UNL     1      21.196   5.484 -25.586  1.00  0.00     0.160 HD
ENDROOT
BRANCH  10  14
HETATM   14  C10 UNL     1      22.097   1.234 -22.466  1.00  0.00     0.133 C 
BRANCH  14  15
HETATM   15  C11 UNL     1      23.201   0.965 -21.505  1.00  0.00     0.022 C 
BRANCH  15  16
HETATM   16  C12 UNL     1      23.447  -0.548 -21.499  1.00  0.00     0.032 C 
BRANCH  16  17
HETATM   17  C13 UNL     1      24.572  -0.902 -20.565  1.00  0.00     0.272 C 
BRANCH  17  18
HETATM   18  N2  UNL     1      24.447  -2.303 -20.215  1.00  0.00     0.088 N 
HETATM   19  C14 UNL     1      23.154  -2.832 -20.607  1.00  0.00     0.272 C 
HETATM   20  C15 UNL     1      22.752  -3.813 -19.526  1.00  0.00     0.030 C 
HETATM   21  C16 UNL     1      23.868  -4.857 -19.454  1.00  0.00     0.002 C 
HETATM   22  C17 UNL     1      24.239  -5.233 -20.853  1.00  0.00     0.002 C 
HETATM   23  C18 UNL     1      25.110  -4.268 -21.572  1.00  0.00     0.030 C 
HETATM   24  C19 UNL     1      25.537  -3.063 -20.783  1.00  0.00     0.272 C 
ENDBRANCH  17  18
ENDBRANCH  16  17
ENDBRANCH  15  16
ENDBRANCH  14  15
ENDBRANCH  10  14
BRANCH   9  25
HETATM   25  O1  UNL     1      22.175   2.691 -25.090  1.00  0.00    -0.344 OA
ATOM     26  H1  UNL     1      22.527   1.812 -25.172  1.00  0.00     0.219 HD
ENDBRANCH   9  25
BRANCH  11  27
HETATM   27  O2  UNL     1      21.279   3.352 -20.401  1.00  0.00    -0.345 OA
ATOM     28  H2  UNL     1      20.446   3.387 -19.947  1.00  0.00     0.219 HD
ENDBRANCH  11  27
TORSDOF 7
ENDMDL
MODEL 2
REMARK VINA RESULT: -7.482364863      5.635      7.658
REMARK  7 active torsions:
REMARK  status: ('A' for Active; 'I' for Inactive)
REMARK    1  A    between atoms: C9_9  and  O1_10 
REMARK    2  A    between atoms: N1_12  and  C10_13 
REMARK    3  A    between atoms: C10_13  and  C11_14 
REMARK    4  A    between atoms: C11_14  and  C12_15 
REMARK    5  A    between atoms: C12_15  and  C13_16 
REMARK    6  A    between atoms: C13_16  and  N2_17 
REMARK    7  A    between atoms: C20_24  and  O2_25 
ROOT
HETATM    1  C1  UNL     1      18.357   2.225 -11.948  1.00  0.00     0.032 C 
HETATM    2  C2  UNL     1      19.780   2.189 -12.470  1.00  0.00     0.079 C 
HETATM    3  C3  UNL     1      20.474   0.909 -12.169  1.00  0.00     0.038 C 
HETATM    4  C4  UNL     1      20.455  -0.066 -13.322  1.00  0.00    -0.012 C 
HETATM    5  C5  UNL     1      21.345  -1.254 -12.965  1.00  0.00     0.020 C 
HETATM    6  C6  UNL     1      19.045  -0.598 -13.459  1.00  0.00     0.020 C 
HETATM    7  C7  UNL     1      20.932   0.572 -14.571  1.00  0.00     0.032 A 
HETATM    8  C8  UNL     1      20.604   1.883 -14.804  1.00  0.00     0.091 A 
HETATM    9  C9  UNL     1      21.171   2.222 -16.026  1.00  0.00     0.172 A 
HETATM   10  N1  UNL     1      21.822   1.164 -16.531  1.00  0.00    -0.306 N 
HETATM   11  C20 UNL     1      21.682   0.158 -15.655  1.00  0.00     0.153 A 
HETATM   12  N3  UNL     1      19.818   2.583 -13.858  1.00  0.00    -0.382 N 
ATOM     13  H3  UNL     1      19.266   3.384 -14.164  1.00  0.00     0.160 HD
ENDROOT
BRANCH  10  14
HETATM   14  C10 UNL     1      22.516   1.200 -17.808  1.00  0.00     0.133 C 
BRANCH  14  15
HETATM   15  C11 UNL     1      22.845  -0.143 -18.356  1.00  0.00     0.022 C 
BRANCH  15  16
HETATM   16  C12 UNL     1      23.865   0.058 -19.482  1.00  0.00     0.032 C 
BRANCH  16  17
HETATM   17  C13 UNL     1      23.555  -0.840 -20.650  1.00  0.00     0.272 C 
BRANCH  17  18
HETATM   18  N2  UNL     1      23.910  -2.197 -20.286  1.00  0.00     0.088 N 
HETATM   19  C14 UNL     1      22.865  -3.133 -20.655  1.00  0.00     0.272 C 
HETATM   20  C15 UNL     1      22.827  -4.178 -19.559  1.00  0.00     0.030 C 
HETATM   21  C16 UNL     1      24.228  -4.787 -19.494  1.00  0.00     0.002 C 
HETATM   22  C17 UNL     1      24.689  -5.035 -20.895  1.00  0.00     0.002 C 
HETATM   23  C18 UNL     1      25.179  -3.844 -21.635  1.00  0.00     0.030 C 
HETATM   24  C19 UNL     1      25.185  -2.555 -20.863  1.00  0.00     0.272 C 
ENDBRANCH  17  18
ENDBRANCH  16  17
ENDBRANCH  15  16
ENDBRANCH  14  15
ENDBRANCH  10  14
BRANCH   9  25
HETATM   25  O1  UNL     1      21.036   3.508 -16.584  1.00  0.00    -0.344 OA
ATOM     26  H1  UNL     1      21.695   3.883 -17.156  1.00  0.00     0.219 HD
ENDBRANCH   9  25
BRANCH  11  27
HETATM   27  O2  UNL     1      22.204  -1.101 -15.801  1.00  0.00    -0.345 OA
ATOM     28  H2  UNL     1      22.490  -1.471 -16.628  1.00  0.00     0.219 HD
ENDBRANCH  11  27
TORSDOF 7
ENDMDL
MODEL 3
REMARK VINA RESULT: -7.411415816      9.655     14.122
REMARK  7 active torsions:
REMARK  status: ('A' for Active; 'I' for Inactive)
REMARK    1  A    between atoms: C9_9  and  O1_10 
REMARK    2  A    between atoms: N1_12  and  C10_13 
REMARK    3  A    between atoms: C10_13  and  C11_14 
REMARK    4  A    between atoms: C11_14  and  C12_15 
REMARK    5  A    between atoms: C12_15  and  C13_16 
REMARK    6  A    between atoms: C13_16  and  N2_17 
REMARK    7  A    between atoms: C20_24  and  O2_25 
ROOT
HETATM    1  C1  UNL     1      26.414  -1.655  -7.418  1.00  0.00     0.032 C 
HETATM    2  C2  UNL     1      25.720  -1.916  -8.740  1.00  0.00     0.079 C 
HETATM    3  C3  UNL     1      26.413  -2.939  -9.566  1.00  0.00     0.038 C 
HETATM    4  C4  UNL     1      25.811  -4.318  -9.439  1.00  0.00    -0.012 C 
HETATM    5  C5  UNL     1      26.481  -5.234 -10.460  1.00  0.00     0.020 C 
HETATM    6  C6  UNL     1      26.160  -4.854  -8.069  1.00  0.00     0.020 C 
HETATM    7  C7  UNL     1      24.347  -4.285  -9.666  1.00  0.00     0.032 A 
HETATM    8  C8  UNL     1      23.637  -3.205  -9.210  1.00  0.00     0.091 A 
HETATM    9  C9  UNL     1      22.310  -3.430  -9.552  1.00  0.00     0.172 A 
HETATM   10  N1  UNL     1      22.201  -4.603 -10.193  1.00  0.00    -0.306 N 
HETATM   11  C20 UNL     1      23.433  -5.129 -10.267  1.00  0.00     0.153 A 
HETATM   12  N3  UNL     1      24.313  -2.162  -8.531  1.00  0.00    -0.382 N 
ATOM     13  H3  UNL     1      23.795  -1.573  -7.881  1.00  0.00     0.160 HD
ENDROOT
BRANCH  10  14
HETATM   14  C10 UNL     1      20.933  -5.125 -10.674  1.00  0.00     0.133 C 
BRANCH  14  15
HETATM   15  C11 UNL     1      20.903  -5.392 -12.137  1.00  0.00     0.022 C 
BRANCH  15  16
HETATM   16  C12 UNL     1      20.946  -4.038 -12.853  1.00  0.00     0.032 C 
BRANCH  16  17
HETATM   17  C13 UNL     1      19.798  -3.168 -12.418  1.00  0.00     0.272 C 
BRANCH  17  18
HETATM   18  N2  UNL     1      19.947  -1.872 -13.048  1.00  0.00     0.088 N 
HETATM   19  C14 UNL     1      20.980  -1.086 -12.401  1.00  0.00     0.272 C 
HETATM   20  C15 UNL     1      20.498   0.350 -12.423  1.00  0.00     0.030 C 
HETATM   21  C16 UNL     1      20.261   0.703 -13.893  1.00  0.00     0.002 C 
HETATM   22  C17 UNL     1      21.415   0.178 -14.685  1.00  0.00     0.002 C 
HETATM   23  C18 UNL     1      21.393  -1.280 -14.973  1.00  0.00     0.030 C 
HETATM   24  C19 UNL     1      20.191  -2.025 -14.464  1.00  0.00     0.272 C 
ENDBRANCH  17  18
ENDBRANCH  16  17
ENDBRANCH  15  16
ENDBRANCH  14  15
ENDBRANCH  10  14
BRANCH   9  25
HETATM   25  O1  UNL     1      21.288  -2.513  -9.237  1.00  0.00    -0.344 OA
ATOM     26  H1  UNL     1      20.563  -2.342  -9.825  1.00  0.00     0.219 HD
ENDBRANCH   9  25
BRANCH  11  27
HETATM   27  O2  UNL     1      23.751  -6.327 -10.851  1.00  0.00    -0.345 OA
ATOM     28  H2  UNL     1      23.770  -7.160 -10.394  1.00  0.00     0.219 HD
ENDBRANCH  11  27
TORSDOF 7
ENDMDL
MODEL 4
REMARK VINA RESULT: -7.394690970      1.859      3.040
REMARK  7 active torsions:
REMARK  status: ('A' for Active; 'I' for Inactive)
REMARK    1  A    between atoms: C9_9  and  O1_10 
REMARK    2  A    between atoms: N1_12  and  C10_13 
REMARK    3  A    between atoms: C10_13  and  C11_14 
REMARK    4  A    between atoms: C11_14  and  C12_15 
REMARK    5  A    between atoms: C12_15  and  C13_16 
REMARK    6  A    between atoms: C13_16  and  N2_17 
REMARK    7  A    between atoms: C20_24  and  O2_25 
ROOT
HETATM    1  C1  UNL     1      19.819   6.707 -23.364  1.00  0.00     0.032 C 
HETATM    2  C2  UNL     1      19.774   5.344 -22.701  1.00  0.00     0.079 C 
HETATM    3  C3  UNL     1      20.276   4.256 -23.580  1.00  0.00     0.038 C 
HETATM    4  C4  UNL     1      21.717   3.890 -23.314  1.00  0.00    -0.012 C 
HETATM    5  C5  UNL     1      22.062   2.653 -24.140  1.00  0.00     0.020 C 
HETATM    6  C6  UNL     1      22.586   5.018 -23.827  1.00  0.00     0.020 C 
HETATM    7  C7  UNL     1      21.945   3.624 -21.875  1.00  0.00     0.032 A 
HETATM    8  C8  UNL     1      21.270   4.382 -20.953  1.00  0.00     0.091 A 
HETATM    9  C9  UNL     1      21.664   3.926 -19.701  1.00  0.00     0.172 A 
HETATM   10  N1  UNL     1      22.548   2.928 -19.841  1.00  0.00    -0.306 N 
HETATM   11  C20 UNL     1      22.725   2.737 -21.157  1.00  0.00     0.153 A 
HETATM   12  N3  UNL     1      20.389   5.397 -21.396  1.00  0.00    -0.382 N 
ATOM     13  H3  UNL     1      20.185   6.184 -20.780  1.00  0.00     0.160 HD
ENDROOT
BRANCH  10  14
HETATM   14  C10 UNL     1      23.154   2.246 -18.710  1.00  0.00     0.133 C 
BRANCH  14  15
HETATM   15  C11 UNL     1      22.322   1.148 -18.148  1.00  0.00     0.022 C 
BRANCH  15  16
HETATM   16  C12 UNL     1      23.119  -0.153 -18.294  1.00  0.00     0.032 C 
BRANCH  16  17
HETATM   17  C13 UNL     1      23.176  -0.585 -19.734  1.00  0.00     0.272 C 
BRANCH  17  18
HETATM   18  N2  UNL     1      23.819  -1.883 -19.793  1.00  0.00     0.088 N 
HETATM   19  C14 UNL     1      22.969  -2.863 -20.444  1.00  0.00     0.272 C 
HETATM   20  C15 UNL     1      23.199  -4.172 -19.717  1.00  0.00     0.030 C 
HETATM   21  C16 UNL     1      24.697  -4.465 -19.820  1.00  0.00     0.002 C 
HETATM   22  C17 UNL     1      25.128  -4.180 -21.223  1.00  0.00     0.002 C 
HETATM   23  C18 UNL     1      25.327  -2.747 -21.560  1.00  0.00     0.030 C 
HETATM   24  C19 UNL     1      25.109  -1.777 -20.433  1.00  0.00     0.272 C 
ENDBRANCH  17  18
ENDBRANCH  16  17
ENDBRANCH  15  16
ENDBRANCH  14  15
ENDBRANCH  10  14
BRANCH   9  25
HETATM   25  O1  UNL     1      21.163   4.484 -18.508  1.00  0.00    -0.344 OA
ATOM     26  H1  UNL     1      21.318   4.086 -17.661  1.00  0.00     0.219 HD
ENDBRANCH   9  25
BRANCH  11  27
HETATM   27  O2  UNL     1      23.553   1.802 -21.720  1.00  0.00    -0.345 OA
ATOM     28  H2  UNL     1      23.925   1.063 -21.253  1.00  0.00     0.219 HD
ENDBRANCH  11  27
TORSDOF 7
ENDMDL
MODEL 5
REMARK VINA RESULT: -7.326166713      1.918      2.448
REMARK  7 active torsions:
REMARK  status: ('A' for Active; 'I' for Inactive)
REMARK    1  A    between atoms: C9_9  and  O1_10 
REMARK    2  A    between atoms: N1_12  and  C10_13 
REMARK    3  A    between atoms: C10_13  and  C11_14 
REMARK    4  A    between atoms: C11_14  and  C12_15 
REMARK    5  A    between atoms: C12_15  and  C13_16 
REMARK    6  A    between atoms: C13_16  and  N2_17 
REMARK    7  A    between atoms: C20_24  and  O2_25 
ROOT
HETATM    1  C1  UNL     1      18.344   8.198 -23.626  1.00  0.00     0.032 C 
HETATM    2  C2  UNL     1      18.788   7.125 -22.651  1.00  0.00     0.079 C 
HETATM    3  C3  UNL     1      17.743   6.096 -22.408  1.00  0.00     0.038 C 
HETATM    4  C4  UNL     1      17.927   4.849 -23.240  1.00  0.00    -0.012 C 
HETATM    5  C5  UNL     1      16.914   3.805 -22.776  1.00  0.00     0.020 C 
HETATM    6  C6  UNL     1      17.584   5.190 -24.673  1.00  0.00     0.020 C 
HETATM    7  C7  UNL     1      19.304   4.318 -23.110  1.00  0.00     0.032 A 
HETATM    8  C8  UNL     1      20.343   5.207 -23.005  1.00  0.00     0.091 A 
HETATM    9  C9  UNL     1      21.502   4.451 -22.897  1.00  0.00     0.172 A 
HETATM   10  N1  UNL     1      21.196   3.146 -22.934  1.00  0.00    -0.306 N 
HETATM   11  C20 UNL     1      19.864   3.056 -23.063  1.00  0.00     0.153 A 
HETATM   12  N3  UNL     1      20.075   6.597 -23.034  1.00  0.00    -0.382 N 
ATOM     13  H3  UNL     1      20.809   7.240 -23.333  1.00  0.00     0.160 HD
ENDROOT
BRANCH  10  14
HETATM   14  C10 UNL     1      22.199   2.098 -22.850  1.00  0.00     0.133 C 
BRANCH  14  15
HETATM   15  C11 UNL     1      22.721   1.867 -21.476  1.00  0.00     0.022 C 
BRANCH  15  16
HETATM   16  C12 UNL     1      23.262   0.434 -21.424  1.00  0.00     0.032 C 
BRANCH  16  17
HETATM   17  C13 UNL     1      23.286  -0.076 -20.009  1.00  0.00     0.272 C 
BRANCH  17  18
HETATM   18  N2  UNL     1      23.914  -1.382 -20.008  1.00  0.00     0.088 N 
HETATM   19  C14 UNL     1      23.085  -2.367 -20.678  1.00  0.00     0.272 C 
HETATM   20  C15 UNL     1      23.262  -3.662 -19.912  1.00  0.00     0.030 C 
HETATM   21  C16 UNL     1      24.759  -3.974 -19.934  1.00  0.00     0.002 C 
HETATM   22  C17 UNL     1      25.262  -3.726 -21.320  1.00  0.00     0.002 C 
HETATM   23  C18 UNL     1      25.496  -2.304 -21.679  1.00  0.00     0.030 C 
HETATM   24  C19 UNL     1      25.235  -1.306 -20.586  1.00  0.00     0.272 C 
ENDBRANCH  17  18
ENDBRANCH  16  17
ENDBRANCH  15  16
ENDBRANCH  14  15
ENDBRANCH  10  14
BRANCH   9  25
HETATM   25  O1  UNL     1      22.775   5.043 -22.770  1.00  0.00    -0.344 OA
ATOM     26  H1  UNL     1      23.330   4.891 -22.015  1.00  0.00     0.219 HD
ENDBRANCH   9  25
BRANCH  11  27
HETATM   27  O2  UNL     1      19.150   1.888 -23.137  1.00  0.00    -0.345 OA
ATOM     28  H2  UNL     1      19.329   1.188 -23.753  1.00  0.00     0.219 HD
ENDBRANCH  11  27
TORSDOF 7
ENDMDL
