MODEL 1
REMARK VINA RESULT: -7.142240060      0.000      0.000
REMARK  11 active torsions:
REMARK  status: ('A' for Active; 'I' for Inactive)
REMARK    1  A    between atoms: O1_2  and  C2_3 
REMARK    2  A    between atoms: C2_3  and  C3_4 
REMARK    3  A    between atoms: C3_4  and  N1_5 
REMARK    4  A    between atoms: N1_5  and  C4_7 
REMARK    5  A    between atoms: C5_10  and  N3_11 
REMARK    6  A    between atoms: N3_11  and  C6_13 
REMARK    7  A    between atoms: C7_16  and  C8_17 
REMARK    8  A    between atoms: C11_21  and  O2_22 
REMARK    9  A    between atoms: O2_22  and  C12_23 
REMARK   10  A    between atoms: C18_36  and  N8_37 
REMARK   11  A    between atoms: C19_42  and  S2_43 
ROOT
HETATM    1  C6  UNL     1      -5.741  18.448  19.842  1.00  0.00     0.140 A 
HETATM    2  N4  UNL     1      -5.252  18.949  18.700  1.00  0.00    -0.325 N 
ATOM      3  H4  UNL     1      -4.366  18.587  18.348  1.00  0.00     0.169 HD
HETATM    4  C7  UNL     1      -5.870  19.891  18.011  1.00  0.00     0.125 A 
HETATM    5  N6  UNL     1      -7.032  20.387  18.443  1.00  0.00    -0.328 N 
ATOM      6  H6  UNL     1      -7.500  21.115  17.902  1.00  0.00     0.168 HD
HETATM    7  C17 UNL     1      -7.589  19.944  19.573  1.00  0.00     0.150 A 
HETATM    8  N7  UNL     1      -8.822  20.512  19.979  1.00  0.00    -0.080 NA
HETATM    9  C18 UNL     1      -6.941  18.964  20.285  1.00  0.00     0.133 A 
ENDROOT
BRANCH   1  10
HETATM   10  N3  UNL     1      -5.175  17.550  20.529  1.00  0.00    -0.325 N 
ATOM     11  H3  UNL     1      -5.224  17.656  21.542  1.00  0.00     0.169 HD
BRANCH  10  12
HETATM   12  C5  UNL     1      -4.488  16.424  20.053  1.00  0.00     0.142 A 
HETATM   13  N2  UNL     1      -5.025  15.656  19.084  1.00  0.00    -0.175 N 
HETATM   14  C4  UNL     1      -4.397  14.567  18.599  1.00  0.00     0.681 A 
ATOM     15  H2  UNL     1      -5.937  15.909  18.704  1.00  0.00     0.186 HD
HETATM   16  N11 UNL     1      -3.199  14.261  19.119  1.00  0.00    -0.177 N 
HETATM   17  C21 UNL     1      -2.613  14.989  20.088  1.00  0.00     0.152 A 
ATOM     18  H11 UNL     1      -2.709  13.439  18.764  1.00  0.00     0.185 HD
HETATM   19  C19 UNL     1      -3.239  16.103  20.594  1.00  0.00     0.086 A 
HETATM   20  N10 UNL     1      -1.331  14.605  20.594  1.00  0.00    -0.081 NA
BRANCH  14  21
HETATM   21  N1  UNL     1      -4.971  13.871  17.665  1.00  0.00    -0.224 N 
ATOM     22  H1  UNL     1      -5.928  14.116  17.413  1.00  0.00     0.177 HD
BRANCH  21  23
HETATM   23  C3  UNL     1      -4.358  12.791  16.967  1.00  0.00     0.164 C 
BRANCH  23  24
HETATM   24  C2  UNL     1      -4.001  13.154  15.541  1.00  0.00     0.187 C 
BRANCH  24  25
HETATM   25  O1  UNL     1      -2.817  13.870  15.451  1.00  0.00    -0.394 OA
HETATM   26  C1  UNL     1      -2.854  14.640  14.310  1.00  0.00     0.201 C 
ENDBRANCH  24  25
ENDBRANCH  23  24
ENDBRANCH  21  23
ENDBRANCH  14  21
BRANCH  19  27
HETATM   27  S2  UNL     1      -2.532  17.113  21.875  1.00  0.00    -0.127 SA
HETATM   28  C20 UNL     1      -2.740  16.418  23.512  1.00  0.00     0.096 C 
ENDBRANCH  19  27
ENDBRANCH  10  12
ENDBRANCH   1  10
BRANCH   9  29
HETATM   29  N8  UNL     1      -7.555  18.509  21.487  1.00  0.00    -0.301 N 
HETATM   30  N9  UNL     1      -7.437  19.217  22.535  1.00  0.00    -0.344 N 
ATOM     31  H92 UNL     1      -6.911  20.090  22.500  1.00  0.00     0.176 HD
ATOM     32  H91 UNL     1      -7.877  18.891  23.396  1.00  0.00     0.176 HD
ATOM     33  H8  UNL     1      -8.078  17.634  21.505  1.00  0.00     0.186 HD
ENDBRANCH   9  29
BRANCH   4  34
HETATM   34  C8  UNL     1      -5.311  20.430  16.748  1.00  0.00     0.053 A 
HETATM   35  C9  UNL     1      -4.065  20.234  16.225  1.00  0.00     0.050 A 
HETATM   36  C10 UNL     1      -3.776  20.832  15.055  1.00  0.00     0.075 A 
HETATM   37 CL1  UNL     1      -2.174  20.663  14.250  1.00  0.00    -0.081 Cl
HETATM   38  C11 UNL     1      -4.729  21.591  14.464  1.00  0.00     0.132 A 
HETATM   39  S1  UNL     1      -6.043  21.447  15.591  1.00  0.00    -0.060 SA
BRANCH  38  40
HETATM   40  O2  UNL     1      -4.863  22.338  13.338  1.00  0.00    -0.335 OA
BRANCH  40  41
HETATM   41  C12 UNL     1      -5.916  22.719  12.538  1.00  0.00     0.155 C 
HETATM   42  C13 UNL     1      -5.393  23.753  11.571  1.00  0.00     0.036 C 
HETATM   43  C14 UNL     1      -6.082  23.763  10.255  1.00  0.00     0.030 C 
HETATM   44  C15 UNL     1      -7.448  23.127  10.422  1.00  0.00     0.232 C 
HETATM   45  N5  UNL     1      -7.212  21.724  10.691  1.00  0.00    -0.073 N 
HETATM   46  C16 UNL     1      -6.437  21.483  11.855  1.00  0.00     0.264 C 
ATOM     47  H52 UNL     1      -8.094  21.213  10.736  1.00  0.00     0.277 HD
ATOM     48  H51 UNL     1      -6.792  21.269   9.880  1.00  0.00     0.277 HD
ENDBRANCH  40  41
ENDBRANCH  38  40
ENDBRANCH   4  34
TORSDOF 11
ENDMDL
MODEL 2
REMARK VINA RESULT: -6.924263110      1.406      1.769
REMARK  11 active torsions:
REMARK  status: ('A' for Active; 'I' for Inactive)
REMARK    1  A    between atoms: O1_2  and  C2_3 
REMARK    2  A    between atoms: C2_3  and  C3_4 
REMARK    3  A    between atoms: C3_4  and  N1_5 
REMARK    4  A    between atoms: N1_5  and  C4_7 
REMARK    5  A    between atoms: C5_10  and  N3_11 
REMARK    6  A    between atoms: N3_11  and  C6_13 
REMARK    7  A    between atoms: C7_16  and  C8_17 
REMARK    8  A    between atoms: C11_21  and  O2_22 
REMARK    9  A    between atoms: O2_22  and  C12_23 
REMARK   10  A    between atoms: C18_36  and  N8_37 
REMARK   11  A    between atoms: C19_42  and  S2_43 
ROOT
HETATM    1  C6  UNL     1      -5.750  18.469  19.801  1.00  0.00     0.140 A 
HETATM    2  N4  UNL     1      -5.261  18.954  18.652  1.00  0.00    -0.325 N 
ATOM      3  H4  UNL     1      -4.379  18.582  18.301  1.00  0.00     0.169 HD
HETATM    4  C7  UNL     1      -5.873  19.895  17.957  1.00  0.00     0.125 A 
HETATM    5  N6  UNL     1      -7.029  20.406  18.387  1.00  0.00    -0.328 N 
ATOM      6  H6  UNL     1      -7.492  21.133  17.841  1.00  0.00     0.168 HD
HETATM    7  C17 UNL     1      -7.587  19.979  19.524  1.00  0.00     0.150 A 
HETATM    8  N7  UNL     1      -8.812  20.561  19.928  1.00  0.00    -0.080 NA
HETATM    9  C18 UNL     1      -6.944  19.000  20.243  1.00  0.00     0.133 A 
ENDROOT
BRANCH   1  10
HETATM   10  N3  UNL     1      -5.190  17.572  20.495  1.00  0.00    -0.325 N 
ATOM     11  H3  UNL     1      -5.201  17.708  21.505  1.00  0.00     0.169 HD
BRANCH  10  12
HETATM   12  C5  UNL     1      -4.557  16.411  20.028  1.00  0.00     0.142 A 
HETATM   13  N2  UNL     1      -5.149  15.637  19.099  1.00  0.00    -0.175 N 
HETATM   14  C4  UNL     1      -4.574  14.514  18.625  1.00  0.00     0.681 A 
ATOM     15  H2  UNL     1      -6.064  15.909  18.741  1.00  0.00     0.186 HD
HETATM   16  N11 UNL     1      -3.369  14.182  19.115  1.00  0.00    -0.177 N 
HETATM   17  C21 UNL     1      -2.729  14.916  20.045  1.00  0.00     0.152 A 
ATOM     18  H11 UNL     1      -2.919  13.335  18.768  1.00  0.00     0.185 HD
HETATM   19  C19 UNL     1      -3.302  16.064  20.539  1.00  0.00     0.086 A 
HETATM   20  N10 UNL     1      -1.445  14.502  20.521  1.00  0.00    -0.081 NA
BRANCH  14  21
HETATM   21  N1  UNL     1      -5.200  13.813  17.729  1.00  0.00    -0.224 N 
ATOM     22  H1  UNL     1      -4.910  13.920  16.758  1.00  0.00     0.177 HD
BRANCH  21  23
HETATM   23  C3  UNL     1      -6.262  12.906  18.007  1.00  0.00     0.164 C 
BRANCH  23  24
HETATM   24  C2  UNL     1      -7.604  13.428  17.538  1.00  0.00     0.187 C 
BRANCH  24  25
HETATM   25  O1  UNL     1      -8.009  14.560  18.228  1.00  0.00    -0.394 OA
HETATM   26  C1  UNL     1      -8.485  14.177  19.463  1.00  0.00     0.201 C 
ENDBRANCH  24  25
ENDBRANCH  23  24
ENDBRANCH  21  23
ENDBRANCH  14  21
BRANCH  19  27
HETATM   27  S2  UNL     1      -2.520  17.083  21.768  1.00  0.00    -0.127 SA
HETATM   28  C20 UNL     1      -2.828  16.524  23.442  1.00  0.00     0.096 C 
ENDBRANCH  19  27
ENDBRANCH  10  12
ENDBRANCH   1  10
BRANCH   9  29
HETATM   29  N8  UNL     1      -7.558  18.562  21.451  1.00  0.00    -0.301 N 
HETATM   30  N9  UNL     1      -7.452  19.290  22.486  1.00  0.00    -0.344 N 
ATOM     31  H92 UNL     1      -6.935  20.168  22.436  1.00  0.00     0.176 HD
ATOM     32  H91 UNL     1      -7.891  18.976  23.351  1.00  0.00     0.176 HD
ATOM     33  H8  UNL     1      -8.072  17.681  21.484  1.00  0.00     0.186 HD
ENDBRANCH   9  29
BRANCH   4  34
HETATM   34  C8  UNL     1      -5.313  20.418  16.686  1.00  0.00     0.053 A 
HETATM   35  C9  UNL     1      -4.076  20.193  16.154  1.00  0.00     0.050 A 
HETATM   36  C10 UNL     1      -3.785  20.780  14.979  1.00  0.00     0.075 A 
HETATM   37 CL1  UNL     1      -2.194  20.573  14.161  1.00  0.00    -0.081 Cl
HETATM   38  C11 UNL     1      -4.726  21.558  14.393  1.00  0.00     0.132 A 
HETATM   39  S1  UNL     1      -6.033  21.445  15.532  1.00  0.00    -0.060 SA
BRANCH  38  40
HETATM   40  O2  UNL     1      -4.854  22.303  13.266  1.00  0.00    -0.335 OA
BRANCH  40  41
HETATM   41  C12 UNL     1      -5.907  22.722  12.486  1.00  0.00     0.155 C 
HETATM   42  C13 UNL     1      -5.380  23.787  11.555  1.00  0.00     0.036 C 
HETATM   43  C14 UNL     1      -6.076  23.851  10.244  1.00  0.00     0.030 C 
HETATM   44  C15 UNL     1      -7.447  23.222  10.395  1.00  0.00     0.232 C 
HETATM   45  N5  UNL     1      -7.222  21.807  10.611  1.00  0.00    -0.073 N 
HETATM   46  C16 UNL     1      -6.443  21.518  11.761  1.00  0.00     0.264 C 
ATOM     47  H52 UNL     1      -8.109  21.304  10.642  1.00  0.00     0.277 HD
ATOM     48  H51 UNL     1      -6.811  21.379   9.782  1.00  0.00     0.277 HD
ENDBRANCH  40  41
ENDBRANCH  38  40
ENDBRANCH   4  34
TORSDOF 11
ENDMDL
MODEL 3
REMARK VINA RESULT: -6.763483271      3.148      7.638
REMARK  11 active torsions:
REMARK  status: ('A' for Active; 'I' for Inactive)
REMARK    1  A    between atoms: O1_2  and  C2_3 
REMARK    2  A    between atoms: C2_3  and  C3_4 
REMARK    3  A    between atoms: C3_4  and  N1_5 
REMARK    4  A    between atoms: N1_5  and  C4_7 
REMARK    5  A    between atoms: C5_10  and  N3_11 
REMARK    6  A    between atoms: N3_11  and  C6_13 
REMARK    7  A    between atoms: C7_16  and  C8_17 
REMARK    8  A    between atoms: C11_21  and  O2_22 
REMARK    9  A    between atoms: O2_22  and  C12_23 
REMARK   10  A    between atoms: C18_36  and  N8_37 
REMARK   11  A    between atoms: C19_42  and  S2_43 
ROOT
HETATM    1  C6  UNL     1      -4.883  16.854  19.769  1.00  0.00     0.140 A 
HETATM    2  N4  UNL     1      -4.997  16.020  18.727  1.00  0.00    -0.325 N 
ATOM      3  H4  UNL     1      -5.727  16.195  18.038  1.00  0.00     0.169 HD
HETATM    4  C7  UNL     1      -4.202  14.979  18.557  1.00  0.00     0.125 A 
HETATM    5  N6  UNL     1      -3.236  14.718  19.440  1.00  0.00    -0.328 N 
ATOM      6  H6  UNL     1      -2.628  13.911  19.298  1.00  0.00     0.168 HD
HETATM    7  C17 UNL     1      -3.053  15.501  20.508  1.00  0.00     0.150 A 
HETATM    8  N7  UNL     1      -2.012  15.171  21.409  1.00  0.00    -0.080 NA
HETATM    9  C18 UNL     1      -3.884  16.582  20.679  1.00  0.00     0.133 A 
ENDROOT
BRANCH   1  10
HETATM   10  N3  UNL     1      -5.628  17.858  19.966  1.00  0.00    -0.325 N 
ATOM     11  H3  UNL     1      -6.086  17.910  20.875  1.00  0.00     0.169 HD
BRANCH  10  12
HETATM   12  C5  UNL     1      -5.892  18.906  19.073  1.00  0.00     0.142 A 
HETATM   13  N2  UNL     1      -4.985  19.252  18.139  1.00  0.00    -0.175 N 
HETATM   14  C4  UNL     1      -5.201  20.253  17.262  1.00  0.00     0.681 A 
ATOM     15  H2  UNL     1      -4.105  18.738  18.092  1.00  0.00     0.186 HD
HETATM   16  N11 UNL     1      -6.368  20.910  17.349  1.00  0.00    -0.177 N 
HETATM   17  C21 UNL     1      -7.311  20.610  18.261  1.00  0.00     0.152 A 
ATOM     18  H11 UNL     1      -6.548  21.671  16.694  1.00  0.00     0.185 HD
HETATM   19  C19 UNL     1      -7.108  19.592  19.162  1.00  0.00     0.086 A 
HETATM   20  N10 UNL     1      -8.534  21.352  18.295  1.00  0.00    -0.081 NA
BRANCH  14  21
HETATM   21  N1  UNL     1      -4.284  20.534  16.387  1.00  0.00    -0.224 N 
ATOM     22  H1  UNL     1      -3.313  20.516  16.696  1.00  0.00     0.177 HD
BRANCH  21  23
HETATM   23  C3  UNL     1      -4.540  20.867  15.025  1.00  0.00     0.164 C 
BRANCH  23  24
HETATM   24  C2  UNL     1      -4.535  19.650  14.124  1.00  0.00     0.187 C 
BRANCH  24  25
HETATM   25  O1  UNL     1      -5.320  19.817  12.994  1.00  0.00    -0.394 OA
HETATM   26  C1  UNL     1      -6.061  20.969  13.138  1.00  0.00     0.201 C 
ENDBRANCH  24  25
ENDBRANCH  23  24
ENDBRANCH  21  23
ENDBRANCH  14  21
BRANCH  19  27
HETATM   27  S2  UNL     1      -8.304  19.139  20.398  1.00  0.00    -0.127 SA
HETATM   28  C20 UNL     1      -9.562  18.025  19.781  1.00  0.00     0.096 C 
ENDBRANCH  19  27
ENDBRANCH  10  12
ENDBRANCH   1  10
BRANCH   9  29
HETATM   29  N8  UNL     1      -3.670  17.400  21.825  1.00  0.00    -0.301 N 
HETATM   30  N9  UNL     1      -2.596  18.073  21.900  1.00  0.00    -0.344 N 
ATOM     31  H92 UNL     1      -1.910  18.017  21.146  1.00  0.00     0.176 HD
ATOM     32  H91 UNL     1      -2.443  18.659  22.720  1.00  0.00     0.176 HD
ATOM     33  H8  UNL     1      -4.366  17.445  22.570  1.00  0.00     0.186 HD
ENDBRANCH   9  29
BRANCH   4  34
HETATM   34  C8  UNL     1      -4.346  14.067  17.395  1.00  0.00     0.053 A 
HETATM   35  C9  UNL     1      -3.516  13.933  16.320  1.00  0.00     0.050 A 
HETATM   36  C10 UNL     1      -3.853  13.034  15.377  1.00  0.00     0.075 A 
HETATM   37 CL1  UNL     1      -2.855  12.754  13.905  1.00  0.00    -0.081 Cl
HETATM   38  C11 UNL     1      -4.990  12.317  15.545  1.00  0.00     0.132 A 
HETATM   39  S1  UNL     1      -5.575  12.934  17.059  1.00  0.00    -0.060 SA
BRANCH  38  40
HETATM   40  O2  UNL     1      -5.676  11.354  14.879  1.00  0.00    -0.335 OA
BRANCH  40  41
HETATM   41  C12 UNL     1      -6.471  11.319  13.757  1.00  0.00     0.155 C 
HETATM   42  C13 UNL     1      -6.987  12.718  13.528  1.00  0.00     0.036 C 
HETATM   43  C14 UNL     1      -7.229  13.056  12.102  1.00  0.00     0.030 C 
HETATM   44  C15 UNL     1      -7.413  11.766  11.327  1.00  0.00     0.232 C 
HETATM   45  N5  UNL     1      -6.124  11.107  11.324  1.00  0.00    -0.073 N 
HETATM   46  C16 UNL     1      -5.627  10.809  12.619  1.00  0.00     0.264 C 
ATOM     47  H52 UNL     1      -6.153  10.265  10.749  1.00  0.00     0.277 HD
ATOM     48  H51 UNL     1      -5.443  11.652  10.796  1.00  0.00     0.277 HD
ENDBRANCH  40  41
ENDBRANCH  38  40
ENDBRANCH   4  34
TORSDOF 11
ENDMDL
MODEL 4
REMARK VINA RESULT: -6.731156133      3.550      7.338
REMARK  11 active torsions:
REMARK  status: ('A' for Active; 'I' for Inactive)
REMARK    1  A    between atoms: O1_2  and  C2_3 
REMARK    2  A    between atoms: C2_3  and  C3_4 
REMARK    3  A    between atoms: C3_4  and  N1_5 
REMARK    4  A    between atoms: N1_5  and  C4_7 
REMARK    5  A    between atoms: C5_10  and  N3_11 
REMARK    6  A    between atoms: N3_11  and  C6_13 
REMARK    7  A    between atoms: C7_16  and  C8_17 
REMARK    8  A    between atoms: C11_21  and  O2_22 
REMARK    9  A    between atoms: O2_22  and  C12_23 
REMARK   10  A    between atoms: C18_36  and  N8_37 
REMARK   11  A    between atoms: C19_42  and  S2_43 
ROOT
HETATM    1  C6  UNL     1      -7.975  20.027  19.503  1.00  0.00     0.140 A 
HETATM    2  N4  UNL     1      -7.371  20.472  18.393  1.00  0.00    -0.325 N 
ATOM      3  H4  UNL     1      -7.858  21.154  17.812  1.00  0.00     0.169 HD
HETATM    4  C7  UNL     1      -6.172  20.063  18.020  1.00  0.00     0.125 A 
HETATM    5  N6  UNL     1      -5.506  19.171  18.757  1.00  0.00    -0.328 N 
ATOM      6  H6  UNL     1      -4.580  18.863  18.458  1.00  0.00     0.168 HD
HETATM    7  C17 UNL     1      -6.035  18.676  19.879  1.00  0.00     0.150 A 
HETATM    8  N7  UNL     1      -5.280  17.732  20.615  1.00  0.00    -0.080 NA
HETATM    9  C18 UNL     1      -7.284  19.105  20.261  1.00  0.00     0.133 A 
ENDROOT
BRANCH   1  10
HETATM   10  N3  UNL     1      -9.122  20.392  19.888  1.00  0.00    -0.325 N 
ATOM     11  H3  UNL     1      -9.322  20.285  20.882  1.00  0.00     0.169 HD
BRANCH  10  12
HETATM   12  C5  UNL     1     -10.151  20.930  19.101  1.00  0.00     0.142 A 
HETATM   13  N2  UNL     1     -10.103  22.215  18.700  1.00  0.00    -0.175 N 
HETATM   14  C4  UNL     1     -11.070  22.769  17.942  1.00  0.00     0.681 A 
ATOM     15  H2  UNL     1      -9.307  22.789  18.979  1.00  0.00     0.186 HD
HETATM   16  N11 UNL     1     -12.104  21.988  17.591  1.00  0.00    -0.177 N 
HETATM   17  C21 UNL     1     -12.206  20.698  17.962  1.00  0.00     0.152 A 
ATOM     18  H11 UNL     1     -12.845  22.391  17.018  1.00  0.00     0.185 HD
HETATM   19  C19 UNL     1     -11.229  20.117  18.734  1.00  0.00     0.086 A 
HETATM   20  N10 UNL     1     -13.337  19.924  17.549  1.00  0.00    -0.081 NA
BRANCH  14  21
HETATM   21  N1  UNL     1     -10.962  24.014  17.590  1.00  0.00    -0.224 N 
ATOM     22  H1  UNL     1     -10.253  24.250  16.897  1.00  0.00     0.177 HD
BRANCH  21  23
HETATM   23  C3  UNL     1     -11.763  25.074  18.105  1.00  0.00     0.164 C 
BRANCH  23  24
HETATM   24  C2  UNL     1     -11.887  25.023  19.612  1.00  0.00     0.187 C 
BRANCH  24  25
HETATM   25  O1  UNL     1     -10.663  24.888  20.247  1.00  0.00    -0.394 OA
HETATM   26  C1  UNL     1     -10.877  24.407  21.520  1.00  0.00     0.201 C 
ENDBRANCH  24  25
ENDBRANCH  23  24
ENDBRANCH  21  23
ENDBRANCH  14  21
BRANCH  19  27
HETATM   27  S2  UNL     1     -11.295  18.422  19.266  1.00  0.00    -0.127 SA
HETATM   28  C20 UNL     1     -10.292  17.332  18.260  1.00  0.00     0.096 C 
ENDBRANCH  19  27
ENDBRANCH  10  12
ENDBRANCH   1  10
BRANCH   9  29
HETATM   29  N8  UNL     1      -7.827  18.562  21.460  1.00  0.00    -0.301 N 
HETATM   30  N9  UNL     1      -7.307  18.898  22.569  1.00  0.00    -0.344 N 
ATOM     31  H92 UNL     1      -6.518  19.543  22.583  1.00  0.00     0.176 HD
ATOM     32  H91 UNL     1      -7.697  18.509  23.428  1.00  0.00     0.176 HD
ATOM     33  H8  UNL     1      -8.617  17.918  21.429  1.00  0.00     0.186 HD
ENDBRANCH   9  29
BRANCH   4  34
HETATM   34  C8  UNL     1      -5.522  20.569  16.786  1.00  0.00     0.053 A 
HETATM   35  C9  UNL     1      -4.208  20.482  16.428  1.00  0.00     0.050 A 
HETATM   36  C10 UNL     1      -3.843  21.021  15.251  1.00  0.00     0.075 A 
HETATM   37 CL1  UNL     1      -2.145  20.983  14.653  1.00  0.00    -0.081 Cl
HETATM   38  C11 UNL     1      -4.792  21.617  14.491  1.00  0.00     0.132 A 
HETATM   39  S1  UNL     1      -6.211  21.403  15.468  1.00  0.00    -0.060 SA
BRANCH  38  40
HETATM   40  O2  UNL     1      -4.866  22.257  13.296  1.00  0.00    -0.335 OA
BRANCH  40  41
HETATM   41  C12 UNL     1      -5.886  22.716  12.495  1.00  0.00     0.155 C 
HETATM   42  C13 UNL     1      -5.292  23.728  11.546  1.00  0.00     0.036 C 
HETATM   43  C14 UNL     1      -5.969  23.801  10.226  1.00  0.00     0.030 C 
HETATM   44  C15 UNL     1      -7.374  23.251  10.376  1.00  0.00     0.232 C 
HETATM   45  N5  UNL     1      -7.230  21.832  10.625  1.00  0.00    -0.073 N 
HETATM   46  C16 UNL     1      -6.480  21.526  11.790  1.00  0.00     0.264 C 
ATOM     47  H52 UNL     1      -8.143  21.378  10.657  1.00  0.00     0.277 HD
ATOM     48  H51 UNL     1      -6.834  21.363   9.811  1.00  0.00     0.277 HD
ENDBRANCH  40  41
ENDBRANCH  38  40
ENDBRANCH   4  34
TORSDOF 11
ENDMDL
MODEL 5
REMARK VINA RESULT: -6.651183197      1.074      1.139
REMARK  11 active torsions:
REMARK  status: ('A' for Active; 'I' for Inactive)
REMARK    1  A    between atoms: O1_2  and  C2_3 
REMARK    2  A    between atoms: C2_3  and  C3_4 
REMARK    3  A    between atoms: C3_4  and  N1_5 
REMARK    4  A    between atoms: N1_5  and  C4_7 
REMARK    5  A    between atoms: C5_10  and  N3_11 
REMARK    6  A    between atoms: N3_11  and  C6_13 
REMARK    7  A    between atoms: C7_16  and  C8_17 
REMARK    8  A    between atoms: C11_21  and  O2_22 
REMARK    9  A    between atoms: O2_22  and  C12_23 
REMARK   10  A    between atoms: C18_36  and  N8_37 
REMARK   11  A    between atoms: C19_42  and  S2_43 
ROOT
HETATM    1  C6  UNL     1      -5.631  18.577  19.807  1.00  0.00     0.140 A 
HETATM    2  N4  UNL     1      -5.155  19.052  18.648  1.00  0.00    -0.325 N 
ATOM      3  H4  UNL     1      -4.245  18.726  18.323  1.00  0.00     0.169 HD
HETATM    4  C7  UNL     1      -5.816  19.925  17.910  1.00  0.00     0.125 A 
HETATM    5  N6  UNL     1      -7.009  20.374  18.305  1.00  0.00    -0.328 N 
ATOM      6  H6  UNL     1      -7.510  21.049  17.726  1.00  0.00     0.168 HD
HETATM    7  C17 UNL     1      -7.557  19.952  19.448  1.00  0.00     0.150 A 
HETATM    8  N7  UNL     1      -8.824  20.467  19.813  1.00  0.00    -0.080 NA
HETATM    9  C18 UNL     1      -6.864  19.044  20.212  1.00  0.00     0.133 A 
ENDROOT
BRANCH   1  10
HETATM   10  N3  UNL     1      -5.026  17.744  20.541  1.00  0.00    -0.325 N 
ATOM     11  H3  UNL     1      -4.644  18.104  21.415  1.00  0.00     0.169 HD
BRANCH  10  12
HETATM   12  C5  UNL     1      -4.821  16.380  20.287  1.00  0.00     0.142 A 
HETATM   13  N2  UNL     1      -4.492  15.958  19.051  1.00  0.00    -0.175 N 
HETATM   14  C4  UNL     1      -4.287  14.657  18.765  1.00  0.00     0.681 A 
ATOM     15  H2  UNL     1      -4.394  16.647  18.305  1.00  0.00     0.186 HD
HETATM   16  N11 UNL     1      -4.423  13.775  19.767  1.00  0.00    -0.177 N 
HETATM   17  C21 UNL     1      -4.751  14.138  21.022  1.00  0.00     0.152 A 
ATOM     18  H11 UNL     1      -4.272  12.786  19.570  1.00  0.00     0.185 HD
HETATM   19  C19 UNL     1      -4.963  15.460  21.331  1.00  0.00     0.086 A 
HETATM   20  N10 UNL     1      -4.877  13.142  22.043  1.00  0.00    -0.081 NA
BRANCH  14  21
HETATM   21  N1  UNL     1      -3.972  14.319  17.552  1.00  0.00    -0.224 N 
ATOM     22  H1  UNL     1      -4.332  14.894  16.792  1.00  0.00     0.177 HD
BRANCH  21  23
HETATM   23  C3  UNL     1      -3.158  13.201  17.208  1.00  0.00     0.164 C 
BRANCH  23  24
HETATM   24  C2  UNL     1      -2.768  13.200  15.746  1.00  0.00     0.187 C 
BRANCH  24  25
HETATM   25  O1  UNL     1      -3.532  14.072  14.986  1.00  0.00    -0.394 OA
HETATM   26  C1  UNL     1      -2.692  14.802  14.175  1.00  0.00     0.201 C 
ENDBRANCH  24  25
ENDBRANCH  23  24
ENDBRANCH  21  23
ENDBRANCH  14  21
BRANCH  19  27
HETATM   27  S2  UNL     1      -5.401  16.015  22.962  1.00  0.00    -0.127 SA
HETATM   28  C20 UNL     1      -4.010  16.674  23.876  1.00  0.00     0.096 C 
ENDBRANCH  19  27
ENDBRANCH  10  12
ENDBRANCH   1  10
BRANCH   9  29
HETATM   29  N8  UNL     1      -7.468  18.610  21.426  1.00  0.00    -0.301 N 
HETATM   30  N9  UNL     1      -7.456  19.394  22.425  1.00  0.00    -0.344 N 
ATOM     31  H92 UNL     1      -7.019  20.312  22.343  1.00  0.00     0.176 HD
ATOM     32  H91 UNL     1      -7.889  19.083  23.295  1.00  0.00     0.176 HD
ATOM     33  H8  UNL     1      -7.901  17.689  21.492  1.00  0.00     0.186 HD
ENDBRANCH   9  29
BRANCH   4  34
HETATM   34  C8  UNL     1      -5.269  20.438  16.629  1.00  0.00     0.053 A 
HETATM   35  C9  UNL     1      -4.035  20.215  16.089  1.00  0.00     0.050 A 
HETATM   36  C10 UNL     1      -3.758  20.792  14.905  1.00  0.00     0.075 A 
HETATM   37 CL1  UNL     1      -2.172  20.587  14.078  1.00  0.00    -0.081 Cl
HETATM   38  C11 UNL     1      -4.709  21.556  14.319  1.00  0.00     0.132 A 
HETATM   39  S1  UNL     1      -6.006  21.447  15.469  1.00  0.00    -0.060 SA
BRANCH  38  40
HETATM   40  O2  UNL     1      -4.852  22.287  13.184  1.00  0.00    -0.335 OA
BRANCH  40  41
HETATM   41  C12 UNL     1      -5.917  22.748  12.446  1.00  0.00     0.155 C 
HETATM   42  C13 UNL     1      -5.397  23.830  11.532  1.00  0.00     0.036 C 
HETATM   43  C14 UNL     1      -6.125  23.946  10.243  1.00  0.00     0.030 C 
HETATM   44  C15 UNL     1      -7.502  23.335  10.413  1.00  0.00     0.232 C 
HETATM   45  N5  UNL     1      -7.298  21.912  10.581  1.00  0.00    -0.073 N 
HETATM   46  C16 UNL     1      -6.494  21.574  11.701  1.00  0.00     0.264 C 
ATOM     47  H52 UNL     1      -8.193  21.423  10.622  1.00  0.00     0.277 HD
ATOM     48  H51 UNL     1      -6.916  21.501   9.729  1.00  0.00     0.277 HD
ENDBRANCH  40  41
ENDBRANCH  38  40
ENDBRANCH   4  34
TORSDOF 11
ENDMDL
