MODEL 1
REMARK VINA RESULT: -7.536503022      0.000      0.000
REMARK  12 active torsions:
REMARK  status: ('A' for Active; 'I' for Inactive)
REMARK    1  A    between atoms: C2_2  and  C3_7 
REMARK    2  A    between atoms: N1_3  and  O1_5 
REMARK    3  A    between atoms: C3_7  and  O2_8 
REMARK    4  A    between atoms: C3_7  and  C21_39 
REMARK    5  A    between atoms: O2_8  and  C4_9 
REMARK    6  A    between atoms: C4_9  and  C6_11 
REMARK    7  A    between atoms: C6_11  and  C7_12 
REMARK    8  A    between atoms: C8_13  and  O3_14 
REMARK    9  A    between atoms: C8_13  and  C9_16 
REMARK   10  A    between atoms: C13_22  and  C14_23 
REMARK   11  A    between atoms: N3_26  and  N4_28 
REMARK   12  A    between atoms: C23_42  and  N8_43 
ROOT
HETATM    1  C14 UNL     1      -4.951  21.508  14.008  1.00  0.00     0.141 C 
HETATM    2  C15 UNL     1      -5.979  21.488  15.092  1.00  0.00     0.120 C 
HETATM    3  N2  UNL     1      -6.762  21.454  15.934  1.00  0.00    -0.190 NA
HETATM    4  N3  UNL     1      -5.075  22.354  13.190  1.00  0.00    -0.288 N 
ATOM      5  H3  UNL     1      -5.916  22.823  13.528  1.00  0.00     0.188 HD
ENDROOT
BRANCH   1   6
HETATM    6  C13 UNL     1      -3.945  20.477  14.126  1.00  0.00     0.045 A 
HETATM    7  C12 UNL     1      -2.643  20.737  14.518  1.00  0.00     0.147 A 
HETATM    8  C11 UNL     1      -1.732  19.706  14.615  1.00  0.00     0.050 A 
HETATM    9  F1  UNL     1      -2.226  21.960  14.810  1.00  0.00    -0.204 F 
HETATM   10  S1  UNL     1       0.013  19.810  14.988  1.00  0.00    -0.125 SA
HETATM   11  C19 UNL     1      -2.163  18.505  14.324  1.00  0.00     0.011 A 
HETATM   12  C10 UNL     1       0.725  18.239  14.434  1.00  0.00     0.093 C 
HETATM   13  C9  UNL     1      -0.218  17.250  13.781  1.00  0.00     0.079 C 
HETATM   14  C20 UNL     1      -1.551  17.200  14.416  1.00  0.00     0.130 C 
HETATM   15  N7  UNL     1      -2.785  16.782  13.840  1.00  0.00    -0.380 N 
HETATM   16  C18 UNL     1      -3.368  18.106  13.931  1.00  0.00     0.039 A 
ATOM     17  H7  UNL     1      -3.129  15.886  13.493  1.00  0.00     0.160 HD
HETATM   18  C17 UNL     1      -4.283  19.124  13.832  1.00  0.00     0.047 A 
BRANCH  13  19
HETATM   19  C8  UNL     1       0.452  15.926  13.853  1.00  0.00     0.046 C 
HETATM   20  C7  UNL     1      -0.217  14.805  13.876  1.00  0.00     0.008 C 
BRANCH  20  21
HETATM   21  C6  UNL     1       0.428  13.494  13.945  1.00  0.00     0.061 C 
BRANCH  21  22
HETATM   22  C4  UNL     1       0.532  12.937  15.350  1.00  0.00     0.122 C 
HETATM   23  C5  UNL     1       1.798  12.123  15.515  1.00  0.00     0.040 C 
BRANCH  22  24
HETATM   24  O2  UNL     1      -0.529  12.153  15.699  1.00  0.00    -0.369 OA
BRANCH  24  25
HETATM   25  C3  UNL     1      -1.621  12.851  16.203  1.00  0.00     0.219 C 
BRANCH  25  26
HETATM   26  C2  UNL     1      -1.835  12.610  17.654  1.00  0.00     0.040 C 
HETATM   27  C1  UNL     1      -1.019  11.586  18.347  1.00  0.00     0.068 C 
HETATM   28  N1  UNL     1      -2.706  13.260  18.338  1.00  0.00    -0.275 N 
ATOM     29  H1  UNL     1      -3.280  13.971  17.883  1.00  0.00     0.193 HD
BRANCH  28  30
HETATM   30  O1  UNL     1      -2.869  13.004  19.672  1.00  0.00    -0.290 OA
ATOM     31  H1  UNL     1      -3.668  12.599  19.989  1.00  0.00     0.244 HD
ENDBRANCH  28  30
ENDBRANCH  25  26
BRANCH  25  32
HETATM   32  C21 UNL     1      -2.809  12.335  15.412  1.00  0.00     0.052 A 
HETATM   33  C22 UNL     1      -3.356  11.119  15.688  1.00  0.00     0.081 A 
HETATM   34  S2  UNL     1      -4.621  11.025  14.548  1.00  0.00    -0.064 SA
HETATM   35  C23 UNL     1      -4.383  12.530  13.792  1.00  0.00     0.142 A 
HETATM   36  N9  UNL     1      -3.342  13.046  14.442  1.00  0.00    -0.337 N 
ATOM     37  H9  UNL     1      -2.970  13.964  14.196  1.00  0.00     0.168 HD
BRANCH  35  38
HETATM   38  N8  UNL     1      -5.062  13.064  12.800  1.00  0.00    -0.380 N 
ATOM     39  H82 UNL     1      -5.907  13.632  12.852  1.00  0.00     0.158 HD
ATOM     40  H81 UNL     1      -4.871  13.009  11.799  1.00  0.00     0.158 HD
ENDBRANCH  35  38
ENDBRANCH  25  32
ENDBRANCH  24  25
ENDBRANCH  22  24
ENDBRANCH  21  22
ENDBRANCH  20  21
BRANCH  19  41
HETATM   41  O3  UNL     1       1.840  15.867  13.895  1.00  0.00    -0.365 OA
ATOM     42  H3  UNL     1       2.262  15.797  14.744  1.00  0.00     0.217 HD
ENDBRANCH  19  41
ENDBRANCH  13  19
ENDBRANCH   1   6
BRANCH   4  43
HETATM   43  N4  UNL     1      -4.819  23.048  12.148  1.00  0.00    -0.275 N 
HETATM   44  C16 UNL     1      -5.533  23.144  11.075  1.00  0.00     0.215 C 
HETATM   45  N5  UNL     1      -5.165  23.944   9.965  1.00  0.00    -0.065 NA
HETATM   46  N6  UNL     1      -6.749  22.394  11.037  1.00  0.00    -0.065 NA
ATOM     47  H4  UNL     1      -3.953  23.588  12.166  1.00  0.00     0.189 HD
ENDBRANCH   4  43
TORSDOF 12
ENDMDL
MODEL 2
REMARK VINA RESULT: -7.373080805      1.607      2.710
REMARK  12 active torsions:
REMARK  status: ('A' for Active; 'I' for Inactive)
REMARK    1  A    between atoms: C2_2  and  C3_7 
REMARK    2  A    between atoms: N1_3  and  O1_5 
REMARK    3  A    between atoms: C3_7  and  O2_8 
REMARK    4  A    between atoms: C3_7  and  C21_39 
REMARK    5  A    between atoms: O2_8  and  C4_9 
REMARK    6  A    between atoms: C4_9  and  C6_11 
REMARK    7  A    between atoms: C6_11  and  C7_12 
REMARK    8  A    between atoms: C8_13  and  O3_14 
REMARK    9  A    between atoms: C8_13  and  C9_16 
REMARK   10  A    between atoms: C13_22  and  C14_23 
REMARK   11  A    between atoms: N3_26  and  N4_28 
REMARK   12  A    between atoms: C23_42  and  N8_43 
ROOT
HETATM    1  C14 UNL     1      -4.931  21.496  13.988  1.00  0.00     0.141 C 
HETATM    2  C15 UNL     1      -5.964  21.481  15.067  1.00  0.00     0.120 C 
HETATM    3  N2  UNL     1      -6.751  21.452  15.905  1.00  0.00    -0.190 NA
HETATM    4  N3  UNL     1      -5.052  22.337  13.164  1.00  0.00    -0.288 N 
ATOM      5  H3  UNL     1      -5.894  22.808  13.496  1.00  0.00     0.188 HD
ENDROOT
BRANCH   1   6
HETATM    6  C13 UNL     1      -3.927  20.465  14.115  1.00  0.00     0.045 A 
HETATM    7  C12 UNL     1      -2.617  20.731  14.477  1.00  0.00     0.147 A 
HETATM    8  C11 UNL     1      -1.707  19.700  14.585  1.00  0.00     0.050 A 
HETATM    9  F1  UNL     1      -2.191  21.960  14.729  1.00  0.00    -0.204 F 
HETATM   10  S1  UNL     1       0.045  19.809  14.924  1.00  0.00    -0.125 SA
HETATM   11  C19 UNL     1      -2.146  18.493  14.334  1.00  0.00     0.011 A 
HETATM   12  C10 UNL     1       0.742  18.221  14.400  1.00  0.00     0.093 C 
HETATM   13  C9  UNL     1      -0.215  17.218  13.790  1.00  0.00     0.079 C 
HETATM   14  C20 UNL     1      -1.536  17.190  14.449  1.00  0.00     0.130 C 
HETATM   15  N7  UNL     1      -2.782  16.760  13.906  1.00  0.00    -0.380 N 
HETATM   16  C18 UNL     1      -3.359  18.088  13.972  1.00  0.00     0.039 A 
ATOM     17  H7  UNL     1      -3.134  15.857  13.589  1.00  0.00     0.160 HD
HETATM   18  C17 UNL     1      -4.274  19.106  13.863  1.00  0.00     0.047 A 
BRANCH  13  19
HETATM   19  C8  UNL     1       0.453  15.895  13.884  1.00  0.00     0.046 C 
HETATM   20  C7  UNL     1      -0.218  14.778  13.974  1.00  0.00     0.008 C 
BRANCH  20  21
HETATM   21  C6  UNL     1       0.424  13.468  14.066  1.00  0.00     0.061 C 
BRANCH  21  22
HETATM   22  C4  UNL     1       0.700  13.021  15.487  1.00  0.00     0.122 C 
HETATM   23  C5  UNL     1       1.094  11.560  15.526  1.00  0.00     0.040 C 
BRANCH  22  24
HETATM   24  O2  UNL     1      -0.362  13.201  16.325  1.00  0.00    -0.369 OA
BRANCH  24  25
HETATM   25  C3  UNL     1      -1.109  12.053  16.565  1.00  0.00     0.219 C 
BRANCH  25  26
HETATM   26  C2  UNL     1      -2.454  12.103  15.937  1.00  0.00     0.040 C 
HETATM   27  C1  UNL     1      -3.063  13.419  15.629  1.00  0.00     0.068 C 
HETATM   28  N1  UNL     1      -3.118  11.043  15.646  1.00  0.00    -0.275 N 
ATOM     29  H1  UNL     1      -2.720  10.125  15.847  1.00  0.00     0.193 HD
BRANCH  28  30
HETATM   30  O1  UNL     1      -4.355  11.137  15.069  1.00  0.00    -0.290 OA
ATOM     31  H1  UNL     1      -4.620  11.936  14.629  1.00  0.00     0.244 HD
ENDBRANCH  28  30
ENDBRANCH  25  26
BRANCH  25  32
HETATM   32  C21 UNL     1      -1.244  11.989  18.074  1.00  0.00     0.052 A 
HETATM   33  C22 UNL     1      -1.169  10.799  18.733  1.00  0.00     0.081 A 
HETATM   34  S2  UNL     1      -1.377  11.271  20.358  1.00  0.00    -0.064 SA
HETATM   35  C23 UNL     1      -1.546  12.945  20.108  1.00  0.00     0.142 A 
HETATM   36  N9  UNL     1      -1.437  13.077  18.788  1.00  0.00    -0.337 N 
ATOM     37  H9  UNL     1      -1.501  13.993  18.344  1.00  0.00     0.168 HD
BRANCH  35  38
HETATM   38  N8  UNL     1      -1.740  13.890  21.003  1.00  0.00    -0.380 N 
ATOM     39  H82 UNL     1      -1.752  14.899  20.857  1.00  0.00     0.158 HD
ATOM     40  H81 UNL     1      -1.913  13.790  22.004  1.00  0.00     0.158 HD
ENDBRANCH  35  38
ENDBRANCH  25  32
ENDBRANCH  24  25
ENDBRANCH  22  24
ENDBRANCH  21  22
ENDBRANCH  20  21
BRANCH  19  41
HETATM   41  O3  UNL     1       1.841  15.830  13.877  1.00  0.00    -0.365 OA
ATOM     42  H3  UNL     1       2.281  15.669  13.050  1.00  0.00     0.217 HD
ENDBRANCH  19  41
ENDBRANCH  13  19
ENDBRANCH   1   6
BRANCH   4  43
HETATM   43  N4  UNL     1      -4.791  23.027  12.121  1.00  0.00    -0.275 N 
HETATM   44  C16 UNL     1      -5.518  23.145  11.058  1.00  0.00     0.215 C 
HETATM   45  N5  UNL     1      -5.143  23.937   9.944  1.00  0.00    -0.065 NA
HETATM   46  N6  UNL     1      -6.755  22.430  11.036  1.00  0.00    -0.065 NA
ATOM     47  H4  UNL     1      -3.909  23.541  12.127  1.00  0.00     0.189 HD
ENDBRANCH   4  43
TORSDOF 12
ENDMDL
MODEL 3
REMARK VINA RESULT: -7.102527390      6.583     10.631
REMARK  12 active torsions:
REMARK  status: ('A' for Active; 'I' for Inactive)
REMARK    1  A    between atoms: C2_2  and  C3_7 
REMARK    2  A    between atoms: N1_3  and  O1_5 
REMARK    3  A    between atoms: C3_7  and  O2_8 
REMARK    4  A    between atoms: C3_7  and  C21_39 
REMARK    5  A    between atoms: O2_8  and  C4_9 
REMARK    6  A    between atoms: C4_9  and  C6_11 
REMARK    7  A    between atoms: C6_11  and  C7_12 
REMARK    8  A    between atoms: C8_13  and  O3_14 
REMARK    9  A    between atoms: C8_13  and  C9_16 
REMARK   10  A    between atoms: C13_22  and  C14_23 
REMARK   11  A    between atoms: N3_26  and  N4_28 
REMARK   12  A    between atoms: C23_42  and  N8_43 
ROOT
HETATM    1  C14 UNL     1      -2.266  14.097  14.162  1.00  0.00     0.141 C 
HETATM    2  C15 UNL     1      -2.557  15.561  14.123  1.00  0.00     0.120 C 
HETATM    3  N2  UNL     1      -2.801  16.685  14.087  1.00  0.00    -0.190 NA
HETATM    4  N3  UNL     1      -1.153  13.795  14.430  1.00  0.00    -0.288 N 
ATOM      5  H3  UNL     1      -0.732  14.716  14.554  1.00  0.00     0.188 HD
ENDROOT
BRANCH   1   6
HETATM    6  C13 UNL     1      -3.403  13.258  13.860  1.00  0.00     0.045 A 
HETATM    7  C12 UNL     1      -3.685  12.093  14.554  1.00  0.00     0.147 A 
HETATM    8  C11 UNL     1      -4.790  11.339  14.219  1.00  0.00     0.050 A 
HETATM    9  F1  UNL     1      -2.921  11.663  15.547  1.00  0.00    -0.204 F 
HETATM   10  S1  UNL     1      -5.289   9.759  14.889  1.00  0.00    -0.125 SA
HETATM   11  C19 UNL     1      -5.533  11.781  13.237  1.00  0.00     0.011 A 
HETATM   12  C10 UNL     1      -6.458   9.069  13.689  1.00  0.00     0.093 C 
HETATM   13  C9  UNL     1      -6.724   9.884  12.441  1.00  0.00     0.079 C 
HETATM   14  C20 UNL     1      -6.794  11.337  12.692  1.00  0.00     0.130 C 
HETATM   15  N7  UNL     1      -6.564  12.401  11.772  1.00  0.00    -0.380 N 
HETATM   16  C18 UNL     1      -5.388  12.865  12.481  1.00  0.00     0.039 A 
ATOM     17  H7  UNL     1      -7.045  12.718  10.930  1.00  0.00     0.160 HD
HETATM   18  C17 UNL     1      -4.291  13.624  12.807  1.00  0.00     0.047 A 
BRANCH  13  19
HETATM   19  C8  UNL     1      -8.003   9.380  11.879  1.00  0.00     0.046 C 
HETATM   20  C7  UNL     1      -8.241   9.355  10.595  1.00  0.00     0.008 C 
BRANCH  20  21
HETATM   21  C6  UNL     1      -9.494   8.861  10.027  1.00  0.00     0.061 C 
BRANCH  21  22
HETATM   22  C4  UNL     1      -9.669   9.187   8.558  1.00  0.00     0.122 C 
HETATM   23  C5  UNL     1     -11.131   9.138   8.165  1.00  0.00     0.040 C 
BRANCH  22  24
HETATM   24  O2  UNL     1      -8.976   8.351   7.733  1.00  0.00    -0.369 OA
BRANCH  24  25
HETATM   25  C3  UNL     1      -7.618   8.632   7.635  1.00  0.00     0.219 C 
BRANCH  25  26
HETATM   26  C2  UNL     1      -7.259   9.294   6.354  1.00  0.00     0.040 C 
HETATM   27  C1  UNL     1      -8.082   9.033   5.149  1.00  0.00     0.068 C 
HETATM   28  N1  UNL     1      -6.258  10.090   6.247  1.00  0.00    -0.275 N 
ATOM     29  H1  UNL     1      -5.677  10.285   7.063  1.00  0.00     0.193 HD
BRANCH  28  30
HETATM   30  O1  UNL     1      -5.965  10.676   5.046  1.00  0.00    -0.290 OA
ATOM     31  H1  UNL     1      -5.079  10.655   4.705  1.00  0.00     0.244 HD
ENDBRANCH  28  30
ENDBRANCH  25  26
BRANCH  25  32
HETATM   32  C21 UNL     1      -6.936   7.280   7.728  1.00  0.00     0.052 A 
HETATM   33  C22 UNL     1      -7.603   6.137   7.406  1.00  0.00     0.081 A 
HETATM   34  S2  UNL     1      -6.420   4.939   7.673  1.00  0.00    -0.064 SA
HETATM   35  C23 UNL     1      -5.151   5.955   8.174  1.00  0.00     0.142 A 
HETATM   36  N9  UNL     1      -5.684   7.173   8.119  1.00  0.00    -0.337 N 
ATOM     37  H9  UNL     1      -5.139   7.998   8.371  1.00  0.00     0.168 HD
BRANCH  35  38
HETATM   38  N8  UNL     1      -3.930   5.622   8.534  1.00  0.00    -0.380 N 
ATOM     39  H82 UNL     1      -3.473   5.788   9.431  1.00  0.00     0.158 HD
ATOM     40  H81 UNL     1      -3.217   5.137   7.988  1.00  0.00     0.158 HD
ENDBRANCH  35  38
ENDBRANCH  25  32
ENDBRANCH  24  25
ENDBRANCH  22  24
ENDBRANCH  21  22
ENDBRANCH  20  21
BRANCH  19  41
HETATM   41  O3  UNL     1      -8.990   8.915  12.741  1.00  0.00    -0.365 OA
ATOM     42  H3  UNL     1      -8.818   8.936  13.675  1.00  0.00     0.217 HD
ENDBRANCH  19  41
ENDBRANCH  13  19
ENDBRANCH   1   6
BRANCH   4  43
HETATM   43  N4  UNL     1      -0.148  13.041  14.662  1.00  0.00    -0.275 N 
HETATM   44  C16 UNL     1       1.103  13.351  14.561  1.00  0.00     0.215 C 
HETATM   45  N5  UNL     1       2.154  12.442  14.841  1.00  0.00    -0.065 NA
HETATM   46  N6  UNL     1       1.410  14.683  14.144  1.00  0.00    -0.065 NA
ATOM     47  H4  UNL     1      -0.356  12.088  14.961  1.00  0.00     0.189 HD
ENDBRANCH   4  43
TORSDOF 12
ENDMDL
MODEL 4
REMARK VINA RESULT: -7.097911176      5.318      8.401
REMARK  12 active torsions:
REMARK  status: ('A' for Active; 'I' for Inactive)
REMARK    1  A    between atoms: C2_2  and  C3_7 
REMARK    2  A    between atoms: N1_3  and  O1_5 
REMARK    3  A    between atoms: C3_7  and  O2_8 
REMARK    4  A    between atoms: C3_7  and  C21_39 
REMARK    5  A    between atoms: O2_8  and  C4_9 
REMARK    6  A    between atoms: C4_9  and  C6_11 
REMARK    7  A    between atoms: C6_11  and  C7_12 
REMARK    8  A    between atoms: C8_13  and  O3_14 
REMARK    9  A    between atoms: C8_13  and  C9_16 
REMARK   10  A    between atoms: C13_22  and  C14_23 
REMARK   11  A    between atoms: N3_26  and  N4_28 
REMARK   12  A    between atoms: C23_42  and  N8_43 
ROOT
HETATM    1  C14 UNL     1      -1.931  16.054  13.919  1.00  0.00     0.141 C 
HETATM    2  C15 UNL     1      -0.460  15.791  13.904  1.00  0.00     0.120 C 
HETATM    3  N2  UNL     1       0.668  15.568  13.894  1.00  0.00    -0.190 NA
HETATM    4  N3  UNL     1      -2.255  17.192  13.950  1.00  0.00    -0.288 N 
ATOM      5  H3  UNL     1      -1.343  17.648  13.959  1.00  0.00     0.188 HD
ENDROOT
BRANCH   1   6
HETATM    6  C13 UNL     1      -2.746  14.861  13.893  1.00  0.00     0.045 A 
HETATM    7  C12 UNL     1      -2.611  13.837  14.815  1.00  0.00     0.147 A 
HETATM    8  C11 UNL     1      -3.424  12.726  14.737  1.00  0.00     0.050 A 
HETATM    9  F1  UNL     1      -1.715  13.880  15.790  1.00  0.00    -0.204 F 
HETATM   10  S1  UNL     1      -3.362  11.244  15.735  1.00  0.00    -0.125 SA
HETATM   11  C19 UNL     1      -4.304  12.702  13.769  1.00  0.00     0.011 A 
HETATM   12  C10 UNL     1      -4.286   9.992  14.807  1.00  0.00     0.093 C 
HETATM   13  C9  UNL     1      -4.844  10.407  13.462  1.00  0.00     0.079 C 
HETATM   14  C20 UNL     1      -5.372  11.786  13.444  1.00  0.00     0.130 C 
HETATM   15  N7  UNL     1      -5.530  12.654  12.325  1.00  0.00    -0.380 N 
HETATM   16  C18 UNL     1      -4.544  13.595  12.815  1.00  0.00     0.039 A 
ATOM     17  H7  UNL     1      -6.117  12.623  11.491  1.00  0.00     0.160 HD
HETATM   18  C17 UNL     1      -3.741  14.707  12.884  1.00  0.00     0.047 A 
BRANCH  13  19
HETATM   19  C8  UNL     1      -5.911   9.427  13.133  1.00  0.00     0.046 C 
HETATM   20  C7  UNL     1      -5.662   8.305  12.512  1.00  0.00     0.008 C 
BRANCH  20  21
HETATM   21  C6  UNL     1      -6.700   7.330  12.182  1.00  0.00     0.061 C 
BRANCH  21  22
HETATM   22  C4  UNL     1      -6.693   6.897  10.731  1.00  0.00     0.122 C 
HETATM   23  C5  UNL     1      -5.315   7.057  10.126  1.00  0.00     0.040 C 
BRANCH  22  24
HETATM   24  O2  UNL     1      -7.583   7.585   9.959  1.00  0.00    -0.369 OA
BRANCH  24  25
HETATM   25  C3  UNL     1      -7.171   8.864   9.604  1.00  0.00     0.219 C 
BRANCH  25  26
HETATM   26  C2  UNL     1      -8.042   9.925  10.173  1.00  0.00     0.040 C 
HETATM   27  C1  UNL     1      -9.476   9.636  10.410  1.00  0.00     0.068 C 
HETATM   28  N1  UNL     1      -7.599  11.093  10.471  1.00  0.00    -0.275 N 
ATOM     29  H1  UNL     1      -6.615  11.316  10.318  1.00  0.00     0.193 HD
BRANCH  28  30
HETATM   30  O1  UNL     1      -8.438  12.040  10.992  1.00  0.00    -0.290 OA
ATOM     31  H1  UNL     1      -8.152  12.942  11.074  1.00  0.00     0.244 HD
ENDBRANCH  28  30
ENDBRANCH  25  26
BRANCH  25  32
HETATM   32  C21 UNL     1      -7.248   8.889   8.089  1.00  0.00     0.052 A 
HETATM   33  C22 UNL     1      -8.024   7.997   7.414  1.00  0.00     0.081 A 
HETATM   34  S2  UNL     1      -7.761   8.445   5.790  1.00  0.00    -0.064 SA
HETATM   35  C23 UNL     1      -6.686   9.734   6.061  1.00  0.00     0.142 A 
HETATM   36  N9  UNL     1      -6.569   9.772   7.387  1.00  0.00    -0.337 N 
ATOM     37  H9  UNL     1      -5.973  10.462   7.843  1.00  0.00     0.168 HD
BRANCH  35  38
HETATM   38  N8  UNL     1      -6.104  10.514   5.176  1.00  0.00    -0.380 N 
ATOM     39  H82 UNL     1      -6.547  11.123   4.488  1.00  0.00     0.158 HD
ATOM     40  H81 UNL     1      -5.106  10.655   5.013  1.00  0.00     0.158 HD
ENDBRANCH  35  38
ENDBRANCH  25  32
ENDBRANCH  24  25
ENDBRANCH  22  24
ENDBRANCH  21  22
ENDBRANCH  20  21
BRANCH  19  41
HETATM   41  O3  UNL     1      -7.224   9.702  13.496  1.00  0.00    -0.365 OA
ATOM     42  H3  UNL     1      -7.384  10.419  14.098  1.00  0.00     0.217 HD
ENDBRANCH  19  41
ENDBRANCH  13  19
ENDBRANCH   1   6
BRANCH   4  43
HETATM   43  N4  UNL     1      -3.030  18.207  13.980  1.00  0.00    -0.275 N 
HETATM   44  C16 UNL     1      -2.727  19.413  14.335  1.00  0.00     0.215 C 
HETATM   45  N5  UNL     1      -3.659  20.480  14.335  1.00  0.00    -0.065 NA
HETATM   46  N6  UNL     1      -1.377  19.649  14.742  1.00  0.00    -0.065 NA
ATOM     47  H4  UNL     1      -3.995  18.049  13.691  1.00  0.00     0.189 HD
ENDBRANCH   4  43
TORSDOF 12
ENDMDL
MODEL 5
REMARK VINA RESULT: -7.084112986      7.209     11.050
REMARK  12 active torsions:
REMARK  status: ('A' for Active; 'I' for Inactive)
REMARK    1  A    between atoms: C2_2  and  C3_7 
REMARK    2  A    between atoms: N1_3  and  O1_5 
REMARK    3  A    between atoms: C3_7  and  O2_8 
REMARK    4  A    between atoms: C3_7  and  C21_39 
REMARK    5  A    between atoms: O2_8  and  C4_9 
REMARK    6  A    between atoms: C4_9  and  C6_11 
REMARK    7  A    between atoms: C6_11  and  C7_12 
REMARK    8  A    between atoms: C8_13  and  O3_14 
REMARK    9  A    between atoms: C8_13  and  C9_16 
REMARK   10  A    between atoms: C13_22  and  C14_23 
REMARK   11  A    between atoms: N3_26  and  N4_28 
REMARK   12  A    between atoms: C23_42  and  N8_43 
ROOT
HETATM    1  C14 UNL     1      -2.294  14.054  14.101  1.00  0.00     0.141 C 
HETATM    2  C15 UNL     1      -2.578  15.521  14.076  1.00  0.00     0.120 C 
HETATM    3  N2  UNL     1      -2.816  16.646  14.051  1.00  0.00    -0.190 NA
HETATM    4  N3  UNL     1      -1.184  13.745  14.373  1.00  0.00    -0.288 N 
ATOM      5  H3  UNL     1      -0.759  14.662  14.509  1.00  0.00     0.188 HD
ENDROOT
BRANCH   1   6
HETATM    6  C13 UNL     1      -3.434  13.225  13.784  1.00  0.00     0.045 A 
HETATM    7  C12 UNL     1      -3.666  12.002  14.390  1.00  0.00     0.147 A 
HETATM    8  C11 UNL     1      -4.777  11.260  14.045  1.00  0.00     0.050 A 
HETATM    9  F1  UNL     1      -2.850  11.504  15.307  1.00  0.00    -0.204 F 
HETATM   10  S1  UNL     1      -5.222   9.621  14.603  1.00  0.00    -0.125 SA
HETATM   11  C19 UNL     1      -5.572  11.769  13.139  1.00  0.00     0.011 A 
HETATM   12  C10 UNL     1      -6.439   9.013  13.406  1.00  0.00     0.093 C 
HETATM   13  C9  UNL     1      -6.774   9.924  12.244  1.00  0.00     0.079 C 
HETATM   14  C20 UNL     1      -6.852  11.350  12.618  1.00  0.00     0.130 C 
HETATM   15  N7  UNL     1      -6.679  12.491  11.781  1.00  0.00    -0.380 N 
HETATM   16  C18 UNL     1      -5.477  12.914  12.470  1.00  0.00     0.039 A 
ATOM     17  H7  UNL     1      -7.204  12.867  10.991  1.00  0.00     0.160 HD
HETATM   18  C17 UNL     1      -4.375  13.662  12.807  1.00  0.00     0.047 A 
BRANCH  13  19
HETATM   19  C8  UNL     1      -8.073   9.447  11.702  1.00  0.00     0.046 C 
HETATM   20  C7  UNL     1      -8.357   9.492  10.428  1.00  0.00     0.008 C 
BRANCH  20  21
HETATM   21  C6  UNL     1      -9.630   9.026   9.880  1.00  0.00     0.061 C 
BRANCH  21  22
HETATM   22  C4  UNL     1      -9.491   8.261   8.580  1.00  0.00     0.122 C 
HETATM   23  C5  UNL     1      -8.447   7.171   8.704  1.00  0.00     0.040 C 
BRANCH  22  24
HETATM   24  O2  UNL     1      -9.159   9.054   7.520  1.00  0.00    -0.369 OA
BRANCH  24  25
HETATM   25  C3  UNL     1      -8.221   8.500   6.656  1.00  0.00     0.219 C 
BRANCH  25  26
HETATM   26  C2  UNL     1      -7.075   9.408   6.395  1.00  0.00     0.040 C 
HETATM   27  C1  UNL     1      -6.128   9.715   7.493  1.00  0.00     0.068 C 
HETATM   28  N1  UNL     1      -6.868   9.943   5.246  1.00  0.00    -0.275 N 
ATOM     29  H1  UNL     1      -7.505   9.746   4.474  1.00  0.00     0.193 HD
BRANCH  28  30
HETATM   30  O1  UNL     1      -5.800  10.774   5.052  1.00  0.00    -0.290 OA
ATOM     31  H1  UNL     1      -4.915  10.464   5.206  1.00  0.00     0.244 HD
ENDBRANCH  28  30
ENDBRANCH  25  26
BRANCH  25  32
HETATM   32  C21 UNL     1      -8.983   8.246   5.369  1.00  0.00     0.052 A 
HETATM   33  C22 UNL     1      -8.925   7.034   4.750  1.00  0.00     0.081 A 
HETATM   34  S2  UNL     1      -9.928   7.273   3.392  1.00  0.00    -0.064 SA
HETATM   35  C23 UNL     1     -10.363   8.890   3.689  1.00  0.00     0.142 A 
HETATM   36  N9  UNL     1      -9.721   9.186   4.817  1.00  0.00    -0.337 N 
ATOM     37  H9  UNL     1      -9.799  10.110   5.241  1.00  0.00     0.168 HD
BRANCH  35  38
HETATM   38  N8  UNL     1     -11.146   9.671   2.976  1.00  0.00    -0.380 N 
ATOM     39  H82 UNL     1     -11.171   9.776   1.962  1.00  0.00     0.158 HD
ATOM     40  H81 UNL     1     -11.870  10.313   3.302  1.00  0.00     0.158 HD
ENDBRANCH  35  38
ENDBRANCH  25  32
ENDBRANCH  24  25
ENDBRANCH  22  24
ENDBRANCH  21  22
ENDBRANCH  20  21
BRANCH  19  41
HETATM   41  O3  UNL     1      -9.026   8.931  12.572  1.00  0.00    -0.365 OA
ATOM     42  H3  UNL     1      -9.938   9.151  12.423  1.00  0.00     0.217 HD
ENDBRANCH  19  41
ENDBRANCH  13  19
ENDBRANCH   1   6
BRANCH   4  43
HETATM   43  N4  UNL     1      -0.184  12.983  14.603  1.00  0.00    -0.275 N 
HETATM   44  C16 UNL     1       1.069  13.295  14.536  1.00  0.00     0.215 C 
HETATM   45  N5  UNL     1       2.113  12.377  14.810  1.00  0.00    -0.065 NA
HETATM   46  N6  UNL     1       1.384  14.639  14.165  1.00  0.00    -0.065 NA
ATOM     47  H4  UNL     1      -0.399  12.022  14.868  1.00  0.00     0.189 HD
ENDBRANCH   4  43
TORSDOF 12
ENDMDL
