MODEL 1
REMARK VINA RESULT: -5.093058568      0.000      0.000
REMARK  14 active torsions:
REMARK  status: ('A' for Active; 'I' for Inactive)
REMARK    1  A    between atoms: N1_1  and  C1_5 
REMARK    2  A    between atoms: C1_5  and  C2_6 
REMARK    3  A    between atoms: C2_6  and  C3_7 
REMARK    4  A    between atoms: C3_7  and  C4_8 
REMARK    5  A    between atoms: C4_8  and  C5_9 
REMARK    6  A    between atoms: C7_11  and  N2_12 
REMARK    7  A    between atoms: C8_14  and  C9_16 
REMARK    8  A    between atoms: C9_16  and  C10_17 
REMARK    9  A    between atoms: C16_25  and  C17_26 
REMARK   10  A    between atoms: C17_26  and  O3_27 
REMARK   11  A    between atoms: N4_29  and  O4_31 
REMARK   12  A    between atoms: C22_38  and  C23_39 
REMARK   13  A    between atoms: C24_42  and  O7_43 
REMARK   14  A    between atoms: N5_45  and  O8_46 
ROOT
HETATM    1  C5  UNL     1      -8.900  14.316 -34.635  1.00  0.00     0.174 C 
HETATM    2  C6  UNL     1      -9.230  15.789 -34.946  1.00  0.00     0.087 C 
HETATM    3  C7  UNL     1     -10.477  16.158 -34.846  1.00  0.00     0.123 C 
HETATM    4  O2  UNL     1      -8.272  16.652 -35.307  1.00  0.00    -0.352 OA
HETATM    5  C14 UNL     1      -7.027  17.017 -34.873  1.00  0.00     0.176 C 
HETATM    6  C15 UNL     1      -6.022  17.404 -35.932  1.00  0.00     0.039 C 
HETATM    7  C16 UNL     1      -6.506  17.371 -37.333  1.00  0.00     0.064 C 
HETATM    8  C18 UNL     1      -5.599  16.618 -38.309  1.00  0.00     0.013 C 
HETATM    9  C19 UNL     1      -6.354  15.814 -39.301  1.00  0.00     0.011 C 
HETATM   10  C20 UNL     1      -5.959  14.431 -39.596  1.00  0.00     0.074 C 
HETATM   11  S1  UNL     1      -5.318  13.358 -38.388  1.00  0.00    -0.168 SA
HETATM   12  C21 UNL     1      -6.164  11.839 -37.988  1.00  0.00     0.097 C 
HETATM   13  C22 UNL     1      -6.595  11.802 -36.486  1.00  0.00     0.172 C 
HETATM   14  C24 UNL     1      -6.970  13.183 -36.081  1.00  0.00     0.153 C 
HETATM   15  N5  UNL     1      -8.094  13.878 -35.795  1.00  0.00    -0.230 N 
ENDROOT
BRANCH   1  16
HETATM   16  C4  UNL     1     -10.189  13.531 -34.612  1.00  0.00     0.035 C 
BRANCH  16  17
HETATM   17  C3  UNL     1     -10.299  12.484 -33.558  1.00  0.00     0.004 C 
BRANCH  17  18
HETATM   18  C2  UNL     1      -9.092  11.787 -33.110  1.00  0.00     0.027 C 
BRANCH  18  19
HETATM   19  C1  UNL     1      -8.949  10.336 -33.028  1.00  0.00     0.229 C 
BRANCH  19  20
HETATM   20  N1  UNL     1      -7.724   9.757 -33.481  1.00  0.00    -0.079 N 
ATOM     21  H13 UNL     1      -7.932   8.955 -34.076  1.00  0.00     0.274 HD
ATOM     22  H12 UNL     1      -7.283  10.386 -34.151  1.00  0.00     0.274 HD
ATOM     23  H11 UNL     1      -7.037   9.482 -32.779  1.00  0.00     0.274 HD
ENDBRANCH  19  20
ENDBRANCH  18  19
ENDBRANCH  17  18
ENDBRANCH  16  17
ENDBRANCH   1  16
BRANCH   3  24
HETATM   24  N2  UNL     1     -10.919  17.501 -35.108  1.00  0.00    -0.355 N 
HETATM   25  C8  UNL     1     -11.306  18.354 -34.271  1.00  0.00     0.099 C 
HETATM   26  N3  UNL     1     -11.698  19.629 -34.772  1.00  0.00    -0.087 NA
ATOM     27  H2  UNL     1     -10.917  17.795 -36.085  1.00  0.00     0.166 HD
BRANCH  25  28
HETATM   28  C9  UNL     1     -11.397  18.145 -32.793  1.00  0.00     0.138 C 
BRANCH  28  29
HETATM   29  C10 UNL     1     -10.331  18.912 -32.085  1.00  0.00     0.059 A 
HETATM   30  C11 UNL     1      -8.988  18.829 -32.374  1.00  0.00     0.035 A 
HETATM   31  C12 UNL     1      -8.345  19.699 -31.490  1.00  0.00     0.027 A 
HETATM   32  C13 UNL     1      -9.336  20.253 -30.722  1.00  0.00     0.142 A 
HETATM   33  O1  UNL     1     -10.491  19.757 -31.111  1.00  0.00    -0.327 OA
ENDBRANCH  28  29
ENDBRANCH  25  28
ENDBRANCH   3  24
BRANCH  15  34
HETATM   34  O8  UNL     1      -8.768  14.447 -36.927  1.00  0.00    -0.285 OA
ATOM     35  H8  UNL     1      -8.894  13.713 -37.517  1.00  0.00     0.245 HD
ENDBRANCH  15  34
BRANCH  14  36
HETATM   36  O7  UNL     1      -5.855  13.858 -36.008  1.00  0.00    -0.347 OA
ATOM     37  H7  UNL     1      -6.026  14.591 -35.428  1.00  0.00     0.219 HD
ENDBRANCH  14  36
BRANCH  13  38
HETATM   38  C23 UNL     1      -5.380  11.378 -35.774  1.00  0.00     0.185 C 
HETATM   39  O5  UNL     1      -4.393  10.932 -36.378  1.00  0.00    -0.647 OA
HETATM   40  O6  UNL     1      -5.349  11.486 -34.369  1.00  0.00    -0.647 OA
ENDBRANCH  13  38
BRANCH   7  41
HETATM   41  C17 UNL     1      -6.656  18.728 -37.884  1.00  0.00     0.139 C 
HETATM   42  N4  UNL     1      -7.625  19.480 -37.668  1.00  0.00    -0.251 N 
ATOM     43  H4  UNL     1      -7.517  20.373 -38.150  1.00  0.00     0.196 HD
BRANCH  41  44
HETATM   44  O3  UNL     1      -5.646  19.260 -38.737  1.00  0.00    -0.348 OA
ATOM     45  H3  UNL     1      -5.603  18.982 -39.644  1.00  0.00     0.219 HD
ENDBRANCH  41  44
BRANCH  42  46
HETATM   46  O4  UNL     1      -8.755  19.435 -36.985  1.00  0.00    -0.288 OA
ATOM     47  H4  UNL     1      -9.465  20.028 -36.771  1.00  0.00     0.244 HD
ENDBRANCH  42  46
ENDBRANCH   7  41
TORSDOF 14
ENDMDL
MODEL 2
REMARK VINA RESULT: -5.048419314      4.244      7.384
REMARK  14 active torsions:
REMARK  status: ('A' for Active; 'I' for Inactive)
REMARK    1  A    between atoms: N1_1  and  C1_5 
REMARK    2  A    between atoms: C1_5  and  C2_6 
REMARK    3  A    between atoms: C2_6  and  C3_7 
REMARK    4  A    between atoms: C3_7  and  C4_8 
REMARK    5  A    between atoms: C4_8  and  C5_9 
REMARK    6  A    between atoms: C7_11  and  N2_12 
REMARK    7  A    between atoms: C8_14  and  C9_16 
REMARK    8  A    between atoms: C9_16  and  C10_17 
REMARK    9  A    between atoms: C16_25  and  C17_26 
REMARK   10  A    between atoms: C17_26  and  O3_27 
REMARK   11  A    between atoms: N4_29  and  O4_31 
REMARK   12  A    between atoms: C22_38  and  C23_39 
REMARK   13  A    between atoms: C24_42  and  O7_43 
REMARK   14  A    between atoms: N5_45  and  O8_46 
ROOT
HETATM    1  C5  UNL     1      -9.534  13.114 -36.000  1.00  0.00     0.174 C 
HETATM    2  C6  UNL     1      -9.699  12.974 -37.526  1.00  0.00     0.087 C 
HETATM    3  C7  UNL     1      -8.912  12.135 -38.140  1.00  0.00     0.123 C 
HETATM    4  O2  UNL     1     -10.615  13.689 -38.192  1.00  0.00    -0.352 OA
HETATM    5  C14 UNL     1     -11.944  13.991 -38.071  1.00  0.00     0.176 C 
HETATM    6  C15 UNL     1     -12.374  15.366 -38.522  1.00  0.00     0.039 C 
HETATM    7  C16 UNL     1     -11.308  16.235 -39.076  1.00  0.00     0.064 C 
HETATM    8  C18 UNL     1     -11.257  17.646 -38.487  1.00  0.00     0.013 C 
HETATM    9  C19 UNL     1      -9.874  18.136 -38.272  1.00  0.00     0.011 C 
HETATM   10  C20 UNL     1      -9.503  18.793 -37.013  1.00  0.00     0.074 C 
HETATM   11  S1  UNL     1     -10.169  18.325 -35.476  1.00  0.00    -0.168 SA
HETATM   12  C21 UNL     1      -9.105  17.734 -34.173  1.00  0.00     0.097 C 
HETATM   13  C22 UNL     1      -9.474  16.275 -33.749  1.00  0.00     0.172 C 
HETATM   14  C24 UNL     1      -9.913  15.540 -34.966  1.00  0.00     0.153 C 
HETATM   15  N5  UNL     1      -9.438  14.574 -35.784  1.00  0.00    -0.230 N 
ENDROOT
BRANCH   1  16
HETATM   16  C4  UNL     1      -8.227  12.475 -35.600  1.00  0.00     0.035 C 
BRANCH  16  17
HETATM   17  C3  UNL     1      -8.220  11.763 -34.291  1.00  0.00     0.004 C 
BRANCH  17  18
HETATM   18  C2  UNL     1      -9.380  11.879 -33.405  1.00  0.00     0.027 C 
BRANCH  18  19
HETATM   19  C1  UNL     1     -10.032  10.757 -32.735  1.00  0.00     0.229 C 
BRANCH  19  20
HETATM   20  N1  UNL     1      -9.288   9.549 -32.573  1.00  0.00    -0.079 N 
ATOM     21  H13 UNL     1      -8.295   9.748 -32.699  1.00  0.00     0.274 HD
ATOM     22  H12 UNL     1      -9.307   9.273 -31.592  1.00  0.00     0.274 HD
ATOM     23  H11 UNL     1      -9.544   8.748 -33.150  1.00  0.00     0.274 HD
ENDBRANCH  19  20
ENDBRANCH  18  19
ENDBRANCH  17  18
ENDBRANCH  16  17
ENDBRANCH   1  16
BRANCH   3  24
HETATM   24  N2  UNL     1      -8.963  11.909 -39.559  1.00  0.00    -0.355 N 
HETATM   25  C8  UNL     1      -9.773  11.183 -40.189  1.00  0.00     0.099 C 
HETATM   26  N3  UNL     1      -9.626  11.117 -41.605  1.00  0.00    -0.087 NA
ATOM     27  H2  UNL     1      -8.261  12.394 -40.119  1.00  0.00     0.166 HD
BRANCH  25  28
HETATM   28  C9  UNL     1     -10.876  10.379 -39.579  1.00  0.00     0.138 C 
BRANCH  28  29
HETATM   29  C10 UNL     1     -12.208  10.914 -39.987  1.00  0.00     0.059 A 
HETATM   30  C11 UNL     1     -13.413  10.348 -39.643  1.00  0.00     0.035 A 
HETATM   31  C12 UNL     1     -14.400  11.151 -40.220  1.00  0.00     0.027 A 
HETATM   32  C13 UNL     1     -13.732  12.152 -40.876  1.00  0.00     0.142 A 
HETATM   33  O1  UNL     1     -12.439  11.969 -40.709  1.00  0.00    -0.327 OA
ENDBRANCH  28  29
ENDBRANCH  25  28
ENDBRANCH   3  24
BRANCH  15  34
HETATM   34  O8  UNL     1      -8.586  15.032 -36.845  1.00  0.00    -0.285 OA
ATOM     35  H8  UNL     1      -8.007  15.657 -36.425  1.00  0.00     0.245 HD
ENDBRANCH  15  34
BRANCH  14  36
HETATM   36  O7  UNL     1     -11.087  16.018 -35.278  1.00  0.00    -0.347 OA
ATOM     37  H7  UNL     1     -11.145  15.982 -36.226  1.00  0.00     0.219 HD
ENDBRANCH  14  36
BRANCH  13  38
HETATM   38  C23 UNL     1     -10.606  16.444 -32.825  1.00  0.00     0.185 C 
HETATM   39  O5  UNL     1     -10.903  17.553 -32.356  1.00  0.00    -0.647 OA
HETATM   40  O6  UNL     1     -11.363  15.309 -32.471  1.00  0.00    -0.647 OA
ENDBRANCH  13  38
BRANCH   7  41
HETATM   41  C17 UNL     1     -11.454  16.407 -40.532  1.00  0.00     0.139 C 
HETATM   42  N4  UNL     1     -11.158  15.548 -41.382  1.00  0.00    -0.251 N 
ATOM     43  H4  UNL     1     -11.344  15.883 -42.328  1.00  0.00     0.196 HD
BRANCH  41  44
HETATM   44  O3  UNL     1     -11.962  17.634 -41.050  1.00  0.00    -0.348 OA
ATOM     45  H3  UNL     1     -12.736  17.627 -41.600  1.00  0.00     0.219 HD
ENDBRANCH  41  44
BRANCH  42  46
HETATM   46  O4  UNL     1     -10.669  14.321 -41.393  1.00  0.00    -0.288 OA
ATOM     47  H4  UNL     1     -10.792  13.525 -41.896  1.00  0.00     0.244 HD
ENDBRANCH  42  46
ENDBRANCH   7  41
TORSDOF 14
ENDMDL
MODEL 3
REMARK VINA RESULT: -4.967488773      2.476      3.288
REMARK  14 active torsions:
REMARK  status: ('A' for Active; 'I' for Inactive)
REMARK    1  A    between atoms: N1_1  and  C1_5 
REMARK    2  A    between atoms: C1_5  and  C2_6 
REMARK    3  A    between atoms: C2_6  and  C3_7 
REMARK    4  A    between atoms: C3_7  and  C4_8 
REMARK    5  A    between atoms: C4_8  and  C5_9 
REMARK    6  A    between atoms: C7_11  and  N2_12 
REMARK    7  A    between atoms: C8_14  and  C9_16 
REMARK    8  A    between atoms: C9_16  and  C10_17 
REMARK    9  A    between atoms: C16_25  and  C17_26 
REMARK   10  A    between atoms: C17_26  and  O3_27 
REMARK   11  A    between atoms: N4_29  and  O4_31 
REMARK   12  A    between atoms: C22_38  and  C23_39 
REMARK   13  A    between atoms: C24_42  and  O7_43 
REMARK   14  A    between atoms: N5_45  and  O8_46 
ROOT
HETATM    1  C5  UNL     1      -9.591  14.935 -34.094  1.00  0.00     0.174 C 
HETATM    2  C6  UNL     1      -9.328  16.417 -33.764  1.00  0.00     0.087 C 
HETATM    3  C7  UNL     1      -9.972  16.930 -32.752  1.00  0.00     0.123 C 
HETATM    4  O2  UNL     1      -8.474  17.148 -34.492  1.00  0.00    -0.352 OA
HETATM    5  C14 UNL     1      -7.201  17.026 -34.979  1.00  0.00     0.176 C 
HETATM    6  C15 UNL     1      -6.922  17.657 -36.321  1.00  0.00     0.039 C 
HETATM    7  C16 UNL     1      -8.056  18.369 -36.958  1.00  0.00     0.064 C 
HETATM    8  C18 UNL     1      -8.314  17.993 -38.419  1.00  0.00     0.013 C 
HETATM    9  C19 UNL     1      -9.756  17.899 -38.749  1.00  0.00     0.011 C 
HETATM   10  C20 UNL     1     -10.272  16.763 -39.522  1.00  0.00     0.074 C 
HETATM   11  S1  UNL     1      -9.636  15.153 -39.364  1.00  0.00    -0.168 SA
HETATM   12  C21 UNL     1     -10.686  13.815 -38.827  1.00  0.00     0.097 C 
HETATM   13  C22 UNL     1     -10.162  13.171 -37.503  1.00  0.00     0.172 C 
HETATM   14  C24 UNL     1      -9.572  14.252 -36.668  1.00  0.00     0.153 C 
HETATM   15  N5  UNL     1      -9.878  14.937 -35.544  1.00  0.00    -0.230 N 
ENDROOT
BRANCH   1  16
HETATM   16  C4  UNL     1     -10.828  14.492 -33.351  1.00  0.00     0.035 C 
BRANCH  16  17
HETATM   17  C3  UNL     1     -11.186  13.051 -33.477  1.00  0.00     0.004 C 
BRANCH  17  18
HETATM   18  C2  UNL     1     -10.136  12.037 -33.353  1.00  0.00     0.027 C 
BRANCH  18  19
HETATM   19  C1  UNL     1     -10.300  10.745 -32.692  1.00  0.00     0.229 C 
BRANCH  19  20
HETATM   20  N1  UNL     1      -9.180   9.858 -32.668  1.00  0.00    -0.079 N 
ATOM     21  H13 UNL     1      -8.892   9.657 -33.627  1.00  0.00     0.274 HD
ATOM     22  H12 UNL     1      -8.363  10.361 -32.323  1.00  0.00     0.274 HD
ATOM     23  H11 UNL     1      -9.274   8.982 -32.156  1.00  0.00     0.274 HD
ENDBRANCH  19  20
ENDBRANCH  18  19
ENDBRANCH  17  18
ENDBRANCH  16  17
ENDBRANCH   1  16
BRANCH   3  24
HETATM   24  N2  UNL     1      -9.818  18.298 -32.339  1.00  0.00    -0.355 N 
HETATM   25  C8  UNL     1     -10.684  19.209 -32.372  1.00  0.00     0.099 C 
HETATM   26  N3  UNL     1     -10.295  20.497 -31.905  1.00  0.00    -0.087 NA
ATOM     27  H2  UNL     1      -8.901  18.561 -31.977  1.00  0.00     0.166 HD
BRANCH  25  28
HETATM   28  C9  UNL     1     -12.087  19.056 -32.865  1.00  0.00     0.138 C 
BRANCH  28  29
HETATM   29  C10 UNL     1     -12.156  19.280 -34.339  1.00  0.00     0.059 A 
HETATM   30  C11 UNL     1     -13.312  19.557 -35.032  1.00  0.00     0.035 A 
HETATM   31  C12 UNL     1     -12.940  19.694 -36.371  1.00  0.00     0.027 A 
HETATM   32  C13 UNL     1     -11.585  19.491 -36.406  1.00  0.00     0.142 A 
HETATM   33  O1  UNL     1     -11.168  19.250 -35.182  1.00  0.00    -0.327 OA
ENDBRANCH  28  29
ENDBRANCH  25  28
ENDBRANCH   3  24
BRANCH  15  34
HETATM   34  O8  UNL     1     -10.723  16.082 -35.734  1.00  0.00    -0.285 OA
ATOM     35  H8  UNL     1     -11.048  15.987 -36.622  1.00  0.00     0.245 HD
ENDBRANCH  15  34
BRANCH  14  36
HETATM   36  O7  UNL     1      -8.451  14.589 -37.248  1.00  0.00    -0.347 OA
ATOM     37  H7  UNL     1      -8.222  15.445 -36.904  1.00  0.00     0.219 HD
ENDBRANCH  14  36
BRANCH  13  38
HETATM   38  C23 UNL     1      -9.111  12.243 -37.946  1.00  0.00     0.185 C 
HETATM   39  O5  UNL     1      -9.116  11.749 -39.083  1.00  0.00    -0.647 OA
HETATM   40  O6  UNL     1      -8.079  11.912 -37.044  1.00  0.00    -0.647 OA
ENDBRANCH  13  38
BRANCH   7  41
HETATM   41  C17 UNL     1      -7.856  19.827 -36.942  1.00  0.00     0.139 C 
HETATM   42  N4  UNL     1      -8.114  20.570 -35.977  1.00  0.00    -0.251 N 
ATOM     43  H4  UNL     1      -7.894  21.544 -36.189  1.00  0.00     0.196 HD
BRANCH  41  44
HETATM   44  O3  UNL     1      -7.337  20.481 -38.098  1.00  0.00    -0.348 OA
ATOM     45  H3  UNL     1      -6.464  20.267 -38.407  1.00  0.00     0.219 HD
ENDBRANCH  41  44
BRANCH  42  46
HETATM   46  O4  UNL     1      -8.594  20.440 -34.754  1.00  0.00    -0.288 OA
ATOM     47  H4  UNL     1      -9.171  20.925 -34.175  1.00  0.00     0.244 HD
ENDBRANCH  42  46
ENDBRANCH   7  41
TORSDOF 14
ENDMDL
MODEL 4
REMARK VINA RESULT: -4.938325988      2.474      6.533
REMARK  14 active torsions:
REMARK  status: ('A' for Active; 'I' for Inactive)
REMARK    1  A    between atoms: N1_1  and  C1_5 
REMARK    2  A    between atoms: C1_5  and  C2_6 
REMARK    3  A    between atoms: C2_6  and  C3_7 
REMARK    4  A    between atoms: C3_7  and  C4_8 
REMARK    5  A    between atoms: C4_8  and  C5_9 
REMARK    6  A    between atoms: C7_11  and  N2_12 
REMARK    7  A    between atoms: C8_14  and  C9_16 
REMARK    8  A    between atoms: C9_16  and  C10_17 
REMARK    9  A    between atoms: C16_25  and  C17_26 
REMARK   10  A    between atoms: C17_26  and  O3_27 
REMARK   11  A    between atoms: N4_29  and  O4_31 
REMARK   12  A    between atoms: C22_38  and  C23_39 
REMARK   13  A    between atoms: C24_42  and  O7_43 
REMARK   14  A    between atoms: N5_45  and  O8_46 
ROOT
HETATM    1  C5  UNL     1     -10.664  15.018 -34.840  1.00  0.00     0.174 C 
HETATM    2  C6  UNL     1      -9.822  14.549 -36.042  1.00  0.00     0.087 C 
HETATM    3  C7  UNL     1      -9.564  13.274 -36.134  1.00  0.00     0.123 C 
HETATM    4  O2  UNL     1      -9.370  15.422 -36.954  1.00  0.00    -0.352 OA
HETATM    5  C14 UNL     1      -9.874  16.452 -37.700  1.00  0.00     0.176 C 
HETATM    6  C15 UNL     1      -8.946  17.611 -37.973  1.00  0.00     0.039 C 
HETATM    7  C16 UNL     1      -7.575  17.494 -37.422  1.00  0.00     0.064 C 
HETATM    8  C18 UNL     1      -7.089  18.716 -36.638  1.00  0.00     0.013 C 
HETATM    9  C19 UNL     1      -6.308  18.359 -35.430  1.00  0.00     0.011 C 
HETATM   10  C20 UNL     1      -6.571  19.023 -34.148  1.00  0.00     0.074 C 
HETATM   11  S1  UNL     1      -8.164  19.508 -33.650  1.00  0.00    -0.168 SA
HETATM   12  C21 UNL     1      -8.892  18.836 -32.167  1.00  0.00     0.097 C 
HETATM   13  C22 UNL     1     -10.215  18.064 -32.477  1.00  0.00     0.172 C 
HETATM   14  C24 UNL     1     -10.057  17.392 -33.796  1.00  0.00     0.153 C 
HETATM   15  N5  UNL     1      -9.884  16.139 -34.272  1.00  0.00    -0.230 N 
ENDROOT
BRANCH   1  16
HETATM   16  C4  UNL     1     -10.717  13.899 -33.828  1.00  0.00     0.035 C 
BRANCH  16  17
HETATM   17  C3  UNL     1     -11.979  13.783 -33.045  1.00  0.00     0.004 C 
BRANCH  17  18
HETATM   18  C2  UNL     1     -12.551  12.457 -32.799  1.00  0.00     0.027 C 
BRANCH  18  19
HETATM   19  C1  UNL     1     -11.775  11.229 -32.649  1.00  0.00     0.229 C 
BRANCH  19  20
HETATM   20  N1  UNL     1     -12.422  10.094 -32.071  1.00  0.00    -0.079 N 
ATOM     21  H13 UNL     1     -12.975  10.397 -31.268  1.00  0.00     0.274 HD
ATOM     22  H12 UNL     1     -13.156   9.771 -32.701  1.00  0.00     0.274 HD
ATOM     23  H11 UNL     1     -11.843   9.301 -31.798  1.00  0.00     0.274 HD
ENDBRANCH  19  20
ENDBRANCH  18  19
ENDBRANCH  17  18
ENDBRANCH  16  17
ENDBRANCH   1  16
BRANCH   3  24
HETATM   24  N2  UNL     1      -8.791  12.707 -37.206  1.00  0.00    -0.355 N 
HETATM   25  C8  UNL     1      -7.572  12.400 -37.189  1.00  0.00     0.099 C 
HETATM   26  N3  UNL     1      -7.022  11.848 -38.382  1.00  0.00    -0.087 NA
ATOM     27  H2  UNL     1      -9.288  12.536 -38.080  1.00  0.00     0.166 HD
BRANCH  25  28
HETATM   28  C9  UNL     1      -6.649  12.568 -36.025  1.00  0.00     0.138 C 
BRANCH  28  29
HETATM   29  C10 UNL     1      -6.876  11.495 -35.012  1.00  0.00     0.059 A 
HETATM   30  C11 UNL     1      -5.889  10.685 -34.501  1.00  0.00     0.035 A 
HETATM   31  C12 UNL     1      -6.518   9.830 -33.594  1.00  0.00     0.027 A 
HETATM   32  C13 UNL     1      -7.844  10.175 -33.610  1.00  0.00     0.142 A 
HETATM   33  O1  UNL     1      -8.006  11.163 -34.464  1.00  0.00    -0.327 OA
ENDBRANCH  28  29
ENDBRANCH  25  28
ENDBRANCH   3  24
BRANCH  15  34
HETATM   34  O8  UNL     1      -8.525  15.681 -34.316  1.00  0.00    -0.285 OA
ATOM     35  H8  UNL     1      -8.490  15.129 -35.089  1.00  0.00     0.245 HD
ENDBRANCH  15  34
BRANCH  14  36
HETATM   36  O7  UNL     1     -10.099  18.338 -34.694  1.00  0.00    -0.347 OA
ATOM     37  H7  UNL     1      -9.546  18.048 -35.411  1.00  0.00     0.219 HD
ENDBRANCH  14  36
BRANCH  13  38
HETATM   38  C23 UNL     1     -11.235  19.119 -32.567  1.00  0.00     0.185 C 
HETATM   39  O5  UNL     1     -12.276  18.964 -33.223  1.00  0.00    -0.647 OA
HETATM   40  O6  UNL     1     -11.012  20.333 -31.886  1.00  0.00    -0.647 OA
ENDBRANCH  13  38
BRANCH   7  41
HETATM   41  C17 UNL     1      -6.582  17.275 -38.487  1.00  0.00     0.139 C 
HETATM   42  N4  UNL     1      -6.392  16.191 -39.069  1.00  0.00    -0.251 N 
ATOM     43  H4  UNL     1      -5.657  16.271 -39.772  1.00  0.00     0.196 HD
BRANCH  41  44
HETATM   44  O3  UNL     1      -5.750  18.352 -38.910  1.00  0.00    -0.348 OA
ATOM     45  H3  UNL     1      -5.210  18.252 -39.684  1.00  0.00     0.219 HD
ENDBRANCH  41  44
BRANCH  42  46
HETATM   46  O4  UNL     1      -6.884  14.965 -39.023  1.00  0.00    -0.288 OA
ATOM     47  H4  UNL     1      -6.883  14.192 -39.575  1.00  0.00     0.244 HD
ENDBRANCH  42  46
ENDBRANCH   7  41
TORSDOF 14
ENDMDL
MODEL 5
REMARK VINA RESULT: -4.920945433      3.853      8.297
REMARK  14 active torsions:
REMARK  status: ('A' for Active; 'I' for Inactive)
REMARK    1  A    between atoms: N1_1  and  C1_5 
REMARK    2  A    between atoms: C1_5  and  C2_6 
REMARK    3  A    between atoms: C2_6  and  C3_7 
REMARK    4  A    between atoms: C3_7  and  C4_8 
REMARK    5  A    between atoms: C4_8  and  C5_9 
REMARK    6  A    between atoms: C7_11  and  N2_12 
REMARK    7  A    between atoms: C8_14  and  C9_16 
REMARK    8  A    between atoms: C9_16  and  C10_17 
REMARK    9  A    between atoms: C16_25  and  C17_26 
REMARK   10  A    between atoms: C17_26  and  O3_27 
REMARK   11  A    between atoms: N4_29  and  O4_31 
REMARK   12  A    between atoms: C22_38  and  C23_39 
REMARK   13  A    between atoms: C24_42  and  O7_43 
REMARK   14  A    between atoms: N5_45  and  O8_46 
ROOT
HETATM    1  C5  UNL     1      -7.246  18.751 -33.056  1.00  0.00     0.174 C 
HETATM    2  C6  UNL     1      -8.217  18.146 -34.090  1.00  0.00     0.087 C 
HETATM    3  C7  UNL     1      -7.697  17.608 -35.158  1.00  0.00     0.123 C 
HETATM    4  O2  UNL     1      -9.542  18.178 -33.897  1.00  0.00    -0.352 OA
HETATM    5  C14 UNL     1     -10.422  17.885 -32.891  1.00  0.00     0.176 C 
HETATM    6  C15 UNL     1     -11.654  18.753 -32.791  1.00  0.00     0.039 C 
HETATM    7  C16 UNL     1     -11.789  19.816 -33.815  1.00  0.00     0.064 C 
HETATM    8  C18 UNL     1     -12.106  21.208 -33.261  1.00  0.00     0.013 C 
HETATM    9  C19 UNL     1     -11.384  22.293 -33.968  1.00  0.00     0.011 C 
HETATM   10  C20 UNL     1     -10.714  23.358 -33.212  1.00  0.00     0.074 C 
HETATM   11  S1  UNL     1      -9.933  23.079 -31.684  1.00  0.00    -0.168 SA
HETATM   12  C21 UNL     1      -8.188  23.391 -31.491  1.00  0.00     0.097 C 
HETATM   13  C22 UNL     1      -7.414  22.093 -31.090  1.00  0.00     0.172 C 
HETATM   14  C24 UNL     1      -8.060  20.942 -31.778  1.00  0.00     0.153 C 
HETATM   15  N5  UNL     1      -7.791  20.102 -32.803  1.00  0.00    -0.230 N 
ENDROOT
BRANCH   1  16
HETATM   16  C4  UNL     1      -5.887  18.885 -33.698  1.00  0.00     0.035 C 
BRANCH  16  17
HETATM   17  C3  UNL     1      -4.716  18.713 -32.793  1.00  0.00     0.004 C 
BRANCH  17  18
HETATM   18  C2  UNL     1      -4.274  19.841 -31.969  1.00  0.00     0.027 C 
BRANCH  18  19
HETATM   19  C1  UNL     1      -4.483  19.951 -30.528  1.00  0.00     0.229 C 
BRANCH  19  20
HETATM   20  N1  UNL     1      -5.344  18.999 -29.900  1.00  0.00    -0.079 N 
ATOM     21  H13 UNL     1      -5.012  18.823 -28.952  1.00  0.00     0.274 HD
ATOM     22  H12 UNL     1      -6.245  19.437 -29.713  1.00  0.00     0.274 HD
ATOM     23  H11 UNL     1      -5.496  18.109 -30.373  1.00  0.00     0.274 HD
ENDBRANCH  19  20
ENDBRANCH  18  19
ENDBRANCH  17  18
ENDBRANCH  16  17
ENDBRANCH   1  16
BRANCH   3  24
HETATM   24  N2  UNL     1      -8.489  17.010 -36.198  1.00  0.00    -0.355 N 
HETATM   25  C8  UNL     1      -8.730  15.788 -36.368  1.00  0.00     0.099 C 
HETATM   26  N3  UNL     1      -9.549  15.433 -37.478  1.00  0.00    -0.087 NA
ATOM     27  H2  UNL     1      -8.904  17.650 -36.875  1.00  0.00     0.166 HD
BRANCH  25  28
HETATM   28  C9  UNL     1      -8.226  14.674 -35.507  1.00  0.00     0.138 C 
BRANCH  28  29
HETATM   29  C10 UNL     1      -9.330  14.104 -34.681  1.00  0.00     0.059 A 
HETATM   30  C11 UNL     1      -9.353  12.818 -34.192  1.00  0.00     0.035 A 
HETATM   31  C12 UNL     1     -10.548  12.694 -33.480  1.00  0.00     0.027 A 
HETATM   32  C13 UNL     1     -11.173  13.909 -33.581  1.00  0.00     0.142 A 
HETATM   33  O1  UNL     1     -10.415  14.709 -34.301  1.00  0.00    -0.327 OA
ENDBRANCH  28  29
ENDBRANCH  25  28
ENDBRANCH   3  24
BRANCH  15  34
HETATM   34  O8  UNL     1      -8.161  20.583 -34.104  1.00  0.00    -0.285 OA
ATOM     35  H8  UNL     1      -9.036  20.240 -34.239  1.00  0.00     0.245 HD
ENDBRANCH  15  34
BRANCH  14  36
HETATM   36  O7  UNL     1      -9.203  20.752 -31.177  1.00  0.00    -0.347 OA
ATOM     37  H7  UNL     1      -9.119  19.936 -30.698  1.00  0.00     0.219 HD
ENDBRANCH  14  36
BRANCH  13  38
HETATM   38  C23 UNL     1      -7.614  21.989 -29.637  1.00  0.00     0.185 C 
HETATM   39  O5  UNL     1      -7.550  20.900 -29.047  1.00  0.00    -0.647 OA
HETATM   40  O6  UNL     1      -7.885  23.164 -28.907  1.00  0.00    -0.647 OA
ENDBRANCH  13  38
BRANCH   7  41
HETATM   41  C17 UNL     1     -12.862  19.508 -34.775  1.00  0.00     0.139 C 
HETATM   42  N4  UNL     1     -12.755  18.716 -35.730  1.00  0.00    -0.251 N 
ATOM     43  H4  UNL     1     -13.624  18.656 -36.262  1.00  0.00     0.196 HD
BRANCH  41  44
HETATM   44  O3  UNL     1     -14.130  20.144 -34.645  1.00  0.00    -0.348 OA
ATOM     45  H3  UNL     1     -14.570  20.478 -35.418  1.00  0.00     0.219 HD
ENDBRANCH  41  44
BRANCH  42  46
HETATM   46  O4  UNL     1     -11.822  17.932 -36.241  1.00  0.00    -0.288 OA
ATOM     47  H4  UNL     1     -11.254  17.234 -35.938  1.00  0.00     0.244 HD
ENDBRANCH  42  46
ENDBRANCH   7  41
TORSDOF 14
ENDMDL
