MODEL 1
REMARK VINA RESULT: -7.153314677      0.000      0.000
REMARK  9 active torsions:
REMARK  status: ('A' for Active; 'I' for Inactive)
REMARK    1  A    between atoms: O1_2  and  C2_3 
REMARK    2  A    between atoms: C3_4  and  N1_5 
REMARK       I    between atoms: N1_5  and  C4_7 
REMARK    3  A    between atoms: C4_7  and  C5_9 
REMARK    4  A    between atoms: C5_9  and  N2_10 
REMARK       I    between atoms: N2_10  and  C6_12 
REMARK    5  A    between atoms: C6_12  and  C7_14 
REMARK    6  A    between atoms: C7_14  and  S1_15 
REMARK    7  A    between atoms: C7_14  and  C14_31 
REMARK    8  A    between atoms: S1_15  and  C8_16 
REMARK    9  A    between atoms: C19_39  and  N7_40 
ROOT
HETATM    1  N2  UNL     1      -8.598  13.479 -35.134  1.00  0.00    -0.351 N 
ATOM      2  H2  UNL     1      -8.348  13.797 -34.198  1.00  0.00     0.163 HD
HETATM    3  C6  UNL     1      -8.809  12.069 -35.428  1.00  0.00     0.242 C 
HETATM    4  O3  UNL     1      -9.111  11.767 -36.583  1.00  0.00    -0.272 OA
ENDROOT
BRANCH   3   5
HETATM    5  C7  UNL     1      -8.645  11.149 -34.325  1.00  0.00     0.245 C 
BRANCH   5   6
HETATM    6  S1  UNL     1      -9.344  11.537 -32.748  1.00  0.00    -0.095 SA
BRANCH   6   7
HETATM    7  C8  UNL     1     -11.152  11.586 -32.718  1.00  0.00     0.070 A 
HETATM    8  S2  UNL     1     -12.160  12.925 -33.043  1.00  0.00    -0.062 SA
HETATM    9  C9  UNL     1     -13.682  12.176 -32.883  1.00  0.00     0.092 A 
HETATM   10  N3  UNL     1     -14.977  12.612 -33.000  1.00  0.00    -0.346 N 
HETATM   11  C12 UNL     1     -13.371  10.881 -32.576  1.00  0.00     0.067 A 
HETATM   12  C10 UNL     1     -16.008  11.772 -32.814  1.00  0.00     0.182 A 
ATOM     13  H3  UNL     1     -15.160  13.588 -33.231  1.00  0.00     0.167 HD
HETATM   14  N4  UNL     1     -15.738  10.512 -32.516  1.00  0.00    -0.338 N 
HETATM   15  C11 UNL     1     -14.484  10.036 -32.390  1.00  0.00     0.114 A 
ATOM     16  H4  UNL     1     -16.517   9.869 -32.373  1.00  0.00     0.168 HD
HETATM   17  N5  UNL     1     -14.406   8.808 -32.100  1.00  0.00    -0.385 N 
ATOM     18  H52 UNL     1     -15.211   8.197 -31.966  1.00  0.00     0.157 HD
ATOM     19  H51 UNL     1     -13.456   8.448 -32.005  1.00  0.00     0.157 HD
HETATM   20  C13 UNL     1     -12.048  10.580 -32.492  1.00  0.00     0.086 A 
HETATM   21  N6  UNL     1     -11.542   9.251 -32.224  1.00  0.00    -0.099 NA
ENDBRANCH   6   7
ENDBRANCH   5   6
BRANCH   5  22
HETATM   22  C14 UNL     1      -7.185  10.817 -34.092  1.00  0.00     0.197 C 
HETATM   23  O4  UNL     1      -6.274  11.233 -34.845  1.00  0.00    -0.647 OA
HETATM   24  O5  UNL     1      -6.889  10.033 -33.011  1.00  0.00    -0.647 OA
ENDBRANCH   5  22
ENDBRANCH   3   5
BRANCH   1  25
HETATM   25  C5  UNL     1      -8.758  14.394 -36.215  1.00  0.00     0.225 C 
BRANCH  25  26
HETATM   26  C4  UNL     1      -9.828  15.358 -36.007  1.00  0.00     0.239 C 
HETATM   27  N1  UNL     1      -9.818  16.707 -36.381  1.00  0.00    -0.322 N 
ATOM     28  H1  UNL     1      -8.995  17.087 -36.848  1.00  0.00     0.169 HD
HETATM   29  O2  UNL     1     -10.906  14.947 -35.422  1.00  0.00    -0.271 OA
BRANCH  27  30
HETATM   30  C3  UNL     1     -10.946  17.575 -36.123  1.00  0.00     0.093 A 
HETATM   31  C2  UNL     1     -10.931  18.355 -35.005  1.00  0.00     0.140 A 
HETATM   32  C19 UNL     1     -11.971  19.223 -34.671  1.00  0.00     0.237 A 
HETATM   33  C17 UNL     1     -13.030  19.258 -35.544  1.00  0.00    -0.014 A 
HETATM   34  C16 UNL     1     -13.044  18.455 -36.697  1.00  0.00     0.036 A 
HETATM   35  C18 UNL     1     -14.173  20.132 -35.355  1.00  0.00     0.051 C 
HETATM   36  C15 UNL     1     -11.982  17.599 -36.989  1.00  0.00     0.064 A 
HETATM   37 CL1  UNL     1     -12.045  16.618 -38.431  1.00  0.00    -0.082 Cl
BRANCH  31  38
HETATM   38  O1  UNL     1      -9.838  18.287 -34.160  1.00  0.00    -0.351 OA
HETATM   39  C1  UNL     1      -8.707  19.079 -34.579  1.00  0.00     0.210 C 
ENDBRANCH  31  38
BRANCH  32  40
HETATM   40  N7  UNL     1     -11.998  20.001 -33.513  1.00  0.00     0.042 N 
HETATM   41  C20 UNL     1     -11.606  19.370 -32.298  1.00  0.00     0.363 C 
HETATM   42  C21 UNL     1     -11.388  21.326 -33.664  1.00  0.00     0.363 C 
HETATM   43  O6  UNL     1     -13.329  20.342 -33.291  1.00  0.00    -0.060 OA
ENDBRANCH  32  40
ENDBRANCH  27  30
ENDBRANCH  25  26
ENDBRANCH   1  25
TORSDOF 9
ENDMDL
MODEL 2
REMARK VINA RESULT: -6.613754687      1.774      2.375
REMARK  9 active torsions:
REMARK  status: ('A' for Active; 'I' for Inactive)
REMARK    1  A    between atoms: O1_2  and  C2_3 
REMARK    2  A    between atoms: C3_4  and  N1_5 
REMARK       I    between atoms: N1_5  and  C4_7 
REMARK    3  A    between atoms: C4_7  and  C5_9 
REMARK    4  A    between atoms: C5_9  and  N2_10 
REMARK       I    between atoms: N2_10  and  C6_12 
REMARK    5  A    between atoms: C6_12  and  C7_14 
REMARK    6  A    between atoms: C7_14  and  S1_15 
REMARK    7  A    between atoms: C7_14  and  C14_31 
REMARK    8  A    between atoms: S1_15  and  C8_16 
REMARK    9  A    between atoms: C19_39  and  N7_40 
ROOT
HETATM    1  N2  UNL     1      -8.478  13.466 -35.106  1.00  0.00    -0.351 N 
ATOM      2  H2  UNL     1      -8.133  13.752 -34.189  1.00  0.00     0.163 HD
HETATM    3  C6  UNL     1      -8.792  12.076 -35.401  1.00  0.00     0.242 C 
HETATM    4  O3  UNL     1      -9.205  11.813 -36.531  1.00  0.00    -0.272 OA
ENDROOT
BRANCH   3   5
HETATM    5  C7  UNL     1      -8.587  11.127 -34.330  1.00  0.00     0.245 C 
BRANCH   5   6
HETATM    6  S1  UNL     1      -9.286  11.440 -32.736  1.00  0.00    -0.095 SA
BRANCH   6   7
HETATM    7  C8  UNL     1     -11.093  11.520 -32.710  1.00  0.00     0.070 A 
HETATM    8  S2  UNL     1     -12.077  12.877 -33.037  1.00  0.00    -0.062 SA
HETATM    9  C9  UNL     1     -13.612  12.155 -32.881  1.00  0.00     0.092 A 
HETATM   10  N3  UNL     1     -14.899  12.613 -33.000  1.00  0.00    -0.346 N 
HETATM   11  C12 UNL     1     -13.325  10.855 -32.573  1.00  0.00     0.067 A 
HETATM   12  C10 UNL     1     -15.945  11.792 -32.816  1.00  0.00     0.182 A 
ATOM     13  H3  UNL     1     -15.065  13.593 -33.231  1.00  0.00     0.167 HD
HETATM   14  N4  UNL     1     -15.698  10.527 -32.517  1.00  0.00    -0.338 N 
HETATM   15  C11 UNL     1     -14.453  10.029 -32.390  1.00  0.00     0.114 A 
ATOM     16  H4  UNL     1     -16.488   9.898 -32.377  1.00  0.00     0.168 HD
HETATM   17  N5  UNL     1     -14.397   8.800 -32.100  1.00  0.00    -0.385 N 
ATOM     18  H52 UNL     1     -15.213   8.203 -31.967  1.00  0.00     0.157 HD
ATOM     19  H51 UNL     1     -13.454   8.423 -32.002  1.00  0.00     0.157 HD
HETATM   20  C13 UNL     1     -12.008  10.531 -32.487  1.00  0.00     0.086 A 
HETATM   21  N6  UNL     1     -11.525   9.192 -32.217  1.00  0.00    -0.099 NA
ENDBRANCH   6   7
ENDBRANCH   5   6
BRANCH   5  22
HETATM   22  C14 UNL     1      -7.115  10.838 -34.119  1.00  0.00     0.197 C 
HETATM   23  O4  UNL     1      -6.233  11.232 -34.915  1.00  0.00    -0.647 OA
HETATM   24  O5  UNL     1      -6.775  10.119 -33.005  1.00  0.00    -0.647 OA
ENDBRANCH   5  22
ENDBRANCH   3   5
BRANCH   1  25
HETATM   25  C5  UNL     1      -8.676  14.410 -36.155  1.00  0.00     0.225 C 
BRANCH  25  26
HETATM   26  C4  UNL     1      -9.717  15.386 -35.870  1.00  0.00     0.239 C 
HETATM   27  N1  UNL     1      -9.578  16.779 -35.888  1.00  0.00    -0.322 N 
ATOM     28  H1  UNL     1      -8.672  17.185 -36.120  1.00  0.00     0.169 HD
HETATM   29  O2  UNL     1     -10.894  14.944 -35.570  1.00  0.00    -0.271 OA
BRANCH  27  30
HETATM   30  C3  UNL     1     -10.688  17.656 -35.587  1.00  0.00     0.093 A 
HETATM   31  C2  UNL     1     -11.426  18.161 -36.616  1.00  0.00     0.140 A 
HETATM   32  C19 UNL     1     -12.513  19.013 -36.425  1.00  0.00     0.237 A 
HETATM   33  C17 UNL     1     -12.814  19.322 -35.121  1.00  0.00    -0.014 A 
HETATM   34  C16 UNL     1     -12.055  18.802 -34.061  1.00  0.00     0.036 A 
HETATM   35  C18 UNL     1     -13.935  20.170 -34.756  1.00  0.00     0.051 C 
HETATM   36  C15 UNL     1     -10.973  17.954 -34.300  1.00  0.00     0.064 A 
HETATM   37 CL1  UNL     1     -10.057  17.334 -32.950  1.00  0.00    -0.082 Cl
BRANCH  31  38
HETATM   38  O1  UNL     1     -11.085  17.814 -37.911  1.00  0.00    -0.351 OA
HETATM   39  C1  UNL     1     -11.724  16.616 -38.398  1.00  0.00     0.210 C 
ENDBRANCH  31  38
BRANCH  32  40
HETATM   40  N7  UNL     1     -13.259  19.574 -37.463  1.00  0.00     0.042 N 
HETATM   41  C20 UNL     1     -14.352  18.810 -37.962  1.00  0.00     0.363 C 
HETATM   42  C21 UNL     1     -13.622  20.978 -37.252  1.00  0.00     0.363 C 
HETATM   43  O6  UNL     1     -12.406  19.679 -38.558  1.00  0.00    -0.060 OA
ENDBRANCH  32  40
ENDBRANCH  27  30
ENDBRANCH  25  26
ENDBRANCH   1  25
TORSDOF 9
ENDMDL
MODEL 3
REMARK VINA RESULT: -6.453106655      1.813      2.440
REMARK  9 active torsions:
REMARK  status: ('A' for Active; 'I' for Inactive)
REMARK    1  A    between atoms: O1_2  and  C2_3 
REMARK    2  A    between atoms: C3_4  and  N1_5 
REMARK       I    between atoms: N1_5  and  C4_7 
REMARK    3  A    between atoms: C4_7  and  C5_9 
REMARK    4  A    between atoms: C5_9  and  N2_10 
REMARK       I    between atoms: N2_10  and  C6_12 
REMARK    5  A    between atoms: C6_12  and  C7_14 
REMARK    6  A    between atoms: C7_14  and  S1_15 
REMARK    7  A    between atoms: C7_14  and  C14_31 
REMARK    8  A    between atoms: S1_15  and  C8_16 
REMARK    9  A    between atoms: C19_39  and  N7_40 
ROOT
HETATM    1  N2  UNL     1      -8.702  13.510 -34.634  1.00  0.00    -0.351 N 
ATOM      2  H2  UNL     1      -8.522  13.658 -33.640  1.00  0.00     0.163 HD
HETATM    3  C6  UNL     1      -8.794  12.172 -35.199  1.00  0.00     0.242 C 
HETATM    4  O3  UNL     1      -9.015  12.078 -36.407  1.00  0.00    -0.272 OA
ENDROOT
BRANCH   3   5
HETATM    5  C7  UNL     1      -8.618  11.070 -34.280  1.00  0.00     0.245 C 
BRANCH   5   6
HETATM    6  S1  UNL     1      -9.353  11.142 -32.674  1.00  0.00    -0.095 SA
BRANCH   6   7
HETATM    7  C8  UNL     1     -11.153  11.331 -32.677  1.00  0.00     0.070 A 
HETATM    8  S2  UNL     1     -12.048  12.738 -33.046  1.00  0.00    -0.062 SA
HETATM    9  C9  UNL     1     -13.626  12.112 -32.900  1.00  0.00     0.092 A 
HETATM   10  N3  UNL     1     -14.881  12.644 -33.049  1.00  0.00    -0.346 N 
HETATM   11  C12 UNL     1     -13.423  10.803 -32.563  1.00  0.00     0.067 A 
HETATM   12  C10 UNL     1     -15.977  11.891 -32.866  1.00  0.00     0.182 A 
ATOM     13  H3  UNL     1     -14.984  13.627 -33.302  1.00  0.00     0.167 HD
HETATM   14  N4  UNL     1     -15.811  10.620 -32.539  1.00  0.00    -0.338 N 
HETATM   15  C11 UNL     1     -14.600  10.051 -32.382  1.00  0.00     0.114 A 
ATOM     16  H4  UNL     1     -16.640  10.043 -32.399  1.00  0.00     0.168 HD
HETATM   17  N5  UNL     1     -14.623   8.827 -32.067  1.00  0.00    -0.385 N 
ATOM     18  H52 UNL     1     -15.475   8.282 -31.936  1.00  0.00     0.157 HD
ATOM     19  H51 UNL     1     -13.706   8.396 -31.948  1.00  0.00     0.157 HD
HETATM   20  C13 UNL     1     -12.129  10.403 -32.450  1.00  0.00     0.086 A 
HETATM   21  N6  UNL     1     -11.731   9.044 -32.147  1.00  0.00    -0.099 NA
ENDBRANCH   6   7
ENDBRANCH   5   6
BRANCH   5  22
HETATM   22  C14 UNL     1      -7.152  10.742 -34.082  1.00  0.00     0.197 C 
HETATM   23  O4  UNL     1      -6.760   9.921 -33.221  1.00  0.00    -0.647 OA
HETATM   24  O5  UNL     1      -6.255  11.385 -34.890  1.00  0.00    -0.647 OA
ENDBRANCH   5  22
ENDBRANCH   3   5
BRANCH   1  25
HETATM   25  C5  UNL     1      -8.874  14.603 -35.531  1.00  0.00     0.225 C 
BRANCH  25  26
HETATM   26  C4  UNL     1      -9.283  15.836 -34.874  1.00  0.00     0.239 C 
HETATM   27  N1  UNL     1      -8.974  17.139 -35.283  1.00  0.00    -0.322 N 
ATOM     28  H1  UNL     1      -8.407  17.276 -36.119  1.00  0.00     0.169 HD
HETATM   29  O2  UNL     1     -10.007  15.740 -33.807  1.00  0.00    -0.271 OA
BRANCH  27  30
HETATM   30  C3  UNL     1      -9.438  18.295 -34.548  1.00  0.00     0.093 A 
HETATM   31  C2  UNL     1      -8.642  18.815 -33.570  1.00  0.00     0.140 A 
HETATM   32  C19 UNL     1      -9.003  19.927 -32.809  1.00  0.00     0.237 A 
HETATM   33  C17 UNL     1     -10.222  20.487 -33.101  1.00  0.00    -0.014 A 
HETATM   34  C16 UNL     1     -11.041  19.951 -34.108  1.00  0.00     0.036 A 
HETATM   35  C18 UNL     1     -10.726  21.666 -32.420  1.00  0.00     0.051 C 
HETATM   36  C15 UNL     1     -10.640  18.836 -34.843  1.00  0.00     0.064 A 
HETATM   37 CL1  UNL     1     -11.693  18.203 -36.084  1.00  0.00    -0.082 Cl
BRANCH  31  38
HETATM   38  O1  UNL     1      -7.420  18.218 -33.319  1.00  0.00    -0.351 OA
HETATM   39  C1  UNL     1      -6.410  18.477 -34.316  1.00  0.00     0.210 C 
ENDBRANCH  31  38
BRANCH  32  40
HETATM   40  N7  UNL     1      -8.224  20.453 -31.777  1.00  0.00     0.042 N 
HETATM   41  C20 UNL     1      -7.238  21.416 -32.137  1.00  0.00     0.363 C 
HETATM   42  C21 UNL     1      -8.989  20.866 -30.597  1.00  0.00     0.363 C 
HETATM   43  O6  UNL     1      -7.479  19.398 -31.259  1.00  0.00    -0.060 OA
ENDBRANCH  32  40
ENDBRANCH  27  30
ENDBRANCH  25  26
ENDBRANCH   1  25
TORSDOF 9
ENDMDL
MODEL 4
REMARK VINA RESULT: -6.422083461      1.906      2.519
REMARK  9 active torsions:
REMARK  status: ('A' for Active; 'I' for Inactive)
REMARK    1  A    between atoms: O1_2  and  C2_3 
REMARK    2  A    between atoms: C3_4  and  N1_5 
REMARK       I    between atoms: N1_5  and  C4_7 
REMARK    3  A    between atoms: C4_7  and  C5_9 
REMARK    4  A    between atoms: C5_9  and  N2_10 
REMARK       I    between atoms: N2_10  and  C6_12 
REMARK    5  A    between atoms: C6_12  and  C7_14 
REMARK    6  A    between atoms: C7_14  and  S1_15 
REMARK    7  A    between atoms: C7_14  and  C14_31 
REMARK    8  A    between atoms: S1_15  and  C8_16 
REMARK    9  A    between atoms: C19_39  and  N7_40 
ROOT
HETATM    1  N2  UNL     1      -8.240  13.244 -35.282  1.00  0.00    -0.351 N 
ATOM      2  H2  UNL     1      -7.892  13.586 -34.385  1.00  0.00     0.163 HD
HETATM    3  C6  UNL     1      -8.681  11.868 -35.453  1.00  0.00     0.242 C 
HETATM    4  O3  UNL     1      -9.088  11.535 -36.567  1.00  0.00    -0.272 OA
ENDROOT
BRANCH   3   5
HETATM    5  C7  UNL     1      -8.600  11.016 -34.289  1.00  0.00     0.245 C 
BRANCH   5   6
HETATM    6  S1  UNL     1      -9.304  11.553 -32.758  1.00  0.00    -0.095 SA
BRANCH   6   7
HETATM    7  C8  UNL     1     -11.112  11.600 -32.736  1.00  0.00     0.070 A 
HETATM    8  S2  UNL     1     -12.121  12.934 -33.082  1.00  0.00    -0.062 SA
HETATM    9  C9  UNL     1     -13.642  12.185 -32.920  1.00  0.00     0.092 A 
HETATM   10  N3  UNL     1     -14.937  12.618 -33.047  1.00  0.00    -0.346 N 
HETATM   11  C12 UNL     1     -13.332  10.894 -32.596  1.00  0.00     0.067 A 
HETATM   12  C10 UNL     1     -15.968  11.779 -32.856  1.00  0.00     0.182 A 
ATOM     13  H3  UNL     1     -15.121  13.591 -33.291  1.00  0.00     0.167 HD
HETATM   14  N4  UNL     1     -15.698  10.523 -32.542  1.00  0.00    -0.338 N 
HETATM   15  C11 UNL     1     -14.444  10.050 -32.405  1.00  0.00     0.114 A 
ATOM     16  H4  UNL     1     -16.477   9.881 -32.395  1.00  0.00     0.168 HD
HETATM   17  N5  UNL     1     -14.366   8.826 -32.100  1.00  0.00    -0.385 N 
ATOM     18  H52 UNL     1     -15.171   8.215 -31.962  1.00  0.00     0.157 HD
ATOM     19  H51 UNL     1     -13.416   8.467 -31.997  1.00  0.00     0.157 HD
HETATM   20  C13 UNL     1     -12.009  10.596 -32.503  1.00  0.00     0.086 A 
HETATM   21  N6  UNL     1     -11.502   9.270 -32.217  1.00  0.00    -0.099 NA
ENDBRANCH   6   7
ENDBRANCH   5   6
BRANCH   5  22
HETATM   22  C14 UNL     1      -7.171  10.606 -33.999  1.00  0.00     0.197 C 
HETATM   23  O4  UNL     1      -6.851   9.975 -32.965  1.00  0.00    -0.647 OA
HETATM   24  O5  UNL     1      -6.224  10.953 -34.923  1.00  0.00    -0.647 OA
ENDBRANCH   5  22
ENDBRANCH   3   5
BRANCH   1  25
HETATM   25  C5  UNL     1      -8.315  14.093 -36.424  1.00  0.00     0.225 C 
BRANCH  25  26
HETATM   26  C4  UNL     1      -8.441  15.505 -36.092  1.00  0.00     0.239 C 
HETATM   27  N1  UNL     1      -8.219  16.088 -34.839  1.00  0.00    -0.322 N 
ATOM     28  H1  UNL     1      -7.940  15.495 -34.058  1.00  0.00     0.169 HD
HETATM   29  O2  UNL     1      -8.789  16.318 -37.035  1.00  0.00    -0.271 OA
BRANCH  27  30
HETATM   30  C3  UNL     1      -8.375  17.510 -34.625  1.00  0.00     0.093 A 
HETATM   31  C2  UNL     1      -9.606  17.993 -34.290  1.00  0.00     0.140 A 
HETATM   32  C19 UNL     1      -9.854  19.346 -34.065  1.00  0.00     0.237 A 
HETATM   33  C17 UNL     1      -8.776  20.187 -34.194  1.00  0.00    -0.014 A 
HETATM   34  C16 UNL     1      -7.508  19.689 -34.538  1.00  0.00     0.036 A 
HETATM   35  C18 UNL     1      -8.865  21.617 -33.960  1.00  0.00     0.051 C 
HETATM   36  C15 UNL     1      -7.306  18.327 -34.757  1.00  0.00     0.064 A 
HETATM   37 CL1  UNL     1      -5.714  17.754 -35.185  1.00  0.00    -0.082 Cl
BRANCH  31  38
HETATM   38  O1  UNL     1     -10.658  17.104 -34.167  1.00  0.00    -0.351 OA
HETATM   39  C1  UNL     1     -10.722  16.424 -32.897  1.00  0.00     0.210 C 
ENDBRANCH  31  38
BRANCH  32  40
HETATM   40  N7  UNL     1     -11.112  19.870 -33.760  1.00  0.00     0.042 N 
HETATM   41  C20 UNL     1     -11.525  19.813 -32.399  1.00  0.00     0.363 C 
HETATM   42  C21 UNL     1     -11.379  21.181 -34.360  1.00  0.00     0.363 C 
HETATM   43  O6  UNL     1     -12.046  19.077 -34.420  1.00  0.00    -0.060 OA
ENDBRANCH  32  40
ENDBRANCH  27  30
ENDBRANCH  25  26
ENDBRANCH   1  25
TORSDOF 9
ENDMDL
MODEL 5
REMARK VINA RESULT: -6.397053632      4.221      9.070
REMARK  9 active torsions:
REMARK  status: ('A' for Active; 'I' for Inactive)
REMARK    1  A    between atoms: O1_2  and  C2_3 
REMARK    2  A    between atoms: C3_4  and  N1_5 
REMARK       I    between atoms: N1_5  and  C4_7 
REMARK    3  A    between atoms: C4_7  and  C5_9 
REMARK    4  A    between atoms: C5_9  and  N2_10 
REMARK       I    between atoms: N2_10  and  C6_12 
REMARK    5  A    between atoms: C6_12  and  C7_14 
REMARK    6  A    between atoms: C7_14  and  S1_15 
REMARK    7  A    between atoms: C7_14  and  C14_31 
REMARK    8  A    between atoms: S1_15  and  C8_16 
REMARK    9  A    between atoms: C19_39  and  N7_40 
ROOT
HETATM    1  N2  UNL     1     -11.272  16.705 -36.040  1.00  0.00    -0.351 N 
ATOM      2  H2  UNL     1     -12.193  16.651 -35.607  1.00  0.00     0.163 HD
HETATM    3  C6  UNL     1     -10.307  17.724 -35.652  1.00  0.00     0.242 C 
HETATM    4  O3  UNL     1      -9.215  17.722 -36.222  1.00  0.00    -0.272 OA
ENDROOT
BRANCH   3   5
HETATM    5  C7  UNL     1     -10.726  18.650 -34.625  1.00  0.00     0.245 C 
BRANCH   5   6
HETATM    6  S1  UNL     1      -9.806  20.136 -34.355  1.00  0.00    -0.095 SA
BRANCH   6   7
HETATM    7  C8  UNL     1      -9.081  20.283 -32.704  1.00  0.00     0.070 A 
HETATM    8  S2  UNL     1      -9.686  21.176 -31.380  1.00  0.00    -0.062 SA
HETATM    9  C9  UNL     1      -8.519  20.767 -30.208  1.00  0.00     0.092 A 
HETATM   10  N3  UNL     1      -8.332  21.099 -28.891  1.00  0.00    -0.346 N 
HETATM   11  C12 UNL     1      -7.670  19.932 -30.880  1.00  0.00     0.067 A 
HETATM   12  C10 UNL     1      -7.292  20.611 -28.197  1.00  0.00     0.182 A 
ATOM     13  H3  UNL     1      -8.992  21.726 -28.432  1.00  0.00     0.167 HD
HETATM   14  N4  UNL     1      -6.454  19.799 -28.820  1.00  0.00    -0.338 N 
HETATM   15  C11 UNL     1      -6.594  19.443 -30.111  1.00  0.00     0.114 A 
ATOM     16  H4  UNL     1      -5.662  19.425 -28.297  1.00  0.00     0.168 HD
HETATM   17  N5  UNL     1      -5.703  18.661 -30.549  1.00  0.00    -0.385 N 
ATOM     18  H52 UNL     1      -4.924  18.308 -29.993  1.00  0.00     0.157 HD
ATOM     19  H51 UNL     1      -5.809  18.392 -31.528  1.00  0.00     0.157 HD
HETATM   20  C13 UNL     1      -7.971  19.683 -32.182  1.00  0.00     0.086 A 
HETATM   21  N6  UNL     1      -7.208  18.787 -33.026  1.00  0.00    -0.099 NA
ENDBRANCH   6   7
ENDBRANCH   5   6
BRANCH   5  22
HETATM   22  C14 UNL     1     -10.861  17.964 -33.281  1.00  0.00     0.197 C 
HETATM   23  O4  UNL     1     -11.635  18.382 -32.389  1.00  0.00    -0.647 OA
HETATM   24  O5  UNL     1     -10.096  16.849 -33.071  1.00  0.00    -0.647 OA
ENDBRANCH   5  22
ENDBRANCH   3   5
BRANCH   1  25
HETATM   25  C5  UNL     1     -10.869  15.787 -37.053  1.00  0.00     0.225 C 
BRANCH  25  26
HETATM   26  C4  UNL     1     -10.160  14.626 -36.536  1.00  0.00     0.239 C 
HETATM   27  N1  UNL     1      -9.283  14.604 -35.445  1.00  0.00    -0.322 N 
ATOM     28  H1  UNL     1      -9.099  15.469 -34.938  1.00  0.00     0.169 HD
HETATM   29  O2  UNL     1     -10.346  13.492 -37.129  1.00  0.00    -0.271 OA
BRANCH  27  30
HETATM   30  C3  UNL     1      -8.631  13.384 -35.020  1.00  0.00     0.093 A 
HETATM   31  C2  UNL     1      -7.405  13.081 -35.533  1.00  0.00     0.140 A 
HETATM   32  C19 UNL     1      -6.700  11.929 -35.184  1.00  0.00     0.237 A 
HETATM   33  C17 UNL     1      -7.311  11.101 -34.274  1.00  0.00    -0.014 A 
HETATM   34  C16 UNL     1      -8.573  11.415 -33.745  1.00  0.00     0.036 A 
HETATM   35  C18 UNL     1      -6.693   9.882 -33.786  1.00  0.00     0.051 C 
HETATM   36  C15 UNL     1      -9.244  12.577 -34.125  1.00  0.00     0.064 A 
HETATM   37 CL1  UNL     1     -10.812  12.924 -33.443  1.00  0.00    -0.082 Cl
BRANCH  31  38
HETATM   38  O1  UNL     1      -6.830  13.951 -36.442  1.00  0.00    -0.351 OA
HETATM   39  C1  UNL     1      -6.250  15.133 -35.854  1.00  0.00     0.210 C 
ENDBRANCH  31  38
BRANCH  32  40
HETATM   40  N7  UNL     1      -5.463  11.576 -35.725  1.00  0.00     0.042 N 
HETATM   41  C20 UNL     1      -5.373  11.508 -37.144  1.00  0.00     0.363 C 
HETATM   42  C21 UNL     1      -4.324  12.287 -35.136  1.00  0.00     0.363 C 
HETATM   43  O6  UNL     1      -5.205  10.270 -35.317  1.00  0.00    -0.060 OA
ENDBRANCH  32  40
ENDBRANCH  27  30
ENDBRANCH  25  26
ENDBRANCH   1  25
TORSDOF 9
ENDMDL
