MODEL 1
REMARK VINA RESULT: -10.839855110      0.000      0.000
REMARK  5 active torsions:
REMARK  status: ('A' for Active; 'I' for Inactive)
REMARK    1  A    between atoms: C3_3  and  C4_4 
REMARK    2  A    between atoms: C4_4  and  C5_5 
REMARK    3  A    between atoms: C5_5  and  C6_6 
REMARK    4  A    between atoms: C6_6  and  S1_7 
REMARK    5  A    between atoms: S1_7  and  C7_8 
ROOT
HETATM    1  C1  UNL     1      -1.308   0.704  13.784  1.00  0.00     0.012 C 
HETATM    2  C2  UNL     1      -1.012   1.578  14.557  1.00  0.00    -0.117 C 
HETATM    3  C3  UNL     1      -0.649   2.625  15.517  1.00  0.00     0.093 C 
ENDROOT
BRANCH   3   4
HETATM    4  C4  UNL     1       0.693   3.223  15.079  1.00  0.00     0.013 C 
BRANCH   4   5
HETATM    5  C5  UNL     1       1.724   2.126  15.192  1.00  0.00     0.011 C 
BRANCH   5   6
HETATM    6  C6  UNL     1       2.661   2.083  14.027  1.00  0.00     0.079 C 
BRANCH   6   7
HETATM    7  S1  UNL     1       2.745   3.734  13.270  1.00  0.00    -0.130 SA
BRANCH   7   8
HETATM    8  C7  UNL     1       4.457   3.956  12.731  1.00  0.00     0.001 A 
HETATM    9  C8  UNL     1       5.274   2.896  12.504  1.00  0.00     0.019 A 
HETATM   10  C9  UNL     1       6.579   3.039  12.093  1.00  0.00     0.013 A 
HETATM   11  C10 UNL     1       7.052   4.321  11.913  1.00  0.00    -0.025 A 
HETATM   12  C11 UNL     1       8.358   4.521  11.501  1.00  0.00     0.013 A 
HETATM   13  C19 UNL     1       6.242   5.452  12.138  1.00  0.00    -0.013 A 
HETATM   14  C12 UNL     1       8.864   5.786  11.312  1.00  0.00     0.013 A 
HETATM   15  C13 UNL     1       8.066   6.892  11.534  1.00  0.00    -0.025 A 
HETATM   16  C14 UNL     1       8.592   8.175  11.338  1.00  0.00     0.012 A 
HETATM   17  C18 UNL     1       6.765   6.710  11.943  1.00  0.00    -0.015 A 
HETATM   18  C15 UNL     1       7.798   9.260  11.558  1.00  0.00     0.001 A 
HETATM   19  C16 UNL     1       6.494   9.084  11.969  1.00  0.00     0.001 A 
HETATM   20  C17 UNL     1       5.960   7.796  12.167  1.00  0.00     0.013 A 
HETATM   21  C20 UNL     1       4.948   5.243  12.546  1.00  0.00     0.031 A 
ENDBRANCH   7   8
ENDBRANCH   6   7
ENDBRANCH   5   6
ENDBRANCH   4   5
ENDBRANCH   3   4
TORSDOF 5
ENDMDL
MODEL 2
REMARK VINA RESULT: -10.801217488      0.656      1.197
REMARK  5 active torsions:
REMARK  status: ('A' for Active; 'I' for Inactive)
REMARK    1  A    between atoms: C3_3  and  C4_4 
REMARK    2  A    between atoms: C4_4  and  C5_5 
REMARK    3  A    between atoms: C5_5  and  C6_6 
REMARK    4  A    between atoms: C6_6  and  S1_7 
REMARK    5  A    between atoms: S1_7  and  C7_8 
ROOT
HETATM    1  C1  UNL     1      -0.653   2.991  15.855  1.00  0.00     0.012 C 
HETATM    2  C2  UNL     1      -0.631   2.096  15.050  1.00  0.00    -0.117 C 
HETATM    3  C3  UNL     1      -0.603   1.025  14.050  1.00  0.00     0.093 C 
ENDROOT
BRANCH   3   4
HETATM    4  C4  UNL     1       0.735   0.287  14.185  1.00  0.00     0.013 C 
BRANCH   4   5
HETATM    5  C5  UNL     1       1.733   1.021  13.323  1.00  0.00     0.011 C 
BRANCH   5   6
HETATM    6  C6  UNL     1       2.716   1.817  14.119  1.00  0.00     0.079 C 
BRANCH   6   7
HETATM    7  S1  UNL     1       2.761   3.519  13.481  1.00  0.00    -0.130 SA
BRANCH   7   8
HETATM    8  C7  UNL     1       4.444   3.788  12.876  1.00  0.00     0.001 A 
HETATM    9  C8  UNL     1       5.282   2.752  12.622  1.00  0.00     0.019 A 
HETATM   10  C9  UNL     1       6.566   2.930  12.162  1.00  0.00     0.013 A 
HETATM   11  C10 UNL     1       6.994   4.225  11.958  1.00  0.00    -0.025 A 
HETATM   12  C11 UNL     1       8.276   4.462  11.496  1.00  0.00     0.013 A 
HETATM   13  C19 UNL     1       6.160   5.332  12.208  1.00  0.00    -0.013 A 
HETATM   14  C12 UNL     1       8.737   5.740  11.282  1.00  0.00     0.013 A 
HETATM   15  C13 UNL     1       7.916   6.823  11.528  1.00  0.00    -0.025 A 
HETATM   16  C14 UNL     1       8.395   8.120  11.307  1.00  0.00     0.012 A 
HETATM   17  C18 UNL     1       6.637   6.605  11.988  1.00  0.00    -0.015 A 
HETATM   18  C15 UNL     1       7.578   9.181  11.553  1.00  0.00     0.001 A 
HETATM   19  C16 UNL     1       6.297   8.970  12.014  1.00  0.00     0.001 A 
HETATM   20  C17 UNL     1       5.809   7.668  12.238  1.00  0.00     0.013 A 
HETATM   21  C20 UNL     1       4.889   5.088  12.667  1.00  0.00     0.031 A 
ENDBRANCH   7   8
ENDBRANCH   6   7
ENDBRANCH   5   6
ENDBRANCH   4   5
ENDBRANCH   3   4
TORSDOF 5
ENDMDL
MODEL 3
REMARK VINA RESULT: -10.783230710      1.456      7.951
REMARK  5 active torsions:
REMARK  status: ('A' for Active; 'I' for Inactive)
REMARK    1  A    between atoms: C3_3  and  C4_4 
REMARK    2  A    between atoms: C4_4  and  C5_5 
REMARK    3  A    between atoms: C5_5  and  C6_6 
REMARK    4  A    between atoms: C6_6  and  S1_7 
REMARK    5  A    between atoms: S1_7  and  C7_8 
ROOT
HETATM    1  C1  UNL     1       6.874   8.937  13.259  1.00  0.00     0.012 C 
HETATM    2  C2  UNL     1       7.585   8.337  12.494  1.00  0.00    -0.117 C 
HETATM    3  C3  UNL     1       8.470   7.625  11.567  1.00  0.00     0.093 C 
ENDROOT
BRANCH   3   4
HETATM    4  C4  UNL     1       8.774   6.248  12.169  1.00  0.00     0.013 C 
BRANCH   4   5
HETATM    5  C5  UNL     1       8.307   5.215  11.172  1.00  0.00     0.011 C 
BRANCH   5   6
HETATM    6  C6  UNL     1       7.481   4.136  11.795  1.00  0.00     0.079 C 
BRANCH   6   7
HETATM    7  S1  UNL     1       5.840   4.804  12.204  1.00  0.00    -0.130 SA
BRANCH   7   8
HETATM    8  C7  UNL     1       4.775   3.375  12.511  1.00  0.00     0.001 A 
HETATM    9  C8  UNL     1       5.152   2.119  12.162  1.00  0.00     0.019 A 
HETATM   10  C9  UNL     1       4.360   1.016  12.386  1.00  0.00     0.013 A 
HETATM   11  C10 UNL     1       3.138   1.223  12.990  1.00  0.00    -0.025 A 
HETATM   12  C11 UNL     1       2.302   0.149  13.237  1.00  0.00     0.013 A 
HETATM   13  C19 UNL     1       2.703   2.508  13.368  1.00  0.00    -0.013 A 
HETATM   14  C12 UNL     1       1.076   0.318  13.836  1.00  0.00     0.013 A 
HETATM   15  C13 UNL     1       0.653   1.580  14.206  1.00  0.00    -0.025 A 
HETATM   16  C14 UNL     1      -0.597   1.740  14.816  1.00  0.00     0.012 A 
HETATM   17  C18 UNL     1       1.473   2.659  13.967  1.00  0.00    -0.015 A 
HETATM   18  C15 UNL     1      -1.005   2.988  15.177  1.00  0.00     0.001 A 
HETATM   19  C16 UNL     1      -0.189   4.073  14.940  1.00  0.00     0.001 A 
HETATM   20  C17 UNL     1       1.070   3.918  14.328  1.00  0.00     0.013 A 
HETATM   21  C20 UNL     1       3.539   3.569  13.119  1.00  0.00     0.031 A 
ENDBRANCH   7   8
ENDBRANCH   6   7
ENDBRANCH   5   6
ENDBRANCH   4   5
ENDBRANCH   3   4
TORSDOF 5
ENDMDL
MODEL 4
REMARK VINA RESULT: -10.737715348      1.385      7.873
REMARK  5 active torsions:
REMARK  status: ('A' for Active; 'I' for Inactive)
REMARK    1  A    between atoms: C3_3  and  C4_4 
REMARK    2  A    between atoms: C4_4  and  C5_5 
REMARK    3  A    between atoms: C5_5  and  C6_6 
REMARK    4  A    between atoms: C6_6  and  S1_7 
REMARK    5  A    between atoms: S1_7  and  C7_8 
ROOT
HETATM    1  C1  UNL     1       8.403   4.560  11.282  1.00  0.00     0.012 C 
HETATM    2  C2  UNL     1       8.554   5.671  11.720  1.00  0.00    -0.117 C 
HETATM    3  C3  UNL     1       8.759   7.027  12.239  1.00  0.00     0.093 C 
ENDROOT
BRANCH   3   4
HETATM    4  C4  UNL     1       7.621   7.910  11.716  1.00  0.00     0.013 C 
BRANCH   4   5
HETATM    5  C5  UNL     1       6.517   7.866  12.744  1.00  0.00     0.011 C 
BRANCH   5   6
HETATM    6  C6  UNL     1       5.249   7.277  12.214  1.00  0.00     0.079 C 
BRANCH   6   7
HETATM    7  S1  UNL     1       4.236   6.691  13.605  1.00  0.00    -0.130 SA
BRANCH   7   8
HETATM    8  C7  UNL     1       4.018   4.913  13.358  1.00  0.00     0.001 A 
HETATM    9  C8  UNL     1       5.011   4.139  12.849  1.00  0.00     0.019 A 
HETATM   10  C9  UNL     1       4.870   2.784  12.653  1.00  0.00     0.013 A 
HETATM   11  C10 UNL     1       3.662   2.215  12.995  1.00  0.00    -0.025 A 
HETATM   12  C11 UNL     1       3.467   0.857  12.817  1.00  0.00     0.013 A 
HETATM   13  C19 UNL     1       2.603   2.978  13.525  1.00  0.00    -0.013 A 
HETATM   14  C12 UNL     1       2.275   0.254  13.146  1.00  0.00     0.013 A 
HETATM   15  C13 UNL     1       1.239   1.006  13.666  1.00  0.00    -0.025 A 
HETATM   16  C14 UNL     1       0.030   0.383  13.999  1.00  0.00     0.012 A 
HETATM   17  C18 UNL     1       1.417   2.358  13.850  1.00  0.00    -0.015 A 
HETATM   18  C15 UNL     1      -0.986   1.132  14.511  1.00  0.00     0.001 A 
HETATM   19  C16 UNL     1      -0.814   2.487  14.696  1.00  0.00     0.001 A 
HETATM   20  C17 UNL     1       0.400   3.119  14.364  1.00  0.00     0.013 A 
HETATM   21  C20 UNL     1       2.806   4.325  13.698  1.00  0.00     0.031 A 
ENDBRANCH   7   8
ENDBRANCH   6   7
ENDBRANCH   5   6
ENDBRANCH   4   5
ENDBRANCH   3   4
TORSDOF 5
ENDMDL
MODEL 5
REMARK VINA RESULT: -10.593806380      1.209      1.890
REMARK  5 active torsions:
REMARK  status: ('A' for Active; 'I' for Inactive)
REMARK    1  A    between atoms: C3_3  and  C4_4 
REMARK    2  A    between atoms: C4_4  and  C5_5 
REMARK    3  A    between atoms: C5_5  and  C6_6 
REMARK    4  A    between atoms: C6_6  and  S1_7 
REMARK    5  A    between atoms: S1_7  and  C7_8 
ROOT
HETATM    1  C1  UNL     1      -1.342   1.129  14.023  1.00  0.00     0.012 C 
HETATM    2  C2  UNL     1      -0.230   0.665  14.011  1.00  0.00    -0.117 C 
HETATM    3  C3  UNL     1       1.115   0.084  13.978  1.00  0.00     0.093 C 
ENDROOT
BRANCH   3   4
HETATM    4  C4  UNL     1       2.086   1.168  13.495  1.00  0.00     0.013 C 
BRANCH   4   5
HETATM    5  C5  UNL     1       3.275   0.460  12.893  1.00  0.00     0.011 C 
BRANCH   5   6
HETATM    6  C6  UNL     1       4.292   1.403  12.334  1.00  0.00     0.079 C 
BRANCH   6   7
HETATM    7  S1  UNL     1       3.969   3.075  12.970  1.00  0.00    -0.130 SA
BRANCH   7   8
HETATM    8  C7  UNL     1       5.393   4.082  12.493  1.00  0.00     0.001 A 
HETATM    9  C8  UNL     1       6.566   3.518  12.110  1.00  0.00     0.019 A 
HETATM   10  C9  UNL     1       7.664   4.262  11.742  1.00  0.00     0.013 A 
HETATM   11  C10 UNL     1       7.539   5.635  11.773  1.00  0.00    -0.025 A 
HETATM   12  C11 UNL     1       8.613   6.431  11.413  1.00  0.00     0.013 A 
HETATM   13  C19 UNL     1       6.342   6.265  12.164  1.00  0.00    -0.013 A 
HETATM   14  C12 UNL     1       8.526   7.803  11.433  1.00  0.00     0.013 A 
HETATM   15  C13 UNL     1       7.349   8.418  11.817  1.00  0.00    -0.025 A 
HETATM   16  C14 UNL     1       7.272   9.816  11.832  1.00  0.00     0.012 A 
HETATM   17  C18 UNL     1       6.273   7.641  12.177  1.00  0.00    -0.015 A 
HETATM   18  C15 UNL     1       6.108  10.413  12.213  1.00  0.00     0.001 A 
HETATM   19  C16 UNL     1       5.026   9.639  12.576  1.00  0.00     0.001 A 
HETATM   20  C17 UNL     1       5.098   8.233  12.561  1.00  0.00     0.013 A 
HETATM   21  C20 UNL     1       5.283   5.468  12.519  1.00  0.00     0.031 A 
ENDBRANCH   7   8
ENDBRANCH   6   7
ENDBRANCH   5   6
ENDBRANCH   4   5
ENDBRANCH   3   4
TORSDOF 5
ENDMDL
