MODEL 1
REMARK VINA RESULT: -7.266270527      0.000      0.000
REMARK  12 active torsions:
REMARK  status: ('A' for Active; 'I' for Inactive)
REMARK    1  A    between atoms: C4_4  and  O1_5 
REMARK    2  A    between atoms: O1_5  and  C5_6 
REMARK    3  A    between atoms: C6_8  and  C7_9 
REMARK    4  A    between atoms: C7_9  and  O3_10 
REMARK    5  A    between atoms: C8_12  and  O4_13 
REMARK    6  A    between atoms: C9_15  and  O5_16 
REMARK    7  A    between atoms: C10_18  and  O6_19 
REMARK    8  A    between atoms: C11_21  and  C12_22 
REMARK       I    between atoms: C12_22  and  N1_24 
REMARK    9  A    between atoms: N1_24  and  C13_26 
REMARK   10  A    between atoms: C13_26  and  C14_27 
REMARK   11  A    between atoms: C17_30  and  N2_31 
REMARK   12  A    between atoms: C20_37  and  O8_38 
ROOT
HETATM    1  O8  UNL     1      26.073  20.207  18.752  1.00  0.00    -0.277 OA
HETATM    2  C21 UNL     1      24.822  19.939  19.287  1.00  0.00     0.229 C 
HETATM    3  N3  UNL     1      23.782  19.727  19.747  1.00  0.00    -0.164 NA
ENDROOT
BRANCH   1   4
HETATM    4  C20 UNL     1      27.159  19.414  19.147  1.00  0.00     0.161 C 
HETATM    5  C2  UNL     1      27.678  18.701  17.888  1.00  0.00     0.015 C 
HETATM    6  C1  UNL     1      28.424  19.634  16.986  1.00  0.00     0.012 C 
HETATM    7  C3  UNL     1      28.573  17.655  18.521  1.00  0.00     0.039 C 
HETATM    8  C4  UNL     1      27.579  17.076  19.541  1.00  0.00     0.140 C 
HETATM    9  C11 UNL     1      26.796  18.246  20.028  1.00  0.00     0.137 C 
BRANCH   8  10
HETATM   10  O1  UNL     1      28.187  16.321  20.498  1.00  0.00    -0.352 OA
BRANCH  10  11
HETATM   11  C5  UNL     1      27.827  14.979  20.463  1.00  0.00     0.292 C 
HETATM   12  O2  UNL     1      26.723  14.810  21.261  1.00  0.00    -0.348 OA
HETATM   13  C6  UNL     1      26.275  13.517  21.318  1.00  0.00     0.179 C 
HETATM   14  C8  UNL     1      27.285  12.673  22.023  1.00  0.00     0.180 C 
HETATM   15  C9  UNL     1      28.700  12.996  21.750  1.00  0.00     0.183 C 
HETATM   16  C10 UNL     1      28.972  14.086  20.793  1.00  0.00     0.204 C 
BRANCH  13  17
HETATM   17  C7  UNL     1      25.886  12.944  19.972  1.00  0.00     0.198 C 
BRANCH  17  18
HETATM   18  O3  UNL     1      24.667  13.544  19.623  1.00  0.00    -0.398 OA
ATOM     19  H3  UNL     1      24.767  13.856  18.731  1.00  0.00     0.209 HD
ENDBRANCH  17  18
ENDBRANCH  13  17
BRANCH  14  20
HETATM   20  O4  UNL     1      26.998  12.767  23.406  1.00  0.00    -0.390 OA
ATOM     21  H4  UNL     1      26.994  11.880  23.745  1.00  0.00     0.210 HD
ENDBRANCH  14  20
BRANCH  15  22
HETATM   22  O5  UNL     1      29.362  13.209  22.983  1.00  0.00    -0.390 OA
ATOM     23  H5  UNL     1      29.123  14.069  23.311  1.00  0.00     0.210 HD
ENDBRANCH  15  22
BRANCH  16  24
HETATM   24  O6  UNL     1      29.544  13.607  19.591  1.00  0.00    -0.388 OA
ATOM     25  H6  UNL     1      30.489  13.691  19.643  1.00  0.00     0.210 HD
ENDBRANCH  16  24
ENDBRANCH  10  11
ENDBRANCH   8  10
BRANCH   9  26
HETATM   26  C12 UNL     1      27.008  18.543  21.463  1.00  0.00     0.226 C 
HETATM   27  O7  UNL     1      26.300  18.061  22.383  1.00  0.00    -0.273 OA
HETATM   28  N1  UNL     1      28.053  19.409  21.837  1.00  0.00    -0.360 N 
ATOM     29  H1  UNL     1      28.625  19.803  21.089  1.00  0.00     0.162 HD
BRANCH  28  30
HETATM   30  C13 UNL     1      28.382  19.786  23.188  1.00  0.00     0.127 C 
BRANCH  30  31
HETATM   31  C14 UNL     1      29.511  19.027  23.802  1.00  0.00     0.003 C 
HETATM   32  C15 UNL     1      29.711  17.774  22.975  1.00  0.00     0.008 C 
HETATM   33  C16 UNL     1      29.908  16.549  23.811  1.00  0.00     0.033 C 
HETATM   34  C17 UNL     1      28.738  16.251  24.708  1.00  0.00     0.183 C 
HETATM   35  C18 UNL     1      28.251  17.514  25.364  1.00  0.00     0.033 C 
HETATM   36  C19 UNL     1      29.248  18.638  25.237  1.00  0.00     0.008 C 
BRANCH  34  37
HETATM   37  N2  UNL     1      27.654  15.589  24.045  1.00  0.00    -0.075 N 
ATOM     38  H23 UNL     1      27.251  16.191  23.327  1.00  0.00     0.274 HD
ATOM     39  H22 UNL     1      28.001  14.830  23.459  1.00  0.00     0.274 HD
ATOM     40  H21 UNL     1      26.928  15.251  24.677  1.00  0.00     0.274 HD
ENDBRANCH  34  37
ENDBRANCH  30  31
ENDBRANCH  28  30
ENDBRANCH   9  26
ENDBRANCH   1   4
TORSDOF 12
ENDMDL
MODEL 2
REMARK VINA RESULT: -7.087975747      1.038      1.058
REMARK  12 active torsions:
REMARK  status: ('A' for Active; 'I' for Inactive)
REMARK    1  A    between atoms: C4_4  and  O1_5 
REMARK    2  A    between atoms: O1_5  and  C5_6 
REMARK    3  A    between atoms: C6_8  and  C7_9 
REMARK    4  A    between atoms: C7_9  and  O3_10 
REMARK    5  A    between atoms: C8_12  and  O4_13 
REMARK    6  A    between atoms: C9_15  and  O5_16 
REMARK    7  A    between atoms: C10_18  and  O6_19 
REMARK    8  A    between atoms: C11_21  and  C12_22 
REMARK       I    between atoms: C12_22  and  N1_24 
REMARK    9  A    between atoms: N1_24  and  C13_26 
REMARK   10  A    between atoms: C13_26  and  C14_27 
REMARK   11  A    between atoms: C17_30  and  N2_31 
REMARK   12  A    between atoms: C20_37  and  O8_38 
ROOT
HETATM    1  O8  UNL     1      27.733  20.207  18.544  1.00  0.00    -0.277 OA
HETATM    2  C21 UNL     1      26.592  19.768  17.890  1.00  0.00     0.229 C 
HETATM    3  N3  UNL     1      25.629  19.403  17.361  1.00  0.00    -0.164 NA
ENDROOT
BRANCH   1   4
HETATM    4  C20 UNL     1      28.547  19.265  19.188  1.00  0.00     0.161 C 
HETATM    5  C2  UNL     1      29.237  18.441  18.089  1.00  0.00     0.015 C 
HETATM    6  C1  UNL     1      30.322  19.216  17.409  1.00  0.00     0.012 C 
HETATM    7  C3  UNL     1      29.770  17.286  18.914  1.00  0.00     0.039 C 
HETATM    8  C4  UNL     1      28.476  16.904  19.651  1.00  0.00     0.140 C 
HETATM    9  C11 UNL     1      27.795  18.197  19.941  1.00  0.00     0.137 C 
BRANCH   8  10
HETATM   10  O1  UNL     1      28.700  16.091  20.722  1.00  0.00    -0.352 OA
BRANCH  10  11
HETATM   11  C5  UNL     1      28.083  14.850  20.621  1.00  0.00     0.292 C 
HETATM   12  O2  UNL     1      26.955  14.866  21.403  1.00  0.00    -0.348 OA
HETATM   13  C6  UNL     1      26.260  13.686  21.395  1.00  0.00     0.179 C 
HETATM   14  C8  UNL     1      27.073  12.629  22.066  1.00  0.00     0.180 C 
HETATM   15  C9  UNL     1      28.529  12.678  21.817  1.00  0.00     0.183 C 
HETATM   16  C10 UNL     1      29.024  13.735  20.915  1.00  0.00     0.204 C 
BRANCH  13  17
HETATM   17  C7  UNL     1      25.787  13.264  20.022  1.00  0.00     0.198 C 
BRANCH  17  18
HETATM   18  O3  UNL     1      24.565  13.917  19.805  1.00  0.00    -0.398 OA
ATOM     19  H3  UNL     1      24.234  13.598  18.974  1.00  0.00     0.209 HD
ENDBRANCH  17  18
ENDBRANCH  13  17
BRANCH  14  20
HETATM   20  O4  UNL     1      26.790  12.714  23.450  1.00  0.00    -0.390 OA
ATOM     21  H4  UNL     1      25.891  13.013  23.526  1.00  0.00     0.210 HD
ENDBRANCH  14  20
BRANCH  15  22
HETATM   22  O5  UNL     1      29.200  12.699  23.063  1.00  0.00    -0.390 OA
ATOM     23  H5  UNL     1      28.713  13.255  23.661  1.00  0.00     0.210 HD
ENDBRANCH  15  22
BRANCH  16  24
HETATM   24  O6  UNL     1      29.509  13.208  19.695  1.00  0.00    -0.388 OA
ATOM     25  H6  UNL     1      29.453  12.260  19.723  1.00  0.00     0.210 HD
ENDBRANCH  16  24
ENDBRANCH  10  11
ENDBRANCH   8  10
BRANCH   9  26
HETATM   26  C12 UNL     1      27.693  18.501  21.386  1.00  0.00     0.226 C 
HETATM   27  O7  UNL     1      26.648  18.319  22.061  1.00  0.00    -0.273 OA
HETATM   28  N1  UNL     1      28.816  19.022  22.058  1.00  0.00    -0.360 N 
ATOM     29  H1  UNL     1      29.662  19.173  21.508  1.00  0.00     0.162 HD
BRANCH  28  30
HETATM   30  C13 UNL     1      28.867  19.361  23.457  1.00  0.00     0.127 C 
BRANCH  30  31
HETATM   31  C14 UNL     1      29.849  18.577  24.264  1.00  0.00     0.003 C 
HETATM   32  C15 UNL     1      30.113  17.286  23.518  1.00  0.00     0.008 C 
HETATM   33  C16 UNL     1      30.117  16.086  24.412  1.00  0.00     0.033 C 
HETATM   34  C17 UNL     1      28.809  15.874  25.122  1.00  0.00     0.183 C 
HETATM   35  C18 UNL     1      28.289  17.182  25.655  1.00  0.00     0.033 C 
HETATM   36  C19 UNL     1      29.347  18.254  25.651  1.00  0.00     0.008 C 
BRANCH  34  37
HETATM   37  N2  UNL     1      27.809  15.236  24.319  1.00  0.00    -0.075 N 
ATOM     38  H23 UNL     1      26.876  15.534  24.603  1.00  0.00     0.274 HD
ATOM     39  H22 UNL     1      27.826  15.603  23.368  1.00  0.00     0.274 HD
ATOM     40  H21 UNL     1      27.873  14.218  24.311  1.00  0.00     0.274 HD
ENDBRANCH  34  37
ENDBRANCH  30  31
ENDBRANCH  28  30
ENDBRANCH   9  26
ENDBRANCH   1   4
TORSDOF 12
ENDMDL
MODEL 3
REMARK VINA RESULT: -7.003785982      1.145      1.861
REMARK  12 active torsions:
REMARK  status: ('A' for Active; 'I' for Inactive)
REMARK    1  A    between atoms: C4_4  and  O1_5 
REMARK    2  A    between atoms: O1_5  and  C5_6 
REMARK    3  A    between atoms: C6_8  and  C7_9 
REMARK    4  A    between atoms: C7_9  and  O3_10 
REMARK    5  A    between atoms: C8_12  and  O4_13 
REMARK    6  A    between atoms: C9_15  and  O5_16 
REMARK    7  A    between atoms: C10_18  and  O6_19 
REMARK    8  A    between atoms: C11_21  and  C12_22 
REMARK       I    between atoms: C12_22  and  N1_24 
REMARK    9  A    between atoms: N1_24  and  C13_26 
REMARK   10  A    between atoms: C13_26  and  C14_27 
REMARK   11  A    between atoms: C17_30  and  N2_31 
REMARK   12  A    between atoms: C20_37  and  O8_38 
ROOT
HETATM    1  O8  UNL     1      26.080  20.087  18.403  1.00  0.00    -0.277 OA
HETATM    2  C21 UNL     1      24.866  20.009  19.067  1.00  0.00     0.229 C 
HETATM    3  N3  UNL     1      23.858  19.958  19.633  1.00  0.00    -0.164 NA
ENDROOT
BRANCH   1   4
HETATM    4  C20 UNL     1      27.170  19.358  18.900  1.00  0.00     0.161 C 
HETATM    5  C2  UNL     1      27.959  18.844  17.686  1.00  0.00     0.015 C 
HETATM    6  C1  UNL     1      28.733  19.937  17.020  1.00  0.00     0.012 C 
HETATM    7  C3  UNL     1      28.851  17.819  18.360  1.00  0.00     0.039 C 
HETATM    8  C4  UNL     1      27.776  17.040  19.133  1.00  0.00     0.140 C 
HETATM    9  C11 UNL     1      26.801  18.069  19.590  1.00  0.00     0.137 C 
BRANCH   8  10
HETATM   10  O1  UNL     1      28.301  16.240  20.104  1.00  0.00    -0.352 OA
BRANCH  10  11
HETATM   11  C5  UNL     1      27.993  14.894  19.946  1.00  0.00     0.292 C 
HETATM   12  O2  UNL     1      27.194  14.764  18.838  1.00  0.00    -0.348 OA
HETATM   13  C6  UNL     1      26.810  13.475  18.581  1.00  0.00     0.179 C 
HETATM   14  C8  UNL     1      25.896  13.005  19.664  1.00  0.00     0.180 C 
HETATM   15  C9  UNL     1      26.224  13.464  21.030  1.00  0.00     0.183 C 
HETATM   16  C10 UNL     1      27.427  14.303  21.190  1.00  0.00     0.204 C 
BRANCH  13  17
HETATM   17  C7  UNL     1      27.966  12.526  18.352  1.00  0.00     0.198 C 
BRANCH  17  18
HETATM   18  O3  UNL     1      27.489  11.241  18.647  1.00  0.00    -0.398 OA
ATOM     19  H3  UNL     1      26.857  11.344  19.349  1.00  0.00     0.209 HD
ENDBRANCH  17  18
ENDBRANCH  13  17
BRANCH  14  20
HETATM   20  O4  UNL     1      24.589  13.402  19.294  1.00  0.00    -0.390 OA
ATOM     21  H4  UNL     1      24.297  12.790  18.628  1.00  0.00     0.210 HD
ENDBRANCH  14  20
BRANCH  15  22
HETATM   22  O5  UNL     1      25.079  14.083  21.586  1.00  0.00    -0.390 OA
ATOM     23  H5  UNL     1      25.362  14.791  22.154  1.00  0.00     0.210 HD
ENDBRANCH  15  22
BRANCH  16  24
HETATM   24  O6  UNL     1      28.455  13.630  21.889  1.00  0.00    -0.388 OA
ATOM     25  H6  UNL     1      28.704  12.853  21.402  1.00  0.00     0.210 HD
ENDBRANCH  16  24
ENDBRANCH  10  11
ENDBRANCH   8  10
BRANCH   9  26
HETATM   26  C12 UNL     1      26.745  18.220  21.061  1.00  0.00     0.226 C 
HETATM   27  O7  UNL     1      25.737  17.924  21.752  1.00  0.00    -0.273 OA
HETATM   28  N1  UNL     1      27.872  18.721  21.742  1.00  0.00    -0.360 N 
ATOM     29  H1  UNL     1      28.688  18.964  21.180  1.00  0.00     0.162 HD
BRANCH  28  30
HETATM   30  C13 UNL     1      27.967  18.918  23.166  1.00  0.00     0.127 C 
BRANCH  30  31
HETATM   31  C14 UNL     1      29.201  18.370  23.802  1.00  0.00     0.003 C 
HETATM   32  C15 UNL     1      29.470  17.020  23.168  1.00  0.00     0.008 C 
HETATM   33  C16 UNL     1      29.838  15.970  24.168  1.00  0.00     0.033 C 
HETATM   34  C17 UNL     1      28.761  15.722  25.189  1.00  0.00     0.183 C 
HETATM   35  C18 UNL     1      28.196  17.029  25.675  1.00  0.00     0.033 C 
HETATM   36  C19 UNL     1      29.068  18.198  25.297  1.00  0.00     0.008 C 
BRANCH  34  37
HETATM   37  N2  UNL     1      27.707  14.871  24.725  1.00  0.00    -0.075 N 
ATOM     38  H23 UNL     1      27.147  14.534  25.507  1.00  0.00     0.274 HD
ATOM     39  H22 UNL     1      27.001  15.413  24.227  1.00  0.00     0.274 HD
ATOM     40  H21 UNL     1      28.028  14.090  24.152  1.00  0.00     0.274 HD
ENDBRANCH  34  37
ENDBRANCH  30  31
ENDBRANCH  28  30
ENDBRANCH   9  26
ENDBRANCH   1   4
TORSDOF 12
ENDMDL
MODEL 4
REMARK VINA RESULT: -6.911308108      1.931      2.412
REMARK  12 active torsions:
REMARK  status: ('A' for Active; 'I' for Inactive)
REMARK    1  A    between atoms: C4_4  and  O1_5 
REMARK    2  A    between atoms: O1_5  and  C5_6 
REMARK    3  A    between atoms: C6_8  and  C7_9 
REMARK    4  A    between atoms: C7_9  and  O3_10 
REMARK    5  A    between atoms: C8_12  and  O4_13 
REMARK    6  A    between atoms: C9_15  and  O5_16 
REMARK    7  A    between atoms: C10_18  and  O6_19 
REMARK    8  A    between atoms: C11_21  and  C12_22 
REMARK       I    between atoms: C12_22  and  N1_24 
REMARK    9  A    between atoms: N1_24  and  C13_26 
REMARK   10  A    between atoms: C13_26  and  C14_27 
REMARK   11  A    between atoms: C17_30  and  N2_31 
REMARK   12  A    between atoms: C20_37  and  O8_38 
ROOT
HETATM    1  O8  UNL     1      28.152  18.702  17.524  1.00  0.00    -0.277 OA
HETATM    2  C21 UNL     1      27.104  18.341  16.691  1.00  0.00     0.229 C 
HETATM    3  N3  UNL     1      26.217  18.051  16.007  1.00  0.00    -0.164 NA
ENDROOT
BRANCH   1   4
HETATM    4  C20 UNL     1      28.394  17.940  18.675  1.00  0.00     0.161 C 
HETATM    5  C2  UNL     1      28.858  16.552  18.208  1.00  0.00     0.015 C 
HETATM    6  C1  UNL     1      30.260  16.579  17.685  1.00  0.00     0.012 C 
HETATM    7  C3  UNL     1      28.729  15.775  19.503  1.00  0.00     0.039 C 
HETATM    8  C4  UNL     1      27.290  16.168  19.874  1.00  0.00     0.140 C 
HETATM    9  C11 UNL     1      27.159  17.595  19.469  1.00  0.00     0.137 C 
BRANCH   8  10
HETATM   10  O1  UNL     1      26.984  15.883  21.172  1.00  0.00    -0.352 OA
BRANCH  10  11
HETATM   11  C5  UNL     1      27.686  14.798  21.685  1.00  0.00     0.292 C 
HETATM   12  O2  UNL     1      26.814  13.746  21.817  1.00  0.00    -0.348 OA
HETATM   13  C6  UNL     1      27.389  12.613  22.328  1.00  0.00     0.179 C 
HETATM   14  C8  UNL     1      27.781  12.855  23.748  1.00  0.00     0.180 C 
HETATM   15  C9  UNL     1      28.308  14.201  24.053  1.00  0.00     0.183 C 
HETATM   16  C10 UNL     1      28.423  15.151  22.930  1.00  0.00     0.204 C 
BRANCH  13  17
HETATM   17  C7  UNL     1      28.535  12.080  21.497  1.00  0.00     0.198 C 
BRANCH  17  18
HETATM   18  O3  UNL     1      27.958  11.360  20.442  1.00  0.00    -0.398 OA
ATOM     19  H3  UNL     1      28.119  10.441  20.624  1.00  0.00     0.209 HD
ENDBRANCH  17  18
ENDBRANCH  13  17
BRANCH  14  20
HETATM   20  O4  UNL     1      26.645  12.561  24.540  1.00  0.00    -0.390 OA
ATOM     21  H4  UNL     1      26.833  11.748  24.994  1.00  0.00     0.210 HD
ENDBRANCH  14  20
BRANCH  15  22
HETATM   22  O5  UNL     1      27.560  14.748  25.123  1.00  0.00    -0.390 OA
ATOM     23  H5  UNL     1      27.939  15.587  25.361  1.00  0.00     0.210 HD
ENDBRANCH  15  22
BRANCH  16  24
HETATM   24  O6  UNL     1      29.771  15.428  22.604  1.00  0.00    -0.388 OA
ATOM     25  H6  UNL     1      29.974  15.034  21.764  1.00  0.00     0.210 HD
ENDBRANCH  16  24
ENDBRANCH  10  11
ENDBRANCH   8  10
BRANCH   9  26
HETATM   26  C12 UNL     1      26.954  18.517  20.609  1.00  0.00     0.226 C 
HETATM   27  O7  UNL     1      25.943  19.255  20.731  1.00  0.00    -0.273 OA
HETATM   28  N1  UNL     1      27.931  18.585  21.621  1.00  0.00    -0.360 N 
ATOM     29  H1  UNL     1      28.753  17.988  21.519  1.00  0.00     0.162 HD
BRANCH  28  30
HETATM   30  C13 UNL     1      27.868  19.428  22.787  1.00  0.00     0.127 C 
BRANCH  30  31
HETATM   31  C14 UNL     1      29.184  19.925  23.283  1.00  0.00     0.003 C 
HETATM   32  C15 UNL     1      30.212  18.855  22.978  1.00  0.00     0.008 C 
HETATM   33  C16 UNL     1      31.144  18.598  24.121  1.00  0.00     0.033 C 
HETATM   34  C17 UNL     1      30.438  18.129  25.364  1.00  0.00     0.183 C 
HETATM   35  C18 UNL     1      29.200  18.951  25.600  1.00  0.00     0.033 C 
HETATM   36  C19 UNL     1      29.187  20.207  24.767  1.00  0.00     0.008 C 
BRANCH  34  37
HETATM   37  N2  UNL     1      30.112  16.735  25.354  1.00  0.00    -0.075 N 
ATOM     38  H23 UNL     1      30.784  16.212  24.793  1.00  0.00     0.274 HD
ATOM     39  H22 UNL     1      30.290  16.319  26.268  1.00  0.00     0.274 HD
ATOM     40  H21 UNL     1      29.159  16.536  25.050  1.00  0.00     0.274 HD
ENDBRANCH  34  37
ENDBRANCH  30  31
ENDBRANCH  28  30
ENDBRANCH   9  26
ENDBRANCH   1   4
TORSDOF 12
ENDMDL
MODEL 5
REMARK VINA RESULT: -6.844226277      1.601      2.770
REMARK  12 active torsions:
REMARK  status: ('A' for Active; 'I' for Inactive)
REMARK    1  A    between atoms: C4_4  and  O1_5 
REMARK    2  A    between atoms: O1_5  and  C5_6 
REMARK    3  A    between atoms: C6_8  and  C7_9 
REMARK    4  A    between atoms: C7_9  and  O3_10 
REMARK    5  A    between atoms: C8_12  and  O4_13 
REMARK    6  A    between atoms: C9_15  and  O5_16 
REMARK    7  A    between atoms: C10_18  and  O6_19 
REMARK    8  A    between atoms: C11_21  and  C12_22 
REMARK       I    between atoms: C12_22  and  N1_24 
REMARK    9  A    between atoms: N1_24  and  C13_26 
REMARK   10  A    between atoms: C13_26  and  C14_27 
REMARK   11  A    between atoms: C17_30  and  N2_31 
REMARK   12  A    between atoms: C20_37  and  O8_38 
ROOT
HETATM    1  O8  UNL     1      26.029  19.832  19.088  1.00  0.00    -0.277 OA
HETATM    2  C21 UNL     1      24.765  19.511  19.560  1.00  0.00     0.229 C 
HETATM    3  N3  UNL     1      23.715  19.252  19.971  1.00  0.00    -0.164 NA
ENDROOT
BRANCH   1   4
HETATM    4  C20 UNL     1      27.077  18.925  19.297  1.00  0.00     0.161 C 
HETATM    5  C2  UNL     1      27.343  18.228  17.953  1.00  0.00     0.015 C 
HETATM    6  C1  UNL     1      28.043  19.129  16.985  1.00  0.00     0.012 C 
HETATM    7  C3  UNL     1      28.212  17.075  18.416  1.00  0.00     0.039 C 
HETATM    8  C4  UNL     1      27.318  16.543  19.548  1.00  0.00     0.140 C 
HETATM    9  C11 UNL     1      26.729  17.755  20.182  1.00  0.00     0.137 C 
BRANCH   8  10
HETATM   10  O1  UNL     1      27.978  15.691  20.383  1.00  0.00    -0.352 OA
BRANCH  10  11
HETATM   11  C5  UNL     1      27.656  14.354  20.184  1.00  0.00     0.292 C 
HETATM   12  O2  UNL     1      27.742  14.087  18.841  1.00  0.00    -0.348 OA
HETATM   13  C6  UNL     1      27.434  12.793  18.513  1.00  0.00     0.179 C 
HETATM   14  C8  UNL     1      25.984  12.548  18.774  1.00  0.00     0.180 C 
HETATM   15  C9  UNL     1      25.424  13.203  19.974  1.00  0.00     0.183 C 
HETATM   16  C10 UNL     1      26.350  13.998  20.804  1.00  0.00     0.204 C 
BRANCH  13  17
HETATM   17  C7  UNL     1      28.320  11.765  19.181  1.00  0.00     0.198 C 
BRANCH  17  18
HETATM   18  O3  UNL     1      28.409  10.682  18.295  1.00  0.00    -0.398 OA
ATOM     19  H3  UNL     1      28.516   9.905  18.831  1.00  0.00     0.209 HD
ENDBRANCH  17  18
ENDBRANCH  13  17
BRANCH  14  20
HETATM   20  O4  UNL     1      25.289  12.943  17.606  1.00  0.00    -0.390 OA
ATOM     21  H4  UNL     1      25.774  12.594  16.868  1.00  0.00     0.210 HD
ENDBRANCH  14  20
BRANCH  15  22
HETATM   22  O5  UNL     1      24.290  13.958  19.589  1.00  0.00    -0.390 OA
ATOM     23  H5  UNL     1      23.995  14.466  20.337  1.00  0.00     0.210 HD
ENDBRANCH  15  22
BRANCH  16  24
HETATM   24  O6  UNL     1      26.585  13.396  22.062  1.00  0.00    -0.388 OA
ATOM     25  H6  UNL     1      26.723  14.076  22.710  1.00  0.00     0.210 HD
ENDBRANCH  16  24
ENDBRANCH  10  11
ENDBRANCH   8  10
BRANCH   9  26
HETATM   26  C12 UNL     1      27.167  17.964  21.580  1.00  0.00     0.226 C 
HETATM   27  O7  UNL     1      27.844  18.955  21.954  1.00  0.00    -0.273 OA
HETATM   28  N1  UNL     1      26.816  17.014  22.558  1.00  0.00    -0.360 N 
ATOM     29  H1  UNL     1      26.269  16.208  22.252  1.00  0.00     0.162 HD
BRANCH  28  30
HETATM   30  C13 UNL     1      27.165  17.084  23.954  1.00  0.00     0.127 C 
BRANCH  30  31
HETATM   31  C14 UNL     1      28.524  16.570  24.294  1.00  0.00     0.003 C 
HETATM   32  C15 UNL     1      28.790  15.376  23.400  1.00  0.00     0.008 C 
HETATM   33  C16 UNL     1      29.395  14.221  24.135  1.00  0.00     0.033 C 
HETATM   34  C17 UNL     1      28.521  13.702  25.243  1.00  0.00     0.183 C 
HETATM   35  C18 UNL     1      27.943  14.848  26.030  1.00  0.00     0.033 C 
HETATM   36  C19 UNL     1      28.650  16.146  25.739  1.00  0.00     0.008 C 
BRANCH  34  37
HETATM   37  N2  UNL     1      27.474  12.833  24.797  1.00  0.00    -0.075 N 
ATOM     38  H23 UNL     1      26.582  13.101  25.212  1.00  0.00     0.274 HD
ATOM     39  H22 UNL     1      27.263  13.001  23.813  1.00  0.00     0.274 HD
ATOM     40  H21 UNL     1      27.661  11.843  24.959  1.00  0.00     0.274 HD
ENDBRANCH  34  37
ENDBRANCH  30  31
ENDBRANCH  28  30
ENDBRANCH   9  26
ENDBRANCH   1   4
TORSDOF 12
ENDMDL
