MODEL 1
REMARK VINA RESULT: -7.169689522      0.000      0.000
REMARK  11 active torsions:
REMARK  status: ('A' for Active; 'I' for Inactive)
REMARK    1  A    between atoms: C1_2  and  N2_4 
REMARK    2  A    between atoms: N2_4  and  C2_6 
REMARK    3  A    between atoms: C2_6  and  C3_7 
REMARK    4  A    between atoms: C4_11  and  C5_12 
REMARK    5  A    between atoms: C5_12  and  O1_13 
REMARK    6  A    between atoms: C8_20  and  C9_21 
REMARK    7  A    between atoms: C9_21  and  O5_22 
REMARK    8  A    between atoms: O5_22  and  C10_23 
REMARK    9  A    between atoms: C16_29  and  O6_30 
REMARK   10  A    between atoms: C17_32  and  C18_33 
REMARK   11  A    between atoms: C18_33  and  O7_34 
ROOT
HETATM    1  C3  UNL     1      28.075  19.597  19.728  1.00  0.00     0.244 C 
HETATM    2  N3  UNL     1      26.861  19.598  20.514  1.00  0.00    -0.057 N 
ATOM      3  H31 UNL     1      26.540  20.525  20.790  1.00  0.00     0.278 HD
ATOM      4  H32 UNL     1      26.973  19.235  21.461  1.00  0.00     0.278 HD
HETATM    5  C4  UNL     1      25.931  18.867  19.708  1.00  0.00     0.242 C 
HETATM    6  C6  UNL     1      26.705  17.867  18.944  1.00  0.00     0.206 C 
HETATM    7  O2  UNL     1      26.513  18.130  17.567  1.00  0.00    -0.287 OA
HETATM    8  C7  UNL     1      27.710  18.539  17.033  1.00  0.00     0.408 C 
HETATM    9  O3  UNL     1      27.888  19.179  15.942  1.00  0.00    -0.229 OA
HETATM   10  O4  UNL     1      28.711  18.112  17.925  1.00  0.00    -0.280 OA
HETATM   11  C8  UNL     1      28.153  18.172  19.208  1.00  0.00     0.152 C 
ENDROOT
BRANCH  11  12
HETATM   12  C9  UNL     1      28.708  17.228  20.219  1.00  0.00     0.214 C 
BRANCH  12  13
HETATM   13  O5  UNL     1      28.058  17.179  21.323  1.00  0.00    -0.358 OA
BRANCH  13  14
HETATM   14  C10 UNL     1      28.144  16.344  22.390  1.00  0.00     0.260 C 
HETATM   15  C11 UNL     1      27.596  17.155  23.577  1.00  0.00     0.061 C 
HETATM   16  C12 UNL     1      27.901  16.564  24.959  1.00  0.00     0.005 C 
HETATM   17  C13 UNL     1      27.853  15.147  24.751  1.00  0.00     0.000 C 
HETATM   18  C14 UNL     1      28.012  13.937  25.503  1.00  0.00     0.002 C 
HETATM   19  C15 UNL     1      27.777  12.881  24.375  1.00  0.00     0.034 C 
HETATM   20  C16 UNL     1      28.378  13.196  23.075  1.00  0.00     0.149 C 
HETATM   21  C17 UNL     1      27.731  13.996  22.031  1.00  0.00     0.176 C 
HETATM   22  O8  UNL     1      27.463  15.269  22.026  1.00  0.00    -0.351 OA
BRANCH  20  23
HETATM   23  O6  UNL     1      28.498  11.898  22.458  1.00  0.00    -0.393 OA
ATOM     24  H6  UNL     1      27.878  11.949  21.741  1.00  0.00     0.210 HD
ENDBRANCH  20  23
BRANCH  21  25
HETATM   25  C18 UNL     1      26.470  13.235  21.568  1.00  0.00     0.198 C 
BRANCH  25  26
HETATM   26  O7  UNL     1      25.362  14.062  21.494  1.00  0.00    -0.398 OA
ATOM     27  H7  UNL     1      24.925  13.997  20.653  1.00  0.00     0.209 HD
ENDBRANCH  25  26
ENDBRANCH  21  25
ENDBRANCH  13  14
ENDBRANCH  12  13
ENDBRANCH  11  12
BRANCH   1  28
HETATM   28  C2  UNL     1      29.280  20.057  20.467  1.00  0.00     0.158 C 
BRANCH  28  29
HETATM   29  N2  UNL     1      28.954  20.200  21.865  1.00  0.00    -0.367 N 
ATOM     30  H2  UNL     1      28.062  20.616  22.132  1.00  0.00     0.161 HD
BRANCH  29  31
HETATM   31  C1  UNL     1      29.852  19.774  22.871  1.00  0.00     0.181 C 
HETATM   32  N1  UNL     1      29.656  20.207  24.202  1.00  0.00    -0.070 NA
HETATM   33  S1  UNL     1      31.108  18.791  22.517  1.00  0.00    -0.044 SA
ENDBRANCH  29  31
ENDBRANCH  28  29
ENDBRANCH   1  28
BRANCH   5  34
HETATM   34  C5  UNL     1      24.828  18.235  20.546  1.00  0.00     0.199 C 
BRANCH  34  35
HETATM   35  O1  UNL     1      25.085  16.856  20.561  1.00  0.00    -0.399 OA
ATOM     36  H1  UNL     1      24.242  16.428  20.656  1.00  0.00     0.209 HD
ENDBRANCH  34  35
ENDBRANCH   5  34
TORSDOF 11
ENDMDL
MODEL 2
REMARK VINA RESULT: -6.712867261      2.576      4.272
REMARK  11 active torsions:
REMARK  status: ('A' for Active; 'I' for Inactive)
REMARK    1  A    between atoms: C1_2  and  N2_4 
REMARK    2  A    between atoms: N2_4  and  C2_6 
REMARK    3  A    between atoms: C2_6  and  C3_7 
REMARK    4  A    between atoms: C4_11  and  C5_12 
REMARK    5  A    between atoms: C5_12  and  O1_13 
REMARK    6  A    between atoms: C8_20  and  C9_21 
REMARK    7  A    between atoms: C9_21  and  O5_22 
REMARK    8  A    between atoms: O5_22  and  C10_23 
REMARK    9  A    between atoms: C16_29  and  O6_30 
REMARK   10  A    between atoms: C17_32  and  C18_33 
REMARK   11  A    between atoms: C18_33  and  O7_34 
ROOT
HETATM    1  C3  UNL     1      28.034  19.332  19.116  1.00  0.00     0.244 C 
HETATM    2  N3  UNL     1      28.815  19.715  20.271  1.00  0.00    -0.057 N 
ATOM      3  H31 UNL     1      29.382  20.552  20.136  1.00  0.00     0.278 HD
ATOM      4  H32 UNL     1      29.593  19.090  20.479  1.00  0.00     0.278 HD
HETATM    5  C4  UNL     1      27.846  19.821  21.320  1.00  0.00     0.242 C 
HETATM    6  C6  UNL     1      26.782  18.838  21.032  1.00  0.00     0.206 C 
HETATM    7  O2  UNL     1      25.566  19.548  20.884  1.00  0.00    -0.287 OA
HETATM    8  C7  UNL     1      25.154  19.434  19.579  1.00  0.00     0.408 C 
HETATM    9  O3  UNL     1      24.319  20.181  18.967  1.00  0.00    -0.229 OA
HETATM   10  O4  UNL     1      25.834  18.325  19.042  1.00  0.00    -0.280 OA
HETATM   11  C8  UNL     1      27.086  18.282  19.669  1.00  0.00     0.152 C 
ENDROOT
BRANCH  11  12
HETATM   12  C9  UNL     1      27.726  16.942  19.784  1.00  0.00     0.214 C 
BRANCH  12  13
HETATM   13  O5  UNL     1      28.234  16.686  20.933  1.00  0.00    -0.358 OA
BRANCH  13  14
HETATM   14  C10 UNL     1      27.995  15.695  21.831  1.00  0.00     0.260 C 
HETATM   15  C11 UNL     1      28.093  14.390  21.022  1.00  0.00     0.061 C 
HETATM   16  C12 UNL     1      27.527  13.151  21.726  1.00  0.00     0.005 C 
HETATM   17  C13 UNL     1      27.832  13.365  23.110  1.00  0.00     0.000 C 
HETATM   18  C14 UNL     1      27.659  12.706  24.370  1.00  0.00     0.002 C 
HETATM   19  C15 UNL     1      28.330  13.751  25.320  1.00  0.00     0.034 C 
HETATM   20  C16 UNL     1      28.049  15.157  25.015  1.00  0.00     0.149 C 
HETATM   21  C17 UNL     1      28.823  15.977  24.077  1.00  0.00     0.176 C 
HETATM   22  O8  UNL     1      28.896  15.886  22.781  1.00  0.00    -0.351 OA
BRANCH  20  23
HETATM   23  O6  UNL     1      28.282  15.809  26.280  1.00  0.00    -0.393 OA
ATOM     24  H6  UNL     1      27.479  15.636  26.757  1.00  0.00     0.210 HD
ENDBRANCH  20  23
BRANCH  21  25
HETATM   25  C18 UNL     1      30.256  16.103  24.634  1.00  0.00     0.198 C 
BRANCH  25  26
HETATM   26  O7  UNL     1      30.510  17.368  25.136  1.00  0.00    -0.398 OA
ATOM     27  H7  UNL     1      31.068  17.875  24.559  1.00  0.00     0.209 HD
ENDBRANCH  25  26
ENDBRANCH  21  25
ENDBRANCH  13  14
ENDBRANCH  12  13
ENDBRANCH  11  12
BRANCH   1  28
HETATM   28  C2  UNL     1      28.845  18.888  17.952  1.00  0.00     0.158 C 
BRANCH  28  29
HETATM   29  N2  UNL     1      28.069  19.041  16.746  1.00  0.00    -0.367 N 
ATOM     30  H2  UNL     1      27.909  19.975  16.368  1.00  0.00     0.161 HD
BRANCH  29  31
HETATM   31  C1  UNL     1      27.528  17.918  16.078  1.00  0.00     0.181 C 
HETATM   32  N1  UNL     1      26.186  17.955  15.637  1.00  0.00    -0.070 NA
HETATM   33  S1  UNL     1      28.431  16.581  15.812  1.00  0.00    -0.044 SA
ENDBRANCH  29  31
ENDBRANCH  28  29
ENDBRANCH   1  28
BRANCH   5  34
HETATM   34  C5  UNL     1      28.472  19.618  22.693  1.00  0.00     0.199 C 
BRANCH  34  35
HETATM   35  O1  UNL     1      29.619  18.834  22.492  1.00  0.00    -0.399 OA
ATOM     36  H1  UNL     1      29.903  18.552  23.353  1.00  0.00     0.209 HD
ENDBRANCH  34  35
ENDBRANCH   5  34
TORSDOF 11
ENDMDL
MODEL 3
REMARK VINA RESULT: -6.668209332      3.365      6.426
REMARK  11 active torsions:
REMARK  status: ('A' for Active; 'I' for Inactive)
REMARK    1  A    between atoms: C1_2  and  N2_4 
REMARK    2  A    between atoms: N2_4  and  C2_6 
REMARK    3  A    between atoms: C2_6  and  C3_7 
REMARK    4  A    between atoms: C4_11  and  C5_12 
REMARK    5  A    between atoms: C5_12  and  O1_13 
REMARK    6  A    between atoms: C8_20  and  C9_21 
REMARK    7  A    between atoms: C9_21  and  O5_22 
REMARK    8  A    between atoms: O5_22  and  C10_23 
REMARK    9  A    between atoms: C16_29  and  O6_30 
REMARK   10  A    between atoms: C17_32  and  C18_33 
REMARK   11  A    between atoms: C18_33  and  O7_34 
ROOT
HETATM    1  C3  UNL     1      30.714  16.231  23.007  1.00  0.00     0.244 C 
HETATM    2  N3  UNL     1      29.361  16.215  23.518  1.00  0.00    -0.057 N 
ATOM      3  H31 UNL     1      28.899  15.308  23.454  1.00  0.00     0.278 HD
ATOM      4  H32 UNL     1      28.688  16.721  22.943  1.00  0.00     0.278 HD
HETATM    5  C4  UNL     1      29.494  16.717  24.853  1.00  0.00     0.242 C 
HETATM    6  C6  UNL     1      30.621  17.672  24.850  1.00  0.00     0.206 C 
HETATM    7  O2  UNL     1      31.597  17.192  25.756  1.00  0.00    -0.287 OA
HETATM    8  C7  UNL     1      32.715  16.841  25.041  1.00  0.00     0.408 C 
HETATM    9  O3  UNL     1      33.662  16.072  25.420  1.00  0.00    -0.229 OA
HETATM   10  O4  UNL     1      32.618  17.498  23.800  1.00  0.00    -0.280 OA
HETATM   11  C8  UNL     1      31.254  17.566  23.491  1.00  0.00     0.152 C 
ENDROOT
BRANCH  11  12
HETATM   12  C9  UNL     1      30.824  18.701  22.626  1.00  0.00     0.214 C 
BRANCH  12  13
HETATM   13  O5  UNL     1      29.558  18.897  22.587  1.00  0.00    -0.358 OA
BRANCH  13  14
HETATM   14  C10 UNL     1      28.718  19.203  21.565  1.00  0.00     0.260 C 
HETATM   15  C11 UNL     1      29.636  19.473  20.360  1.00  0.00     0.061 C 
HETATM   16  C12 UNL     1      28.957  20.171  19.175  1.00  0.00     0.005 C 
HETATM   17  C13 UNL     1      27.624  19.647  19.178  1.00  0.00     0.000 C 
HETATM   18  C14 UNL     1      26.409  19.776  18.428  1.00  0.00     0.002 C 
HETATM   19  C15 UNL     1      25.491  18.792  19.223  1.00  0.00     0.034 C 
HETATM   20  C16 UNL     1      25.634  18.830  20.682  1.00  0.00     0.149 C 
HETATM   21  C17 UNL     1      26.608  18.043  21.444  1.00  0.00     0.176 C 
HETATM   22  O8  UNL     1      27.903  18.163  21.483  1.00  0.00    -0.351 OA
BRANCH  20  23
HETATM   23  O6  UNL     1      24.370  18.306  21.138  1.00  0.00    -0.393 OA
ATOM     24  H6  UNL     1      24.317  18.632  22.029  1.00  0.00     0.210 HD
ENDBRANCH  20  23
BRANCH  21  25
HETATM   25  C18 UNL     1      26.268  16.551  21.245  1.00  0.00     0.198 C 
BRANCH  25  26
HETATM   26  O7  UNL     1      26.608  15.788  22.349  1.00  0.00    -0.398 OA
ATOM     27  H7  UNL     1      26.300  14.893  22.273  1.00  0.00     0.209 HD
ENDBRANCH  25  26
ENDBRANCH  21  25
ENDBRANCH  13  14
ENDBRANCH  12  13
ENDBRANCH  11  12
BRANCH   1  28
HETATM   28  C2  UNL     1      30.812  16.015  21.539  1.00  0.00     0.158 C 
BRANCH  28  29
HETATM   29  N2  UNL     1      29.541  15.550  21.040  1.00  0.00    -0.367 N 
ATOM     30  H2  UNL     1      28.812  16.228  20.819  1.00  0.00     0.161 HD
BRANCH  29  31
HETATM   31  C1  UNL     1      29.290  14.171  20.854  1.00  0.00     0.181 C 
HETATM   32  N1  UNL     1      28.564  13.460  21.837  1.00  0.00    -0.070 NA
HETATM   33  S1  UNL     1      29.826  13.391  19.521  1.00  0.00    -0.044 SA
ENDBRANCH  29  31
ENDBRANCH  28  29
ENDBRANCH   1  28
BRANCH   5  34
HETATM   34  C5  UNL     1      28.200  17.342  25.355  1.00  0.00     0.199 C 
BRANCH  34  35
HETATM   35  O1  UNL     1      28.407  18.729  25.359  1.00  0.00    -0.399 OA
ATOM     36  H1  UNL     1      27.723  19.103  24.817  1.00  0.00     0.209 HD
ENDBRANCH  34  35
ENDBRANCH   5  34
TORSDOF 11
ENDMDL
MODEL 4
REMARK VINA RESULT: -6.610764304      4.085      6.787
REMARK  11 active torsions:
REMARK  status: ('A' for Active; 'I' for Inactive)
REMARK    1  A    between atoms: C1_2  and  N2_4 
REMARK    2  A    between atoms: N2_4  and  C2_6 
REMARK    3  A    between atoms: C2_6  and  C3_7 
REMARK    4  A    between atoms: C4_11  and  C5_12 
REMARK    5  A    between atoms: C5_12  and  O1_13 
REMARK    6  A    between atoms: C8_20  and  C9_21 
REMARK    7  A    between atoms: C9_21  and  O5_22 
REMARK    8  A    between atoms: O5_22  and  C10_23 
REMARK    9  A    between atoms: C16_29  and  O6_30 
REMARK   10  A    between atoms: C17_32  and  C18_33 
REMARK   11  A    between atoms: C18_33  and  O7_34 
ROOT
HETATM    1  C3  UNL     1      27.141  12.822  20.973  1.00  0.00     0.244 C 
HETATM    2  N3  UNL     1      26.926  13.080  22.379  1.00  0.00    -0.057 N 
ATOM      3  H31 UNL     1      26.078  12.660  22.759  1.00  0.00     0.278 HD
ATOM      4  H32 UNL     1      26.675  14.045  22.597  1.00  0.00     0.278 HD
HETATM    5  C4  UNL     1      28.136  12.632  22.998  1.00  0.00     0.242 C 
HETATM    6  C6  UNL     1      29.230  12.851  22.029  1.00  0.00     0.206 C 
HETATM    7  O2  UNL     1      29.815  11.593  21.746  1.00  0.00    -0.287 OA
HETATM    8  C7  UNL     1      29.561  11.284  20.433  1.00  0.00     0.408 C 
HETATM    9  O3  UNL     1      29.613  10.129  19.889  1.00  0.00    -0.229 OA
HETATM   10  O4  UNL     1      29.229  12.494  19.795  1.00  0.00    -0.280 OA
HETATM   11  C8  UNL     1      28.571  13.280  20.748  1.00  0.00     0.152 C 
ENDROOT
BRANCH  11  12
HETATM   12  C9  UNL     1      28.676  14.757  20.579  1.00  0.00     0.214 C 
BRANCH  12  13
HETATM   13  O5  UNL     1      29.188  15.378  21.576  1.00  0.00    -0.358 OA
BRANCH  13  14
HETATM   14  C10 UNL     1      29.046  16.652  22.022  1.00  0.00     0.260 C 
HETATM   15  C11 UNL     1      27.558  16.985  21.815  1.00  0.00     0.061 C 
HETATM   16  C12 UNL     1      27.209  18.475  21.920  1.00  0.00     0.005 C 
HETATM   17  C13 UNL     1      28.101  18.973  22.925  1.00  0.00     0.000 C 
HETATM   18  C14 UNL     1      28.403  20.207  23.587  1.00  0.00     0.002 C 
HETATM   19  C15 UNL     1      29.555  19.735  24.534  1.00  0.00     0.034 C 
HETATM   20  C16 UNL     1      30.513  18.793  23.946  1.00  0.00     0.149 C 
HETATM   21  C17 UNL     1      30.347  17.336  23.933  1.00  0.00     0.176 C 
HETATM   22  O8  UNL     1      29.490  16.617  23.269  1.00  0.00    -0.351 OA
BRANCH  20  23
HETATM   23  O6  UNL     1      31.684  18.977  24.768  1.00  0.00    -0.393 OA
ATOM     24  H6  UNL     1      32.353  18.505  24.286  1.00  0.00     0.210 HD
ENDBRANCH  20  23
BRANCH  21  25
HETATM   25  C18 UNL     1      30.354  16.849  25.398  1.00  0.00     0.198 C 
BRANCH  25  26
HETATM   26  O7  UNL     1      29.086  16.510  25.838  1.00  0.00    -0.398 OA
ATOM     27  H7  UNL     1      29.069  16.327  26.770  1.00  0.00     0.209 HD
ENDBRANCH  25  26
ENDBRANCH  21  25
ENDBRANCH  13  14
ENDBRANCH  12  13
ENDBRANCH  11  12
BRANCH   1  28
HETATM   28  C2  UNL     1      26.136  13.455  20.077  1.00  0.00     0.158 C 
BRANCH  28  29
HETATM   29  N2  UNL     1      25.404  12.425  19.381  1.00  0.00    -0.367 N 
ATOM     30  H2  UNL     1      24.848  11.757  19.915  1.00  0.00     0.161 HD
BRANCH  29  31
HETATM   31  C1  UNL     1      25.445  12.327  17.971  1.00  0.00     0.181 C 
HETATM   32  N1  UNL     1      24.312  12.706  17.217  1.00  0.00    -0.070 NA
HETATM   33  S1  UNL     1      26.782  11.780  17.204  1.00  0.00    -0.044 SA
ENDBRANCH  29  31
ENDBRANCH  28  29
ENDBRANCH   1  28
BRANCH   5  34
HETATM   34  C5  UNL     1      28.386  13.330  24.328  1.00  0.00     0.199 C 
BRANCH  34  35
HETATM   35  O1  UNL     1      27.670  14.535  24.282  1.00  0.00    -0.399 OA
ATOM     36  H1  UNL     1      28.307  15.229  24.395  1.00  0.00     0.209 HD
ENDBRANCH  34  35
ENDBRANCH   5  34
TORSDOF 11
ENDMDL
MODEL 5
REMARK VINA RESULT: -6.513068904      3.343      5.451
REMARK  11 active torsions:
REMARK  status: ('A' for Active; 'I' for Inactive)
REMARK    1  A    between atoms: C1_2  and  N2_4 
REMARK    2  A    between atoms: N2_4  and  C2_6 
REMARK    3  A    between atoms: C2_6  and  C3_7 
REMARK    4  A    between atoms: C4_11  and  C5_12 
REMARK    5  A    between atoms: C5_12  and  O1_13 
REMARK    6  A    between atoms: C8_20  and  C9_21 
REMARK    7  A    between atoms: C9_21  and  O5_22 
REMARK    8  A    between atoms: O5_22  and  C10_23 
REMARK    9  A    between atoms: C16_29  and  O6_30 
REMARK   10  A    between atoms: C17_32  and  C18_33 
REMARK   11  A    between atoms: C18_33  and  O7_34 
ROOT
HETATM    1  C3  UNL     1      26.867  14.601  20.910  1.00  0.00     0.244 C 
HETATM    2  N3  UNL     1      26.944  14.447  22.345  1.00  0.00    -0.057 N 
ATOM      3  H31 UNL     1      26.110  14.752  22.847  1.00  0.00     0.278 HD
ATOM      4  H32 UNL     1      27.589  15.091  22.804  1.00  0.00     0.278 HD
HETATM    5  C4  UNL     1      27.267  13.063  22.524  1.00  0.00     0.242 C 
HETATM    6  C6  UNL     1      28.081  12.651  21.362  1.00  0.00     0.206 C 
HETATM    7  O2  UNL     1      27.389  11.611  20.696  1.00  0.00    -0.287 OA
HETATM    8  C7  UNL     1      27.000  12.071  19.462  1.00  0.00     0.408 C 
HETATM    9  O3  UNL     1      26.088  11.584  18.711  1.00  0.00    -0.229 OA
HETATM   10  O4  UNL     1      27.806  13.190  19.182  1.00  0.00    -0.280 OA
HETATM   11  C8  UNL     1      28.064  13.813  20.409  1.00  0.00     0.152 C 
ENDROOT
BRANCH  11  12
HETATM   12  C9  UNL     1      29.335  14.585  20.507  1.00  0.00     0.214 C 
BRANCH  12  13
HETATM   13  O5  UNL     1      29.905  14.539  21.654  1.00  0.00    -0.358 OA
BRANCH  13  14
HETATM   14  C10 UNL     1      30.444  15.507  22.440  1.00  0.00     0.260 C 
HETATM   15  C11 UNL     1      31.554  16.143  21.586  1.00  0.00     0.061 C 
HETATM   16  C12 UNL     1      32.539  17.027  22.361  1.00  0.00     0.005 C 
HETATM   17  C13 UNL     1      31.734  17.641  23.375  1.00  0.00     0.000 C 
HETATM   18  C14 UNL     1      31.880  18.565  24.460  1.00  0.00     0.002 C 
HETATM   19  C15 UNL     1      30.410  18.597  24.993  1.00  0.00     0.034 C 
HETATM   20  C16 UNL     1      29.720  17.304  25.024  1.00  0.00     0.149 C 
HETATM   21  C17 UNL     1      28.970  16.733  23.901  1.00  0.00     0.176 C 
HETATM   22  O8  UNL     1      29.418  16.276  22.768  1.00  0.00    -0.351 OA
BRANCH  20  23
HETATM   23  O6  UNL     1      28.698  17.514  26.020  1.00  0.00    -0.393 OA
ATOM     24  H6  UNL     1      28.384  16.633  26.187  1.00  0.00     0.210 HD
ENDBRANCH  20  23
BRANCH  21  25
HETATM   25  C18 UNL     1      27.778  17.669  23.607  1.00  0.00     0.198 C 
BRANCH  25  26
HETATM   26  O7  UNL     1      26.562  17.052  23.843  1.00  0.00    -0.398 OA
ATOM     27  H7  UNL     1      25.829  17.631  23.668  1.00  0.00     0.209 HD
ENDBRANCH  25  26
ENDBRANCH  21  25
ENDBRANCH  13  14
ENDBRANCH  12  13
ENDBRANCH  11  12
BRANCH   1  28
HETATM   28  C2  UNL     1      26.816  16.015  20.451  1.00  0.00     0.158 C 
BRANCH  28  29
HETATM   29  N2  UNL     1      25.572  16.608  20.878  1.00  0.00    -0.367 N 
ATOM     30  H2  UNL     1      24.872  16.028  21.341  1.00  0.00     0.161 HD
BRANCH  29  31
HETATM   31  C1  UNL     1      25.307  17.981  20.664  1.00  0.00     0.181 C 
HETATM   32  N1  UNL     1      24.000  18.475  20.881  1.00  0.00    -0.070 NA
HETATM   33  S1  UNL     1      26.486  19.000  20.172  1.00  0.00    -0.044 SA
ENDBRANCH  29  31
ENDBRANCH  28  29
ENDBRANCH   1  28
BRANCH   5  34
HETATM   34  C5  UNL     1      27.972  12.811  23.849  1.00  0.00     0.199 C 
BRANCH  34  35
HETATM   35  O1  UNL     1      26.962  12.678  24.814  1.00  0.00    -0.399 OA
ATOM     36  H1  UNL     1      26.460  11.909  24.571  1.00  0.00     0.209 HD
ENDBRANCH  34  35
ENDBRANCH   5  34
TORSDOF 11
ENDMDL
