MODEL 1
REMARK VINA RESULT: -6.698281629      0.000      0.000
REMARK  10 active torsions:
REMARK  status: ('A' for Active; 'I' for Inactive)
REMARK    1  A    between atoms: N1_1  and  C1_5 
REMARK    2  A    between atoms: C1_5  and  C2_6 
REMARK    3  A    between atoms: C3_8  and  O2_9 
REMARK    4  A    between atoms: O2_9  and  C4_10 
REMARK    5  A    between atoms: C8_15  and  N2_16 
REMARK       I    between atoms: N2_16  and  C9_18 
REMARK    6  A    between atoms: C9_18  and  C10_20 
REMARK    7  A    between atoms: C13_23  and  O4_24 
REMARK    8  A    between atoms: O4_24  and  C14_25 
REMARK    9  A    between atoms: C16_30  and  O5_31 
REMARK   10  A    between atoms: C19_39  and  O7_40 
ROOT
HETATM    1  C2  UNL     1      25.599  19.438  20.455  1.00  0.00     0.206 C 
HETATM    2  O1  UNL     1      26.932  19.118  20.264  1.00  0.00    -0.346 OA
HETATM    3  C3  UNL     1      27.421  18.208  21.174  1.00  0.00     0.311 C 
HETATM    4  C8  UNL     1      26.640  16.928  21.272  1.00  0.00     0.345 C 
HETATM    5  N4  UNL     1      25.495  17.005  20.381  1.00  0.00    -0.021 N 
ATOM      6  H41 UNL     1      24.919  16.163  20.384  1.00  0.00     0.283 HD
ATOM      7  H42 UNL     1      25.745  16.977  19.392  1.00  0.00     0.283 HD
HETATM    8  C19 UNL     1      24.771  18.209  20.766  1.00  0.00     0.352 C 
ENDROOT
BRANCH   4   9
HETATM    9  N2  UNL     1      27.486  15.810  20.955  1.00  0.00    -0.325 N 
HETATM   10  C9  UNL     1      26.957  14.507  20.964  1.00  0.00     0.253 C 
HETATM   11  O3  UNL     1      25.738  14.328  21.252  1.00  0.00    -0.268 OA
ATOM     12  H2  UNL     1      28.468  15.961  20.724  1.00  0.00     0.165 HD
BRANCH  10  13
HETATM   13  C10 UNL     1      27.774  13.317  20.647  1.00  0.00     0.032 A 
HETATM   14  C11 UNL     1      27.728  12.688  19.434  1.00  0.00     0.020 A 
HETATM   15  C12 UNL     1      28.495  11.584  19.158  1.00  0.00     0.038 A 
HETATM   16  C13 UNL     1      29.366  11.045  20.107  1.00  0.00     0.073 A 
HETATM   17  C17 UNL     1      29.401  11.687  21.317  1.00  0.00     0.038 A 
HETATM   18  C18 UNL     1      28.625  12.808  21.605  1.00  0.00     0.020 A 
BRANCH  16  19
HETATM   19  O4  UNL     1      30.099   9.941  19.757  1.00  0.00    -0.297 OA
BRANCH  19  20
HETATM   20  C14 UNL     1      31.459   9.816  19.965  1.00  0.00     0.477 C 
HETATM   21  N3  UNL     1      32.210  10.818  19.200  1.00  0.00    -0.020 N 
HETATM   22  C15 UNL     1      33.523  10.208  19.011  1.00  0.00     0.298 C 
ATOM     23  H32 UNL     1      31.757  11.112  18.335  1.00  0.00     0.283 HD
ATOM     24  H31 UNL     1      32.236  11.742  19.631  1.00  0.00     0.283 HD
HETATM   25  C16 UNL     1      33.317   8.788  19.514  1.00  0.00     0.287 C 
HETATM   26  O6  UNL     1      31.933   8.613  19.398  1.00  0.00    -0.306 OA
BRANCH  25  27
HETATM   27  O5  UNL     1      33.652   8.697  20.881  1.00  0.00    -0.369 OA
ATOM     28  H5  UNL     1      33.668   7.788  21.157  1.00  0.00     0.212 HD
ENDBRANCH  25  27
ENDBRANCH  19  20
ENDBRANCH  16  19
ENDBRANCH  10  13
ENDBRANCH   4   9
BRANCH   3  29
HETATM   29  O2  UNL     1      27.337  18.831  22.426  1.00  0.00    -0.351 OA
BRANCH  29  30
HETATM   30  C4  UNL     1      28.518  18.794  23.124  1.00  0.00     0.135 C 
HETATM   31  C5  UNL     1      28.762  20.132  23.755  1.00  0.00     0.043 C 
HETATM   32  C6  UNL     1      29.981  20.000  24.638  1.00  0.00     0.076 C 
HETATM   33  S1  UNL     1      29.673  18.352  25.387  1.00  0.00    -0.166 SA
HETATM   34  C7  UNL     1      28.298  17.820  24.291  1.00  0.00     0.105 C 
ENDBRANCH  29  30
ENDBRANCH   3  29
BRANCH   8  35
HETATM   35  O7  UNL     1      23.553  18.330  20.134  1.00  0.00    -0.368 OA
ATOM     36  H7  UNL     1      23.395  17.542  19.628  1.00  0.00     0.212 HD
ENDBRANCH   8  35
BRANCH   1  37
HETATM   37  C1  UNL     1      24.983  20.140  19.286  1.00  0.00     0.266 C 
BRANCH  37  38
HETATM   38  N1  UNL     1      25.495  19.620  18.027  1.00  0.00    -0.077 N 
ATOM     39  H13 UNL     1      26.409  19.183  18.147  1.00  0.00     0.274 HD
ATOM     40  H12 UNL     1      24.969  18.802  17.718  1.00  0.00     0.274 HD
ATOM     41  H11 UNL     1      25.517  20.344  17.308  1.00  0.00     0.274 HD
ENDBRANCH  37  38
ENDBRANCH   1  37
TORSDOF 10
ENDMDL
MODEL 2
REMARK VINA RESULT: -6.674841642      1.090      1.213
REMARK  10 active torsions:
REMARK  status: ('A' for Active; 'I' for Inactive)
REMARK    1  A    between atoms: N1_1  and  C1_5 
REMARK    2  A    between atoms: C1_5  and  C2_6 
REMARK    3  A    between atoms: C3_8  and  O2_9 
REMARK    4  A    between atoms: O2_9  and  C4_10 
REMARK    5  A    between atoms: C8_15  and  N2_16 
REMARK       I    between atoms: N2_16  and  C9_18 
REMARK    6  A    between atoms: C9_18  and  C10_20 
REMARK    7  A    between atoms: C13_23  and  O4_24 
REMARK    8  A    between atoms: O4_24  and  C14_25 
REMARK    9  A    between atoms: C16_30  and  O5_31 
REMARK   10  A    between atoms: C19_39  and  O7_40 
ROOT
HETATM    1  C2  UNL     1      25.702  19.443  20.143  1.00  0.00     0.206 C 
HETATM    2  O1  UNL     1      26.963  18.879  20.221  1.00  0.00    -0.346 OA
HETATM    3  C3  UNL     1      27.205  18.220  21.406  1.00  0.00     0.311 C 
HETATM    4  C8  UNL     1      26.195  17.166  21.762  1.00  0.00     0.345 C 
HETATM    5  N4  UNL     1      25.156  17.147  20.747  1.00  0.00    -0.021 N 
ATOM      6  H41 UNL     1      24.435  16.445  20.915  1.00  0.00     0.283 HD
ATOM      7  H42 UNL     1      25.471  16.785  19.847  1.00  0.00     0.283 HD
HETATM    8  C19 UNL     1      24.640  18.508  20.680  1.00  0.00     0.352 C 
ENDROOT
BRANCH   4   9
HETATM    9  N2  UNL     1      26.841  15.888  21.884  1.00  0.00    -0.325 N 
HETATM   10  C9  UNL     1      27.262  15.202  20.730  1.00  0.00     0.253 C 
HETATM   11  O3  UNL     1      27.068  15.717  19.591  1.00  0.00    -0.268 OA
ATOM     12  H2  UNL     1      26.994  15.478  22.806  1.00  0.00     0.165 HD
BRANCH  10  13
HETATM   13  C10 UNL     1      27.930  13.885  20.789  1.00  0.00     0.032 A 
HETATM   14  C11 UNL     1      27.520  12.812  20.047  1.00  0.00     0.020 A 
HETATM   15  C12 UNL     1      28.153  11.598  20.114  1.00  0.00     0.038 A 
HETATM   16  C13 UNL     1      29.254  11.393  20.948  1.00  0.00     0.073 A 
HETATM   17  C17 UNL     1      29.653  12.478  21.684  1.00  0.00     0.038 A 
HETATM   18  C18 UNL     1      29.015  13.715  21.622  1.00  0.00     0.020 A 
BRANCH  16  19
HETATM   19  O4  UNL     1      29.833  10.152  20.960  1.00  0.00    -0.297 OA
BRANCH  19  20
HETATM   20  C14 UNL     1      31.083   9.874  20.441  1.00  0.00     0.477 C 
HETATM   21  N3  UNL     1      31.025   9.669  18.989  1.00  0.00    -0.020 N 
HETATM   22  C15 UNL     1      32.176   8.817  18.705  1.00  0.00     0.298 C 
ATOM     23  H32 UNL     1      30.136   9.298  18.653  1.00  0.00     0.283 HD
ATOM     24  H31 UNL     1      30.997  10.531  18.445  1.00  0.00     0.283 HD
HETATM   25  C16 UNL     1      32.667   8.432  20.091  1.00  0.00     0.287 C 
HETATM   26  O6  UNL     1      31.530   8.611  20.887  1.00  0.00    -0.306 OA
BRANCH  25  27
HETATM   27  O5  UNL     1      33.654   9.338  20.533  1.00  0.00    -0.369 OA
ATOM     28  H5  UNL     1      33.354  10.232  20.422  1.00  0.00     0.212 HD
ENDBRANCH  25  27
ENDBRANCH  19  20
ENDBRANCH  16  19
ENDBRANCH  10  13
ENDBRANCH   4   9
BRANCH   3  29
HETATM   29  O2  UNL     1      27.143  19.196  22.410  1.00  0.00    -0.351 OA
BRANCH  29  30
HETATM   30  C4  UNL     1      28.344  19.389  23.046  1.00  0.00     0.135 C 
HETATM   31  C5  UNL     1      28.390  18.541  24.282  1.00  0.00     0.043 C 
HETATM   32  C6  UNL     1      29.781  18.663  24.861  1.00  0.00     0.076 C 
HETATM   33  S1  UNL     1      30.787  18.612  23.324  1.00  0.00    -0.166 SA
HETATM   34  C7  UNL     1      29.422  18.820  22.112  1.00  0.00     0.105 C 
ENDBRANCH  29  30
ENDBRANCH   3  29
BRANCH   8  35
HETATM   35  O7  UNL     1      23.517  18.620  19.891  1.00  0.00    -0.368 OA
ATOM     36  H7  UNL     1      23.392  17.802  19.425  1.00  0.00     0.212 HD
ENDBRANCH   8  35
BRANCH   1  37
HETATM   37  C1  UNL     1      25.317  19.848  18.755  1.00  0.00     0.266 C 
BRANCH  37  38
HETATM   38  N1  UNL     1      25.999  19.034  17.759  1.00  0.00    -0.077 N 
ATOM     39  H13 UNL     1      26.989  19.272  17.696  1.00  0.00     0.274 HD
ATOM     40  H12 UNL     1      26.090  18.066  18.065  1.00  0.00     0.274 HD
ATOM     41  H11 UNL     1      25.540  19.098  16.850  1.00  0.00     0.274 HD
ENDBRANCH  37  38
ENDBRANCH   1  37
TORSDOF 10
ENDMDL
MODEL 3
REMARK VINA RESULT: -6.562641730      4.532      7.078
REMARK  10 active torsions:
REMARK  status: ('A' for Active; 'I' for Inactive)
REMARK    1  A    between atoms: N1_1  and  C1_5 
REMARK    2  A    between atoms: C1_5  and  C2_6 
REMARK    3  A    between atoms: C3_8  and  O2_9 
REMARK    4  A    between atoms: O2_9  and  C4_10 
REMARK    5  A    between atoms: C8_15  and  N2_16 
REMARK       I    between atoms: N2_16  and  C9_18 
REMARK    6  A    between atoms: C9_18  and  C10_20 
REMARK    7  A    between atoms: C13_23  and  O4_24 
REMARK    8  A    between atoms: O4_24  and  C14_25 
REMARK    9  A    between atoms: C16_30  and  O5_31 
REMARK   10  A    between atoms: C19_39  and  O7_40 
ROOT
HETATM    1  C2  UNL     1      28.559  16.120  23.744  1.00  0.00     0.206 C 
HETATM    2  O1  UNL     1      27.280  16.236  23.230  1.00  0.00    -0.346 OA
HETATM    3  C3  UNL     1      27.242  16.389  21.862  1.00  0.00     0.311 C 
HETATM    4  C8  UNL     1      27.967  15.327  21.085  1.00  0.00     0.345 C 
HETATM    5  N4  UNL     1      28.586  14.401  22.018  1.00  0.00    -0.021 N 
ATOM      6  H41 UNL     1      29.091  13.640  21.563  1.00  0.00     0.283 HD
ATOM      7  H42 UNL     1      27.916  13.818  22.521  1.00  0.00     0.283 HD
HETATM    8  C19 UNL     1      29.422  15.215  22.891  1.00  0.00     0.352 C 
ENDROOT
BRANCH   4   9
HETATM    9  N2  UNL     1      27.054  14.656  20.200  1.00  0.00    -0.325 N 
HETATM   10  C9  UNL     1      27.542  13.733  19.258  1.00  0.00     0.253 C 
HETATM   11  O3  UNL     1      28.784  13.500  19.196  1.00  0.00    -0.268 OA
ATOM     12  H2  UNL     1      26.054  14.850  20.254  1.00  0.00     0.165 HD
BRANCH  10  13
HETATM   13  C10 UNL     1      26.657  13.013  18.320  1.00  0.00     0.032 A 
HETATM   14  C11 UNL     1      26.731  13.168  16.963  1.00  0.00     0.020 A 
HETATM   15  C12 UNL     1      25.900  12.490  16.107  1.00  0.00     0.038 A 
HETATM   16  C13 UNL     1      24.932  11.602  16.580  1.00  0.00     0.073 A 
HETATM   17  C17 UNL     1      24.871  11.457  17.941  1.00  0.00     0.038 A 
HETATM   18  C18 UNL     1      25.711  12.142  18.817  1.00  0.00     0.020 A 
BRANCH  16  19
HETATM   19  O4  UNL     1      24.140  10.962  15.664  1.00  0.00    -0.297 OA
BRANCH  19  20
HETATM   20  C14 UNL     1      22.793  10.713  15.842  1.00  0.00     0.477 C 
HETATM   21  N3  UNL     1      22.186  10.162  14.625  1.00  0.00    -0.020 N 
HETATM   22  C15 UNL     1      20.779  10.533  14.731  1.00  0.00     0.298 C 
ATOM     23  H32 UNL     1      22.635  10.462  13.760  1.00  0.00     0.283 HD
ATOM     24  H31 UNL     1      22.347   9.163  14.491  1.00  0.00     0.283 HD
HETATM   25  C16 UNL     1      20.762  11.473  15.926  1.00  0.00     0.287 C 
HETATM   26  O6  UNL     1      22.085  11.926  15.987  1.00  0.00    -0.306 OA
BRANCH  25  27
HETATM   27  O5  UNL     1      20.493  10.757  17.111  1.00  0.00    -0.369 OA
ATOM     28  H5  UNL     1      19.629  10.975  17.441  1.00  0.00     0.212 HD
ENDBRANCH  25  27
ENDBRANCH  19  20
ENDBRANCH  16  19
ENDBRANCH  10  13
ENDBRANCH   4   9
BRANCH   3  29
HETATM   29  O2  UNL     1      27.891  17.601  21.592  1.00  0.00    -0.351 OA
BRANCH  29  30
HETATM   30  C4  UNL     1      27.062  18.540  21.030  1.00  0.00     0.135 C 
HETATM   31  C5  UNL     1      27.401  18.694  19.578  1.00  0.00     0.043 C 
HETATM   32  C6  UNL     1      26.368  19.613  18.967  1.00  0.00     0.076 C 
HETATM   33  S1  UNL     1      24.846  18.996  19.791  1.00  0.00    -0.166 SA
HETATM   34  C7  UNL     1      25.648  17.941  21.063  1.00  0.00     0.105 C 
ENDBRANCH  29  30
ENDBRANCH   3  29
BRANCH   8  35
HETATM   35  O7  UNL     1      30.225  14.464  23.721  1.00  0.00    -0.368 OA
ATOM     36  H7  UNL     1      30.284  13.584  23.370  1.00  0.00     0.212 HD
ENDBRANCH   8  35
BRANCH   1  37
HETATM   37  C1  UNL     1      28.590  15.614  25.151  1.00  0.00     0.266 C 
BRANCH  37  38
HETATM   38  N1  UNL     1      27.678  14.494  25.331  1.00  0.00    -0.077 N 
ATOM     39  H13 UNL     1      26.756  14.808  25.635  1.00  0.00     0.274 HD
ATOM     40  H12 UNL     1      27.415  14.078  24.437  1.00  0.00     0.274 HD
ATOM     41  H11 UNL     1      28.065  13.798  25.968  1.00  0.00     0.274 HD
ENDBRANCH  37  38
ENDBRANCH   1  37
TORSDOF 10
ENDMDL
MODEL 4
REMARK VINA RESULT: -6.534275327      4.855      7.537
REMARK  10 active torsions:
REMARK  status: ('A' for Active; 'I' for Inactive)
REMARK    1  A    between atoms: N1_1  and  C1_5 
REMARK    2  A    between atoms: C1_5  and  C2_6 
REMARK    3  A    between atoms: C3_8  and  O2_9 
REMARK    4  A    between atoms: O2_9  and  C4_10 
REMARK    5  A    between atoms: C8_15  and  N2_16 
REMARK       I    between atoms: N2_16  and  C9_18 
REMARK    6  A    between atoms: C9_18  and  C10_20 
REMARK    7  A    between atoms: C13_23  and  O4_24 
REMARK    8  A    between atoms: O4_24  and  C14_25 
REMARK    9  A    between atoms: C16_30  and  O5_31 
REMARK   10  A    between atoms: C19_39  and  O7_40 
ROOT
HETATM    1  C2  UNL     1      28.853  14.605  24.728  1.00  0.00     0.206 C 
HETATM    2  O1  UNL     1      28.667  15.129  23.460  1.00  0.00    -0.346 OA
HETATM    3  C3  UNL     1      28.789  14.199  22.452  1.00  0.00     0.311 C 
HETATM    4  C8  UNL     1      27.910  12.990  22.595  1.00  0.00     0.345 C 
HETATM    5  N4  UNL     1      27.162  13.094  23.836  1.00  0.00    -0.021 N 
ATOM      6  H41 UNL     1      26.530  12.310  23.999  1.00  0.00     0.283 HD
ATOM      7  H42 UNL     1      26.449  13.824  23.823  1.00  0.00     0.283 HD
HETATM    8  C19 UNL     1      28.157  13.270  24.886  1.00  0.00     0.352 C 
ENDROOT
BRANCH   4   9
HETATM    9  N2  UNL     1      27.037  12.879  21.458  1.00  0.00    -0.325 N 
HETATM   10  C9  UNL     1      27.417  12.090  20.357  1.00  0.00     0.253 C 
HETATM   11  O3  UNL     1      28.527  11.483  20.376  1.00  0.00    -0.268 OA
ATOM     12  H2  UNL     1      26.144  13.372  21.449  1.00  0.00     0.165 HD
BRANCH  10  13
HETATM   13  C10 UNL     1      26.566  11.937  19.159  1.00  0.00     0.032 A 
HETATM   14  C11 UNL     1      25.338  12.528  19.042  1.00  0.00     0.020 A 
HETATM   15  C12 UNL     1      24.561  12.374  17.922  1.00  0.00     0.038 A 
HETATM   16  C13 UNL     1      24.987  11.604  16.838  1.00  0.00     0.073 A 
HETATM   17  C17 UNL     1      26.220  11.020  16.970  1.00  0.00     0.038 A 
HETATM   18  C18 UNL     1      27.014  11.171  18.105  1.00  0.00     0.020 A 
BRANCH  16  19
HETATM   19  O4  UNL     1      24.156  11.499  15.755  1.00  0.00    -0.297 OA
BRANCH  19  20
HETATM   20  C14 UNL     1      22.844  11.069  15.822  1.00  0.00     0.477 C 
HETATM   21  N3  UNL     1      22.387  10.548  14.528  1.00  0.00    -0.020 N 
HETATM   22  C15 UNL     1      20.939  10.730  14.566  1.00  0.00     0.298 C 
ATOM     23  H32 UNL     1      22.842  10.972  13.721  1.00  0.00     0.283 HD
ATOM     24  H31 UNL     1      22.684   9.592  14.333  1.00  0.00     0.283 HD
HETATM   25  C16 UNL     1      20.730  11.559  15.823  1.00  0.00     0.287 C 
HETATM   26  O6  UNL     1      21.977  12.167  16.008  1.00  0.00    -0.306 OA
BRANCH  25  27
HETATM   27  O5  UNL     1      20.488  10.720  16.931  1.00  0.00    -0.369 OA
ATOM     28  H5  UNL     1      19.960   9.974  16.672  1.00  0.00     0.212 HD
ENDBRANCH  25  27
ENDBRANCH  19  20
ENDBRANCH  16  19
ENDBRANCH  10  13
ENDBRANCH   4   9
BRANCH   3  29
HETATM   29  O2  UNL     1      30.114  13.745  22.504  1.00  0.00    -0.351 OA
BRANCH  29  30
HETATM   30  C4  UNL     1      30.915  14.313  21.545  1.00  0.00     0.135 C 
HETATM   31  C5  UNL     1      32.002  15.100  22.211  1.00  0.00     0.043 C 
HETATM   32  C6  UNL     1      32.946  15.572  21.129  1.00  0.00     0.076 C 
HETATM   33  S1  UNL     1      33.018  14.072  20.072  1.00  0.00    -0.166 SA
HETATM   34  C7  UNL     1      31.622  13.151  20.831  1.00  0.00     0.105 C 
ENDBRANCH  29  30
ENDBRANCH   3  29
BRANCH   8  35
HETATM   35  O7  UNL     1      27.620  13.202  26.153  1.00  0.00    -0.368 OA
ATOM     36  H7  UNL     1      28.296  12.911  26.753  1.00  0.00     0.212 HD
ENDBRANCH   8  35
BRANCH   1  37
HETATM   37  C1  UNL     1      28.386  15.514  25.820  1.00  0.00     0.266 C 
BRANCH  37  38
HETATM   38  N1  UNL     1      29.147  16.755  25.838  1.00  0.00    -0.077 N 
ATOM     39  H13 UNL     1      29.564  16.950  24.928  1.00  0.00     0.274 HD
ATOM     40  H12 UNL     1      28.535  17.568  25.908  1.00  0.00     0.274 HD
ATOM     41  H11 UNL     1      29.848  16.749  26.579  1.00  0.00     0.274 HD
ENDBRANCH  37  38
ENDBRANCH   1  37
TORSDOF 10
ENDMDL
MODEL 5
REMARK VINA RESULT: -6.345166387      4.925      7.430
REMARK  10 active torsions:
REMARK  status: ('A' for Active; 'I' for Inactive)
REMARK    1  A    between atoms: N1_1  and  C1_5 
REMARK    2  A    between atoms: C1_5  and  C2_6 
REMARK    3  A    between atoms: C3_8  and  O2_9 
REMARK    4  A    between atoms: O2_9  and  C4_10 
REMARK    5  A    between atoms: C8_15  and  N2_16 
REMARK       I    between atoms: N2_16  and  C9_18 
REMARK    6  A    between atoms: C9_18  and  C10_20 
REMARK    7  A    between atoms: C13_23  and  O4_24 
REMARK    8  A    between atoms: O4_24  and  C14_25 
REMARK    9  A    between atoms: C16_30  and  O5_31 
REMARK   10  A    between atoms: C19_39  and  O7_40 
ROOT
HETATM    1  C2  UNL     1      28.467  14.913  24.028  1.00  0.00     0.206 C 
HETATM    2  O1  UNL     1      27.880  15.427  22.884  1.00  0.00    -0.346 OA
HETATM    3  C3  UNL     1      28.180  14.722  21.740  1.00  0.00     0.311 C 
HETATM    4  C8  UNL     1      27.876  13.252  21.805  1.00  0.00     0.345 C 
HETATM    5  N4  UNL     1      27.368  12.933  23.128  1.00  0.00    -0.021 N 
ATOM      6  H41 UNL     1      27.127  11.949  23.246  1.00  0.00     0.283 HD
ATOM      7  H42 UNL     1      26.437  13.308  23.310  1.00  0.00     0.283 HD
HETATM    8  C19 UNL     1      28.380  13.403  24.066  1.00  0.00     0.352 C 
ENDROOT
BRANCH   4   9
HETATM    9  N2  UNL     1      26.935  12.898  20.776  1.00  0.00    -0.325 N 
HETATM   10  C9  UNL     1      27.396  12.368  19.558  1.00  0.00     0.253 C 
HETATM   11  O3  UNL     1      28.637  12.205  19.376  1.00  0.00    -0.268 OA
ATOM     12  H2  UNL     1      25.936  13.033  20.930  1.00  0.00     0.165 HD
BRANCH  10  13
HETATM   13  C10 UNL     1      26.480  11.986  18.463  1.00  0.00     0.032 A 
HETATM   14  C11 UNL     1      25.188  12.428  18.389  1.00  0.00     0.020 A 
HETATM   15  C12 UNL     1      24.353  12.063  17.365  1.00  0.00     0.038 A 
HETATM   16  C13 UNL     1      24.781  11.219  16.338  1.00  0.00     0.073 A 
HETATM   17  C17 UNL     1      26.078  10.786  16.426  1.00  0.00     0.038 A 
HETATM   18  C18 UNL     1      26.933  11.151  17.464  1.00  0.00     0.020 A 
BRANCH  16  19
HETATM   19  O4  UNL     1      23.889  10.900  15.349  1.00  0.00    -0.297 OA
BRANCH  19  20
HETATM   20  C14 UNL     1      22.616  10.415  15.580  1.00  0.00     0.477 C 
HETATM   21  N3  UNL     1      22.253   9.381  14.603  1.00  0.00    -0.020 N 
HETATM   22  C15 UNL     1      20.795   9.430  14.560  1.00  0.00     0.298 C 
ATOM     23  H32 UNL     1      22.703   9.487  13.694  1.00  0.00     0.283 HD
ATOM     24  H31 UNL     1      22.636   8.458  14.808  1.00  0.00     0.283 HD
HETATM   25  C16 UNL     1      20.469  10.670  15.378  1.00  0.00     0.287 C 
HETATM   26  O6  UNL     1      21.654  11.412  15.307  1.00  0.00    -0.306 OA
BRANCH  25  27
HETATM   27  O5  UNL     1      20.255  10.325  16.729  1.00  0.00    -0.369 OA
ATOM     28  H5  UNL     1      19.998   9.413  16.801  1.00  0.00     0.212 HD
ENDBRANCH  25  27
ENDBRANCH  19  20
ENDBRANCH  16  19
ENDBRANCH  10  13
ENDBRANCH   4   9
BRANCH   3  29
HETATM   29  O2  UNL     1      29.565  14.841  21.565  1.00  0.00    -0.351 OA
BRANCH  29  30
HETATM   30  C4  UNL     1      29.905  15.591  20.467  1.00  0.00     0.135 C 
HETATM   31  C5  UNL     1      28.663  15.936  19.701  1.00  0.00     0.043 C 
HETATM   32  C6  UNL     1      29.063  16.889  18.597  1.00  0.00     0.076 C 
HETATM   33  S1  UNL     1      30.261  17.953  19.495  1.00  0.00    -0.166 SA
HETATM   34  C7  UNL     1      30.442  16.925  21.006  1.00  0.00     0.105 C 
ENDBRANCH  29  30
ENDBRANCH   3  29
BRANCH   8  35
HETATM   35  O7  UNL     1      28.135  13.010  25.363  1.00  0.00    -0.368 OA
ATOM     36  H7  UNL     1      27.619  12.213  25.346  1.00  0.00     0.212 HD
ENDBRANCH   8  35
BRANCH   1  37
HETATM   37  C1  UNL     1      27.876  15.453  25.292  1.00  0.00     0.266 C 
BRANCH  37  38
HETATM   38  N1  UNL     1      28.896  16.061  26.134  1.00  0.00    -0.077 N 
ATOM     39  H13 UNL     1      28.882  15.672  27.078  1.00  0.00     0.274 HD
ATOM     40  H12 UNL     1      29.833  15.768  25.858  1.00  0.00     0.274 HD
ATOM     41  H11 UNL     1      28.809  17.077  26.147  1.00  0.00     0.274 HD
ENDBRANCH  37  38
ENDBRANCH   1  37
TORSDOF 10
ENDMDL
