MODEL 1
REMARK VINA RESULT: -6.952551246      0.000      0.000
REMARK  17 active torsions:
REMARK  status: ('A' for Active; 'I' for Inactive)
REMARK    1  A    between atoms: O1_2  and  C2_3 
REMARK    2  A    between atoms: C2_3  and  C3_4 
REMARK    3  A    between atoms: C2_3  and  C18_45 
REMARK    4  A    between atoms: C3_4  and  C4_5 
REMARK    5  A    between atoms: C4_5  and  N1_6 
REMARK    6  A    between atoms: C6_11  and  N3_12 
REMARK    7  A    between atoms: N3_12  and  C7_14 
REMARK    8  A    between atoms: C7_14  and  C8_15 
REMARK    9  A    between atoms: C8_15  and  N4_16 
REMARK   10  A    between atoms: C8_15  and  C15_34 
REMARK       I    between atoms: N4_16  and  C9_18 
REMARK   11  A    between atoms: C9_18  and  C10_20 
REMARK   12  A    between atoms: C11_24  and  C12_25 
REMARK   13  A    between atoms: C12_25  and  N6_27 
REMARK   14  A    between atoms: C14_31  and  O5_32 
REMARK   15  A    between atoms: C17_41  and  N8_42 
REMARK   16  A    between atoms: C18_45  and  N9_46 
REMARK   17  A    between atoms: C18_45  and  N10_50 
ROOT
HETATM    1  N1  UNL     1       8.227   0.597  -0.011  1.00  0.00    -0.281 N 
HETATM    2  C5  UNL     1       7.090   1.339   0.147  1.00  0.00     0.342 C 
HETATM    3  O2  UNL     1       6.869   1.742   1.318  1.00  0.00    -0.246 OA
HETATM    4  N2  UNL     1       6.187   1.688  -0.787  1.00  0.00    -0.141 N 
ATOM      5  H2  UNL     1       5.417   2.267  -0.451  1.00  0.00     0.189 HD
HETATM    6  C6  UNL     1       6.147   1.384  -2.120  1.00  0.00     0.685 C 
HETATM    7  N7  UNL     1       6.805   0.348  -2.652  1.00  0.00    -0.153 N 
ATOM      8  H7  UNL     1       6.355  -0.077  -3.462  1.00  0.00     0.187 HD
HETATM    9  C16 UNL     1       7.988  -0.229  -2.280  1.00  0.00     0.303 C 
HETATM   10  O8  UNL     1       8.615  -0.885  -3.130  1.00  0.00    -0.263 OA
HETATM   11  C17 UNL     1       8.602  -0.178  -1.041  1.00  0.00     0.175 C 
ENDROOT
BRANCH   6  12
HETATM   12  N3  UNL     1       5.461   2.113  -2.878  1.00  0.00    -0.223 N 
ATOM     13  H3  UNL     1       5.214   3.022  -2.485  1.00  0.00     0.177 HD
BRANCH  12  14
HETATM   14  C7  UNL     1       4.970   1.884  -4.194  1.00  0.00     0.174 C 
BRANCH  14  15
HETATM   15  C8  UNL     1       5.578   2.861  -5.208  1.00  0.00     0.204 C 
BRANCH  15  16
HETATM   16  N4  UNL     1       6.952   3.144  -4.809  1.00  0.00    -0.340 N 
HETATM   17  C9  UNL     1       7.375   4.450  -4.505  1.00  0.00     0.273 C 
HETATM   18  O3  UNL     1       6.510   5.367  -4.591  1.00  0.00    -0.266 OA
ATOM     19  H4  UNL     1       7.622   2.377  -4.750  1.00  0.00     0.163 HD
BRANCH  17  20
HETATM   20  C10 UNL     1       8.717   4.817  -4.101  1.00  0.00     0.158 A 
HETATM   21  N5  UNL     1       9.811   4.019  -4.147  1.00  0.00    -0.253 N 
HETATM   22  O4  UNL     1      10.827   4.653  -3.718  1.00  0.00    -0.237 OA
ATOM     23  H5  UNL     1       9.819   3.053  -4.476  1.00  0.00     0.195 HD
HETATM   24  C11 UNL     1      10.537   5.868  -3.363  1.00  0.00     0.141 A 
HETATM   25  C14 UNL     1       9.173   6.010  -3.597  1.00  0.00     0.134 A 
BRANCH  24  26
HETATM   26  C12 UNL     1      11.413   6.929  -2.816  1.00  0.00     0.241 C 
HETATM   27  C13 UNL     1      11.528   8.072  -3.812  1.00  0.00     0.047 C 
BRANCH  26  28
HETATM   28  N6  UNL     1      10.857   7.370  -1.565  1.00  0.00    -0.069 N 
ATOM     29  H63 UNL     1      10.145   8.090  -1.683  1.00  0.00     0.275 HD
ATOM     30  H62 UNL     1      10.268   6.664  -1.126  1.00  0.00     0.275 HD
ATOM     31  H61 UNL     1      11.625   7.670  -0.965  1.00  0.00     0.275 HD
ENDBRANCH  26  28
ENDBRANCH  24  26
BRANCH  25  32
HETATM   32  O5  UNL     1       8.450   7.163  -3.353  1.00  0.00    -0.356 OA
ATOM     33  H5  UNL     1       8.642   7.851  -2.726  1.00  0.00     0.218 HD
ENDBRANCH  25  32
ENDBRANCH  17  20
ENDBRANCH  15  16
BRANCH  15  34
HETATM   34  C15 UNL     1       5.512   2.255  -6.548  1.00  0.00     0.198 C 
HETATM   35  O6  UNL     1       5.222   1.053  -6.685  1.00  0.00    -0.646 OA
HETATM   36  O7  UNL     1       5.776   3.048  -7.643  1.00  0.00    -0.646 OA
ENDBRANCH  15  34
ENDBRANCH  14  15
ENDBRANCH  12  14
ENDBRANCH   6  12
BRANCH   1  37
HETATM   37  C4  UNL     1       9.192   0.637   1.082  1.00  0.00     0.138 C 
BRANCH  37  38
HETATM   38  C3  UNL     1       9.693   2.053   1.209  1.00  0.00     0.056 C 
BRANCH  38  39
HETATM   39  C2  UNL     1      11.021   2.302   0.549  1.00  0.00     0.180 C 
BRANCH  39  40
HETATM   40  O1  UNL     1      11.547   1.191  -0.085  1.00  0.00    -0.387 OA
HETATM   41  C1  UNL     1      12.193   1.497  -1.271  1.00  0.00     0.202 C 
ENDBRANCH  39  40
BRANCH  39  42
HETATM   42  C18 UNL     1      11.075   3.513  -0.327  1.00  0.00     0.406 C 
BRANCH  42  43
HETATM   43  N9  UNL     1      11.833   4.613   0.174  1.00  0.00    -0.048 N 
ATOM     44  H93 UNL     1      12.411   4.307   0.957  1.00  0.00     0.276 HD
ATOM     45  H92 UNL     1      12.556   4.871  -0.497  1.00  0.00     0.276 HD
ATOM     46  H91 UNL     1      11.297   5.439   0.441  1.00  0.00     0.276 HD
ENDBRANCH  42  43
BRANCH  42  47
HETATM   47  N10 UNL     1       9.730   4.017  -0.627  1.00  0.00    -0.048 N 
ATOM     48 3H10 UNL     1       9.085   3.256  -0.839  1.00  0.00     0.276 HD
ATOM     49 2H10 UNL     1       9.273   4.382   0.208  1.00  0.00     0.276 HD
ATOM     50 1H10 UNL     1       9.750   4.709  -1.375  1.00  0.00     0.276 HD
ENDBRANCH  42  47
ENDBRANCH  39  42
ENDBRANCH  38  39
ENDBRANCH  37  38
ENDBRANCH   1  37
BRANCH  11  51
HETATM   51  N8  UNL     1       9.633  -0.944  -0.849  1.00  0.00    -0.381 N 
ATOM     52  H82 UNL     1      10.215  -0.757  -0.033  1.00  0.00     0.157 HD
ATOM     53  H81 UNL     1       9.787  -1.684  -1.534  1.00  0.00     0.157 HD
ENDBRANCH  11  51
TORSDOF 17
ENDMDL
MODEL 2
REMARK VINA RESULT: -6.865713388      3.313      5.804
REMARK  17 active torsions:
REMARK  status: ('A' for Active; 'I' for Inactive)
REMARK    1  A    between atoms: O1_2  and  C2_3 
REMARK    2  A    between atoms: C2_3  and  C3_4 
REMARK    3  A    between atoms: C2_3  and  C18_45 
REMARK    4  A    between atoms: C3_4  and  C4_5 
REMARK    5  A    between atoms: C4_5  and  N1_6 
REMARK    6  A    between atoms: C6_11  and  N3_12 
REMARK    7  A    between atoms: N3_12  and  C7_14 
REMARK    8  A    between atoms: C7_14  and  C8_15 
REMARK    9  A    between atoms: C8_15  and  N4_16 
REMARK   10  A    between atoms: C8_15  and  C15_34 
REMARK       I    between atoms: N4_16  and  C9_18 
REMARK   11  A    between atoms: C9_18  and  C10_20 
REMARK   12  A    between atoms: C11_24  and  C12_25 
REMARK   13  A    between atoms: C12_25  and  N6_27 
REMARK   14  A    between atoms: C14_31  and  O5_32 
REMARK   15  A    between atoms: C17_41  and  N8_42 
REMARK   16  A    between atoms: C18_45  and  N9_46 
REMARK   17  A    between atoms: C18_45  and  N10_50 
ROOT
HETATM    1  N1  UNL     1       8.334   0.923   0.363  1.00  0.00    -0.281 N 
HETATM    2  C5  UNL     1       7.084   1.473   0.297  1.00  0.00     0.342 C 
HETATM    3  O2  UNL     1       6.676   2.008   1.361  1.00  0.00    -0.246 OA
HETATM    4  N2  UNL     1       6.246   1.514  -0.754  1.00  0.00    -0.141 N 
ATOM      5  H2  UNL     1       5.362   1.996  -0.585  1.00  0.00     0.189 HD
HETATM    6  C6  UNL     1       6.400   1.005  -2.014  1.00  0.00     0.685 C 
HETATM    7  N7  UNL     1       7.266   0.029  -2.306  1.00  0.00    -0.153 N 
ATOM      8  H7  UNL     1       6.979  -0.587  -3.066  1.00  0.00     0.187 HD
HETATM    9  C16 UNL     1       8.476  -0.271  -1.745  1.00  0.00     0.303 C 
HETATM   10  O8  UNL     1       9.288  -0.932  -2.416  1.00  0.00    -0.263 OA
HETATM   11  C17 UNL     1       8.936   0.075  -0.486  1.00  0.00     0.175 C 
ENDROOT
BRANCH   6  12
HETATM   12  N3  UNL     1       5.695   1.480  -2.939  1.00  0.00    -0.223 N 
ATOM     13  H3  UNL     1       4.988   2.150  -2.635  1.00  0.00     0.177 HD
BRANCH  12  14
HETATM   14  C7  UNL     1       5.717   1.239  -4.341  1.00  0.00     0.174 C 
BRANCH  14  15
HETATM   15  C8  UNL     1       5.532   2.531  -5.146  1.00  0.00     0.204 C 
BRANCH  15  16
HETATM   16  N4  UNL     1       4.213   3.076  -4.846  1.00  0.00    -0.340 N 
HETATM   17  C9  UNL     1       3.271   3.319  -5.862  1.00  0.00     0.273 C 
HETATM   18  O3  UNL     1       3.618   3.044  -7.045  1.00  0.00    -0.266 OA
ATOM     19  H4  UNL     1       3.967   3.286  -3.879  1.00  0.00     0.163 HD
BRANCH  17  20
HETATM   20  C10 UNL     1       1.942   3.856  -5.651  1.00  0.00     0.158 A 
HETATM   21  N5  UNL     1       1.519   4.537  -4.558  1.00  0.00    -0.253 N 
HETATM   22  O4  UNL     1       0.298   4.863  -4.698  1.00  0.00    -0.237 OA
ATOM     23  H5  UNL     1       2.094   4.756  -3.745  1.00  0.00     0.195 HD
HETATM   24  C11 UNL     1      -0.195   4.460  -5.830  1.00  0.00     0.141 A 
HETATM   25  C14 UNL     1       0.845   3.801  -6.477  1.00  0.00     0.134 A 
BRANCH  24  26
HETATM   26  C12 UNL     1      -1.559   4.627  -6.382  1.00  0.00     0.241 C 
HETATM   27  C13 UNL     1      -1.575   5.760  -7.395  1.00  0.00     0.047 C 
BRANCH  26  28
HETATM   28  N6  UNL     1      -1.958   3.379  -6.976  1.00  0.00    -0.069 N 
ATOM     29  H63 UNL     1      -1.508   3.210  -7.875  1.00  0.00     0.275 HD
ATOM     30  H62 UNL     1      -1.585   2.570  -6.480  1.00  0.00     0.275 HD
ATOM     31  H61 UNL     1      -2.976   3.367  -7.037  1.00  0.00     0.275 HD
ENDBRANCH  26  28
ENDBRANCH  24  26
BRANCH  25  32
HETATM   32  O5  UNL     1       0.747   3.211  -7.724  1.00  0.00    -0.356 OA
ATOM     33  H5  UNL     1       1.149   3.494  -8.537  1.00  0.00     0.218 HD
ENDBRANCH  25  32
ENDBRANCH  17  20
ENDBRANCH  15  16
BRANCH  15  34
HETATM   34  C15 UNL     1       6.606   3.471  -4.786  1.00  0.00     0.198 C 
HETATM   35  O6  UNL     1       7.725   3.051  -4.439  1.00  0.00    -0.646 OA
HETATM   36  O7  UNL     1       6.344   4.822  -4.841  1.00  0.00    -0.646 OA
ENDBRANCH  15  34
ENDBRANCH  14  15
ENDBRANCH  12  14
ENDBRANCH   6  12
BRANCH   1  37
HETATM   37  C4  UNL     1       9.155   1.297   1.509  1.00  0.00     0.138 C 
BRANCH  37  38
HETATM   38  C3  UNL     1       9.483   2.763   1.388  1.00  0.00     0.056 C 
BRANCH  38  39
HETATM   39  C2  UNL     1      10.778   3.054   0.682  1.00  0.00     0.180 C 
BRANCH  39  40
HETATM   40  O1  UNL     1      11.634   1.968   0.615  1.00  0.00    -0.387 OA
HETATM   41  C1  UNL     1      12.897   2.241   1.112  1.00  0.00     0.202 C 
ENDBRANCH  39  40
BRANCH  39  42
HETATM   42  C18 UNL     1      10.637   3.726  -0.648  1.00  0.00     0.406 C 
BRANCH  42  43
HETATM   43  N9  UNL     1      11.425   4.900  -0.839  1.00  0.00    -0.048 N 
ATOM     44  H93 UNL     1      12.247   4.868  -0.236  1.00  0.00     0.276 HD
ATOM     45  H92 UNL     1      11.870   4.873  -1.756  1.00  0.00     0.276 HD
ATOM     46  H91 UNL     1      10.939   5.787  -0.716  1.00  0.00     0.276 HD
ENDBRANCH  42  43
BRANCH  42  47
HETATM   47  N10 UNL     1       9.242   4.093  -0.916  1.00  0.00    -0.048 N 
ATOM     48 3H10 UNL     1       8.665   3.269  -1.082  1.00  0.00     0.276 HD
ATOM     49 2H10 UNL     1       8.780   4.443  -0.078  1.00  0.00     0.276 HD
ATOM     50 1H10 UNL     1       9.175   4.758  -1.686  1.00  0.00     0.276 HD
ENDBRANCH  42  47
ENDBRANCH  39  42
ENDBRANCH  38  39
ENDBRANCH  37  38
ENDBRANCH   1  37
BRANCH  11  51
HETATM   51  N8  UNL     1      10.046  -0.463  -0.083  1.00  0.00    -0.381 N 
ATOM     52  H82 UNL     1       9.987  -1.196   0.625  1.00  0.00     0.157 HD
ATOM     53  H81 UNL     1      10.906  -0.111  -0.505  1.00  0.00     0.157 HD
ENDBRANCH  11  51
TORSDOF 17
ENDMDL
MODEL 3
REMARK VINA RESULT: -6.845884491      2.927      6.873
REMARK  17 active torsions:
REMARK  status: ('A' for Active; 'I' for Inactive)
REMARK    1  A    between atoms: O1_2  and  C2_3 
REMARK    2  A    between atoms: C2_3  and  C3_4 
REMARK    3  A    between atoms: C2_3  and  C18_45 
REMARK    4  A    between atoms: C3_4  and  C4_5 
REMARK    5  A    between atoms: C4_5  and  N1_6 
REMARK    6  A    between atoms: C6_11  and  N3_12 
REMARK    7  A    between atoms: N3_12  and  C7_14 
REMARK    8  A    between atoms: C7_14  and  C8_15 
REMARK    9  A    between atoms: C8_15  and  N4_16 
REMARK   10  A    between atoms: C8_15  and  C15_34 
REMARK       I    between atoms: N4_16  and  C9_18 
REMARK   11  A    between atoms: C9_18  and  C10_20 
REMARK   12  A    between atoms: C11_24  and  C12_25 
REMARK   13  A    between atoms: C12_25  and  N6_27 
REMARK   14  A    between atoms: C14_31  and  O5_32 
REMARK   15  A    between atoms: C17_41  and  N8_42 
REMARK   16  A    between atoms: C18_45  and  N9_46 
REMARK   17  A    between atoms: C18_45  and  N10_50 
ROOT
HETATM    1  N1  UNL     1       6.670   3.021  -2.872  1.00  0.00    -0.281 N 
HETATM    2  C5  UNL     1       6.478   2.406  -1.666  1.00  0.00     0.342 C 
HETATM    3  O2  UNL     1       5.675   1.437  -1.679  1.00  0.00    -0.246 OA
HETATM    4  N2  UNL     1       7.036   2.706  -0.480  1.00  0.00    -0.141 N 
ATOM      5  H2  UNL     1       6.763   2.098   0.293  1.00  0.00     0.189 HD
HETATM    6  C6  UNL     1       7.914   3.702  -0.154  1.00  0.00     0.685 C 
HETATM    7  N7  UNL     1       8.073   4.805  -0.894  1.00  0.00    -0.153 N 
ATOM      8  H7  UNL     1       8.325   5.642  -0.369  1.00  0.00     0.187 HD
HETATM    9  C16 UNL     1       7.949   4.985  -2.244  1.00  0.00     0.303 C 
HETATM   10  O8  UNL     1       8.531   5.954  -2.764  1.00  0.00    -0.263 OA
HETATM   11  C17 UNL     1       7.239   4.207  -3.141  1.00  0.00     0.175 C 
ENDROOT
BRANCH   6  12
HETATM   12  N3  UNL     1       8.604   3.573   0.887  1.00  0.00    -0.223 N 
ATOM     13  H3  UNL     1       8.787   4.444   1.386  1.00  0.00     0.177 HD
BRANCH  12  14
HETATM   14  C7  UNL     1       9.173   2.415   1.487  1.00  0.00     0.174 C 
BRANCH  14  15
HETATM   15  C8  UNL     1      10.019   1.613   0.492  1.00  0.00     0.204 C 
BRANCH  15  16
HETATM   16  N4  UNL     1      11.427   1.796   0.830  1.00  0.00    -0.340 N 
HETATM   17  C9  UNL     1      12.167   2.882   0.330  1.00  0.00     0.273 C 
HETATM   18  O3  UNL     1      11.559   3.693  -0.424  1.00  0.00    -0.266 OA
ATOM     19  H4  UNL     1      11.884   1.121   1.442  1.00  0.00     0.163 HD
BRANCH  17  20
HETATM   20  C10 UNL     1      13.564   3.137   0.617  1.00  0.00     0.158 A 
HETATM   21  N5  UNL     1      14.219   4.309   0.426  1.00  0.00    -0.253 N 
HETATM   22  O4  UNL     1      15.434   4.188   0.780  1.00  0.00    -0.237 OA
ATOM     23  H5  UNL     1      13.798   5.161   0.053  1.00  0.00     0.195 HD
HETATM   24  C11 UNL     1      15.704   2.996   1.219  1.00  0.00     0.141 A 
HETATM   25  C14 UNL     1      14.513   2.285   1.128  1.00  0.00     0.134 A 
BRANCH  24  26
HETATM   26  C12 UNL     1      16.981   2.440   1.723  1.00  0.00     0.241 C 
HETATM   27  C13 UNL     1      16.978   2.427   3.243  1.00  0.00     0.047 C 
BRANCH  26  28
HETATM   28  N6  UNL     1      17.139   1.117   1.182  1.00  0.00    -0.069 N 
ATOM     29  H63 UNL     1      16.292   0.773   0.730  1.00  0.00     0.275 HD
ATOM     30  H62 UNL     1      17.749   1.097   0.366  1.00  0.00     0.275 HD
ATOM     31  H61 UNL     1      17.462   0.504   1.930  1.00  0.00     0.275 HD
ENDBRANCH  26  28
ENDBRANCH  24  26
BRANCH  25  32
HETATM   32  O5  UNL     1      14.357   0.962   1.496  1.00  0.00    -0.356 OA
ATOM     33  H5  UNL     1      13.550   0.469   1.579  1.00  0.00     0.218 HD
ENDBRANCH  25  32
ENDBRANCH  17  20
ENDBRANCH  15  16
BRANCH  15  34
HETATM   34  C15 UNL     1       9.620   0.198   0.562  1.00  0.00     0.198 C 
HETATM   35  O6  UNL     1       8.750  -0.174   1.370  1.00  0.00    -0.646 OA
HETATM   36  O7  UNL     1      10.230  -0.701  -0.284  1.00  0.00    -0.646 OA
ENDBRANCH  15  34
ENDBRANCH  14  15
ENDBRANCH  12  14
ENDBRANCH   6  12
BRANCH   1  37
HETATM   37  C4  UNL     1       6.202   2.306  -4.054  1.00  0.00     0.138 C 
BRANCH  37  38
HETATM   38  C3  UNL     1       7.361   1.518  -4.610  1.00  0.00     0.056 C 
BRANCH  38  39
HETATM   39  C2  UNL     1       7.263   0.033  -4.393  1.00  0.00     0.180 C 
BRANCH  39  40
HETATM   40  O1  UNL     1       7.311  -0.706  -5.562  1.00  0.00    -0.387 OA
HETATM   41  C1  UNL     1       6.076  -0.833  -6.175  1.00  0.00     0.202 C 
ENDBRANCH  39  40
BRANCH  39  42
HETATM   42  C18 UNL     1       8.189  -0.517  -3.355  1.00  0.00     0.406 C 
BRANCH  42  43
HETATM   43  N9  UNL     1       7.579  -0.937  -2.135  1.00  0.00    -0.048 N 
ATOM     44  H93 UNL     1       6.619  -0.595  -2.092  1.00  0.00     0.276 HD
ATOM     45  H92 UNL     1       7.413  -1.943  -2.159  1.00  0.00     0.276 HD
ATOM     46  H91 UNL     1       8.075  -0.687  -1.280  1.00  0.00     0.276 HD
ENDBRANCH  42  43
BRANCH  42  47
HETATM   47  N10 UNL     1       9.235   0.450  -3.004  1.00  0.00    -0.048 N 
ATOM     48 3H10 UNL     1       8.838   1.353  -2.746  1.00  0.00     0.276 HD
ATOM     49 2H10 UNL     1       9.679   0.214  -2.117  1.00  0.00     0.276 HD
ATOM     50 1H10 UNL     1       9.921   0.543  -3.753  1.00  0.00     0.276 HD
ENDBRANCH  42  47
ENDBRANCH  39  42
ENDBRANCH  38  39
ENDBRANCH  37  38
ENDBRANCH   1  37
BRANCH  11  51
HETATM   51  N8  UNL     1       7.105   4.656  -4.352  1.00  0.00    -0.381 N 
ATOM     52  H82 UNL     1       6.663   4.043  -5.037  1.00  0.00     0.157 HD
ATOM     53  H81 UNL     1       7.455   5.597  -4.533  1.00  0.00     0.157 HD
ENDBRANCH  11  51
TORSDOF 17
ENDMDL
MODEL 4
REMARK VINA RESULT: -6.819888660      0.997      1.330
REMARK  17 active torsions:
REMARK  status: ('A' for Active; 'I' for Inactive)
REMARK    1  A    between atoms: O1_2  and  C2_3 
REMARK    2  A    between atoms: C2_3  and  C3_4 
REMARK    3  A    between atoms: C2_3  and  C18_45 
REMARK    4  A    between atoms: C3_4  and  C4_5 
REMARK    5  A    between atoms: C4_5  and  N1_6 
REMARK    6  A    between atoms: C6_11  and  N3_12 
REMARK    7  A    between atoms: N3_12  and  C7_14 
REMARK    8  A    between atoms: C7_14  and  C8_15 
REMARK    9  A    between atoms: C8_15  and  N4_16 
REMARK   10  A    between atoms: C8_15  and  C15_34 
REMARK       I    between atoms: N4_16  and  C9_18 
REMARK   11  A    between atoms: C9_18  and  C10_20 
REMARK   12  A    between atoms: C11_24  and  C12_25 
REMARK   13  A    between atoms: C12_25  and  N6_27 
REMARK   14  A    between atoms: C14_31  and  O5_32 
REMARK   15  A    between atoms: C17_41  and  N8_42 
REMARK   16  A    between atoms: C18_45  and  N9_46 
REMARK   17  A    between atoms: C18_45  and  N10_50 
ROOT
HETATM    1  N1  UNL     1       8.260   0.588   0.108  1.00  0.00    -0.281 N 
HETATM    2  C5  UNL     1       7.120   1.327   0.253  1.00  0.00     0.342 C 
HETATM    3  O2  UNL     1       6.894   1.743   1.419  1.00  0.00    -0.246 OA
HETATM    4  N2  UNL     1       6.218   1.661  -0.688  1.00  0.00    -0.141 N 
ATOM      5  H2  UNL     1       5.445   2.241  -0.360  1.00  0.00     0.189 HD
HETATM    6  C6  UNL     1       6.182   1.341  -2.016  1.00  0.00     0.685 C 
HETATM    7  N7  UNL     1       6.846   0.301  -2.534  1.00  0.00    -0.153 N 
ATOM      8  H7  UNL     1       6.400  -0.136  -3.340  1.00  0.00     0.187 HD
HETATM    9  C16 UNL     1       8.031  -0.266  -2.152  1.00  0.00     0.303 C 
HETATM   10  O8  UNL     1       8.663  -0.930  -2.992  1.00  0.00    -0.263 OA
HETATM   11  C17 UNL     1       8.641  -0.197  -0.912  1.00  0.00     0.175 C 
ENDROOT
BRANCH   6  12
HETATM   12  N3  UNL     1       5.495   2.058  -2.786  1.00  0.00    -0.223 N 
ATOM     13  H3  UNL     1       5.216   2.957  -2.392  1.00  0.00     0.177 HD
BRANCH  12  14
HETATM   14  C7  UNL     1       5.041   1.826  -4.114  1.00  0.00     0.174 C 
BRANCH  14  15
HETATM   15  C8  UNL     1       5.967   2.467  -5.154  1.00  0.00     0.204 C 
BRANCH  15  16
HETATM   16  N4  UNL     1       7.034   3.171  -4.450  1.00  0.00    -0.340 N 
HETATM   17  C9  UNL     1       7.094   4.576  -4.424  1.00  0.00     0.273 C 
HETATM   18  O3  UNL     1       6.183   5.201  -5.036  1.00  0.00    -0.266 OA
ATOM     19  H4  UNL     1       7.752   2.632  -3.967  1.00  0.00     0.163 HD
BRANCH  17  20
HETATM   20  C10 UNL     1       8.115   5.351  -3.749  1.00  0.00     0.158 A 
HETATM   21  N5  UNL     1       7.943   6.100  -2.632  1.00  0.00    -0.253 N 
HETATM   22  O4  UNL     1       9.043   6.650  -2.307  1.00  0.00    -0.237 OA
ATOM     23  H5  UNL     1       7.063   6.206  -2.128  1.00  0.00     0.195 HD
HETATM   24  C11 UNL     1      10.007   6.345  -3.122  1.00  0.00     0.141 A 
HETATM   25  C14 UNL     1       9.441   5.503  -4.073  1.00  0.00     0.134 A 
BRANCH  24  26
HETATM   26  C12 UNL     1      11.427   6.766  -3.108  1.00  0.00     0.241 C 
HETATM   27  C13 UNL     1      11.700   7.632  -1.889  1.00  0.00     0.047 C 
BRANCH  26  28
HETATM   28  N6  UNL     1      12.245   5.584  -3.112  1.00  0.00    -0.069 N 
ATOM     29  H63 UNL     1      13.146   5.727  -2.656  1.00  0.00     0.275 HD
ATOM     30  H62 UNL     1      11.891   4.858  -2.491  1.00  0.00     0.275 HD
ATOM     31  H61 UNL     1      12.339   5.265  -4.076  1.00  0.00     0.275 HD
ENDBRANCH  26  28
ENDBRANCH  24  26
BRANCH  25  32
HETATM   32  O5  UNL     1      10.128   4.942  -5.134  1.00  0.00    -0.356 OA
ATOM     33  H5  UNL     1      10.717   4.197  -5.121  1.00  0.00     0.218 HD
ENDBRANCH  25  32
ENDBRANCH  17  20
ENDBRANCH  15  16
BRANCH  15  34
HETATM   34  C15 UNL     1       6.497   1.411  -6.033  1.00  0.00     0.198 C 
HETATM   35  O6  UNL     1       6.822   1.670  -7.206  1.00  0.00    -0.646 OA
HETATM   36  O7  UNL     1       6.623   0.137  -5.528  1.00  0.00    -0.646 OA
ENDBRANCH  15  34
ENDBRANCH  14  15
ENDBRANCH  12  14
ENDBRANCH   6  12
BRANCH   1  37
HETATM   37  C4  UNL     1       9.222   0.646   1.203  1.00  0.00     0.138 C 
BRANCH  37  38
HETATM   38  C3  UNL     1       9.702   2.069   1.327  1.00  0.00     0.056 C 
BRANCH  38  39
HETATM   39  C2  UNL     1      11.030   2.336   0.675  1.00  0.00     0.180 C 
BRANCH  39  40
HETATM   40  O1  UNL     1      11.596   1.219   0.084  1.00  0.00    -0.387 OA
HETATM   41  C1  UNL     1      12.136   1.481  -1.164  1.00  0.00     0.202 C 
ENDBRANCH  39  40
BRANCH  39  42
HETATM   42  C18 UNL     1      11.060   3.519  -0.240  1.00  0.00     0.406 C 
BRANCH  42  43
HETATM   43  N9  UNL     1      11.768   4.661   0.241  1.00  0.00    -0.048 N 
ATOM     44  H93 UNL     1      12.152   4.467   1.166  1.00  0.00     0.276 HD
ATOM     45  H92 UNL     1      12.628   4.786  -0.292  1.00  0.00     0.276 HD
ATOM     46  H91 UNL     1      11.242   5.534   0.260  1.00  0.00     0.276 HD
ENDBRANCH  42  43
BRANCH  42  47
HETATM   47  N10 UNL     1       9.706   3.963  -0.585  1.00  0.00    -0.048 N 
ATOM     48 3H10 UNL     1       9.557   3.961  -1.594  1.00  0.00     0.276 HD
ATOM     49 2H10 UNL     1       9.007   3.269  -0.322  1.00  0.00     0.276 HD
ATOM     50 1H10 UNL     1       9.499   4.875  -0.179  1.00  0.00     0.276 HD
ENDBRANCH  42  47
ENDBRANCH  39  42
ENDBRANCH  38  39
ENDBRANCH  37  38
ENDBRANCH   1  37
BRANCH  11  51
HETATM   51  N8  UNL     1       9.674  -0.957  -0.708  1.00  0.00    -0.381 N 
ATOM     52  H82 UNL     1      10.577  -0.501  -0.574  1.00  0.00     0.157 HD
ATOM     53  H81 UNL     1       9.508  -1.963  -0.697  1.00  0.00     0.157 HD
ENDBRANCH  11  51
TORSDOF 17
ENDMDL
MODEL 5
REMARK VINA RESULT: -6.816297607      0.927      1.141
REMARK  17 active torsions:
REMARK  status: ('A' for Active; 'I' for Inactive)
REMARK    1  A    between atoms: O1_2  and  C2_3 
REMARK    2  A    between atoms: C2_3  and  C3_4 
REMARK    3  A    between atoms: C2_3  and  C18_45 
REMARK    4  A    between atoms: C3_4  and  C4_5 
REMARK    5  A    between atoms: C4_5  and  N1_6 
REMARK    6  A    between atoms: C6_11  and  N3_12 
REMARK    7  A    between atoms: N3_12  and  C7_14 
REMARK    8  A    between atoms: C7_14  and  C8_15 
REMARK    9  A    between atoms: C8_15  and  N4_16 
REMARK   10  A    between atoms: C8_15  and  C15_34 
REMARK       I    between atoms: N4_16  and  C9_18 
REMARK   11  A    between atoms: C9_18  and  C10_20 
REMARK   12  A    between atoms: C11_24  and  C12_25 
REMARK   13  A    between atoms: C12_25  and  N6_27 
REMARK   14  A    between atoms: C14_31  and  O5_32 
REMARK   15  A    between atoms: C17_41  and  N8_42 
REMARK   16  A    between atoms: C18_45  and  N9_46 
REMARK   17  A    between atoms: C18_45  and  N10_50 
ROOT
HETATM    1  N1  UNL     1       8.295   0.741   0.212  1.00  0.00    -0.281 N 
HETATM    2  C5  UNL     1       7.089   1.379   0.288  1.00  0.00     0.342 C 
HETATM    3  O2  UNL     1       6.782   1.814   1.429  1.00  0.00    -0.246 OA
HETATM    4  N2  UNL     1       6.198   1.598  -0.695  1.00  0.00    -0.141 N 
ATOM      5  H2  UNL     1       5.365   2.117  -0.418  1.00  0.00     0.189 HD
HETATM    6  C6  UNL     1       6.243   1.230  -2.012  1.00  0.00     0.685 C 
HETATM    7  N7  UNL     1       7.015   0.238  -2.466  1.00  0.00    -0.153 N 
ATOM      8  H7  UNL     1       6.641  -0.266  -3.270  1.00  0.00     0.187 HD
HETATM    9  C16 UNL     1       8.229  -0.208  -2.020  1.00  0.00     0.303 C 
HETATM   10  O8  UNL     1       8.950  -0.841  -2.812  1.00  0.00    -0.263 OA
HETATM   11  C17 UNL     1       8.783  -0.042  -0.763  1.00  0.00     0.175 C 
ENDROOT
BRANCH   6  12
HETATM   12  N3  UNL     1       5.525   1.856  -2.831  1.00  0.00    -0.223 N 
ATOM     13  H3  UNL     1       5.200   2.766  -2.504  1.00  0.00     0.177 HD
BRANCH  12  14
HETATM   14  C7  UNL     1       5.090   1.508  -4.140  1.00  0.00     0.174 C 
BRANCH  14  15
HETATM   15  C8  UNL     1       5.611   2.491  -5.196  1.00  0.00     0.204 C 
BRANCH  15  16
HETATM   16  N4  UNL     1       6.904   3.002  -4.751  1.00  0.00    -0.340 N 
HETATM   17  C9  UNL     1       7.148   4.382  -4.639  1.00  0.00     0.273 C 
HETATM   18  O3  UNL     1       6.199   5.159  -4.940  1.00  0.00    -0.266 OA
ATOM     19  H4  UNL     1       7.647   2.343  -4.517  1.00  0.00     0.163 HD
BRANCH  17  20
HETATM   20  C10 UNL     1       8.399   4.972  -4.206  1.00  0.00     0.158 A 
HETATM   21  N5  UNL     1       9.638   4.470  -4.427  1.00  0.00    -0.253 N 
HETATM   22  O4  UNL     1      10.513   5.235  -3.912  1.00  0.00    -0.237 OA
ATOM     23  H5  UNL     1       9.839   3.606  -4.932  1.00  0.00     0.195 HD
HETATM   24  C11 UNL     1       9.983   6.268  -3.327  1.00  0.00     0.141 A 
HETATM   25  C14 UNL     1       8.610   6.130  -3.498  1.00  0.00     0.134 A 
BRANCH  24  26
HETATM   26  C12 UNL     1      10.635   7.388  -2.613  1.00  0.00     0.241 C 
HETATM   27  C13 UNL     1      11.820   6.875  -1.811  1.00  0.00     0.047 C 
BRANCH  26  28
HETATM   28  N6  UNL     1      11.038   8.367  -3.586  1.00  0.00    -0.069 N 
ATOM     29  H63 UNL     1      11.388   7.946  -4.447  1.00  0.00     0.275 HD
ATOM     30  H62 UNL     1      10.248   8.869  -3.990  1.00  0.00     0.275 HD
ATOM     31  H61 UNL     1      11.717   8.990  -3.149  1.00  0.00     0.275 HD
ENDBRANCH  26  28
ENDBRANCH  24  26
BRANCH  25  32
HETATM   32  O5  UNL     1       7.666   7.022  -3.024  1.00  0.00    -0.356 OA
ATOM     33  H5  UNL     1       7.463   7.232  -2.121  1.00  0.00     0.218 HD
ENDBRANCH  25  32
ENDBRANCH  17  20
ENDBRANCH  15  16
BRANCH  15  34
HETATM   34  C15 UNL     1       5.716   1.790  -6.486  1.00  0.00     0.198 C 
HETATM   35  O6  UNL     1       5.639   2.420  -7.556  1.00  0.00    -0.646 OA
HETATM   36  O7  UNL     1       5.900   0.425  -6.481  1.00  0.00    -0.646 OA
ENDBRANCH  15  34
ENDBRANCH  14  15
ENDBRANCH  12  14
ENDBRANCH   6  12
BRANCH   1  37
HETATM   37  C4  UNL     1       9.205   0.922   1.337  1.00  0.00     0.138 C 
BRANCH  37  38
HETATM   38  C3  UNL     1       9.536   2.389   1.437  1.00  0.00     0.056 C 
BRANCH  38  39
HETATM   39  C2  UNL     1      10.735   2.810   0.633  1.00  0.00     0.180 C 
BRANCH  39  40
HETATM   40  O1  UNL     1      11.630   1.784   0.386  1.00  0.00    -0.387 OA
HETATM   41  C1  UNL     1      12.871   1.996   0.961  1.00  0.00     0.202 C 
ENDBRANCH  39  40
BRANCH  39  42
HETATM   42  C18 UNL     1      10.424   3.581  -0.610  1.00  0.00     0.406 C 
BRANCH  42  43
HETATM   43  N9  UNL     1       9.092   4.081  -0.717  1.00  0.00    -0.048 N 
ATOM     44  H93 UNL     1       8.459   3.327  -0.983  1.00  0.00     0.276 HD
ATOM     45  H92 UNL     1       8.730   4.306   0.210  1.00  0.00     0.276 HD
ATOM     46  H91 UNL     1       8.963   4.877  -1.341  1.00  0.00     0.276 HD
ENDBRANCH  42  43
BRANCH  42  47
HETATM   47  N10 UNL     1      10.684   2.784  -1.814  1.00  0.00    -0.048 N 
ATOM     48 3H10 UNL     1      11.221   3.310  -2.502  1.00  0.00     0.276 HD
ATOM     49 2H10 UNL     1      11.353   2.037  -1.629  1.00  0.00     0.276 HD
ATOM     50 1H10 UNL     1       9.819   2.421  -2.213  1.00  0.00     0.276 HD
ENDBRANCH  42  47
ENDBRANCH  39  42
ENDBRANCH  38  39
ENDBRANCH  37  38
ENDBRANCH   1  37
BRANCH  11  51
HETATM   51  N8  UNL     1       9.870  -0.699  -0.494  1.00  0.00    -0.381 N 
ATOM     52  H82 UNL     1      10.730  -0.162  -0.376  1.00  0.00     0.157 HD
ATOM     53  H81 UNL     1       9.787  -1.713  -0.420  1.00  0.00     0.157 HD
ENDBRANCH  11  51
TORSDOF 17
ENDMDL
