MODEL 1
REMARK VINA RESULT: -6.717856667      0.000      0.000
REMARK  14 active torsions:
REMARK  status: ('A' for Active; 'I' for Inactive)
REMARK       I    between atoms: C1_4  and  N3_6 
REMARK    1  A    between atoms: N3_6  and  C2_7 
REMARK    2  A    between atoms: N5_11  and  C4_12 
REMARK    3  A    between atoms: C4_12  and  C5_13 
REMARK    4  A    between atoms: N6_15  and  C7_16 
REMARK    5  A    between atoms: C7_16  and  C8_17 
REMARK    6  A    between atoms: C8_17  and  O1_18 
REMARK    7  A    between atoms: O1_18  and  C9_19 
REMARK    8  A    between atoms: C9_19  and  C10_20 
REMARK    9  A    between atoms: C10_20  and  N7_21 
REMARK   10  A    between atoms: C10_20  and  C11_25 
REMARK   11  A    between atoms: C11_25  and  O2_26 
REMARK   12  A    between atoms: C11_25  and  C12_28 
REMARK       I    between atoms: C12_28  and  N8_30 
REMARK       I    between atoms: N8_30  and  C13_32 
REMARK   13  A    between atoms: C13_32  and  C14_34 
REMARK   14  A    between atoms: C17_40  and  N10_41 
ROOT
HETATM    1  C10 UNL     1       9.107   2.262   0.492  1.00  0.00     0.244 C 
ENDROOT
BRANCH   1   2
HETATM    2  C9  UNL     1      10.168   2.828   1.455  1.00  0.00     0.203 C 
BRANCH   2   3
HETATM    3  O1  UNL     1      11.349   2.466   1.311  1.00  0.00    -0.387 OA
BRANCH   3   4
HETATM    4  C8  UNL     1      12.522   2.105   1.169  1.00  0.00     0.189 C 
BRANCH   4   5
HETATM    5  C7  UNL     1      13.447   3.285   0.771  1.00  0.00     0.175 C 
BRANCH   5   6
HETATM    6  N6  UNL     1      12.747   4.149  -0.162  1.00  0.00    -0.285 N 
HETATM    7  C6  UNL     1      12.339   3.951  -1.421  1.00  0.00     0.140 A 
HETATM    8  C5  UNL     1      11.679   5.064  -1.868  1.00  0.00     0.064 A 
HETATM    9  N13 UNL     1      11.703   5.947  -0.827  1.00  0.00    -0.287 N 
HETATM   10  N12 UNL     1      12.340   5.383   0.168  1.00  0.00    -0.241 N 
ATOM     11  H13 UNL     1      11.296   6.882  -0.824  1.00  0.00     0.188 HD
ATOM     12  H12 UNL     1      12.504   5.823   1.073  1.00  0.00     0.208 HD
BRANCH   8  13
HETATM   13  C4  UNL     1      11.066   5.378  -3.195  1.00  0.00     0.210 C 
BRANCH  13  14
HETATM   14  N5  UNL     1       9.590   5.196  -3.059  1.00  0.00    -0.279 N 
HETATM   15  C3  UNL     1       8.641   6.130  -3.030  1.00  0.00     0.204 A 
HETATM   16  N4  UNL     1       7.454   5.547  -2.885  1.00  0.00    -0.310 N 
HETATM   17  C2  UNL     1       7.642   4.200  -2.820  1.00  0.00     0.278 A 
ATOM     18  H4  UNL     1       6.556   6.027  -2.832  1.00  0.00     0.170 HD
HETATM   19  N14 UNL     1       9.008   4.031  -2.936  1.00  0.00    -0.256 N 
ATOM     20  H14 UNL     1       9.491   3.133  -2.927  1.00  0.00     0.191 HD
BRANCH  17  21
HETATM   21  N3  UNL     1       6.802   3.365  -2.688  1.00  0.00    -0.337 NA
HETATM   22  C1  UNL     1       5.901   2.446  -2.518  1.00  0.00     0.264 C 
HETATM   23  N1  UNL     1       4.979   2.175  -3.431  1.00  0.00    -0.362 N 
HETATM   24  N2  UNL     1       5.840   1.645  -1.302  1.00  0.00    -0.049 NA
ATOM     25  H12 UNL     1       4.271   1.453  -3.297  1.00  0.00     0.159 HD
ATOM     26  H11 UNL     1       5.021   2.735  -4.282  1.00  0.00     0.159 HD
ENDBRANCH  17  21
ENDBRANCH  13  14
ENDBRANCH   8  13
ENDBRANCH   5   6
ENDBRANCH   4   5
ENDBRANCH   3   4
ENDBRANCH   2   3
ENDBRANCH   1   2
BRANCH   1  27
HETATM   27  N7  UNL     1       7.865   2.929   0.634  1.00  0.00    -0.070 N 
ATOM     28  H73 UNL     1       7.112   2.274   0.846  1.00  0.00     0.274 HD
ATOM     29  H72 UNL     1       7.836   3.486   1.489  1.00  0.00     0.274 HD
ATOM     30  H71 UNL     1       7.646   3.495  -0.186  1.00  0.00     0.274 HD
ENDBRANCH   1  27
BRANCH   1  31
HETATM   31  C11 UNL     1       8.967   0.794   0.733  1.00  0.00     0.242 C 
BRANCH  31  32
HETATM   32  O2  UNL     1       7.660   0.549   1.197  1.00  0.00    -0.384 OA
ATOM     33  H2  UNL     1       7.055   1.024   0.641  1.00  0.00     0.210 HD
ENDBRANCH  31  32
BRANCH  31  34
HETATM   34  C12 UNL     1       9.138   0.046  -0.538  1.00  0.00     0.255 C 
HETATM   35  O3  UNL     1       9.870  -0.961  -0.587  1.00  0.00    -0.270 OA
HETATM   36  N8  UNL     1       8.464   0.477  -1.698  1.00  0.00    -0.290 N 
HETATM   37  C13 UNL     1       8.653  -0.221  -2.917  1.00  0.00     0.275 C 
ATOM     38  H8  UNL     1       7.844   1.287  -1.660  1.00  0.00     0.172 HD
HETATM   39  O4  UNL     1       9.434  -1.223  -2.917  1.00  0.00    -0.266 OA
BRANCH  37  40
HETATM   40  C14 UNL     1       7.996   0.163  -4.153  1.00  0.00     0.122 A 
HETATM   41  C15 UNL     1       6.958  -0.600  -4.691  1.00  0.00     0.110 A 
HETATM   42  C16 UNL     1       6.379  -0.182  -5.857  1.00  0.00     0.261 A 
HETATM   43  O5  UNL     1       5.436  -0.877  -6.343  1.00  0.00    -0.268 OA
HETATM   44  N9  UNL     1       6.750   0.936  -6.535  1.00  0.00    -0.156 N 
HETATM   45  C17 UNL     1       7.756   1.653  -5.990  1.00  0.00     0.679 A 
ATOM     46  H9  UNL     1       6.295   1.218  -7.403  1.00  0.00     0.187 HD
HETATM   47  N11 UNL     1       8.338   1.260  -4.846  1.00  0.00    -0.186 N 
ATOM     48  H11 UNL     1       9.095   1.837  -4.477  1.00  0.00     0.184 HD
BRANCH  45  49
HETATM   49  N10 UNL     1       8.132   2.737  -6.623  1.00  0.00    -0.234 N 
ATOM     50 2H10 UNL     1       8.904   2.731  -7.290  1.00  0.00     0.174 HD
ATOM     51 1H10 UNL     1       7.621   3.596  -6.422  1.00  0.00     0.174 HD
ENDBRANCH  45  49
ENDBRANCH  37  40
ENDBRANCH  31  34
ENDBRANCH   1  31
TORSDOF 14
ENDMDL
MODEL 2
REMARK VINA RESULT: -6.637446665      1.348      1.682
REMARK  14 active torsions:
REMARK  status: ('A' for Active; 'I' for Inactive)
REMARK       I    between atoms: C1_4  and  N3_6 
REMARK    1  A    between atoms: N3_6  and  C2_7 
REMARK    2  A    between atoms: N5_11  and  C4_12 
REMARK    3  A    between atoms: C4_12  and  C5_13 
REMARK    4  A    between atoms: N6_15  and  C7_16 
REMARK    5  A    between atoms: C7_16  and  C8_17 
REMARK    6  A    between atoms: C8_17  and  O1_18 
REMARK    7  A    between atoms: O1_18  and  C9_19 
REMARK    8  A    between atoms: C9_19  and  C10_20 
REMARK    9  A    between atoms: C10_20  and  N7_21 
REMARK   10  A    between atoms: C10_20  and  C11_25 
REMARK   11  A    between atoms: C11_25  and  O2_26 
REMARK   12  A    between atoms: C11_25  and  C12_28 
REMARK       I    between atoms: C12_28  and  N8_30 
REMARK       I    between atoms: N8_30  and  C13_32 
REMARK   13  A    between atoms: C13_32  and  C14_34 
REMARK   14  A    between atoms: C17_40  and  N10_41 
ROOT
HETATM    1  C10 UNL     1       9.235   2.525   0.650  1.00  0.00     0.244 C 
ENDROOT
BRANCH   1   2
HETATM    2  C9  UNL     1      10.331   3.160   1.528  1.00  0.00     0.203 C 
BRANCH   2   3
HETATM    3  O1  UNL     1      11.511   2.817   1.338  1.00  0.00    -0.387 OA
BRANCH   3   4
HETATM    4  C8  UNL     1      12.683   2.477   1.148  1.00  0.00     0.189 C 
BRANCH   4   5
HETATM    5  C7  UNL     1      13.523   3.616   0.514  1.00  0.00     0.175 C 
BRANCH   5   6
HETATM    6  N6  UNL     1      12.710   4.329  -0.455  1.00  0.00    -0.285 N 
HETATM    7  C6  UNL     1      12.336   4.017  -1.702  1.00  0.00     0.140 A 
HETATM    8  C5  UNL     1      11.527   5.003  -2.197  1.00  0.00     0.064 A 
HETATM    9  N13 UNL     1      11.424   5.928  -1.198  1.00  0.00    -0.287 N 
HETATM   10  N12 UNL     1      12.132   5.507  -0.181  1.00  0.00    -0.241 N 
ATOM     11  H13 UNL     1      10.890   6.796  -1.237  1.00  0.00     0.188 HD
ATOM     12  H12 UNL     1      12.231   6.008   0.702  1.00  0.00     0.208 HD
BRANCH   8  13
HETATM   13  C4  UNL     1      10.878   5.166  -3.534  1.00  0.00     0.210 C 
BRANCH  13  14
HETATM   14  N5  UNL     1       9.436   4.811  -3.376  1.00  0.00    -0.279 N 
HETATM   15  C3  UNL     1       8.367   5.558  -3.648  1.00  0.00     0.204 A 
HETATM   16  N4  UNL     1       7.265   4.871  -3.355  1.00  0.00    -0.310 N 
HETATM   17  C2  UNL     1       7.633   3.648  -2.884  1.00  0.00     0.278 A 
ATOM     18  H4  UNL     1       6.308   5.204  -3.466  1.00  0.00     0.170 HD
HETATM   19  N14 UNL     1       9.015   3.661  -2.918  1.00  0.00    -0.256 N 
ATOM     20  H14 UNL     1       9.616   2.889  -2.630  1.00  0.00     0.191 HD
BRANCH  17  21
HETATM   21  N3  UNL     1       6.910   2.773  -2.521  1.00  0.00    -0.337 NA
HETATM   22  C1  UNL     1       6.116   1.814  -2.155  1.00  0.00     0.264 C 
HETATM   23  N1  UNL     1       5.778   1.612  -0.890  1.00  0.00    -0.362 N 
HETATM   24  N2  UNL     1       5.540   0.884  -3.119  1.00  0.00    -0.049 NA
ATOM     25  H12 UNL     1       5.154   0.857  -0.602  1.00  0.00     0.159 HD
ATOM     26  H11 UNL     1       6.181   2.262  -0.215  1.00  0.00     0.159 HD
ENDBRANCH  17  21
ENDBRANCH  13  14
ENDBRANCH   8  13
ENDBRANCH   5   6
ENDBRANCH   4   5
ENDBRANCH   3   4
ENDBRANCH   2   3
ENDBRANCH   1   2
BRANCH   1  27
HETATM   27  N7  UNL     1       8.016   3.241   0.739  1.00  0.00    -0.070 N 
ATOM     28  H73 UNL     1       7.413   2.862   1.469  1.00  0.00     0.274 HD
ATOM     29  H72 UNL     1       8.160   4.176   1.122  1.00  0.00     0.274 HD
ATOM     30  H71 UNL     1       7.535   3.277  -0.160  1.00  0.00     0.274 HD
ENDBRANCH   1  27
BRANCH   1  31
HETATM   31  C11 UNL     1       9.058   1.097   1.053  1.00  0.00     0.242 C 
BRANCH  31  32
HETATM   32  O2  UNL     1       7.682   0.864   1.245  1.00  0.00    -0.384 OA
ATOM     33  H2  UNL     1       7.542   0.660   2.162  1.00  0.00     0.210 HD
ENDBRANCH  31  32
BRANCH  31  34
HETATM   34  C12 UNL     1       9.517   0.195  -0.032  1.00  0.00     0.255 C 
HETATM   35  O3  UNL     1      10.104  -0.871   0.235  1.00  0.00    -0.270 OA
HETATM   36  N8  UNL     1       9.286   0.547  -1.377  1.00  0.00    -0.290 N 
HETATM   37  C13 UNL     1       9.752  -0.301  -2.413  1.00  0.00     0.275 C 
ATOM     38  H8  UNL     1       8.785   1.407  -1.604  1.00  0.00     0.172 HD
HETATM   39  O4  UNL     1      10.371  -1.361  -2.084  1.00  0.00    -0.266 OA
BRANCH  37  40
HETATM   40  C14 UNL     1       9.554  -0.005  -3.821  1.00  0.00     0.122 A 
HETATM   41  C15 UNL     1      10.599  -0.120  -4.740  1.00  0.00     0.110 A 
HETATM   42  C16 UNL     1      10.346   0.170  -6.052  1.00  0.00     0.261 A 
HETATM   43  O5  UNL     1      11.296   0.064  -6.884  1.00  0.00    -0.268 OA
HETATM   44  N9  UNL     1       9.135   0.567  -6.526  1.00  0.00    -0.156 N 
HETATM   45  C17 UNL     1       8.146   0.668  -5.613  1.00  0.00     0.679 A 
ATOM     46  H9  UNL     1       8.983   0.776  -7.512  1.00  0.00     0.187 HD
HETATM   47  N11 UNL     1       8.373   0.389  -4.320  1.00  0.00    -0.186 N 
ATOM     48  H11 UNL     1       7.592   0.482  -3.671  1.00  0.00     0.184 HD
BRANCH  45  49
HETATM   49  N10 UNL     1       6.968   1.048  -6.044  1.00  0.00    -0.234 N 
ATOM     50 2H10 UNL     1       6.863   1.709  -6.814  1.00  0.00     0.174 HD
ATOM     51 1H10 UNL     1       6.151   0.657  -5.576  1.00  0.00     0.174 HD
ENDBRANCH  45  49
ENDBRANCH  37  40
ENDBRANCH  31  34
ENDBRANCH   1  31
TORSDOF 14
ENDMDL
MODEL 3
REMARK VINA RESULT: -6.637079765      1.183      1.298
REMARK  14 active torsions:
REMARK  status: ('A' for Active; 'I' for Inactive)
REMARK       I    between atoms: C1_4  and  N3_6 
REMARK    1  A    between atoms: N3_6  and  C2_7 
REMARK    2  A    between atoms: N5_11  and  C4_12 
REMARK    3  A    between atoms: C4_12  and  C5_13 
REMARK    4  A    between atoms: N6_15  and  C7_16 
REMARK    5  A    between atoms: C7_16  and  C8_17 
REMARK    6  A    between atoms: C8_17  and  O1_18 
REMARK    7  A    between atoms: O1_18  and  C9_19 
REMARK    8  A    between atoms: C9_19  and  C10_20 
REMARK    9  A    between atoms: C10_20  and  N7_21 
REMARK   10  A    between atoms: C10_20  and  C11_25 
REMARK   11  A    between atoms: C11_25  and  O2_26 
REMARK   12  A    between atoms: C11_25  and  C12_28 
REMARK       I    between atoms: C12_28  and  N8_30 
REMARK       I    between atoms: N8_30  and  C13_32 
REMARK   13  A    between atoms: C13_32  and  C14_34 
REMARK   14  A    between atoms: C17_40  and  N10_41 
ROOT
HETATM    1  C10 UNL     1       8.929   2.493   0.564  1.00  0.00     0.244 C 
ENDROOT
BRANCH   1   2
HETATM    2  C9  UNL     1      10.022   3.201   1.387  1.00  0.00     0.203 C 
BRANCH   2   3
HETATM    3  O1  UNL     1      11.180   2.750   1.343  1.00  0.00    -0.387 OA
BRANCH   3   4
HETATM    4  C8  UNL     1      12.330   2.300   1.299  1.00  0.00     0.189 C 
BRANCH   4   5
HETATM    5  C7  UNL     1      13.344   3.352   0.781  1.00  0.00     0.175 C 
BRANCH   5   6
HETATM    6  N6  UNL     1      12.682   4.232  -0.165  1.00  0.00    -0.285 N 
HETATM    7  C6  UNL     1      12.272   4.036  -1.424  1.00  0.00     0.140 A 
HETATM    8  C5  UNL     1      11.657   5.168  -1.886  1.00  0.00     0.064 A 
HETATM    9  N13 UNL     1      11.709   6.060  -0.853  1.00  0.00    -0.287 N 
HETATM   10  N12 UNL     1      12.320   5.483   0.150  1.00  0.00    -0.241 N 
ATOM     11  H13 UNL     1      11.338   7.010  -0.863  1.00  0.00     0.188 HD
ATOM     12  H12 UNL     1      12.496   5.927   1.052  1.00  0.00     0.208 HD
BRANCH   8  13
HETATM   13  C4  UNL     1      11.062   5.491  -3.219  1.00  0.00     0.210 C 
BRANCH  13  14
HETATM   14  N5  UNL     1       9.590   5.262  -3.118  1.00  0.00    -0.279 N 
HETATM   15  C3  UNL     1       8.608   6.161  -3.163  1.00  0.00     0.204 A 
HETATM   16  N4  UNL     1       7.438   5.543  -3.025  1.00  0.00    -0.310 N 
HETATM   17  C2  UNL     1       7.671   4.208  -2.889  1.00  0.00     0.278 A 
ATOM     18  H4  UNL     1       6.522   5.992  -3.022  1.00  0.00     0.170 HD
HETATM   19  N14 UNL     1       9.045   4.084  -2.956  1.00  0.00    -0.256 N 
ATOM     20  H14 UNL     1       9.559   3.206  -2.889  1.00  0.00     0.191 HD
BRANCH  17  21
HETATM   21  N3  UNL     1       6.857   3.350  -2.741  1.00  0.00    -0.337 NA
HETATM   22  C1  UNL     1       5.988   2.404  -2.558  1.00  0.00     0.264 C 
HETATM   23  N1  UNL     1       4.948   2.225  -3.361  1.00  0.00    -0.362 N 
HETATM   24  N2  UNL     1       6.096   1.466  -1.447  1.00  0.00    -0.049 NA
ATOM     25  H12 UNL     1       4.265   1.482  -3.216  1.00  0.00     0.159 HD
ATOM     26  H11 UNL     1       4.873   2.881  -4.138  1.00  0.00     0.159 HD
ENDBRANCH  17  21
ENDBRANCH  13  14
ENDBRANCH   8  13
ENDBRANCH   5   6
ENDBRANCH   4   5
ENDBRANCH   3   4
ENDBRANCH   2   3
ENDBRANCH   1   2
BRANCH   1  27
HETATM   27  N7  UNL     1       7.676   3.140   0.695  1.00  0.00    -0.070 N 
ATOM     28  H73 UNL     1       7.140   3.095  -0.172  1.00  0.00     0.274 HD
ATOM     29  H72 UNL     1       7.045   2.612   1.299  1.00  0.00     0.274 HD
ATOM     30  H71 UNL     1       7.782   4.102   1.018  1.00  0.00     0.274 HD
ENDBRANCH   1  27
BRANCH   1  31
HETATM   31  C11 UNL     1       8.851   1.063   0.990  1.00  0.00     0.242 C 
BRANCH  31  32
HETATM   32  O2  UNL     1       7.493   0.730   1.160  1.00  0.00    -0.384 OA
ATOM     33  H2  UNL     1       7.219   0.213   0.413  1.00  0.00     0.210 HD
ENDBRANCH  31  32
BRANCH  31  34
HETATM   34  C12 UNL     1       9.399   0.179  -0.069  1.00  0.00     0.255 C 
HETATM   35  O3  UNL     1      10.057  -0.835   0.230  1.00  0.00    -0.270 OA
HETATM   36  N8  UNL     1       9.169   0.489  -1.424  1.00  0.00    -0.290 N 
HETATM   37  C13 UNL     1       9.719  -0.339  -2.435  1.00  0.00     0.275 C 
ATOM     38  H8  UNL     1       8.611   1.305  -1.677  1.00  0.00     0.172 HD
HETATM   39  O4  UNL     1      10.407  -1.344  -2.074  1.00  0.00    -0.266 OA
BRANCH  37  40
HETATM   40  C14 UNL     1       9.529  -0.084  -3.851  1.00  0.00     0.122 A 
HETATM   41  C15 UNL     1       8.275   0.254  -4.365  1.00  0.00     0.110 A 
HETATM   42  C16 UNL     1       8.163   0.484  -5.708  1.00  0.00     0.261 A 
HETATM   43  O5  UNL     1       7.024   0.792  -6.173  1.00  0.00    -0.268 OA
HETATM   44  N9  UNL     1       9.199   0.405  -6.585  1.00  0.00    -0.156 N 
HETATM   45  C17 UNL     1      10.398   0.077  -6.057  1.00  0.00     0.679 A 
ATOM     46  H9  UNL     1       9.079   0.584  -7.582  1.00  0.00     0.187 HD
HETATM   47  N11 UNL     1      10.529  -0.154  -4.742  1.00  0.00    -0.186 N 
ATOM     48  H11 UNL     1      11.456  -0.400  -4.394  1.00  0.00     0.184 HD
BRANCH  45  49
HETATM   49  N10 UNL     1      11.414  -0.006  -6.881  1.00  0.00    -0.234 N 
ATOM     50 2H10 UNL     1      11.652   0.752  -7.521  1.00  0.00     0.174 HD
ATOM     51 1H10 UNL     1      11.965  -0.864  -6.859  1.00  0.00     0.174 HD
ENDBRANCH  45  49
ENDBRANCH  37  40
ENDBRANCH  31  34
ENDBRANCH   1  31
TORSDOF 14
ENDMDL
MODEL 4
REMARK VINA RESULT: -6.573870842      1.488      1.790
REMARK  14 active torsions:
REMARK  status: ('A' for Active; 'I' for Inactive)
REMARK       I    between atoms: C1_4  and  N3_6 
REMARK    1  A    between atoms: N3_6  and  C2_7 
REMARK    2  A    between atoms: N5_11  and  C4_12 
REMARK    3  A    between atoms: C4_12  and  C5_13 
REMARK    4  A    between atoms: N6_15  and  C7_16 
REMARK    5  A    between atoms: C7_16  and  C8_17 
REMARK    6  A    between atoms: C8_17  and  O1_18 
REMARK    7  A    between atoms: O1_18  and  C9_19 
REMARK    8  A    between atoms: C9_19  and  C10_20 
REMARK    9  A    between atoms: C10_20  and  N7_21 
REMARK   10  A    between atoms: C10_20  and  C11_25 
REMARK   11  A    between atoms: C11_25  and  O2_26 
REMARK   12  A    between atoms: C11_25  and  C12_28 
REMARK       I    between atoms: C12_28  and  N8_30 
REMARK       I    between atoms: N8_30  and  C13_32 
REMARK   13  A    between atoms: C13_32  and  C14_34 
REMARK   14  A    between atoms: C17_40  and  N10_41 
ROOT
HETATM    1  C10 UNL     1      10.645   2.043   0.739  1.00  0.00     0.244 C 
ENDROOT
BRANCH   1   2
HETATM    2  C9  UNL     1      12.073   2.032   1.316  1.00  0.00     0.203 C 
BRANCH   2   3
HETATM    3  O1  UNL     1      13.028   1.933   0.526  1.00  0.00    -0.387 OA
BRANCH   3   4
HETATM    4  C8  UNL     1      13.976   1.835  -0.260  1.00  0.00     0.189 C 
BRANCH   4   5
HETATM    5  C7  UNL     1      14.652   3.204  -0.527  1.00  0.00     0.175 C 
BRANCH   5   6
HETATM    6  N6  UNL     1      13.633   4.187  -0.850  1.00  0.00    -0.285 N 
HETATM    7  C6  UNL     1      12.936   4.409  -1.971  1.00  0.00     0.140 A 
HETATM    8  C5  UNL     1      12.053   5.434  -1.765  1.00  0.00     0.064 A 
HETATM    9  N13 UNL     1      12.242   5.825  -0.470  1.00  0.00    -0.287 N 
HETATM   10  N12 UNL     1      13.180   5.074   0.047  1.00  0.00    -0.241 N 
ATOM     11  H13 UNL     1      11.740   6.572   0.010  1.00  0.00     0.188 HD
ATOM     12  H12 UNL     1      13.521   5.153   1.005  1.00  0.00     0.208 HD
BRANCH   8  13
HETATM   13  C4  UNL     1      11.081   6.096  -2.687  1.00  0.00     0.210 C 
BRANCH  13  14
HETATM   14  N5  UNL     1       9.708   5.729  -2.228  1.00  0.00    -0.279 N 
HETATM   15  C3  UNL     1       8.608   6.479  -2.228  1.00  0.00     0.204 A 
HETATM   16  N4  UNL     1       7.596   5.777  -1.724  1.00  0.00    -0.310 N 
HETATM   17  C2  UNL     1       8.056   4.539  -1.391  1.00  0.00     0.278 A 
ATOM     18  H4  UNL     1       6.639   6.109  -1.608  1.00  0.00     0.170 HD
HETATM   19  N14 UNL     1       9.395   4.561  -1.730  1.00  0.00    -0.256 N 
ATOM     20  H14 UNL     1      10.042   3.782  -1.610  1.00  0.00     0.191 HD
BRANCH  17  21
HETATM   21  N3  UNL     1       7.428   3.648  -0.909  1.00  0.00    -0.337 NA
HETATM   22  C1  UNL     1       6.736   2.669  -0.412  1.00  0.00     0.264 C 
HETATM   23  N1  UNL     1       6.529   2.531   0.890  1.00  0.00    -0.362 N 
HETATM   24  N2  UNL     1       6.137   1.646  -1.260  1.00  0.00    -0.049 NA
ATOM     25  H12 UNL     1       5.985   1.761   1.280  1.00  0.00     0.159 HD
ATOM     26  H11 UNL     1       6.948   3.247   1.482  1.00  0.00     0.159 HD
ENDBRANCH  17  21
ENDBRANCH  13  14
ENDBRANCH   8  13
ENDBRANCH   5   6
ENDBRANCH   4   5
ENDBRANCH   3   4
ENDBRANCH   2   3
ENDBRANCH   1   2
BRANCH   1  27
HETATM   27  N7  UNL     1       9.845   3.043   1.346  1.00  0.00    -0.070 N 
ATOM     28  H73 UNL     1       8.958   3.160   0.856  1.00  0.00     0.274 HD
ATOM     29  H72 UNL     1       9.487   2.735   2.251  1.00  0.00     0.274 HD
ATOM     30  H71 UNL     1      10.346   3.928   1.426  1.00  0.00     0.274 HD
ENDBRANCH   1  27
BRANCH   1  31
HETATM   31  C11 UNL     1      10.042   0.687   0.908  1.00  0.00     0.242 C 
BRANCH  31  32
HETATM   32  O2  UNL     1       8.794   0.838   1.542  1.00  0.00    -0.384 OA
ATOM     33  H2  UNL     1       8.217   0.152   1.227  1.00  0.00     0.210 HD
ENDBRANCH  31  32
BRANCH  31  34
HETATM   34  C12 UNL     1       9.799   0.063  -0.417  1.00  0.00     0.255 C 
HETATM   35  O3  UNL     1      10.043  -1.144  -0.604  1.00  0.00    -0.270 OA
HETATM   36  N8  UNL     1       9.285   0.844  -1.472  1.00  0.00    -0.290 N 
HETATM   37  C13 UNL     1       9.082   0.254  -2.744  1.00  0.00     0.275 C 
ATOM     38  H8  UNL     1       9.061   1.828  -1.320  1.00  0.00     0.172 HD
HETATM   39  O4  UNL     1       9.375  -0.974  -2.887  1.00  0.00    -0.266 OA
BRANCH  37  40
HETATM   40  C14 UNL     1       8.559   0.992  -3.880  1.00  0.00     0.122 A 
HETATM   41  C15 UNL     1       8.944   0.684  -5.186  1.00  0.00     0.110 A 
HETATM   42  C16 UNL     1       8.414   1.416  -6.211  1.00  0.00     0.261 A 
HETATM   43  O5  UNL     1       8.765   1.134  -7.396  1.00  0.00    -0.268 OA
HETATM   44  N9  UNL     1       7.527   2.433  -6.043  1.00  0.00    -0.156 N 
HETATM   45  C17 UNL     1       7.174   2.707  -4.770  1.00  0.00     0.679 A 
ATOM     46  H9  UNL     1       7.151   2.958  -6.833  1.00  0.00     0.187 HD
HETATM   47  N11 UNL     1       7.684   2.001  -3.748  1.00  0.00    -0.186 N 
ATOM     48  H11 UNL     1       7.385   2.249  -2.805  1.00  0.00     0.184 HD
BRANCH  45  49
HETATM   49  N10 UNL     1       6.320   3.682  -4.580  1.00  0.00    -0.234 N 
ATOM     50 2H10 UNL     1       6.193   4.118  -3.666  1.00  0.00     0.174 HD
ATOM     51 1H10 UNL     1       5.779   3.994  -5.387  1.00  0.00     0.174 HD
ENDBRANCH  45  49
ENDBRANCH  37  40
ENDBRANCH  31  34
ENDBRANCH   1  31
TORSDOF 14
ENDMDL
MODEL 5
REMARK VINA RESULT: -6.508798713      2.419      4.467
REMARK  14 active torsions:
REMARK  status: ('A' for Active; 'I' for Inactive)
REMARK       I    between atoms: C1_4  and  N3_6 
REMARK    1  A    between atoms: N3_6  and  C2_7 
REMARK    2  A    between atoms: N5_11  and  C4_12 
REMARK    3  A    between atoms: C4_12  and  C5_13 
REMARK    4  A    between atoms: N6_15  and  C7_16 
REMARK    5  A    between atoms: C7_16  and  C8_17 
REMARK    6  A    between atoms: C8_17  and  O1_18 
REMARK    7  A    between atoms: O1_18  and  C9_19 
REMARK    8  A    between atoms: C9_19  and  C10_20 
REMARK    9  A    between atoms: C10_20  and  N7_21 
REMARK   10  A    between atoms: C10_20  and  C11_25 
REMARK   11  A    between atoms: C11_25  and  O2_26 
REMARK   12  A    between atoms: C11_25  and  C12_28 
REMARK       I    between atoms: C12_28  and  N8_30 
REMARK       I    between atoms: N8_30  and  C13_32 
REMARK   13  A    between atoms: C13_32  and  C14_34 
REMARK   14  A    between atoms: C17_40  and  N10_41 
ROOT
HETATM    1  C10 UNL     1       9.331   3.437  -0.672  1.00  0.00     0.244 C 
ENDROOT
BRANCH   1   2
HETATM    2  C9  UNL     1       9.920   2.900   0.647  1.00  0.00     0.203 C 
BRANCH   2   3
HETATM    3  O1  UNL     1       9.538   1.789   1.054  1.00  0.00    -0.387 OA
BRANCH   3   4
HETATM    4  C8  UNL     1       9.157   0.685   1.458  1.00  0.00     0.189 C 
BRANCH   4   5
HETATM    5  C7  UNL     1       9.882  -0.479   0.733  1.00  0.00     0.175 C 
BRANCH   5   6
HETATM    6  N6  UNL     1       9.589  -0.415  -0.687  1.00  0.00    -0.285 N 
HETATM    7  C6  UNL     1      10.383  -0.248  -1.752  1.00  0.00     0.140 A 
HETATM    8  C5  UNL     1       9.633  -0.303  -2.895  1.00  0.00     0.064 A 
HETATM    9  N13 UNL     1       8.349  -0.511  -2.480  1.00  0.00    -0.287 N 
HETATM   10  N12 UNL     1       8.350  -0.573  -1.173  1.00  0.00    -0.241 N 
ATOM     11  H13 UNL     1       7.532  -0.602  -3.084  1.00  0.00     0.188 HD
ATOM     12  H12 UNL     1       7.519  -0.722  -0.601  1.00  0.00     0.208 HD
BRANCH   8  13
HETATM   13  C4  UNL     1      10.014  -0.139  -4.331  1.00  0.00     0.210 C 
BRANCH  13  14
HETATM   14  N5  UNL     1      10.152   1.325  -4.592  1.00  0.00    -0.279 N 
HETATM   15  C3  UNL     1      11.105   1.958  -5.274  1.00  0.00     0.204 A 
HETATM   16  N4  UNL     1      10.862   3.265  -5.260  1.00  0.00    -0.310 N 
HETATM   17  C2  UNL     1       9.720   3.483  -4.551  1.00  0.00     0.278 A 
ATOM     18  H4  UNL     1      11.434   3.983  -5.705  1.00  0.00     0.170 HD
HETATM   19  N14 UNL     1       9.311   2.225  -4.152  1.00  0.00    -0.256 N 
ATOM     20  H14 UNL     1       8.478   2.028  -3.598  1.00  0.00     0.191 HD
BRANCH  17  21
HETATM   21  N3  UNL     1       9.204   4.534  -4.330  1.00  0.00    -0.337 NA
HETATM   22  C1  UNL     1       8.615   5.666  -4.091  1.00  0.00     0.264 C 
HETATM   23  N1  UNL     1       9.270   6.817  -4.050  1.00  0.00    -0.362 N 
HETATM   24  N2  UNL     1       7.180   5.747  -3.847  1.00  0.00    -0.049 NA
ATOM     25  H12 UNL     1       8.807   7.706  -3.862  1.00  0.00     0.159 HD
ATOM     26  H11 UNL     1      10.274   6.760  -4.221  1.00  0.00     0.159 HD
ENDBRANCH  17  21
ENDBRANCH  13  14
ENDBRANCH   8  13
ENDBRANCH   5   6
ENDBRANCH   4   5
ENDBRANCH   3   4
ENDBRANCH   2   3
ENDBRANCH   1   2
BRANCH   1  27
HETATM   27  N7  UNL     1      10.041   4.573  -1.135  1.00  0.00    -0.070 N 
ATOM     28  H73 UNL     1      10.277   5.203  -0.368  1.00  0.00     0.274 HD
ATOM     29  H72 UNL     1      10.984   4.326  -1.435  1.00  0.00     0.274 HD
ATOM     30  H71 UNL     1       9.531   5.059  -1.873  1.00  0.00     0.274 HD
ENDBRANCH   1  27
BRANCH   1  31
HETATM   31  C11 UNL     1       7.884   3.745  -0.468  1.00  0.00     0.242 C 
BRANCH  31  32
HETATM   32  O2  UNL     1       7.637   5.040  -0.964  1.00  0.00    -0.384 OA
ATOM     33  H2  UNL     1       6.871   5.001  -1.523  1.00  0.00     0.210 HD
ENDBRANCH  31  32
BRANCH  31  34
HETATM   34  C12 UNL     1       7.042   2.801  -1.244  1.00  0.00     0.255 C 
HETATM   35  O3  UNL     1       6.742   1.686  -0.775  1.00  0.00    -0.270 OA
HETATM   36  N8  UNL     1       6.577   3.169  -2.522  1.00  0.00    -0.290 N 
HETATM   37  C13 UNL     1       5.798   2.254  -3.274  1.00  0.00     0.275 C 
ATOM     38  H8  UNL     1       6.799   4.090  -2.904  1.00  0.00     0.172 HD
HETATM   39  O4  UNL     1       5.547   1.120  -2.760  1.00  0.00    -0.266 OA
BRANCH  37  40
HETATM   40  C14 UNL     1       5.285   2.560  -4.598  1.00  0.00     0.122 A 
HETATM   41  C15 UNL     1       6.125   2.587  -5.713  1.00  0.00     0.110 A 
HETATM   42  C16 UNL     1       5.579   2.880  -6.932  1.00  0.00     0.261 A 
HETATM   43  O5  UNL     1       6.343   2.904  -7.943  1.00  0.00    -0.268 OA
HETATM   44  N9  UNL     1       4.261   3.148  -7.133  1.00  0.00    -0.156 N 
HETATM   45  C17 UNL     1       3.476   3.113  -6.036  1.00  0.00     0.679 A 
ATOM     46  H9  UNL     1       3.888   3.362  -8.058  1.00  0.00     0.187 HD
HETATM   47  N11 UNL     1       3.992   2.829  -4.830  1.00  0.00    -0.186 N 
ATOM     48  H11 UNL     1       3.355   2.817  -4.033  1.00  0.00     0.184 HD
BRANCH  45  49
HETATM   49  N10 UNL     1       2.201   3.367  -6.202  1.00  0.00    -0.234 N 
ATOM     50 2H10 UNL     1       1.607   2.782  -6.790  1.00  0.00     0.174 HD
ATOM     51 1H10 UNL     1       1.819   4.180  -5.718  1.00  0.00     0.174 HD
ENDBRANCH  45  49
ENDBRANCH  37  40
ENDBRANCH  31  34
ENDBRANCH   1  31
TORSDOF 14
ENDMDL
