MODEL 1
REMARK VINA RESULT: -5.909992332      0.000      0.000
REMARK  16 active torsions:
REMARK  status: ('A' for Active; 'I' for Inactive)
REMARK    1  A    between atoms: O1_2  and  C2_3 
REMARK    2  A    between atoms: C3_5  and  C4_6 
REMARK    3  A    between atoms: C4_6  and  O3_7 
REMARK    4  A    between atoms: C6_13  and  N2_14 
REMARK    5  A    between atoms: N2_14  and  C7_17 
REMARK    6  A    between atoms: C7_17  and  C8_18 
REMARK    7  A    between atoms: C7_17  and  C17_47 
REMARK    8  A    between atoms: N3_19  and  C9_21 
REMARK    9  A    between atoms: C9_21  and  C10_22 
REMARK   10  A    between atoms: N4_23  and  C11_25 
REMARK   11  A    between atoms: C11_25  and  C12_27 
REMARK   12  A    between atoms: C14_31  and  N7_32 
REMARK   13  A    between atoms: C15_37  and  N9_38 
REMARK   14  A    between atoms: N9_38  and  N10_40 
REMARK   15  A    between atoms: C17_47  and  C18_48 
REMARK   16  A    between atoms: C18_48  and  N12_49 
ROOT
HETATM    1  C8  UNL     1      13.778   3.947  -0.713  1.00  0.00     0.093 C 
HETATM    2  N3  UNL     1      13.060   4.987  -0.603  1.00  0.00    -0.376 N 
ATOM      3  H3  UNL     1      12.073   4.886  -0.842  1.00  0.00     0.164 HD
ENDROOT
BRANCH   2   4
HETATM    4  C9  UNL     1      13.471   6.255  -0.191  1.00  0.00     0.104 C 
BRANCH   4   5
HETATM    5  C10 UNL     1      12.468   7.375  -0.429  1.00  0.00     0.106 C 
HETATM    6  N4  UNL     1      12.134   7.561  -1.738  1.00  0.00    -0.351 N 
ATOM      7  H4  UNL     1      12.947   7.962  -2.207  1.00  0.00     0.166 HD
BRANCH   6   8
HETATM    8  C11 UNL     1      11.261   7.441  -2.566  1.00  0.00     0.150 C 
HETATM    9  N5  UNL     1      11.051   8.432  -3.616  1.00  0.00    -0.080 NA
BRANCH   8  10
HETATM   10  C12 UNL     1      10.341   6.295  -2.636  1.00  0.00     0.118 A 
HETATM   11  N6  UNL     1       9.491   5.813  -1.762  1.00  0.00    -0.343 N 
HETATM   12  C13 UNL     1       8.766   4.770  -2.044  1.00  0.00     0.112 A 
ATOM     13  H6  UNL     1       9.397   6.260  -0.850  1.00  0.00     0.167 HD
HETATM   14  C14 UNL     1       7.827   4.133  -1.205  1.00  0.00     0.144 A 
HETATM   15  C16 UNL     1       8.921   4.201  -3.275  1.00  0.00     0.123 A 
HETATM   16  N8  UNL     1       7.186   3.064  -1.660  1.00  0.00    -0.173 N 
HETATM   17  C15 UNL     1       7.330   2.503  -2.859  1.00  0.00     0.699 A 
ATOM     18  H8  UNL     1       6.514   2.628  -1.027  1.00  0.00     0.186 HD
HETATM   19  N11 UNL     1       8.222   3.091  -3.688  1.00  0.00    -0.181 N 
ATOM     20  H11 UNL     1       8.378   2.710  -4.621  1.00  0.00     0.185 HD
HETATM   21  S1  UNL     1      10.118   5.210  -3.974  1.00  0.00    -0.048 SA
BRANCH  14  22
HETATM   22  N7  UNL     1       7.583   4.564  -0.016  1.00  0.00    -0.383 N 
ATOM     23  H72 UNL     1       7.546   5.568   0.160  1.00  0.00     0.157 HD
ATOM     24  H71 UNL     1       7.424   3.925   0.763  1.00  0.00     0.157 HD
ENDBRANCH  14  22
BRANCH  17  25
HETATM   25  N9  UNL     1       6.707   1.457  -3.283  1.00  0.00    -0.138 N 
ATOM     26  H9  UNL     1       6.981   1.061  -4.182  1.00  0.00     0.205 HD
BRANCH  25  27
HETATM   27  N10 UNL     1       5.672   0.836  -2.568  1.00  0.00    -0.331 N 
ATOM     28 2H10 UNL     1       5.023   1.440  -2.063  1.00  0.00     0.177 HD
ATOM     29 1H10 UNL     1       5.544  -0.176  -2.535  1.00  0.00     0.177 HD
ENDBRANCH  25  27
ENDBRANCH  17  25
ENDBRANCH   8  10
ENDBRANCH   6   8
ENDBRANCH   4   5
ENDBRANCH   2   4
BRANCH   1  30
HETATM   30  C7  UNL     1      13.250   2.639  -1.166  1.00  0.00     0.226 C 
BRANCH  30  31
HETATM   31  N2  UNL     1      12.550   1.877  -0.184  1.00  0.00    -0.049 N 
ATOM     32  H22 UNL     1      12.815   2.172   0.756  1.00  0.00     0.279 HD
ATOM     33  H21 UNL     1      12.892   0.916  -0.163  1.00  0.00     0.279 HD
BRANCH  31  34
HETATM   34  C6  UNL     1      11.116   1.902  -0.340  1.00  0.00     0.332 C 
HETATM   35  C2  UNL     1      10.567   0.524  -0.420  1.00  0.00     0.301 C 
HETATM   36  O2  UNL     1       9.153   0.634  -0.492  1.00  0.00    -0.332 OA
HETATM   37  C3  UNL     1       8.698   0.824   0.815  1.00  0.00     0.250 C 
HETATM   38  N1  UNL     1       9.281   2.066   1.352  1.00  0.00    -0.331 N 
HETATM   39  C5  UNL     1      10.495   2.582   0.859  1.00  0.00     0.255 C 
ATOM     40  H1  UNL     1       8.794   2.563   2.098  1.00  0.00     0.165 HD
HETATM   41  O4  UNL     1      11.054   3.582   1.402  1.00  0.00    -0.271 OA
BRANCH  35  42
HETATM   42  O1  UNL     1      11.043  -0.277  -1.422  1.00  0.00    -0.363 OA
HETATM   43  C1  UNL     1      10.103  -0.566  -2.399  1.00  0.00     0.204 C 
ENDBRANCH  35  42
BRANCH  37  44
HETATM   44  C4  UNL     1       7.194   0.904   0.792  1.00  0.00     0.217 C 
BRANCH  44  45
HETATM   45  O3  UNL     1       6.766   2.055   1.467  1.00  0.00    -0.397 OA
ATOM     46  H3  UNL     1       5.819   2.060   1.531  1.00  0.00     0.209 HD
ENDBRANCH  44  45
ENDBRANCH  37  44
ENDBRANCH  31  34
ENDBRANCH  30  31
BRANCH  30  47
HETATM   47  C17 UNL     1      12.363   2.814  -2.379  1.00  0.00     0.065 C 
BRANCH  47  48
HETATM   48  C18 UNL     1      12.929   2.115  -3.603  1.00  0.00     0.232 C 
BRANCH  48  49
HETATM   49  N12 UNL     1      13.322   0.751  -3.311  1.00  0.00    -0.079 N 
ATOM     50 3H12 UNL     1      12.933   0.434  -2.424  1.00  0.00     0.274 HD
ATOM     51 2H12 UNL     1      12.859   0.089  -3.934  1.00  0.00     0.274 HD
ATOM     52 1H12 UNL     1      14.335   0.635  -3.334  1.00  0.00     0.274 HD
ENDBRANCH  48  49
ENDBRANCH  47  48
ENDBRANCH  30  47
ENDBRANCH   1  30
TORSDOF 16
ENDMDL
MODEL 2
REMARK VINA RESULT: -5.894059820      1.745      2.553
REMARK  16 active torsions:
REMARK  status: ('A' for Active; 'I' for Inactive)
REMARK    1  A    between atoms: O1_2  and  C2_3 
REMARK    2  A    between atoms: C3_5  and  C4_6 
REMARK    3  A    between atoms: C4_6  and  O3_7 
REMARK    4  A    between atoms: C6_13  and  N2_14 
REMARK    5  A    between atoms: N2_14  and  C7_17 
REMARK    6  A    between atoms: C7_17  and  C8_18 
REMARK    7  A    between atoms: C7_17  and  C17_47 
REMARK    8  A    between atoms: N3_19  and  C9_21 
REMARK    9  A    between atoms: C9_21  and  C10_22 
REMARK   10  A    between atoms: N4_23  and  C11_25 
REMARK   11  A    between atoms: C11_25  and  C12_27 
REMARK   12  A    between atoms: C14_31  and  N7_32 
REMARK   13  A    between atoms: C15_37  and  N9_38 
REMARK   14  A    between atoms: N9_38  and  N10_40 
REMARK   15  A    between atoms: C17_47  and  C18_48 
REMARK   16  A    between atoms: C18_48  and  N12_49 
ROOT
HETATM    1  C8  UNL     1      14.007   2.031  -2.998  1.00  0.00     0.093 C 
HETATM    2  N3  UNL     1      13.376   3.129  -2.914  1.00  0.00    -0.376 N 
ATOM      3  H3  UNL     1      12.384   3.066  -2.685  1.00  0.00     0.164 HD
ENDROOT
BRANCH   2   4
HETATM    4  C9  UNL     1      13.890   4.413  -3.099  1.00  0.00     0.104 C 
BRANCH   4   5
HETATM    5  C10 UNL     1      13.327   5.480  -2.170  1.00  0.00     0.106 C 
HETATM    6  N4  UNL     1      12.508   6.382  -2.783  1.00  0.00    -0.351 N 
ATOM      7  H4  UNL     1      13.091   6.970  -3.379  1.00  0.00     0.166 HD
BRANCH   6   8
HETATM    8  C11 UNL     1      11.367   6.764  -2.903  1.00  0.00     0.150 C 
HETATM    9  N5  UNL     1      11.044   8.163  -3.163  1.00  0.00    -0.080 NA
BRANCH   8  10
HETATM   10  C12 UNL     1      10.190   5.885  -2.834  1.00  0.00     0.118 A 
HETATM   11  N6  UNL     1       9.564   5.355  -1.810  1.00  0.00    -0.343 N 
HETATM   12  C13 UNL     1       8.525   4.593  -1.987  1.00  0.00     0.112 A 
ATOM     13  H6  UNL     1       9.897   5.542  -0.864  1.00  0.00     0.167 HD
HETATM   14  C14 UNL     1       7.764   3.944  -0.991  1.00  0.00     0.144 A 
HETATM   15  C16 UNL     1       8.111   4.369  -3.268  1.00  0.00     0.123 A 
HETATM   16  N8  UNL     1       6.737   3.190  -1.362  1.00  0.00    -0.173 N 
HETATM   17  C15 UNL     1       6.326   2.966  -2.608  1.00  0.00     0.699 A 
ATOM     18  H8  UNL     1       6.209   2.736  -0.616  1.00  0.00     0.186 HD
HETATM   19  N11 UNL     1       7.034   3.575  -3.587  1.00  0.00    -0.181 N 
ATOM     20  H11 UNL     1       6.769   3.444  -4.563  1.00  0.00     0.185 HD
HETATM   21  S1  UNL     1       9.255   5.278  -4.166  1.00  0.00    -0.048 SA
BRANCH  14  22
HETATM   22  N7  UNL     1       8.045   4.069   0.260  1.00  0.00    -0.383 N 
ATOM     23  H72 UNL     1       8.271   3.243   0.813  1.00  0.00     0.157 HD
ATOM     24  H71 UNL     1       8.049   4.981   0.718  1.00  0.00     0.157 HD
ENDBRANCH  14  22
BRANCH  17  25
HETATM   25  N9  UNL     1       5.333   2.220  -2.953  1.00  0.00    -0.138 N 
ATOM     26  H9  UNL     1       5.165   1.363  -2.427  1.00  0.00     0.205 HD
BRANCH  25  27
HETATM   27  N10 UNL     1       4.472   2.530  -4.016  1.00  0.00    -0.331 N 
ATOM     28 2H10 UNL     1       4.839   2.422  -4.962  1.00  0.00     0.177 HD
ATOM     29 1H10 UNL     1       3.513   2.851  -3.883  1.00  0.00     0.177 HD
ENDBRANCH  25  27
ENDBRANCH  17  25
ENDBRANCH   8  10
ENDBRANCH   6   8
ENDBRANCH   4   5
ENDBRANCH   2   4
BRANCH   1  30
HETATM   30  C7  UNL     1      13.372   0.710  -2.789  1.00  0.00     0.226 C 
BRANCH  30  31
HETATM   31  N2  UNL     1      11.947   0.687  -2.862  1.00  0.00    -0.049 N 
ATOM     32  H22 UNL     1      11.633   0.001  -3.549  1.00  0.00     0.279 HD
ATOM     33  H21 UNL     1      11.595   1.539  -3.298  1.00  0.00     0.279 HD
BRANCH  31  34
HETATM   34  C6  UNL     1      11.303   0.464  -1.590  1.00  0.00     0.332 C 
HETATM   35  C2  UNL     1      10.539   1.665  -1.166  1.00  0.00     0.301 C 
HETATM   36  O2  UNL     1       9.874   1.338   0.046  1.00  0.00    -0.332 OA
HETATM   37  C3  UNL     1       8.721   0.632  -0.305  1.00  0.00     0.250 C 
HETATM   38  N1  UNL     1       9.108  -0.594  -1.023  1.00  0.00    -0.331 N 
HETATM   39  C5  UNL     1      10.329  -0.686  -1.718  1.00  0.00     0.255 C 
ATOM     40  H1  UNL     1       8.477  -1.396  -1.016  1.00  0.00     0.165 HD
HETATM   41  O4  UNL     1      10.607  -1.696  -2.432  1.00  0.00    -0.271 OA
BRANCH  35  42
HETATM   42  O1  UNL     1      11.239   2.833  -1.036  1.00  0.00    -0.363 OA
HETATM   43  C1  UNL     1      11.563   3.147   0.275  1.00  0.00     0.204 C 
ENDBRANCH  35  42
BRANCH  37  44
HETATM   44  C4  UNL     1       7.961   0.301   0.952  1.00  0.00     0.217 C 
BRANCH  44  45
HETATM   45  O3  UNL     1       6.978   1.271   1.185  1.00  0.00    -0.397 OA
ATOM     46  H3  UNL     1       6.239   0.882   1.638  1.00  0.00     0.209 HD
ENDBRANCH  44  45
ENDBRANCH  37  44
ENDBRANCH  31  34
ENDBRANCH  30  31
BRANCH  30  47
HETATM   47  C17 UNL     1      13.933  -0.309  -3.756  1.00  0.00     0.065 C 
BRANCH  47  48
HETATM   48  C18 UNL     1      14.199  -1.644  -3.084  1.00  0.00     0.232 C 
BRANCH  48  49
HETATM   49  N12 UNL     1      13.213  -2.641  -3.453  1.00  0.00    -0.079 N 
ATOM     50 3H12 UNL     1      12.705  -2.980  -2.636  1.00  0.00     0.274 HD
ATOM     51 2H12 UNL     1      12.435  -2.222  -3.962  1.00  0.00     0.274 HD
ATOM     52 1H12 UNL     1      13.629  -3.410  -3.978  1.00  0.00     0.274 HD
ENDBRANCH  48  49
ENDBRANCH  47  48
ENDBRANCH  30  47
ENDBRANCH   1  30
TORSDOF 16
ENDMDL
MODEL 3
REMARK VINA RESULT: -5.710531695      2.744      5.165
REMARK  16 active torsions:
REMARK  status: ('A' for Active; 'I' for Inactive)
REMARK    1  A    between atoms: O1_2  and  C2_3 
REMARK    2  A    between atoms: C3_5  and  C4_6 
REMARK    3  A    between atoms: C4_6  and  O3_7 
REMARK    4  A    between atoms: C6_13  and  N2_14 
REMARK    5  A    between atoms: N2_14  and  C7_17 
REMARK    6  A    between atoms: C7_17  and  C8_18 
REMARK    7  A    between atoms: C7_17  and  C17_47 
REMARK    8  A    between atoms: N3_19  and  C9_21 
REMARK    9  A    between atoms: C9_21  and  C10_22 
REMARK   10  A    between atoms: N4_23  and  C11_25 
REMARK   11  A    between atoms: C11_25  and  C12_27 
REMARK   12  A    between atoms: C14_31  and  N7_32 
REMARK   13  A    between atoms: C15_37  and  N9_38 
REMARK   14  A    between atoms: N9_38  and  N10_40 
REMARK   15  A    between atoms: C17_47  and  C18_48 
REMARK   16  A    between atoms: C18_48  and  N12_49 
ROOT
HETATM    1  C8  UNL     1      12.184   5.491  -2.113  1.00  0.00     0.093 C 
HETATM    2  N3  UNL     1      11.983   4.426  -1.453  1.00  0.00    -0.376 N 
ATOM      3  H3  UNL     1      11.129   3.912  -1.671  1.00  0.00     0.164 HD
ENDROOT
BRANCH   2   4
HETATM    4  C9  UNL     1      12.801   3.881  -0.463  1.00  0.00     0.104 C 
BRANCH   4   5
HETATM    5  C10 UNL     1      12.151   3.720   0.904  1.00  0.00     0.106 C 
HETATM    6  N4  UNL     1      10.795   3.581   0.868  1.00  0.00    -0.351 N 
ATOM      7  H4  UNL     1      10.402   4.484   0.602  1.00  0.00     0.166 HD
BRANCH   6   8
HETATM    8  C11 UNL     1       9.872   2.816   1.026  1.00  0.00     0.150 C 
HETATM    9  N5  UNL     1       9.669   2.099   2.280  1.00  0.00    -0.080 NA
BRANCH   8  10
HETATM   10  C12 UNL     1       8.845   2.540   0.010  1.00  0.00     0.118 A 
HETATM   11  N6  UNL     1       8.546   1.443  -0.644  1.00  0.00    -0.343 N 
HETATM   12  C13 UNL     1       7.579   1.429  -1.514  1.00  0.00     0.112 A 
ATOM     13  H6  UNL     1       9.079   0.590  -0.468  1.00  0.00     0.167 HD
HETATM   14  C14 UNL     1       7.156   0.335  -2.300  1.00  0.00     0.144 A 
HETATM   15  C16 UNL     1       6.891   2.589  -1.719  1.00  0.00     0.123 A 
HETATM   16  N8  UNL     1       6.154   0.511  -3.151  1.00  0.00    -0.173 N 
HETATM   17  C15 UNL     1       5.476   1.638  -3.358  1.00  0.00     0.699 A 
ATOM     18  H8  UNL     1       5.874  -0.300  -3.703  1.00  0.00     0.186 HD
HETATM   19  N11 UNL     1       5.857   2.706  -2.619  1.00  0.00    -0.181 N 
ATOM     20  H11 UNL     1       5.377   3.599  -2.729  1.00  0.00     0.185 HD
HETATM   21  S1  UNL     1       7.681   3.657  -0.635  1.00  0.00    -0.048 SA
BRANCH  14  22
HETATM   22  N7  UNL     1       7.720  -0.819  -2.208  1.00  0.00    -0.383 N 
ATOM     23  H72 UNL     1       8.722  -0.908  -2.377  1.00  0.00     0.157 HD
ATOM     24  H71 UNL     1       7.188  -1.656  -1.966  1.00  0.00     0.157 HD
ENDBRANCH  14  22
BRANCH  17  25
HETATM   25  N9  UNL     1       4.512   1.796  -4.198  1.00  0.00    -0.138 N 
ATOM     26  H9  UNL     1       3.742   1.127  -4.184  1.00  0.00     0.205 HD
BRANCH  25  27
HETATM   27  N10 UNL     1       4.467   2.844  -5.130  1.00  0.00    -0.331 N 
ATOM     28 2H10 UNL     1       4.564   2.598  -6.116  1.00  0.00     0.177 HD
ATOM     29 1H10 UNL     1       4.343   3.822  -4.867  1.00  0.00     0.177 HD
ENDBRANCH  25  27
ENDBRANCH  17  25
ENDBRANCH   8  10
ENDBRANCH   6   8
ENDBRANCH   4   5
ENDBRANCH   2   4
BRANCH   1  30
HETATM   30  C7  UNL     1      11.251   5.996  -3.147  1.00  0.00     0.226 C 
BRANCH  30  31
HETATM   31  N2  UNL     1       9.986   5.340  -3.216  1.00  0.00    -0.049 N 
ATOM     32  H22 UNL     1       9.227   6.021  -3.229  1.00  0.00     0.279 HD
ATOM     33  H21 UNL     1       9.777   4.868  -2.336  1.00  0.00     0.279 HD
BRANCH  31  34
HETATM   34  C6  UNL     1       9.865   4.424  -4.325  1.00  0.00     0.332 C 
HETATM   35  C2  UNL     1       9.640   3.037  -3.844  1.00  0.00     0.301 C 
HETATM   36  O2  UNL     1       9.453   2.216  -4.988  1.00  0.00    -0.332 OA
HETATM   37  C3  UNL     1       8.124   2.378  -5.386  1.00  0.00     0.250 C 
HETATM   38  N1  UNL     1       7.892   3.792  -5.727  1.00  0.00    -0.331 N 
HETATM   39  C5  UNL     1       8.679   4.821  -5.173  1.00  0.00     0.255 C 
ATOM     40  H1  UNL     1       7.146   4.032  -6.380  1.00  0.00     0.165 HD
HETATM   41  O4  UNL     1       8.403   6.042  -5.375  1.00  0.00    -0.271 OA
BRANCH  35  42
HETATM   42  O1  UNL     1      10.589   2.504  -3.015  1.00  0.00    -0.363 OA
HETATM   43  C1  UNL     1      10.953   1.207  -3.343  1.00  0.00     0.204 C 
ENDBRANCH  35  42
BRANCH  37  44
HETATM   44  C4  UNL     1       7.868   1.491  -6.576  1.00  0.00     0.217 C 
BRANCH  44  45
HETATM   45  O3  UNL     1       6.635   0.842  -6.432  1.00  0.00    -0.397 OA
ATOM     46  H3  UNL     1       6.761  -0.099  -6.429  1.00  0.00     0.209 HD
ENDBRANCH  44  45
ENDBRANCH  37  44
ENDBRANCH  31  34
ENDBRANCH  30  31
BRANCH  30  47
HETATM   47  C17 UNL     1      11.027   7.483  -2.982  1.00  0.00     0.065 C 
BRANCH  47  48
HETATM   48  C18 UNL     1      10.947   8.198  -4.319  1.00  0.00     0.232 C 
BRANCH  48  49
HETATM   49  N12 UNL     1       9.619   8.719  -4.573  1.00  0.00    -0.079 N 
ATOM     50 3H12 UNL     1       9.212   9.125  -3.731  1.00  0.00     0.274 HD
ATOM     51 2H12 UNL     1       9.654   9.558  -5.153  1.00  0.00     0.274 HD
ATOM     52 1H12 UNL     1       9.005   8.013  -4.980  1.00  0.00     0.274 HD
ENDBRANCH  48  49
ENDBRANCH  47  48
ENDBRANCH  30  47
ENDBRANCH   1  30
TORSDOF 16
ENDMDL
MODEL 4
REMARK VINA RESULT: -5.702759320      2.827      5.296
REMARK  16 active torsions:
REMARK  status: ('A' for Active; 'I' for Inactive)
REMARK    1  A    between atoms: O1_2  and  C2_3 
REMARK    2  A    between atoms: C3_5  and  C4_6 
REMARK    3  A    between atoms: C4_6  and  O3_7 
REMARK    4  A    between atoms: C6_13  and  N2_14 
REMARK    5  A    between atoms: N2_14  and  C7_17 
REMARK    6  A    between atoms: C7_17  and  C8_18 
REMARK    7  A    between atoms: C7_17  and  C17_47 
REMARK    8  A    between atoms: N3_19  and  C9_21 
REMARK    9  A    between atoms: C9_21  and  C10_22 
REMARK   10  A    between atoms: N4_23  and  C11_25 
REMARK   11  A    between atoms: C11_25  and  C12_27 
REMARK   12  A    between atoms: C14_31  and  N7_32 
REMARK   13  A    between atoms: C15_37  and  N9_38 
REMARK   14  A    between atoms: N9_38  and  N10_40 
REMARK   15  A    between atoms: C17_47  and  C18_48 
REMARK   16  A    between atoms: C18_48  and  N12_49 
ROOT
HETATM    1  C8  UNL     1       8.771   0.620  -6.090  1.00  0.00     0.093 C 
HETATM    2  N3  UNL     1       8.271   1.344  -7.004  1.00  0.00    -0.376 N 
ATOM      3  H3  UNL     1       8.716   2.249  -7.161  1.00  0.00     0.164 HD
ENDROOT
BRANCH   2   4
HETATM    4  C9  UNL     1       7.181   1.039  -7.819  1.00  0.00     0.104 C 
BRANCH   4   5
HETATM    5  C10 UNL     1       6.131   2.134  -7.942  1.00  0.00     0.106 C 
HETATM    6  N4  UNL     1       5.487   2.427  -6.776  1.00  0.00    -0.351 N 
ATOM      7  H4  UNL     1       4.879   1.637  -6.556  1.00  0.00     0.166 HD
BRANCH   6   8
HETATM    8  C11 UNL     1       5.347   3.247  -5.899  1.00  0.00     0.150 C 
HETATM    9  N5  UNL     1       4.286   4.248  -5.939  1.00  0.00    -0.080 NA
BRANCH   8  10
HETATM   10  C12 UNL     1       6.189   3.321  -4.695  1.00  0.00     0.118 A 
HETATM   11  N6  UNL     1       6.043   2.792  -3.503  1.00  0.00    -0.343 N 
HETATM   12  C13 UNL     1       6.930   2.995  -2.573  1.00  0.00     0.112 A 
ATOM     13  H6  UNL     1       5.226   2.215  -3.304  1.00  0.00     0.167 HD
HETATM   14  C14 UNL     1       6.901   2.508  -1.248  1.00  0.00     0.144 A 
HETATM   15  C16 UNL     1       8.009   3.771  -2.880  1.00  0.00     0.123 A 
HETATM   16  N8  UNL     1       7.893   2.831  -0.428  1.00  0.00    -0.173 N 
HETATM   17  C15 UNL     1       8.949   3.587  -0.718  1.00  0.00     0.699 A 
ATOM     18  H8  UNL     1       7.840   2.462   0.522  1.00  0.00     0.186 HD
HETATM   19  N11 UNL     1       9.007   4.069  -1.982  1.00  0.00    -0.181 N 
ATOM     20  H11 UNL     1       9.792   4.653  -2.268  1.00  0.00     0.185 HD
HETATM   21  S1  UNL     1       7.690   4.176  -4.515  1.00  0.00    -0.048 SA
BRANCH  14  22
HETATM   22  N7  UNL     1       5.939   1.764  -0.824  1.00  0.00    -0.383 N 
ATOM     23  H72 UNL     1       6.148   0.930  -0.275  1.00  0.00     0.157 HD
ATOM     24  H71 UNL     1       4.964   1.987  -1.023  1.00  0.00     0.157 HD
ENDBRANCH  14  22
BRANCH  17  25
HETATM   25  N9  UNL     1       9.899   3.902   0.094  1.00  0.00    -0.138 N 
ATOM     26  H9  UNL     1       9.689   3.949   1.090  1.00  0.00     0.205 HD
BRANCH  25  27
HETATM   27  N10 UNL     1      11.208   4.183  -0.326  1.00  0.00    -0.331 N 
ATOM     28 2H10 UNL     1      11.336   4.964  -0.970  1.00  0.00     0.177 HD
ATOM     29 1H10 UNL     1      12.021   3.648  -0.017  1.00  0.00     0.177 HD
ENDBRANCH  25  27
ENDBRANCH  17  25
ENDBRANCH   8  10
ENDBRANCH   6   8
ENDBRANCH   4   5
ENDBRANCH   2   4
BRANCH   1  30
HETATM   30  C7  UNL     1       9.933   1.034  -5.269  1.00  0.00     0.226 C 
BRANCH  30  31
HETATM   31  N2  UNL     1      10.297   0.145  -4.215  1.00  0.00    -0.049 N 
ATOM     32  H22 UNL     1      11.312   0.084  -4.131  1.00  0.00     0.279 HD
ATOM     33  H21 UNL     1      10.090  -0.821  -4.471  1.00  0.00     0.279 HD
BRANCH  31  34
HETATM   34  C6  UNL     1       9.700   0.473  -2.943  1.00  0.00     0.332 C 
HETATM   35  C2  UNL     1       9.082  -0.727  -2.323  1.00  0.00     0.301 C 
HETATM   36  O2  UNL     1       8.590  -0.340  -1.048  1.00  0.00    -0.332 OA
HETATM   37  C3  UNL     1       9.681  -0.354  -0.175  1.00  0.00     0.250 C 
HETATM   38  N1  UNL     1      10.689   0.610  -0.649  1.00  0.00    -0.331 N 
HETATM   39  C5  UNL     1      10.771   0.982  -2.005  1.00  0.00     0.255 C 
ATOM     40  H1  UNL     1      11.343   1.016   0.019  1.00  0.00     0.165 HD
HETATM   41  O4  UNL     1      11.712   1.718  -2.430  1.00  0.00    -0.271 OA
BRANCH  35  42
HETATM   42  O1  UNL     1       8.111  -1.368  -3.043  1.00  0.00    -0.363 OA
HETATM   43  C1  UNL     1       6.940  -0.637  -3.176  1.00  0.00     0.204 C 
ENDBRANCH  35  42
BRANCH  37  44
HETATM   44  C4  UNL     1       9.196   0.011   1.203  1.00  0.00     0.217 C 
BRANCH  44  45
HETATM   45  O3  UNL     1       7.818   0.263   1.174  1.00  0.00    -0.397 OA
ATOM     46  H3  UNL     1       7.525   0.563   2.026  1.00  0.00     0.209 HD
ENDBRANCH  44  45
ENDBRANCH  37  44
ENDBRANCH  31  34
ENDBRANCH  30  31
BRANCH  30  47
HETATM   47  C17 UNL     1      11.141   1.284  -6.145  1.00  0.00     0.065 C 
BRANCH  47  48
HETATM   48  C18 UNL     1      11.540   2.749  -6.159  1.00  0.00     0.232 C 
BRANCH  48  49
HETATM   49  N12 UNL     1      11.289   3.389  -4.882  1.00  0.00    -0.079 N 
ATOM     50 3H12 UNL     1      11.426   2.739  -4.108  1.00  0.00     0.274 HD
ATOM     51 2H12 UNL     1      12.019   4.064  -4.655  1.00  0.00     0.274 HD
ATOM     52 1H12 UNL     1      10.364   3.817  -4.847  1.00  0.00     0.274 HD
ENDBRANCH  48  49
ENDBRANCH  47  48
ENDBRANCH  30  47
ENDBRANCH   1  30
TORSDOF 16
ENDMDL
MODEL 5
REMARK VINA RESULT: -5.688617462      2.061      5.795
REMARK  16 active torsions:
REMARK  status: ('A' for Active; 'I' for Inactive)
REMARK    1  A    between atoms: O1_2  and  C2_3 
REMARK    2  A    between atoms: C3_5  and  C4_6 
REMARK    3  A    between atoms: C4_6  and  O3_7 
REMARK    4  A    between atoms: C6_13  and  N2_14 
REMARK    5  A    between atoms: N2_14  and  C7_17 
REMARK    6  A    between atoms: C7_17  and  C8_18 
REMARK    7  A    between atoms: C7_17  and  C17_47 
REMARK    8  A    between atoms: N3_19  and  C9_21 
REMARK    9  A    between atoms: C9_21  and  C10_22 
REMARK   10  A    between atoms: N4_23  and  C11_25 
REMARK   11  A    between atoms: C11_25  and  C12_27 
REMARK   12  A    between atoms: C14_31  and  N7_32 
REMARK   13  A    between atoms: C15_37  and  N9_38 
REMARK   14  A    between atoms: N9_38  and  N10_40 
REMARK   15  A    between atoms: C17_47  and  C18_48 
REMARK   16  A    between atoms: C18_48  and  N12_49 
ROOT
HETATM    1  C8  UNL     1       8.917  -0.138  -1.513  1.00  0.00     0.093 C 
HETATM    2  N3  UNL     1       8.493   0.282  -2.633  1.00  0.00    -0.376 N 
ATOM      3  H3  UNL     1       8.301   1.282  -2.700  1.00  0.00     0.164 HD
ENDROOT
BRANCH   2   4
HETATM    4  C9  UNL     1       8.262  -0.472  -3.784  1.00  0.00     0.104 C 
BRANCH   4   5
HETATM    5  C10 UNL     1       6.989  -0.127  -4.545  1.00  0.00     0.106 C 
HETATM    6  N4  UNL     1       6.229   0.841  -3.957  1.00  0.00    -0.351 N 
ATOM      7  H4  UNL     1       5.816   0.438  -3.116  1.00  0.00     0.166 HD
BRANCH   6   8
HETATM    8  C11 UNL     1       5.849   1.986  -4.035  1.00  0.00     0.150 C 
HETATM    9  N5  UNL     1       4.447   2.320  -4.265  1.00  0.00    -0.080 NA
BRANCH   8  10
HETATM   10  C12 UNL     1       6.722   3.160  -3.880  1.00  0.00     0.118 A 
HETATM   11  N6  UNL     1       6.957   3.934  -2.848  1.00  0.00    -0.343 N 
HETATM   12  C13 UNL     1       7.784   4.934  -2.942  1.00  0.00     0.112 A 
ATOM     13  H6  UNL     1       6.487   3.750  -1.962  1.00  0.00     0.167 HD
HETATM   14  C14 UNL     1       8.123   5.857  -1.928  1.00  0.00     0.144 A 
HETATM   15  C16 UNL     1       8.393   5.146  -4.144  1.00  0.00     0.123 A 
HETATM   16  N8  UNL     1       8.980   6.829  -2.211  1.00  0.00    -0.173 N 
HETATM   17  C15 UNL     1       9.580   7.043  -3.381  1.00  0.00     0.699 A 
ATOM     18  H8  UNL     1       9.202   7.478  -1.456  1.00  0.00     0.186 HD
HETATM   19  N11 UNL     1       9.277   6.175  -4.373  1.00  0.00    -0.181 N 
ATOM     20  H11 UNL     1       9.705   6.283  -5.292  1.00  0.00     0.185 HD
HETATM   21  S1  UNL     1       7.738   3.877  -5.093  1.00  0.00    -0.048 SA
BRANCH  14  22
HETATM   22  N7  UNL     1       7.619   5.775  -0.746  1.00  0.00    -0.383 N 
ATOM     23  H72 UNL     1       8.086   5.212  -0.035  1.00  0.00     0.157 HD
ATOM     24  H71 UNL     1       6.757   6.261  -0.497  1.00  0.00     0.157 HD
ENDBRANCH  14  22
BRANCH  17  25
HETATM   25  N9  UNL     1      10.403   8.000  -3.643  1.00  0.00    -0.138 N 
ATOM     26  H9  UNL     1      11.257   8.070  -3.090  1.00  0.00     0.205 HD
BRANCH  25  27
HETATM   27  N10 UNL     1      10.181   8.950  -4.651  1.00  0.00    -0.331 N 
ATOM     28 2H10 UNL     1       9.239   9.332  -4.736  1.00  0.00     0.177 HD
ATOM     29 1H10 UNL     1      10.910   9.268  -5.290  1.00  0.00     0.177 HD
ENDBRANCH  25  27
ENDBRANCH  17  25
ENDBRANCH   8  10
ENDBRANCH   6   8
ENDBRANCH   4   5
ENDBRANCH   2   4
BRANCH   1  30
HETATM   30  C7  UNL     1       9.128   0.743  -0.342  1.00  0.00     0.226 C 
BRANCH  30  31
HETATM   31  N2  UNL     1       9.282   2.132  -0.627  1.00  0.00    -0.049 N 
ATOM     32  H22 UNL     1       8.755   2.697   0.039  1.00  0.00     0.279 HD
ATOM     33  H21 UNL     1       8.790   2.379  -1.486  1.00  0.00     0.279 HD
BRANCH  31  34
HETATM   34  C6  UNL     1      10.656   2.566  -0.687  1.00  0.00     0.332 C 
HETATM   35  C2  UNL     1      10.926   3.300  -1.950  1.00  0.00     0.301 C 
HETATM   36  O2  UNL     1      12.269   3.758  -1.896  1.00  0.00    -0.332 OA
HETATM   37  C3  UNL     1      12.265   4.925  -1.128  1.00  0.00     0.250 C 
HETATM   38  N1  UNL     1      11.777   4.609   0.226  1.00  0.00    -0.331 N 
HETATM   39  C5  UNL     1      10.934   3.506   0.464  1.00  0.00     0.255 C 
ATOM     40  H1  UNL     1      12.055   5.201   1.007  1.00  0.00     0.165 HD
HETATM   41  O4  UNL     1      10.421   3.304   1.606  1.00  0.00    -0.271 OA
BRANCH  35  42
HETATM   42  O1  UNL     1      10.689   2.630  -3.120  1.00  0.00    -0.363 OA
HETATM   43  C1  UNL     1      11.694   1.739  -3.467  1.00  0.00     0.204 C 
ENDBRANCH  35  42
BRANCH  37  44
HETATM   44  C4  UNL     1      13.667   5.472  -1.078  1.00  0.00     0.217 C 
BRANCH  44  45
HETATM   45  O3  UNL     1      14.135   5.466   0.243  1.00  0.00    -0.397 OA
ATOM     46  H3  UNL     1      14.770   4.769   0.359  1.00  0.00     0.209 HD
ENDBRANCH  44  45
ENDBRANCH  37  44
ENDBRANCH  31  34
ENDBRANCH  30  31
BRANCH  30  47
HETATM   47  C17 UNL     1       8.012   0.567   0.665  1.00  0.00     0.065 C 
BRANCH  47  48
HETATM   48  C18 UNL     1       7.080   1.765   0.697  1.00  0.00     0.232 C 
BRANCH  48  49
HETATM   49  N12 UNL     1       6.085   1.702  -0.355  1.00  0.00    -0.079 N 
ATOM     50 3H12 UNL     1       5.375   0.998  -0.152  1.00  0.00     0.274 HD
ATOM     51 2H12 UNL     1       5.491   2.532  -0.353  1.00  0.00     0.274 HD
ATOM     52 1H12 UNL     1       6.508   1.551  -1.270  1.00  0.00     0.274 HD
ENDBRANCH  48  49
ENDBRANCH  47  48
ENDBRANCH  30  47
ENDBRANCH   1  30
TORSDOF 16
ENDMDL
