MODEL 1
REMARK VINA RESULT: -4.760875806      0.000      0.000
REMARK  1 active torsions:
REMARK  status: ('A' for Active; 'I' for Inactive)
REMARK    1  A    between atoms: O1_2  and  C2_3 
ROOT
HETATM    1  C2  UNL     1     -36.465 -21.690  21.010  1.00  0.00     0.123 C 
HETATM    2  C3  UNL     1     -35.112 -22.094  21.536  1.00  0.00     0.051 C 
HETATM    3  C4  UNL     1     -34.158 -20.929  21.595  1.00  0.00     0.116 C 
HETATM    4  N1  UNL     1     -34.245 -20.038  20.505  1.00  0.00    -0.421 N 
ATOM      5  H1  UNL     1     -33.777 -19.131  20.524  1.00  0.00     0.153 HD
HETATM    6  C5  UNL     1     -35.007 -20.449  19.383  1.00  0.00     0.116 C 
HETATM    7  C6  UNL     1     -36.374 -20.977  19.686  1.00  0.00     0.051 C 
ENDROOT
BRANCH   1   8
HETATM    8  O1  UNL     1     -37.082 -20.888  21.947  1.00  0.00    -0.391 OA
HETATM    9  C1  UNL     1     -38.245 -21.465  22.460  1.00  0.00     0.202 C 
ENDBRANCH   1   8
TORSDOF 1
ENDMDL
MODEL 2
REMARK VINA RESULT: -4.693276086      1.518      2.577
REMARK  1 active torsions:
REMARK  status: ('A' for Active; 'I' for Inactive)
REMARK    1  A    between atoms: O1_2  and  C2_3 
ROOT
HETATM    1  C2  UNL     1     -35.390 -21.464  21.786  1.00  0.00     0.123 C 
HETATM    2  C3  UNL     1     -34.634 -21.603  20.490  1.00  0.00     0.051 C 
HETATM    3  C4  UNL     1     -35.172 -20.688  19.421  1.00  0.00     0.116 C 
HETATM    4  N1  UNL     1     -36.578 -20.568  19.399  1.00  0.00    -0.421 N 
ATOM      5  H1  UNL     1     -37.038 -19.850  18.840  1.00  0.00     0.153 HD
HETATM    6  C5  UNL     1     -37.325 -21.482  20.183  1.00  0.00     0.116 C 
HETATM    7  C6  UNL     1     -36.876 -21.637  21.602  1.00  0.00     0.051 C 
ENDROOT
BRANCH   1   8
HETATM    8  O1  UNL     1     -35.113 -20.228  22.330  1.00  0.00    -0.391 OA
HETATM    9  C1  UNL     1     -33.860 -20.183  22.944  1.00  0.00     0.202 C 
ENDBRANCH   1   8
TORSDOF 1
ENDMDL
MODEL 3
REMARK VINA RESULT: -4.330941364      1.863      3.243
REMARK  1 active torsions:
REMARK  status: ('A' for Active; 'I' for Inactive)
REMARK    1  A    between atoms: O1_2  and  C2_3 
ROOT
HETATM    1  C2  UNL     1     -34.194 -21.069  21.027  1.00  0.00     0.123 C 
HETATM    2  C3  UNL     1     -35.441 -21.767  21.505  1.00  0.00     0.051 C 
HETATM    3  C4  UNL     1     -36.306 -20.865  22.345  1.00  0.00     0.116 C 
HETATM    4  N1  UNL     1     -35.600 -20.019  23.226  1.00  0.00    -0.421 N 
ATOM      5  H1  UNL     1     -36.066 -19.252  23.710  1.00  0.00     0.153 HD
HETATM    6  C5  UNL     1     -34.219 -20.276  23.411  1.00  0.00     0.116 C 
HETATM    7  C6  UNL     1     -33.417 -20.448  22.160  1.00  0.00     0.051 C 
ENDROOT
BRANCH   1   8
HETATM    8  O1  UNL     1     -34.551 -20.109  20.104  1.00  0.00    -0.391 OA
HETATM    9  C1  UNL     1     -35.244 -20.645  19.017  1.00  0.00     0.202 C 
ENDBRANCH   1   8
TORSDOF 1
ENDMDL
MODEL 4
REMARK VINA RESULT: -4.057878449      4.698      5.677
REMARK  1 active torsions:
REMARK  status: ('A' for Active; 'I' for Inactive)
REMARK    1  A    between atoms: O1_2  and  C2_3 
ROOT
HETATM    1  C2  UNL     1     -34.128 -17.715  24.271  1.00  0.00     0.123 C 
HETATM    2  C3  UNL     1     -35.329 -18.231  25.021  1.00  0.00     0.051 C 
HETATM    3  C4  UNL     1     -34.986 -19.409  25.894  1.00  0.00     0.116 C 
HETATM    4  N1  UNL     1     -34.074 -20.322  25.324  1.00  0.00    -0.421 N 
ATOM      5  H1  UNL     1     -33.640 -21.056  25.885  1.00  0.00     0.153 HD
HETATM    6  C5  UNL     1     -33.785 -20.183  23.944  1.00  0.00     0.116 C 
HETATM    7  C6  UNL     1     -33.430 -18.801  23.493  1.00  0.00     0.051 C 
ENDROOT
BRANCH   1   8
HETATM    8  O1  UNL     1     -33.261 -17.134  25.172  1.00  0.00    -0.391 OA
HETATM    9  C1  UNL     1     -33.247 -15.741  25.078  1.00  0.00     0.202 C 
ENDBRANCH   1   8
TORSDOF 1
ENDMDL
MODEL 5
REMARK VINA RESULT: -3.982957083      2.223      3.020
REMARK  1 active torsions:
REMARK  status: ('A' for Active; 'I' for Inactive)
REMARK    1  A    between atoms: O1_2  and  C2_3 
ROOT
HETATM    1  C2  UNL     1     -38.361 -21.972  20.290  1.00  0.00     0.123 C 
HETATM    2  C3  UNL     1     -38.515 -22.636  21.633  1.00  0.00     0.051 C 
HETATM    3  C4  UNL     1     -38.186 -21.701  22.767  1.00  0.00     0.116 C 
HETATM    4  N1  UNL     1     -37.085 -20.850  22.531  1.00  0.00    -0.421 N 
ATOM      5  H1  UNL     1     -36.882 -20.064  23.149  1.00  0.00     0.153 HD
HETATM    6  C5  UNL     1     -36.273 -21.129  21.404  1.00  0.00     0.116 C 
HETATM    7  C6  UNL     1     -37.003 -21.342  20.116  1.00  0.00     0.051 C 
ENDROOT
BRANCH   1   8
HETATM    8  O1  UNL     1     -39.354 -21.025  20.149  1.00  0.00    -0.391 OA
HETATM    9  C1  UNL     1     -40.633 -21.573  20.249  1.00  0.00     0.202 C 
ENDBRANCH   1   8
TORSDOF 1
ENDMDL
