MODEL 1
REMARK VINA RESULT: -5.110788508      0.000      0.000
REMARK  1 active torsions:
REMARK  status: ('A' for Active; 'I' for Inactive)
REMARK    1  A    between atoms: N1_2  and  C2_5 
ROOT
HETATM    1  C2  UNL     1     -36.681 -21.249  21.502  1.00  0.00     0.209 C 
HETATM    2  C3  UNL     1     -35.330 -21.807  21.808  1.00  0.00     0.037 C 
HETATM    3  C4  UNL     1     -34.425 -21.583  20.635  1.00  0.00     0.028 C 
HETATM    4  C5  UNL     1     -34.853 -20.457  19.745  1.00  0.00     0.167 C 
HETATM    5  O1  UNL     1     -36.123 -20.541  19.270  1.00  0.00    -0.389 OA
HETATM    6  C6  UNL     1     -37.007 -21.263  20.041  1.00  0.00     0.200 C 
ENDROOT
BRANCH   1   7
HETATM    7  N1  UNL     1     -37.749 -21.851  22.261  1.00  0.00    -0.073 N 
HETATM    8  C1  UNL     1     -38.621 -22.675  21.487  1.00  0.00     0.267 C 
ATOM      9  H12 UNL     1     -38.280 -21.137  22.759  1.00  0.00     0.277 HD
ATOM     10  H11 UNL     1     -37.374 -22.372  23.054  1.00  0.00     0.277 HD
ENDBRANCH   1   7
TORSDOF 1
ENDMDL
MODEL 2
REMARK VINA RESULT: -5.082808910      1.273      1.386
REMARK  1 active torsions:
REMARK  status: ('A' for Active; 'I' for Inactive)
REMARK    1  A    between atoms: N1_2  and  C2_5 
ROOT
HETATM    1  C2  UNL     1     -36.655 -21.077  20.341  1.00  0.00     0.209 C 
HETATM    2  C3  UNL     1     -35.971 -21.918  21.368  1.00  0.00     0.037 C 
HETATM    3  C4  UNL     1     -34.501 -21.630  21.344  1.00  0.00     0.028 C 
HETATM    4  C5  UNL     1     -34.154 -20.291  20.770  1.00  0.00     0.167 C 
HETATM    5  O1  UNL     1     -34.638 -20.050  19.523  1.00  0.00    -0.389 OA
HETATM    6  C6  UNL     1     -35.777 -20.740  19.176  1.00  0.00     0.200 C 
ENDROOT
BRANCH   1   7
HETATM    7  N1  UNL     1     -37.911 -21.617  19.884  1.00  0.00    -0.073 N 
HETATM    8  C1  UNL     1     -38.679 -22.253  20.907  1.00  0.00     0.267 C 
ATOM      9  H12 UNL     1     -37.763 -22.253  19.100  1.00  0.00     0.277 HD
ATOM     10  H11 UNL     1     -38.463 -20.896  19.419  1.00  0.00     0.277 HD
ENDBRANCH   1   7
TORSDOF 1
ENDMDL
MODEL 3
REMARK VINA RESULT: -5.056563263      1.508      2.043
REMARK  1 active torsions:
REMARK  status: ('A' for Active; 'I' for Inactive)
REMARK    1  A    between atoms: N1_2  and  C2_5 
ROOT
HETATM    1  C2  UNL     1     -36.949 -21.532  20.206  1.00  0.00     0.209 C 
HETATM    2  C3  UNL     1     -36.072 -20.764  19.272  1.00  0.00     0.037 C 
HETATM    3  C4  UNL     1     -34.741 -20.534  19.918  1.00  0.00     0.028 C 
HETATM    4  C5  UNL     1     -34.414 -21.518  21.000  1.00  0.00     0.167 C 
HETATM    5  O1  UNL     1     -35.337 -21.620  21.992  1.00  0.00    -0.389 OA
HETATM    6  C6  UNL     1     -36.628 -21.288  21.648  1.00  0.00     0.200 C 
ENDROOT
BRANCH   1   7
HETATM    7  N1  UNL     1     -38.359 -21.352  19.966  1.00  0.00    -0.073 N 
HETATM    8  C1  UNL     1     -39.199 -22.040  20.894  1.00  0.00     0.267 C 
ATOM      9  H12 UNL     1     -38.595 -21.612  19.009  1.00  0.00     0.277 HD
ATOM     10  H11 UNL     1     -38.593 -20.360  19.940  1.00  0.00     0.277 HD
ENDBRANCH   1   7
TORSDOF 1
ENDMDL
MODEL 4
REMARK VINA RESULT: -4.797541640      1.181      1.792
REMARK  1 active torsions:
REMARK  status: ('A' for Active; 'I' for Inactive)
REMARK    1  A    between atoms: N1_2  and  C2_5 
ROOT
HETATM    1  C2  UNL     1     -36.787 -21.746  21.482  1.00  0.00     0.209 C 
HETATM    2  C3  UNL     1     -37.185 -21.365  20.094  1.00  0.00     0.037 C 
HETATM    3  C4  UNL     1     -36.029 -20.701  19.412  1.00  0.00     0.028 C 
HETATM    4  C5  UNL     1     -34.696 -21.051  19.997  1.00  0.00     0.167 C 
HETATM    5  O1  UNL     1     -34.569 -20.822  21.331  1.00  0.00    -0.389 OA
HETATM    6  C6  UNL     1     -35.737 -20.849  22.060  1.00  0.00     0.200 C 
ENDROOT
BRANCH   1   7
HETATM    7  N1  UNL     1     -37.895 -21.877  22.394  1.00  0.00    -0.073 N 
HETATM    8  C1  UNL     1     -39.172 -21.928  21.757  1.00  0.00     0.267 C 
ATOM      9  H12 UNL     1     -37.873 -21.133  23.092  1.00  0.00     0.277 HD
ATOM     10  H11 UNL     1     -37.765 -22.686  23.001  1.00  0.00     0.277 HD
ENDBRANCH   1   7
TORSDOF 1
ENDMDL
MODEL 5
REMARK VINA RESULT: -4.794888023      1.847      2.915
REMARK  1 active torsions:
REMARK  status: ('A' for Active; 'I' for Inactive)
REMARK    1  A    between atoms: N1_2  and  C2_5 
ROOT
HETATM    1  C2  UNL     1     -35.245 -20.707  21.737  1.00  0.00     0.209 C 
HETATM    2  C3  UNL     1     -34.364 -20.514  20.547  1.00  0.00     0.037 C 
HETATM    3  C4  UNL     1     -35.114 -20.897  19.309  1.00  0.00     0.028 C 
HETATM    4  C5  UNL     1     -36.603 -20.836  19.458  1.00  0.00     0.167 C 
HETATM    5  O1  UNL     1     -37.115 -21.563  20.486  1.00  0.00    -0.389 OA
HETATM    6  C6  UNL     1     -36.265 -21.786  21.546  1.00  0.00     0.200 C 
ENDROOT
BRANCH   1   7
HETATM    7  N1  UNL     1     -34.526 -20.907  22.971  1.00  0.00    -0.073 N 
HETATM    8  C1  UNL     1     -33.293 -20.190  23.050  1.00  0.00     0.267 C 
ATOM      9  H12 UNL     1     -34.374 -21.901  23.139  1.00  0.00     0.277 HD
ATOM     10  H11 UNL     1     -35.120 -20.686  23.770  1.00  0.00     0.277 HD
ENDBRANCH   1   7
TORSDOF 1
ENDMDL
