MODEL 1
REMARK VINA RESULT: -6.195010952      0.000      0.000
REMARK  8 active torsions:
REMARK  status: ('A' for Active; 'I' for Inactive)
REMARK    1  A    between atoms: N1_2  and  N2_3 
REMARK    2  A    between atoms: N2_3  and  C2_5 
REMARK    3  A    between atoms: C2_5  and  O1_6 
REMARK    4  A    between atoms: C2_5  and  C3_8 
REMARK    5  A    between atoms: C3_8  and  N3_9 
REMARK    6  A    between atoms: N3_9  and  N4_11 
REMARK    7  A    between atoms: N4_11  and  C4_12 
REMARK    8  A    between atoms: C5_15  and  N6_16 
ROOT
HETATM    1  C4  UNL     1      -6.252   3.633   1.917  1.00  0.00     0.299 A 
HETATM    2  N5  UNL     1      -6.593   2.269   2.008  1.00  0.00    -0.147 N 
ATOM      3  H5  UNL     1      -7.319   1.898   1.394  1.00  0.00     0.188 HD
HETATM    4  C5  UNL     1      -5.977   1.427   2.899  1.00  0.00     0.683 A 
HETATM    5  N7  UNL     1      -5.024   1.857   3.724  1.00  0.00    -0.141 N 
ATOM      6  H7  UNL     1      -4.562   1.220   4.374  1.00  0.00     0.189 HD
HETATM    7  C6  UNL     1      -4.684   3.194   3.670  1.00  0.00     0.342 A 
HETATM    8  O2  UNL     1      -3.841   3.726   4.422  1.00  0.00    -0.246 OA
HETATM    9  N8  UNL     1      -5.282   4.002   2.802  1.00  0.00    -0.266 N 
ATOM     10  H8  UNL     1      -4.992   4.980   2.797  1.00  0.00     0.174 HD
ENDROOT
BRANCH   1  11
HETATM   11  N4  UNL     1      -6.687   4.284   1.088  1.00  0.00    -0.287 NA
BRANCH  11  12
HETATM   12  N3  UNL     1      -7.197   5.027   0.121  1.00  0.00    -0.239 N 
ATOM     13  H3  UNL     1      -6.769   5.832  -0.335  1.00  0.00     0.201 HD
BRANCH  12  14
HETATM   14  C3  UNL     1      -8.407   4.487  -0.130  1.00  0.00     0.177 C 
BRANCH  14  15
HETATM   15  C2  UNL     1      -8.737   3.685  -1.204  1.00  0.00     0.170 C 
BRANCH  15  16
HETATM   16  N2  UNL     1      -9.198   2.373  -0.936  1.00  0.00    -0.283 N 
ATOM     17  H2  UNL     1     -10.074   1.917  -0.683  1.00  0.00     0.184 HD
BRANCH  16  18
HETATM   18  N1  UNL     1      -7.462   1.892  -1.266  1.00  0.00    -0.144 NA
HETATM   19  C1  UNL     1      -7.700   0.509  -0.838  1.00  0.00     0.159 C 
ENDBRANCH  16  18
ENDBRANCH  15  16
BRANCH  15  20
HETATM   20  O1  UNL     1      -8.579   4.208  -2.391  1.00  0.00    -0.344 OA
ATOM     21  H1  UNL     1      -8.744   5.115  -2.622  1.00  0.00     0.219 HD
ENDBRANCH  15  20
ENDBRANCH  14  15
ENDBRANCH  12  14
ENDBRANCH  11  12
ENDBRANCH   1  11
BRANCH   4  22
HETATM   22  N6  UNL     1      -6.278   0.181   2.884  1.00  0.00    -0.234 N 
ATOM     23  H62 UNL     1      -7.248  -0.096   2.734  1.00  0.00     0.174 HD
ATOM     24  H61 UNL     1      -5.549  -0.504   3.081  1.00  0.00     0.174 HD
ENDBRANCH   4  22
TORSDOF 8
ENDMDL
MODEL 2
REMARK VINA RESULT: -6.082804664      1.720      2.540
REMARK  8 active torsions:
REMARK  status: ('A' for Active; 'I' for Inactive)
REMARK    1  A    between atoms: N1_2  and  N2_3 
REMARK    2  A    between atoms: N2_3  and  C2_5 
REMARK    3  A    between atoms: C2_5  and  O1_6 
REMARK    4  A    between atoms: C2_5  and  C3_8 
REMARK    5  A    between atoms: C3_8  and  N3_9 
REMARK    6  A    between atoms: N3_9  and  N4_11 
REMARK    7  A    between atoms: N4_11  and  C4_12 
REMARK    8  A    between atoms: C5_15  and  N6_16 
ROOT
HETATM    1  C4  UNL     1      -6.044   3.119   1.607  1.00  0.00     0.299 A 
HETATM    2  N5  UNL     1      -5.295   2.263   2.439  1.00  0.00    -0.147 N 
ATOM      3  H5  UNL     1      -5.050   1.332   2.101  1.00  0.00     0.188 HD
HETATM    4  C5  UNL     1      -4.885   2.648   3.691  1.00  0.00     0.683 A 
HETATM    5  N7  UNL     1      -5.176   3.851   4.183  1.00  0.00    -0.141 N 
ATOM      6  H7  UNL     1      -4.856   4.133   5.110  1.00  0.00     0.189 HD
HETATM    7  C6  UNL     1      -5.926   4.702   3.397  1.00  0.00     0.342 A 
HETATM    8  O2  UNL     1      -6.301   5.835   3.763  1.00  0.00    -0.246 OA
HETATM    9  N8  UNL     1      -6.316   4.323   2.184  1.00  0.00    -0.266 N 
ATOM     10  H8  UNL     1      -6.863   4.989   1.640  1.00  0.00     0.174 HD
ENDROOT
BRANCH   1  11
HETATM   11  N4  UNL     1      -6.266   2.825   0.527  1.00  0.00    -0.287 NA
BRANCH  11  12
HETATM   12  N3  UNL     1      -6.513   2.480  -0.724  1.00  0.00    -0.239 N 
ATOM     13  H3  UNL     1      -5.839   2.195  -1.435  1.00  0.00     0.201 HD
BRANCH  12  14
HETATM   14  C3  UNL     1      -7.851   2.587  -0.856  1.00  0.00     0.177 C 
BRANCH  14  15
HETATM   15  C2  UNL     1      -8.554   3.742  -1.132  1.00  0.00     0.170 C 
BRANCH  15  16
HETATM   16  N2  UNL     1      -9.242   4.373  -0.068  1.00  0.00    -0.283 N 
ATOM     17  H2  UNL     1      -9.011   4.875   0.790  1.00  0.00     0.184 HD
BRANCH  16  18
HETATM   18  N1  UNL     1     -10.746   3.851  -0.973  1.00  0.00    -0.144 NA
HETATM   19  C1  UNL     1     -11.616   4.676  -0.127  1.00  0.00     0.159 C 
ENDBRANCH  16  18
ENDBRANCH  15  16
BRANCH  15  20
HETATM   20  O1  UNL     1      -8.534   4.153  -2.374  1.00  0.00    -0.344 OA
ATOM     21  H1  UNL     1      -8.008   3.779  -3.071  1.00  0.00     0.219 HD
ENDBRANCH  15  20
ENDBRANCH  14  15
ENDBRANCH  12  14
ENDBRANCH  11  12
ENDBRANCH   1  11
BRANCH   4  22
HETATM   22  N6  UNL     1      -4.144   1.855   4.372  1.00  0.00    -0.234 N 
ATOM     23  H62 UNL     1      -4.025   0.891   4.058  1.00  0.00     0.174 HD
ATOM     24  H61 UNL     1      -3.736   2.189   5.244  1.00  0.00     0.174 HD
ENDBRANCH   4  22
TORSDOF 8
ENDMDL
MODEL 3
REMARK VINA RESULT: -5.792806211      1.719      2.342
REMARK  8 active torsions:
REMARK  status: ('A' for Active; 'I' for Inactive)
REMARK    1  A    between atoms: N1_2  and  N2_3 
REMARK    2  A    between atoms: N2_3  and  C2_5 
REMARK    3  A    between atoms: C2_5  and  O1_6 
REMARK    4  A    between atoms: C2_5  and  C3_8 
REMARK    5  A    between atoms: C3_8  and  N3_9 
REMARK    6  A    between atoms: N3_9  and  N4_11 
REMARK    7  A    between atoms: N4_11  and  C4_12 
REMARK    8  A    between atoms: C5_15  and  N6_16 
ROOT
HETATM    1  C4  UNL     1      -6.212   3.155   1.871  1.00  0.00     0.299 A 
HETATM    2  N5  UNL     1      -7.280   2.818   2.726  1.00  0.00    -0.147 N 
ATOM      3  H5  UNL     1      -8.167   2.521   2.319  1.00  0.00     0.188 HD
HETATM    4  C5  UNL     1      -7.160   2.879   4.092  1.00  0.00     0.683 A 
HETATM    5  N7  UNL     1      -6.026   3.260   4.678  1.00  0.00    -0.141 N 
ATOM      6  H7  UNL     1      -5.941   3.290   5.694  1.00  0.00     0.189 HD
HETATM    7  C6  UNL     1      -4.969   3.614   3.863  1.00  0.00     0.342 A 
HETATM    8  O2  UNL     1      -3.873   4.031   4.290  1.00  0.00    -0.246 OA
HETATM    9  N8  UNL     1      -5.093   3.549   2.542  1.00  0.00    -0.266 N 
ATOM     10  H8  UNL     1      -4.282   3.816   1.982  1.00  0.00     0.174 HD
ENDROOT
BRANCH   1  11
HETATM   11  N4  UNL     1      -6.295   2.978   0.747  1.00  0.00    -0.287 NA
BRANCH  11  12
HETATM   12  N3  UNL     1      -6.380   2.776  -0.557  1.00  0.00    -0.239 N 
ATOM     13  H3  UNL     1      -5.613   2.677  -1.222  1.00  0.00     0.201 HD
BRANCH  12  14
HETATM   14  C3  UNL     1      -7.703   2.731  -0.815  1.00  0.00     0.177 C 
BRANCH  14  15
HETATM   15  C2  UNL     1      -8.516   3.808  -1.104  1.00  0.00     0.170 C 
BRANCH  15  16
HETATM   16  N2  UNL     1      -9.252   4.390  -0.043  1.00  0.00    -0.283 N 
ATOM     17  H2  UNL     1      -9.061   4.900   0.819  1.00  0.00     0.184 HD
BRANCH  16  18
HETATM   18  N1  UNL     1     -10.712   3.782  -0.967  1.00  0.00    -0.144 NA
HETATM   19  C1  UNL     1     -11.630   4.621  -0.188  1.00  0.00     0.159 C 
ENDBRANCH  16  18
ENDBRANCH  15  16
BRANCH  15  20
HETATM   20  O1  UNL     1      -8.546   4.196  -2.352  1.00  0.00    -0.344 OA
ATOM     21  H1  UNL     1      -8.844   3.672  -3.087  1.00  0.00     0.219 HD
ENDBRANCH  15  20
ENDBRANCH  14  15
ENDBRANCH  12  14
ENDBRANCH  11  12
ENDBRANCH   1  11
BRANCH   4  22
HETATM   22  N6  UNL     1      -8.141   2.491   4.819  1.00  0.00    -0.234 N 
ATOM     23  H62 UNL     1      -8.743   3.188   5.256  1.00  0.00     0.174 HD
ATOM     24  H61 UNL     1      -8.262   1.493   4.991  1.00  0.00     0.174 HD
ENDBRANCH   4  22
TORSDOF 8
ENDMDL
MODEL 4
REMARK VINA RESULT: -5.779679697      1.076      1.076
REMARK  8 active torsions:
REMARK  status: ('A' for Active; 'I' for Inactive)
REMARK    1  A    between atoms: N1_2  and  N2_3 
REMARK    2  A    between atoms: N2_3  and  C2_5 
REMARK    3  A    between atoms: C2_5  and  O1_6 
REMARK    4  A    between atoms: C2_5  and  C3_8 
REMARK    5  A    between atoms: C3_8  and  N3_9 
REMARK    6  A    between atoms: N3_9  and  N4_11 
REMARK    7  A    between atoms: N4_11  and  C4_12 
REMARK    8  A    between atoms: C5_15  and  N6_16 
ROOT
HETATM    1  C4  UNL     1      -6.219   3.678   2.142  1.00  0.00     0.299 A 
HETATM    2  N5  UNL     1      -6.596   2.343   2.391  1.00  0.00    -0.147 N 
ATOM      3  H5  UNL     1      -7.365   1.937   1.858  1.00  0.00     0.188 HD
HETATM    4  C5  UNL     1      -5.955   1.574   3.330  1.00  0.00     0.683 A 
HETATM    5  N7  UNL     1      -4.945   2.052   4.055  1.00  0.00    -0.141 N 
ATOM      6  H7  UNL     1      -4.466   1.469   4.742  1.00  0.00     0.189 HD
HETATM    7  C6  UNL     1      -4.568   3.364   3.845  1.00  0.00     0.342 A 
HETATM    8  O2  UNL     1      -3.669   3.939   4.491  1.00  0.00    -0.246 OA
HETATM    9  N8  UNL     1      -5.191   4.100   2.931  1.00  0.00    -0.266 N 
ATOM     10  H8  UNL     1      -4.873   5.062   2.809  1.00  0.00     0.174 HD
ENDROOT
BRANCH   1  11
HETATM   11  N4  UNL     1      -6.682   4.256   1.274  1.00  0.00    -0.287 NA
BRANCH  11  12
HETATM   12  N3  UNL     1      -7.207   4.926   0.263  1.00  0.00    -0.239 N 
ATOM     13  H3  UNL     1      -7.035   5.897   0.005  1.00  0.00     0.201 HD
BRANCH  12  14
HETATM   14  C3  UNL     1      -8.020   4.043  -0.352  1.00  0.00     0.177 C 
BRANCH  14  15
HETATM   15  C2  UNL     1      -7.628   2.904  -1.026  1.00  0.00     0.170 C 
BRANCH  15  16
HETATM   16  N2  UNL     1      -8.611   1.924  -1.305  1.00  0.00    -0.283 N 
ATOM     17  H2  UNL     1      -9.381   1.790  -1.961  1.00  0.00     0.184 HD
BRANCH  16  18
HETATM   18  N1  UNL     1      -7.834   1.014   0.081  1.00  0.00    -0.144 NA
HETATM   19  C1  UNL     1      -9.111   0.413   0.483  1.00  0.00     0.159 C 
ENDBRANCH  16  18
ENDBRANCH  15  16
BRANCH  15  20
HETATM   20  O1  UNL     1      -6.362   2.821  -1.341  1.00  0.00    -0.344 OA
ATOM     21  H1  UNL     1      -5.935   2.063  -1.725  1.00  0.00     0.219 HD
ENDBRANCH  15  20
ENDBRANCH  14  15
ENDBRANCH  12  14
ENDBRANCH  11  12
ENDBRANCH   1  11
BRANCH   4  22
HETATM   22  N6  UNL     1      -6.293   0.345   3.461  1.00  0.00    -0.234 N 
ATOM     23  H62 UNL     1      -5.656  -0.299   3.929  1.00  0.00     0.174 HD
ATOM     24  H61 UNL     1      -7.166   0.027   3.042  1.00  0.00     0.174 HD
ENDBRANCH   4  22
TORSDOF 8
ENDMDL
MODEL 5
REMARK VINA RESULT: -5.776637328      1.665      3.190
REMARK  8 active torsions:
REMARK  status: ('A' for Active; 'I' for Inactive)
REMARK    1  A    between atoms: N1_2  and  N2_3 
REMARK    2  A    between atoms: N2_3  and  C2_5 
REMARK    3  A    between atoms: C2_5  and  O1_6 
REMARK    4  A    between atoms: C2_5  and  C3_8 
REMARK    5  A    between atoms: C3_8  and  N3_9 
REMARK    6  A    between atoms: N3_9  and  N4_11 
REMARK    7  A    between atoms: N4_11  and  C4_12 
REMARK    8  A    between atoms: C5_15  and  N6_16 
ROOT
HETATM    1  C4  UNL     1      -6.542   3.366   0.817  1.00  0.00     0.299 A 
HETATM    2  N5  UNL     1      -7.292   4.557   0.898  1.00  0.00    -0.147 N 
ATOM      3  H5  UNL     1      -7.970   4.766   0.165  1.00  0.00     0.188 HD
HETATM    4  C5  UNL     1      -7.132   5.442   1.934  1.00  0.00     0.683 A 
HETATM    5  N7  UNL     1      -6.261   5.220   2.916  1.00  0.00    -0.141 N 
ATOM      6  H7  UNL     1      -6.159   5.878   3.690  1.00  0.00     0.189 HD
HETATM    7  C6  UNL     1      -5.500   4.070   2.852  1.00  0.00     0.342 A 
HETATM    8  O2  UNL     1      -4.619   3.774   3.686  1.00  0.00    -0.246 OA
HETATM    9  N8  UNL     1      -5.662   3.216   1.848  1.00  0.00    -0.266 N 
ATOM     10  H8  UNL     1      -5.081   2.378   1.847  1.00  0.00     0.174 HD
ENDROOT
BRANCH   1  11
HETATM   11  N4  UNL     1      -6.779   2.588   0.016  1.00  0.00    -0.287 NA
BRANCH  11  12
HETATM   12  N3  UNL     1      -7.063   1.686  -0.907  1.00  0.00    -0.239 N 
ATOM     13  H3  UNL     1      -6.410   1.106  -1.432  1.00  0.00     0.201 HD
BRANCH  12  14
HETATM   14  C3  UNL     1      -8.409   1.701  -1.002  1.00  0.00     0.177 C 
BRANCH  14  15
HETATM   15  C2  UNL     1      -9.183   2.747  -1.465  1.00  0.00     0.170 C 
BRANCH  15  16
HETATM   16  N2  UNL     1     -10.578   2.695  -1.233  1.00  0.00    -0.283 N 
ATOM     17  H2  UNL     1     -11.379   2.150  -1.553  1.00  0.00     0.184 HD
BRANCH  16  18
HETATM   18  N1  UNL     1     -10.252   4.080  -0.080  1.00  0.00    -0.144 NA
HETATM   19  C1  UNL     1     -11.638   4.555  -0.161  1.00  0.00     0.159 C 
ENDBRANCH  16  18
ENDBRANCH  15  16
BRANCH  15  20
HETATM   20  O1  UNL     1      -8.552   3.701  -2.099  1.00  0.00    -0.344 OA
ATOM     21  H1  UNL     1      -7.608   3.810  -2.137  1.00  0.00     0.219 HD
ENDBRANCH  15  20
ENDBRANCH  14  15
ENDBRANCH  12  14
ENDBRANCH  11  12
ENDBRANCH   1  11
BRANCH   4  22
HETATM   22  N6  UNL     1      -7.893   6.472   1.992  1.00  0.00    -0.234 N 
ATOM     23  H62 UNL     1      -7.600   7.277   2.544  1.00  0.00     0.174 HD
ATOM     24  H61 UNL     1      -8.802   6.440   1.531  1.00  0.00     0.174 HD
ENDBRANCH   4  22
TORSDOF 8
ENDMDL
