MODEL 1
REMARK VINA RESULT: -6.350421626      0.000      0.000
REMARK  5 active torsions:
REMARK  status: ('A' for Active; 'I' for Inactive)
REMARK    1  A    between atoms: N1_1  and  C1_4 
REMARK    2  A    between atoms: C2_7  and  N3_8 
REMARK    3  A    between atoms: N5_18  and  C6_19 
REMARK    4  A    between atoms: C6_19  and  C7_20 
REMARK    5  A    between atoms: C7_20  and  N6_21 
ROOT
HETATM    1  C1  UNL     1      -7.254   5.304   1.173  1.00  0.00     0.679 A 
HETATM    2  N2  UNL     1      -7.747   5.008  -0.019  1.00  0.00    -0.176 N 
ATOM      3  H2  UNL     1      -7.989   5.753  -0.673  1.00  0.00     0.186 HD
HETATM    4  C2  UNL     1      -7.935   3.679  -0.375  1.00  0.00     0.134 A 
HETATM    5  C3  UNL     1      -7.596   2.710   0.538  1.00  0.00     0.121 A 
HETATM    6  C4  UNL     1      -7.777   1.381   0.229  1.00  0.00     0.267 A 
HETATM    7  O1  UNL     1      -8.239   1.021  -0.876  1.00  0.00    -0.267 OA
HETATM    8  N4  UNL     1      -7.438   0.461   1.166  1.00  0.00    -0.274 N 
ATOM      9  H4  UNL     1      -7.568  -0.527   0.946  1.00  0.00     0.173 HD
HETATM   10  C5  UNL     1      -6.945   0.782   2.352  1.00  0.00     0.334 A 
HETATM   11  O2  UNL     1      -6.648  -0.108   3.179  1.00  0.00    -0.246 OA
HETATM   12  N5  UNL     1      -6.740   2.084   2.719  1.00  0.00    -0.261 N 
HETATM   13  C8  UNL     1      -7.068   3.019   1.814  1.00  0.00     0.150 A 
HETATM   14  N7  UNL     1      -6.929   4.336   2.052  1.00  0.00    -0.175 N 
ATOM     15  H7  UNL     1      -6.553   4.620   2.956  1.00  0.00     0.186 HD
ENDROOT
BRANCH  12  16
HETATM   16  C6  UNL     1      -6.223   2.430   3.979  1.00  0.00     0.103 C 
BRANCH  16  17
HETATM   17  C7  UNL     1      -4.777   2.537   4.211  1.00  0.00     0.274 C 
BRANCH  17  18
HETATM   18  N6  UNL     1      -4.151   3.789   3.942  1.00  0.00    -0.075 N 
ATOM     19  H63 UNL     1      -4.524   4.171   3.072  1.00  0.00     0.274 HD
ATOM     20  H62 UNL     1      -4.484   4.482   4.613  1.00  0.00     0.274 HD
ATOM     21  H61 UNL     1      -3.132   3.815   3.909  1.00  0.00     0.274 HD
ENDBRANCH  17  18
ENDBRANCH  16  17
ENDBRANCH  12  16
BRANCH   4  22
HETATM   22  N3  UNL     1      -8.396   3.459  -1.494  1.00  0.00    -0.384 N 
ATOM     23  H32 UNL     1      -8.119   3.948  -2.345  1.00  0.00     0.157 HD
ATOM     24  H31 UNL     1      -9.108   2.732  -1.569  1.00  0.00     0.157 HD
ENDBRANCH   4  22
BRANCH   1  25
HETATM   25  N1  UNL     1      -7.080   6.560   1.503  1.00  0.00    -0.234 N 
ATOM     26  H12 UNL     1      -7.093   7.277   0.777  1.00  0.00     0.174 HD
ATOM     27  H11 UNL     1      -6.933   6.805   2.482  1.00  0.00     0.174 HD
ENDBRANCH   1  25
TORSDOF 5
ENDMDL
MODEL 2
REMARK VINA RESULT: -6.133932291      2.630      4.142
REMARK  5 active torsions:
REMARK  status: ('A' for Active; 'I' for Inactive)
REMARK    1  A    between atoms: N1_1  and  C1_4 
REMARK    2  A    between atoms: C2_7  and  N3_8 
REMARK    3  A    between atoms: N5_18  and  C6_19 
REMARK    4  A    between atoms: C6_19  and  C7_20 
REMARK    5  A    between atoms: C7_20  and  N6_21 
ROOT
HETATM    1  C1  UNL     1      -5.919   3.861   2.161  1.00  0.00     0.679 A 
HETATM    2  N2  UNL     1      -5.611   3.363   0.973  1.00  0.00    -0.176 N 
ATOM      3  H2  UNL     1      -4.676   2.995   0.798  1.00  0.00     0.186 HD
HETATM    4  C2  UNL     1      -6.567   3.345  -0.034  1.00  0.00     0.134 A 
HETATM    5  C3  UNL     1      -7.813   3.853   0.248  1.00  0.00     0.121 A 
HETATM    6  C4  UNL     1      -8.785   3.865  -0.726  1.00  0.00     0.267 A 
HETATM    7  O1  UNL     1      -8.572   3.414  -1.873  1.00  0.00    -0.267 OA
HETATM    8  N4  UNL     1      -9.996   4.385  -0.405  1.00  0.00    -0.274 N 
ATOM      9  H4  UNL     1     -10.724   4.399  -1.120  1.00  0.00     0.173 HD
HETATM   10  C5  UNL     1     -10.280   4.876   0.791  1.00  0.00     0.334 A 
HETATM   11  O2  UNL     1     -11.414   5.344   1.033  1.00  0.00    -0.246 OA
HETATM   12  N5  UNL     1      -9.357   4.893   1.801  1.00  0.00    -0.261 N 
HETATM   13  C8  UNL     1      -8.148   4.386   1.515  1.00  0.00     0.150 A 
HETATM   14  N7  UNL     1      -7.147   4.353   2.412  1.00  0.00    -0.175 N 
ATOM     15  H7  UNL     1      -7.330   4.724   3.344  1.00  0.00     0.186 HD
ENDROOT
BRANCH  12  16
HETATM   16  C6  UNL     1      -9.652   5.418   3.070  1.00  0.00     0.103 C 
BRANCH  16  17
HETATM   17  C7  UNL     1      -9.478   6.844   3.370  1.00  0.00     0.274 C 
BRANCH  17  18
HETATM   18  N6  UNL     1      -9.516   7.762   2.280  1.00  0.00    -0.075 N 
ATOM     19  H63 UNL     1      -8.564   8.036   2.038  1.00  0.00     0.274 HD
ATOM     20  H62 UNL     1      -9.795   7.266   1.433  1.00  0.00     0.274 HD
ATOM     21  H61 UNL     1     -10.090   8.599   2.383  1.00  0.00     0.274 HD
ENDBRANCH  17  18
ENDBRANCH  16  17
ENDBRANCH  12  16
BRANCH   4  22
HETATM   22  N3  UNL     1      -6.230   2.872  -1.118  1.00  0.00    -0.384 N 
ATOM     23  H32 UNL     1      -5.328   2.436  -1.308  1.00  0.00     0.157 HD
ATOM     24  H31 UNL     1      -6.908   2.924  -1.878  1.00  0.00     0.157 HD
ENDBRANCH   4  22
BRANCH   1  25
HETATM   25  N1  UNL     1      -5.011   3.875   3.106  1.00  0.00    -0.234 N 
ATOM     26  H12 UNL     1      -4.331   3.116   3.162  1.00  0.00     0.174 HD
ATOM     27  H11 UNL     1      -4.997   4.645   3.774  1.00  0.00     0.174 HD
ENDBRANCH   1  25
TORSDOF 5
ENDMDL
MODEL 3
REMARK VINA RESULT: -6.073373270      2.246      3.142
REMARK  5 active torsions:
REMARK  status: ('A' for Active; 'I' for Inactive)
REMARK    1  A    between atoms: N1_1  and  C1_4 
REMARK    2  A    between atoms: C2_7  and  N3_8 
REMARK    3  A    between atoms: N5_18  and  C6_19 
REMARK    4  A    between atoms: C6_19  and  C7_20 
REMARK    5  A    between atoms: C7_20  and  N6_21 
ROOT
HETATM    1  C1  UNL     1      -5.726   3.236   2.350  1.00  0.00     0.679 A 
HETATM    2  N2  UNL     1      -5.505   3.412   1.057  1.00  0.00    -0.176 N 
ATOM      3  H2  UNL     1      -4.745   4.018   0.745  1.00  0.00     0.186 HD
HETATM    4  C2  UNL     1      -6.310   2.769   0.127  1.00  0.00     0.134 A 
HETATM    5  C3  UNL     1      -7.321   1.964   0.594  1.00  0.00     0.121 A 
HETATM    6  C4  UNL     1      -8.150   1.317  -0.295  1.00  0.00     0.267 A 
HETATM    7  O1  UNL     1      -8.006   1.433  -1.531  1.00  0.00    -0.267 OA
HETATM    8  N4  UNL     1      -9.140   0.541   0.212  1.00  0.00    -0.274 N 
ATOM      9  H4  UNL     1      -9.760   0.058  -0.438  1.00  0.00     0.173 HD
HETATM   10  C5  UNL     1      -9.341   0.381   1.511  1.00  0.00     0.334 A 
HETATM   11  O2  UNL     1     -10.270  -0.348   1.925  1.00  0.00    -0.246 OA
HETATM   12  N5  UNL     1      -8.552   0.995   2.444  1.00  0.00    -0.261 N 
HETATM   13  C8  UNL     1      -7.564   1.771   1.975  1.00  0.00     0.150 A 
HETATM   14  N7  UNL     1      -6.724   2.442   2.783  1.00  0.00    -0.175 N 
ATOM     15  H7  UNL     1      -6.850   2.342   3.790  1.00  0.00     0.186 HD
ENDROOT
BRANCH  12  16
HETATM   16  C6  UNL     1      -8.765   0.831   3.824  1.00  0.00     0.103 C 
BRANCH  16  17
HETATM   17  C7  UNL     1      -9.726   1.665   4.556  1.00  0.00     0.274 C 
BRANCH  17  18
HETATM   18  N6  UNL     1     -11.097   1.278   4.530  1.00  0.00    -0.075 N 
ATOM     19  H63 UNL     1     -11.680   2.092   4.724  1.00  0.00     0.274 HD
ATOM     20  H62 UNL     1     -11.369   1.072   3.568  1.00  0.00     0.274 HD
ATOM     21  H61 UNL     1     -11.386   0.507   5.133  1.00  0.00     0.274 HD
ENDBRANCH  17  18
ENDBRANCH  16  17
ENDBRANCH  12  16
BRANCH   4  22
HETATM   22  N3  UNL     1      -6.061   2.966  -1.061  1.00  0.00    -0.384 N 
ATOM     23  H32 UNL     1      -5.131   2.927  -1.476  1.00  0.00     0.157 HD
ATOM     24  H31 UNL     1      -6.850   3.185  -1.671  1.00  0.00     0.157 HD
ENDBRANCH   4  22
BRANCH   1  25
HETATM   25  N1  UNL     1      -4.962   3.848   3.222  1.00  0.00    -0.234 N 
ATOM     26  H12 UNL     1      -5.344   4.109   4.131  1.00  0.00     0.174 HD
ATOM     27  H11 UNL     1      -3.993   4.055   2.978  1.00  0.00     0.174 HD
ENDBRANCH   1  25
TORSDOF 5
ENDMDL
MODEL 4
REMARK VINA RESULT: -6.017672672      1.917      4.362
REMARK  5 active torsions:
REMARK  status: ('A' for Active; 'I' for Inactive)
REMARK    1  A    between atoms: N1_1  and  C1_4 
REMARK    2  A    between atoms: C2_7  and  N3_8 
REMARK    3  A    between atoms: N5_18  and  C6_19 
REMARK    4  A    between atoms: C6_19  and  C7_20 
REMARK    5  A    between atoms: C7_20  and  N6_21 
ROOT
HETATM    1  C1  UNL     1      -8.081   6.101   2.224  1.00  0.00     0.679 A 
HETATM    2  N2  UNL     1      -7.117   5.801   3.081  1.00  0.00    -0.176 N 
ATOM      3  H2  UNL     1      -6.950   6.396   3.892  1.00  0.00     0.186 HD
HETATM    4  C2  UNL     1      -6.336   4.673   2.870  1.00  0.00     0.134 A 
HETATM    5  C3  UNL     1      -6.598   3.902   1.763  1.00  0.00     0.121 A 
HETATM    6  C4  UNL     1      -5.838   2.782   1.511  1.00  0.00     0.267 A 
HETATM    7  O1  UNL     1      -4.910   2.433   2.272  1.00  0.00    -0.267 OA
HETATM    8  N4  UNL     1      -6.127   2.058   0.400  1.00  0.00    -0.274 N 
ATOM      9  H4  UNL     1      -5.570   1.227   0.205  1.00  0.00     0.173 HD
HETATM   10  C5  UNL     1      -7.097   2.379  -0.441  1.00  0.00     0.334 A 
HETATM   11  O2  UNL     1      -7.321   1.675  -1.451  1.00  0.00    -0.246 OA
HETATM   12  N5  UNL     1      -7.887   3.479  -0.246  1.00  0.00    -0.261 N 
HETATM   13  C8  UNL     1      -7.626   4.217   0.843  1.00  0.00     0.150 A 
HETATM   14  N7  UNL     1      -8.318   5.330   1.146  1.00  0.00    -0.175 N 
ATOM     15  H7  UNL     1      -9.073   5.607   0.518  1.00  0.00     0.186 HD
ENDROOT
BRANCH  12  16
HETATM   16  C6  UNL     1      -8.915   3.826  -1.140  1.00  0.00     0.103 C 
BRANCH  16  17
HETATM   17  C7  UNL     1     -10.288   3.343  -0.956  1.00  0.00     0.274 C 
BRANCH  17  18
HETATM   18  N6  UNL     1     -10.525   1.944  -1.093  1.00  0.00    -0.075 N 
ATOM     19  H63 UNL     1      -9.922   1.436  -0.447  1.00  0.00     0.274 HD
ATOM     20  H62 UNL     1     -11.445   1.721  -0.714  1.00  0.00     0.274 HD
ATOM     21  H61 UNL     1     -10.438   1.536  -2.025  1.00  0.00     0.274 HD
ENDBRANCH  17  18
ENDBRANCH  16  17
ENDBRANCH  12  16
BRANCH   4  22
HETATM   22  N3  UNL     1      -5.455   4.439   3.696  1.00  0.00    -0.384 N 
ATOM     23  H32 UNL     1      -5.375   4.892   4.606  1.00  0.00     0.157 HD
ATOM     24  H31 UNL     1      -4.756   3.741   3.444  1.00  0.00     0.157 HD
ENDBRANCH   4  22
BRANCH   1  25
HETATM   25  N1  UNL     1      -8.814   7.168   2.430  1.00  0.00    -0.234 N 
ATOM     26  H12 UNL     1      -9.369   7.240   3.282  1.00  0.00     0.174 HD
ATOM     27  H11 UNL     1      -8.820   7.912   1.732  1.00  0.00     0.174 HD
ENDBRANCH   1  25
TORSDOF 5
ENDMDL
MODEL 5
REMARK VINA RESULT: -6.009128785      2.946      4.437
REMARK  5 active torsions:
REMARK  status: ('A' for Active; 'I' for Inactive)
REMARK    1  A    between atoms: N1_1  and  C1_4 
REMARK    2  A    between atoms: C2_7  and  N3_8 
REMARK    3  A    between atoms: N5_18  and  C6_19 
REMARK    4  A    between atoms: C6_19  and  C7_20 
REMARK    5  A    between atoms: C7_20  and  N6_21 
ROOT
HETATM    1  C1  UNL     1      -7.477   5.293   0.865  1.00  0.00     0.679 A 
HETATM    2  N2  UNL     1      -6.551   4.537   0.296  1.00  0.00    -0.176 N 
ATOM      3  H2  UNL     1      -5.572   4.824   0.316  1.00  0.00     0.186 HD
HETATM    4  C2  UNL     1      -6.919   3.352  -0.327  1.00  0.00     0.134 A 
HETATM    5  C3  UNL     1      -8.249   3.007  -0.329  1.00  0.00     0.121 A 
HETATM    6  C4  UNL     1      -8.657   1.847  -0.947  1.00  0.00     0.267 A 
HETATM    7  O1  UNL     1      -7.843   1.080  -1.507  1.00  0.00    -0.267 OA
HETATM    8  N4  UNL     1      -9.981   1.553  -0.931  1.00  0.00    -0.274 N 
ATOM      9  H4  UNL     1     -10.293   0.695  -1.387  1.00  0.00     0.173 HD
HETATM   10  C5  UNL     1     -10.888   2.326  -0.354  1.00  0.00     0.334 A 
HETATM   11  O2  UNL     1     -12.097   2.007  -0.370  1.00  0.00    -0.246 OA
HETATM   12  N5  UNL     1     -10.546   3.491   0.276  1.00  0.00    -0.261 N 
HETATM   13  C8  UNL     1      -9.244   3.811   0.277  1.00  0.00     0.150 A 
HETATM   14  N7  UNL     1      -8.775   4.934   0.850  1.00  0.00    -0.175 N 
ATOM     15  H7  UNL     1      -9.446   5.554   1.303  1.00  0.00     0.186 HD
ENDROOT
BRANCH  12  16
HETATM   16  C6  UNL     1     -11.506   4.317   0.885  1.00  0.00     0.103 C 
BRANCH  16  17
HETATM   17  C7  UNL     1     -12.197   5.373   0.135  1.00  0.00     0.274 C 
BRANCH  17  18
HETATM   18  N6  UNL     1     -11.872   6.727   0.441  1.00  0.00    -0.075 N 
ATOM     19  H63 UNL     1     -12.665   7.324   0.205  1.00  0.00     0.274 HD
ATOM     20  H62 UNL     1     -11.838   6.843   1.454  1.00  0.00     0.274 HD
ATOM     21  H61 UNL     1     -11.024   7.118   0.029  1.00  0.00     0.274 HD
ENDBRANCH  17  18
ENDBRANCH  16  17
ENDBRANCH  12  16
BRANCH   4  22
HETATM   22  N3  UNL     1      -6.020   2.687  -0.840  1.00  0.00    -0.384 N 
ATOM     23  H32 UNL     1      -5.576   2.899  -1.733  1.00  0.00     0.157 HD
ATOM     24  H31 UNL     1      -5.701   1.864  -0.329  1.00  0.00     0.157 HD
ENDBRANCH   4  22
BRANCH   1  25
HETATM   25  N1  UNL     1      -7.122   6.411   1.451  1.00  0.00    -0.234 N 
ATOM     26  H12 UNL     1      -6.571   7.097   0.936  1.00  0.00     0.174 HD
ATOM     27  H11 UNL     1      -7.402   6.579   2.418  1.00  0.00     0.174 HD
ENDBRANCH   1  25
TORSDOF 5
ENDMDL
