MODEL 1
REMARK VINA RESULT: -6.139056631      0.000      0.000
REMARK  4 active torsions:
REMARK  status: ('A' for Active; 'I' for Inactive)
REMARK    1  A    between atoms: C3_8  and  N4_9 
REMARK    2  A    between atoms: N4_9  and  N5_11 
REMARK    3  A    between atoms: N5_11  and  C4_13 
REMARK    4  A    between atoms: N6_14  and  N7_16 
REMARK       I    between atoms: N7_16  and  C5_18 
ROOT
HETATM    1  N1  UNL     1      -4.521   3.720   4.425  1.00  0.00    -0.190 NA
HETATM    2  C1  UNL     1      -5.154   3.830   3.459  1.00  0.00     0.123 C 
HETATM    3  C2  UNL     1      -5.955   3.956   2.262  1.00  0.00     0.173 A 
HETATM    4  N2  UNL     1      -5.668   3.264   1.145  1.00  0.00    -0.273 N 
ATOM      5  H2  UNL     1      -4.866   2.633   1.138  1.00  0.00     0.188 HD
HETATM    6  N3  UNL     1      -6.408   3.388   0.057  1.00  0.00    -0.130 N 
ATOM      7  H3  UNL     1      -6.151   2.842  -0.767  1.00  0.00     0.205 HD
HETATM    8  C3  UNL     1      -7.479   4.193  -0.022  1.00  0.00     0.713 A 
HETATM    9  N10 UNL     1      -7.801   4.902   1.068  1.00  0.00    -0.171 N 
ATOM     10  H10 UNL     1      -8.608   5.525   1.048  1.00  0.00     0.186 HD
HETATM   11  C6  UNL     1      -7.051   4.792   2.207  1.00  0.00     0.154 A 
HETATM   12  N11 UNL     1      -7.350   5.466   3.258  1.00  0.00    -0.383 N 
ATOM     13 1H11 UNL     1      -8.161   6.085   3.219  1.00  0.00     0.157 HD
ATOM     14 2H11 UNL     1      -6.791   5.384   4.107  1.00  0.00     0.157 HD
ENDROOT
BRANCH   8  15
HETATM   15  N4  UNL     1      -8.177   4.277  -1.129  1.00  0.00    -0.130 N 
ATOM     16  H4  UNL     1      -8.176   5.132  -1.686  1.00  0.00     0.205 HD
BRANCH  15  17
HETATM   17  N5  UNL     1      -8.923   3.162  -1.523  1.00  0.00    -0.281 N 
ATOM     18  H5  UNL     1      -8.570   2.591  -2.291  1.00  0.00     0.188 HD
BRANCH  17  19
HETATM   19  C4  UNL     1     -10.147   2.783  -0.912  1.00  0.00     0.214 C 
HETATM   20  N6  UNL     1     -10.217   1.680  -0.288  1.00  0.00    -0.293 N 
ATOM     21  H6  UNL     1     -11.102   1.420   0.147  1.00  0.00     0.187 HD
BRANCH  20  22
HETATM   22  N7  UNL     1      -9.131   0.806  -0.172  1.00  0.00    -0.273 N 
HETATM   23  C5  UNL     1      -8.644   0.472   1.120  1.00  0.00     0.200 C 
HETATM   24  N8  UNL     1      -9.427   0.028   2.046  1.00  0.00    -0.372 N 
HETATM   25  N9  UNL     1      -7.253   0.616   1.451  1.00  0.00    -0.062 NA
ATOM     26  H82 UNL     1     -10.414  -0.074   1.811  1.00  0.00     0.158 HD
ATOM     27  H81 UNL     1      -9.077  -0.212   2.974  1.00  0.00     0.158 HD
ATOM     28  H7  UNL     1      -8.695   0.413  -1.006  1.00  0.00     0.189 HD
ENDBRANCH  20  22
ENDBRANCH  17  19
ENDBRANCH  15  17
ENDBRANCH   8  15
TORSDOF 4
ENDMDL
MODEL 2
REMARK VINA RESULT: -6.071542660      1.023      1.871
REMARK  4 active torsions:
REMARK  status: ('A' for Active; 'I' for Inactive)
REMARK    1  A    between atoms: C3_8  and  N4_9 
REMARK    2  A    between atoms: N4_9  and  N5_11 
REMARK    3  A    between atoms: N5_11  and  C4_13 
REMARK    4  A    between atoms: N6_14  and  N7_16 
REMARK       I    between atoms: N7_16  and  C5_18 
ROOT
HETATM    1  N1  UNL     1      -4.593   3.963   4.577  1.00  0.00    -0.190 NA
HETATM    2  C1  UNL     1      -5.254   4.061   3.629  1.00  0.00     0.123 C 
HETATM    3  C2  UNL     1      -6.064   4.191   2.437  1.00  0.00     0.173 A 
HETATM    4  N2  UNL     1      -6.959   5.183   2.298  1.00  0.00    -0.273 N 
ATOM      5  H2  UNL     1      -7.074   5.865   3.049  1.00  0.00     0.188 HD
HETATM    6  N3  UNL     1      -7.694   5.291   1.205  1.00  0.00    -0.130 N 
ATOM      7  H3  UNL     1      -8.361   6.062   1.144  1.00  0.00     0.205 HD
HETATM    8  C3  UNL     1      -7.608   4.442   0.169  1.00  0.00     0.713 A 
HETATM    9  N10 UNL     1      -6.728   3.436   0.265  1.00  0.00    -0.171 N 
ATOM     10  H10 UNL     1      -6.632   2.769  -0.501  1.00  0.00     0.186 HD
HETATM   11  C6  UNL     1      -5.956   3.302   1.387  1.00  0.00     0.154 A 
HETATM   12  N11 UNL     1      -5.108   2.343   1.491  1.00  0.00    -0.383 N 
ATOM     13 1H11 UNL     1      -5.028   1.686   0.715  1.00  0.00     0.157 HD
ATOM     14 2H11 UNL     1      -4.533   2.243   2.328  1.00  0.00     0.157 HD
ENDROOT
BRANCH   8  15
HETATM   15  N4  UNL     1      -8.362   4.596  -0.892  1.00  0.00    -0.130 N 
ATOM     16  H4  UNL     1      -7.988   5.008  -1.747  1.00  0.00     0.205 HD
BRANCH  15  17
HETATM   17  N5  UNL     1      -9.696   4.180  -0.819  1.00  0.00    -0.281 N 
ATOM     18  H5  UNL     1     -10.275   4.266  -1.653  1.00  0.00     0.188 HD
BRANCH  17  19
HETATM   19  C4  UNL     1     -10.285   3.645   0.357  1.00  0.00     0.214 C 
HETATM   20  N6  UNL     1     -10.368   2.386   0.495  1.00  0.00    -0.293 N 
ATOM     21  H6  UNL     1     -10.793   2.014   1.345  1.00  0.00     0.187 HD
BRANCH  20  22
HETATM   22  N7  UNL     1      -9.902   1.486  -0.469  1.00  0.00    -0.273 N 
HETATM   23  C5  UNL     1      -8.631   0.876  -0.291  1.00  0.00     0.200 C 
HETATM   24  N8  UNL     1      -8.321   0.261   0.801  1.00  0.00    -0.372 N 
HETATM   25  N9  UNL     1      -7.632   0.920  -1.324  1.00  0.00    -0.062 NA
ATOM     26  H82 UNL     1      -9.029   0.230   1.534  1.00  0.00     0.158 HD
ATOM     27  H81 UNL     1      -7.408  -0.177   0.929  1.00  0.00     0.158 HD
ATOM     28  H7  UNL     1     -10.467   1.271  -1.290  1.00  0.00     0.189 HD
ENDBRANCH  20  22
ENDBRANCH  17  19
ENDBRANCH  15  17
ENDBRANCH   8  15
TORSDOF 4
ENDMDL
MODEL 3
REMARK VINA RESULT: -6.036250113      1.187      1.479
REMARK  4 active torsions:
REMARK  status: ('A' for Active; 'I' for Inactive)
REMARK    1  A    between atoms: C3_8  and  N4_9 
REMARK    2  A    between atoms: N4_9  and  N5_11 
REMARK    3  A    between atoms: N5_11  and  C4_13 
REMARK    4  A    between atoms: N6_14  and  N7_16 
REMARK       I    between atoms: N7_16  and  C5_18 
ROOT
HETATM    1  N1  UNL     1      -4.257   1.752   4.659  1.00  0.00    -0.190 NA
HETATM    2  C1  UNL     1      -4.855   2.281   3.817  1.00  0.00     0.123 C 
HETATM    3  C2  UNL     1      -5.612   2.927   2.768  1.00  0.00     0.173 A 
HETATM    4  N2  UNL     1      -5.195   2.917   1.490  1.00  0.00    -0.273 N 
ATOM      5  H2  UNL     1      -4.324   2.443   1.250  1.00  0.00     0.188 HD
HETATM    6  N3  UNL     1      -5.896   3.511   0.539  1.00  0.00    -0.130 N 
ATOM      7  H3  UNL     1      -5.540   3.477  -0.417  1.00  0.00     0.205 HD
HETATM    8  C3  UNL     1      -7.052   4.155   0.765  1.00  0.00     0.713 A 
HETATM    9  N10 UNL     1      -7.505   4.190   2.025  1.00  0.00    -0.171 N 
ATOM     10  H10 UNL     1      -8.380   4.669   2.238  1.00  0.00     0.186 HD
HETATM   11  C6  UNL     1      -6.798   3.583   3.028  1.00  0.00     0.154 A 
HETATM   12  N11 UNL     1      -7.222   3.609   4.240  1.00  0.00    -0.383 N 
ATOM     13 1H11 UNL     1      -8.098   4.095   4.432  1.00  0.00     0.157 HD
ATOM     14 2H11 UNL     1      -6.694   3.157   4.987  1.00  0.00     0.157 HD
ENDROOT
BRANCH   8  15
HETATM   15  N4  UNL     1      -7.706   4.727  -0.217  1.00  0.00    -0.130 N 
ATOM     16  H4  UNL     1      -7.339   5.560  -0.677  1.00  0.00     0.205 HD
BRANCH  15  17
HETATM   17  N5  UNL     1      -8.922   4.162  -0.615  1.00  0.00    -0.281 N 
ATOM     18  H5  UNL     1      -9.785   4.567  -0.252  1.00  0.00     0.188 HD
BRANCH  17  19
HETATM   19  C4  UNL     1      -9.018   3.054  -1.498  1.00  0.00     0.214 C 
HETATM   20  N6  UNL     1      -9.364   1.922  -1.042  1.00  0.00    -0.293 N 
ATOM     21  H6  UNL     1      -9.429   1.134  -1.687  1.00  0.00     0.187 HD
BRANCH  20  22
HETATM   22  N7  UNL     1      -9.658   1.708   0.309  1.00  0.00    -0.273 N 
HETATM   23  C5  UNL     1      -9.021   0.641   0.997  1.00  0.00     0.200 C 
HETATM   24  N8  UNL     1      -7.736   0.502   0.992  1.00  0.00    -0.372 N 
HETATM   25  N9  UNL     1      -9.782  -0.333   1.730  1.00  0.00    -0.062 NA
ATOM     26  H82 UNL     1      -7.196   1.192   0.472  1.00  0.00     0.158 HD
ATOM     27  H81 UNL     1      -7.279  -0.265   1.486  1.00  0.00     0.158 HD
ATOM     28  H7  UNL     1     -10.322   2.311   0.794  1.00  0.00     0.189 HD
ENDBRANCH  20  22
ENDBRANCH  17  19
ENDBRANCH  15  17
ENDBRANCH   8  15
TORSDOF 4
ENDMDL
MODEL 4
REMARK VINA RESULT: -5.921922223      1.875      4.112
REMARK  4 active torsions:
REMARK  status: ('A' for Active; 'I' for Inactive)
REMARK    1  A    between atoms: C3_8  and  N4_9 
REMARK    2  A    between atoms: N4_9  and  N5_11 
REMARK    3  A    between atoms: N5_11  and  C4_13 
REMARK    4  A    between atoms: N6_14  and  N7_16 
REMARK       I    between atoms: N7_16  and  C5_18 
ROOT
HETATM    1  N1  UNL     1      -4.117   1.921   6.782  1.00  0.00    -0.190 NA
HETATM    2  C1  UNL     1      -4.619   1.847   5.738  1.00  0.00     0.123 C 
HETATM    3  C2  UNL     1      -5.258   1.766   4.443  1.00  0.00     0.173 A 
HETATM    4  N2  UNL     1      -6.052   0.733   4.112  1.00  0.00    -0.273 N 
ATOM      5  H2  UNL     1      -6.211  -0.014   4.788  1.00  0.00     0.188 HD
HETATM    6  N3  UNL     1      -6.630   0.670   2.925  1.00  0.00    -0.130 N 
ATOM      7  H3  UNL     1      -7.225  -0.133   2.719  1.00  0.00     0.205 HD
HETATM    8  C3  UNL     1      -6.477   1.608   1.977  1.00  0.00     0.713 A 
HETATM    9  N10 UNL     1      -5.693   2.656   2.265  1.00  0.00    -0.171 N 
ATOM     10  H10 UNL     1      -5.551   3.390   1.571  1.00  0.00     0.186 HD
HETATM   11  C6  UNL     1      -5.082   2.744   3.486  1.00  0.00     0.154 A 
HETATM   12  N11 UNL     1      -4.329   3.744   3.773  1.00  0.00    -0.383 N 
ATOM     13 1H11 UNL     1      -4.199   4.467   3.066  1.00  0.00     0.157 HD
ATOM     14 2H11 UNL     1      -3.874   3.809   4.684  1.00  0.00     0.157 HD
ENDROOT
BRANCH   8  15
HETATM   15  N4  UNL     1      -7.074   1.495   0.816  1.00  0.00    -0.130 N 
ATOM     16  H4  UNL     1      -6.850   0.728   0.182  1.00  0.00     0.205 HD
BRANCH  15  17
HETATM   17  N5  UNL     1      -8.029   2.457   0.470  1.00  0.00    -0.281 N 
ATOM     18  H5  UNL     1      -8.938   2.422   0.930  1.00  0.00     0.188 HD
BRANCH  17  19
HETATM   19  C4  UNL     1      -7.799   3.478  -0.489  1.00  0.00     0.214 C 
HETATM   20  N6  UNL     1      -7.806   4.693  -0.120  1.00  0.00    -0.293 N 
ATOM     21  H6  UNL     1      -7.639   5.417  -0.818  1.00  0.00     0.187 HD
BRANCH  20  22
HETATM   22  N7  UNL     1      -8.034   5.080   1.205  1.00  0.00    -0.273 N 
HETATM   23  C5  UNL     1      -7.215   6.086   1.784  1.00  0.00     0.200 C 
HETATM   24  N8  UNL     1      -7.040   7.231   1.212  1.00  0.00    -0.372 N 
HETATM   25  N9  UNL     1      -6.543   5.870   3.037  1.00  0.00    -0.062 NA
ATOM     26  H82 UNL     1      -7.516   7.384   0.323  1.00  0.00     0.158 HD
ATOM     27  H81 UNL     1      -6.452   7.953   1.628  1.00  0.00     0.158 HD
ATOM     28  H7  UNL     1      -8.779   4.644   1.748  1.00  0.00     0.189 HD
ENDBRANCH  20  22
ENDBRANCH  17  19
ENDBRANCH  15  17
ENDBRANCH   8  15
TORSDOF 4
ENDMDL
MODEL 5
REMARK VINA RESULT: -5.901069895      1.776      5.318
REMARK  4 active torsions:
REMARK  status: ('A' for Active; 'I' for Inactive)
REMARK    1  A    between atoms: C3_8  and  N4_9 
REMARK    2  A    between atoms: N4_9  and  N5_11 
REMARK    3  A    between atoms: N5_11  and  C4_13 
REMARK    4  A    between atoms: N6_14  and  N7_16 
REMARK       I    between atoms: N7_16  and  C5_18 
ROOT
HETATM    1  N1  UNL     1     -12.433   4.464  -0.677  1.00  0.00    -0.190 NA
HETATM    2  C1  UNL     1     -11.312   4.171  -0.624  1.00  0.00     0.123 C 
HETATM    3  C2  UNL     1      -9.917   3.797  -0.542  1.00  0.00     0.173 A 
HETATM    4  N2  UNL     1      -8.964   4.694  -0.236  1.00  0.00    -0.273 N 
ATOM      5  H2  UNL     1      -9.227   5.664  -0.056  1.00  0.00     0.188 HD
HETATM    6  N3  UNL     1      -7.692   4.341  -0.163  1.00  0.00    -0.130 N 
ATOM      7  H3  UNL     1      -7.004   5.056   0.073  1.00  0.00     0.205 HD
HETATM    8  C3  UNL     1      -7.259   3.090  -0.384  1.00  0.00     0.713 A 
HETATM    9  N10 UNL     1      -8.176   2.163  -0.692  1.00  0.00    -0.171 N 
ATOM     10  H10 UNL     1      -7.886   1.200  -0.867  1.00  0.00     0.186 HD
HETATM   11  C6  UNL     1      -9.498   2.503  -0.774  1.00  0.00     0.154 A 
HETATM   12  N11 UNL     1     -10.387   1.623  -1.068  1.00  0.00    -0.383 N 
ATOM     13 1H11 UNL     1     -10.077   0.666  -1.240  1.00  0.00     0.157 HD
ATOM     14 2H11 UNL     1     -11.373   1.878  -1.129  1.00  0.00     0.157 HD
ENDROOT
BRANCH   8  15
HETATM   15  N4  UNL     1      -5.984   2.795  -0.299  1.00  0.00    -0.130 N 
ATOM     16  H4  UNL     1      -5.477   2.421  -1.102  1.00  0.00     0.205 HD
BRANCH  15  17
HETATM   17  N5  UNL     1      -5.339   3.006   0.924  1.00  0.00    -0.281 N 
ATOM     18  H5  UNL     1      -4.521   3.615   0.940  1.00  0.00     0.188 HD
BRANCH  17  19
HETATM   19  C4  UNL     1      -5.763   2.417   2.144  1.00  0.00     0.214 C 
HETATM   20  N6  UNL     1      -5.974   3.158   3.153  1.00  0.00    -0.293 N 
ATOM     21  H6  UNL     1      -6.279   2.722   4.024  1.00  0.00     0.187 HD
BRANCH  20  22
HETATM   22  N7  UNL     1      -5.806   4.546   3.122  1.00  0.00    -0.273 N 
HETATM   23  C5  UNL     1      -6.953   5.382   3.061  1.00  0.00     0.200 C 
HETATM   24  N8  UNL     1      -7.925   5.263   3.905  1.00  0.00    -0.372 N 
HETATM   25  N9  UNL     1      -7.082   6.399   2.054  1.00  0.00    -0.062 NA
ATOM     26  H82 UNL     1      -7.834   4.541   4.620  1.00  0.00     0.158 HD
ATOM     27  H81 UNL     1      -8.748   5.863   3.862  1.00  0.00     0.158 HD
ATOM     28  H7  UNL     1      -4.872   4.953   3.141  1.00  0.00     0.189 HD
ENDBRANCH  20  22
ENDBRANCH  17  19
ENDBRANCH  15  17
ENDBRANCH   8  15
TORSDOF 4
ENDMDL
