MODEL 1
REMARK VINA RESULT: -5.397914171      0.000      0.000
REMARK  4 active torsions:
REMARK  status: ('A' for Active; 'I' for Inactive)
REMARK    1  A    between atoms: N1_1  and  C1_4 
REMARK    2  A    between atoms: N3_8  and  C3_10 
REMARK    3  A    between atoms: C3_10  and  C4_11 
REMARK    4  A    between atoms: C4_11  and  N4_12 
REMARK       I    between atoms: N7_23  and  C8_24 
REMARK       I    between atoms: C8_24  and  N8_25 
REMARK       I    between atoms: C8_24  and  N9_29 
ROOT
HETATM    1  C1  UNL     1      -6.801   3.240   0.029  1.00  0.00     0.145 A 
HETATM    2  N2  UNL     1      -6.295   2.712   1.131  1.00  0.00    -0.175 N 
ATOM      3  H2  UNL     1      -5.295   2.513   1.158  1.00  0.00     0.186 HD
HETATM    4  C2  UNL     1      -7.027   2.428   2.207  1.00  0.00     0.681 A 
HETATM    5  N3  UNL     1      -6.543   1.914   3.283  1.00  0.00    -0.224 N 
ATOM      6  H3  UNL     1      -7.196   1.737   4.046  1.00  0.00     0.177 HD
HETATM    7  N5  UNL     1      -8.347   2.683   2.190  1.00  0.00    -0.174 N 
ATOM      8  H5  UNL     1      -8.914   2.467   3.010  1.00  0.00     0.186 HD
HETATM    9  C5  UNL     1      -8.934   3.225   1.088  1.00  0.00     0.158 A 
HETATM   10  C6  UNL     1      -8.161   3.515  -0.018  1.00  0.00     0.123 A 
HETATM   11  N6  UNL     1      -8.951   4.041  -0.982  1.00  0.00    -0.346 N 
ATOM     12  H6  UNL     1      -8.661   4.350  -1.910  1.00  0.00     0.167 HD
HETATM   13  C7  UNL     1     -10.186   4.075  -0.477  1.00  0.00     0.189 A 
HETATM   14  N7  UNL     1     -10.183   3.583   0.774  1.00  0.00    -0.276 N 
HETATM   15  C8  UNL     1     -11.347   3.472   1.614  1.00  0.00     0.489 C 
HETATM   16  N8  UNL     1     -11.787   2.094   1.702  1.00  0.00    -0.032 N 
ATOM     17  H81 UNL     1     -12.612   2.015   2.297  1.00  0.00     0.279 HD
ATOM     18  H82 UNL     1     -11.037   1.477   2.014  1.00  0.00     0.279 HD
ATOM     19  H83 UNL     1     -11.947   1.688   0.780  1.00  0.00     0.279 HD
HETATM   20  N9  UNL     1     -12.458   4.248   1.118  1.00  0.00    -0.032 N 
ATOM     21  H91 UNL     1     -13.283   4.170   1.713  1.00  0.00     0.279 HD
ATOM     22  H92 UNL     1     -12.676   4.002   0.152  1.00  0.00     0.279 HD
ATOM     23  H93 UNL     1     -12.194   5.224   0.983  1.00  0.00     0.279 HD
ENDROOT
BRANCH   1  24
HETATM   24  N1  UNL     1      -6.064   3.500  -0.985  1.00  0.00    -0.383 N 
ATOM     25  H12 UNL     1      -5.248   2.920  -1.180  1.00  0.00     0.157 HD
ATOM     26  H11 UNL     1      -6.275   4.279  -1.609  1.00  0.00     0.157 HD
ENDBRANCH   1  24
BRANCH   5  27
HETATM   27  C3  UNL     1      -5.180   1.571   3.506  1.00  0.00     0.165 C 
BRANCH  27  28
HETATM   28  C4  UNL     1      -4.540   2.524   4.523  1.00  0.00     0.249 C 
BRANCH  28  29
HETATM   29  N4  UNL     1      -4.195   3.767   3.891  1.00  0.00    -0.078 N 
ATOM     30  H43 UNL     1      -4.358   3.741   2.884  1.00  0.00     0.274 HD
ATOM     31  H42 UNL     1      -4.852   4.511   4.130  1.00  0.00     0.274 HD
ATOM     32  H41 UNL     1      -3.233   4.022   4.114  1.00  0.00     0.274 HD
ENDBRANCH  28  29
ENDBRANCH  27  28
ENDBRANCH   5  27
TORSDOF 4
ENDMDL
MODEL 2
REMARK VINA RESULT: -5.364283330      2.283      5.277
REMARK  4 active torsions:
REMARK  status: ('A' for Active; 'I' for Inactive)
REMARK    1  A    between atoms: N1_1  and  C1_4 
REMARK    2  A    between atoms: N3_8  and  C3_10 
REMARK    3  A    between atoms: C3_10  and  C4_11 
REMARK    4  A    between atoms: C4_11  and  N4_12 
REMARK       I    between atoms: N7_23  and  C8_24 
REMARK       I    between atoms: C8_24  and  N8_25 
REMARK       I    between atoms: C8_24  and  N9_29 
ROOT
HETATM    1  C1  UNL     1      -8.433   4.177  -0.105  1.00  0.00     0.145 A 
HETATM    2  N2  UNL     1      -9.218   4.892   0.683  1.00  0.00    -0.175 N 
ATOM      3  H2  UNL     1     -10.011   5.379   0.266  1.00  0.00     0.186 HD
HETATM    4  C2  UNL     1      -9.023   5.008   1.995  1.00  0.00     0.681 A 
HETATM    5  N3  UNL     1      -9.781   5.702   2.770  1.00  0.00    -0.224 N 
ATOM      6  H3  UNL     1      -9.538   5.722   3.760  1.00  0.00     0.177 HD
HETATM    7  N5  UNL     1      -7.982   4.375   2.564  1.00  0.00    -0.174 N 
ATOM      8  H5  UNL     1      -7.827   4.460   3.568  1.00  0.00     0.186 HD
HETATM    9  C5  UNL     1      -7.134   3.622   1.811  1.00  0.00     0.158 A 
HETATM   10  C6  UNL     1      -7.351   3.511   0.452  1.00  0.00     0.123 A 
HETATM   11  N6  UNL     1      -6.392   2.722  -0.083  1.00  0.00    -0.346 N 
ATOM     12  H6  UNL     1      -6.293   2.460  -1.064  1.00  0.00     0.167 HD
HETATM   13  C7  UNL     1      -5.602   2.354   0.927  1.00  0.00     0.189 A 
HETATM   14  N7  UNL     1      -6.045   2.895   2.076  1.00  0.00    -0.276 N 
HETATM   15  C8  UNL     1      -5.428   2.704   3.362  1.00  0.00     0.489 C 
HETATM   16  N8  UNL     1      -4.705   3.894   3.766  1.00  0.00    -0.032 N 
ATOM     17  H81 UNL     1      -4.267   3.759   4.678  1.00  0.00     0.279 HD
ATOM     18  H82 UNL     1      -5.302   4.721   3.752  1.00  0.00     0.279 HD
ATOM     19  H83 UNL     1      -4.026   4.181   3.061  1.00  0.00     0.279 HD
HETATM   20  N9  UNL     1      -4.489   1.608   3.365  1.00  0.00    -0.032 N 
ATOM     21  H91 UNL     1      -4.052   1.473   4.277  1.00  0.00     0.279 HD
ATOM     22  H92 UNL     1      -3.787   1.723   2.634  1.00  0.00     0.279 HD
ATOM     23  H93 UNL     1      -4.928   0.747   3.037  1.00  0.00     0.279 HD
ENDROOT
BRANCH   1  24
HETATM   24  N1  UNL     1      -8.654   4.089  -1.363  1.00  0.00    -0.383 N 
ATOM     25  H12 UNL     1      -9.274   4.761  -1.817  1.00  0.00     0.157 HD
ATOM     26  H11 UNL     1      -8.223   3.358  -1.929  1.00  0.00     0.157 HD
ENDBRANCH   1  24
BRANCH   5  27
HETATM   27  C3  UNL     1     -10.929   6.445   2.372  1.00  0.00     0.165 C 
BRANCH  27  28
HETATM   28  C4  UNL     1     -10.691   7.949   2.555  1.00  0.00     0.249 C 
BRANCH  28  29
HETATM   29  N4  UNL     1      -9.349   8.291   2.172  1.00  0.00    -0.078 N 
ATOM     30  H43 UNL     1      -8.660   7.930   2.833  1.00  0.00     0.274 HD
ATOM     31  H42 UNL     1      -9.047   7.777   1.344  1.00  0.00     0.274 HD
ATOM     32  H41 UNL     1      -9.263   9.300   2.047  1.00  0.00     0.274 HD
ENDBRANCH  28  29
ENDBRANCH  27  28
ENDBRANCH   5  27
TORSDOF 4
ENDMDL
MODEL 3
REMARK VINA RESULT: -5.302131239      1.956      5.999
REMARK  4 active torsions:
REMARK  status: ('A' for Active; 'I' for Inactive)
REMARK    1  A    between atoms: N1_1  and  C1_4 
REMARK    2  A    between atoms: N3_8  and  C3_10 
REMARK    3  A    between atoms: C3_10  and  C4_11 
REMARK    4  A    between atoms: C4_11  and  N4_12 
REMARK       I    between atoms: N7_23  and  C8_24 
REMARK       I    between atoms: C8_24  and  N8_25 
REMARK       I    between atoms: C8_24  and  N9_29 
ROOT
HETATM    1  C1  UNL     1     -10.979   2.388   1.674  1.00  0.00     0.145 A 
HETATM    2  N2  UNL     1     -11.507   3.524   1.250  1.00  0.00    -0.175 N 
ATOM      3  H2  UNL     1     -12.518   3.639   1.305  1.00  0.00     0.186 HD
HETATM    4  C2  UNL     1     -10.782   4.526   0.755  1.00  0.00     0.681 A 
HETATM    5  N3  UNL     1     -11.287   5.635   0.341  1.00  0.00    -0.224 N 
ATOM      6  H3  UNL     1     -10.638   6.334  -0.020  1.00  0.00     0.177 HD
HETATM    7  N5  UNL     1      -9.446   4.393   0.674  1.00  0.00    -0.174 N 
ATOM      8  H5  UNL     1      -8.885   5.156   0.296  1.00  0.00     0.186 HD
HETATM    9  C5  UNL     1      -8.837   3.250   1.092  1.00  0.00     0.158 A 
HETATM   10  C6  UNL     1      -9.603   2.222   1.603  1.00  0.00     0.123 A 
HETATM   11  N6  UNL     1      -8.790   1.198   1.950  1.00  0.00    -0.346 N 
ATOM     12  H6  UNL     1      -9.070   0.304   2.353  1.00  0.00     0.167 HD
HETATM   13  C7  UNL     1      -7.548   1.591   1.657  1.00  0.00     0.189 A 
HETATM   14  N7  UNL     1      -7.569   2.830   1.138  1.00  0.00    -0.276 N 
HETATM   15  C8  UNL     1      -6.404   3.560   0.712  1.00  0.00     0.489 C 
HETATM   16  N8  UNL     1      -6.317   3.591  -0.734  1.00  0.00    -0.032 N 
ATOM     17  H81 UNL     1      -5.491   4.108  -1.036  1.00  0.00     0.279 HD
ATOM     18  H82 UNL     1      -7.170   3.961  -1.155  1.00  0.00     0.279 HD
ATOM     19  H83 UNL     1      -6.343   2.652  -1.134  1.00  0.00     0.279 HD
HETATM   20  N9  UNL     1      -5.179   2.976   1.205  1.00  0.00    -0.032 N 
ATOM     21  H91 UNL     1      -4.353   3.493   0.903  1.00  0.00     0.279 HD
ATOM     22  H92 UNL     1      -5.111   1.992   0.946  1.00  0.00     0.279 HD
ATOM     23  H93 UNL     1      -5.200   2.878   2.220  1.00  0.00     0.279 HD
ENDROOT
BRANCH   1  24
HETATM   24  N1  UNL     1     -11.710   1.448   2.144  1.00  0.00    -0.383 N 
ATOM     25  H12 UNL     1     -12.695   1.623   2.341  1.00  0.00     0.157 HD
ATOM     26  H11 UNL     1     -11.328   0.521   2.329  1.00  0.00     0.157 HD
ENDBRANCH   1  24
BRANCH   5  27
HETATM   27  C3  UNL     1     -12.669   5.975   0.340  1.00  0.00     0.165 C 
BRANCH  27  28
HETATM   28  C4  UNL     1     -12.856   7.486   0.531  1.00  0.00     0.249 C 
BRANCH  28  29
HETATM   29  N4  UNL     1     -11.581   8.125   0.707  1.00  0.00    -0.078 N 
ATOM     30  H43 UNL     1     -11.468   8.497   1.650  1.00  0.00     0.274 HD
ATOM     31  H42 UNL     1     -10.815   7.451   0.717  1.00  0.00     0.274 HD
ATOM     32  H41 UNL     1     -11.446   8.845  -0.004  1.00  0.00     0.274 HD
ENDBRANCH  28  29
ENDBRANCH  27  28
ENDBRANCH   5  27
TORSDOF 4
ENDMDL
MODEL 4
REMARK VINA RESULT: -5.271144617      1.877      5.609
REMARK  4 active torsions:
REMARK  status: ('A' for Active; 'I' for Inactive)
REMARK    1  A    between atoms: N1_1  and  C1_4 
REMARK    2  A    between atoms: N3_8  and  C3_10 
REMARK    3  A    between atoms: C3_10  and  C4_11 
REMARK    4  A    between atoms: C4_11  and  N4_12 
REMARK       I    between atoms: N7_23  and  C8_24 
REMARK       I    between atoms: C8_24  and  N8_25 
REMARK       I    between atoms: C8_24  and  N9_29 
ROOT
HETATM    1  C1  UNL     1      -7.450   5.119   1.376  1.00  0.00     0.145 A 
HETATM    2  N2  UNL     1      -7.996   4.359   0.442  1.00  0.00    -0.175 N 
ATOM      3  H2  UNL     1      -8.601   4.801  -0.250  1.00  0.00     0.186 HD
HETATM    4  C2  UNL     1      -7.796   3.045   0.360  1.00  0.00     0.681 A 
HETATM    5  N3  UNL     1      -8.323   2.298  -0.546  1.00  0.00    -0.224 N 
ATOM      6  H3  UNL     1      -8.102   1.303  -0.513  1.00  0.00     0.177 HD
HETATM    7  N5  UNL     1      -7.002   2.444   1.264  1.00  0.00    -0.174 N 
ATOM      8  H5  UNL     1      -6.844   1.438   1.208  1.00  0.00     0.186 HD
HETATM    9  C5  UNL     1      -6.407   3.166   2.253  1.00  0.00     0.158 A 
HETATM   10  C6  UNL     1      -6.626   4.527   2.323  1.00  0.00     0.123 A 
HETATM   11  N6  UNL     1      -5.941   5.029   3.376  1.00  0.00    -0.346 N 
ATOM     12  H6  UNL     1      -5.910   6.002   3.678  1.00  0.00     0.167 HD
HETATM   13  C7  UNL     1      -5.313   3.995   3.941  1.00  0.00     0.189 A 
HETATM   14  N7  UNL     1      -5.591   2.866   3.267  1.00  0.00    -0.276 N 
HETATM   15  C8  UNL     1      -5.080   1.563   3.606  1.00  0.00     0.489 C 
HETATM   16  N8  UNL     1      -6.110   0.751   4.223  1.00  0.00    -0.032 N 
ATOM     17  H81 UNL     1      -5.747  -0.172   4.463  1.00  0.00     0.279 HD
ATOM     18  H82 UNL     1      -6.943   0.690   3.638  1.00  0.00     0.279 HD
ATOM     19  H83 UNL     1      -6.523   1.217   5.032  1.00  0.00     0.279 HD
HETATM   20  N9  UNL     1      -3.972   1.630   4.529  1.00  0.00    -0.032 N 
ATOM     21  H91 UNL     1      -3.610   0.707   4.769  1.00  0.00     0.279 HD
ATOM     22  H92 UNL     1      -4.224   2.155   5.366  1.00  0.00     0.279 HD
ATOM     23  H93 UNL     1      -3.232   2.234   4.172  1.00  0.00     0.279 HD
ENDROOT
BRANCH   1  24
HETATM   24  N1  UNL     1      -7.667   6.380   1.421  1.00  0.00    -0.383 N 
ATOM     25  H12 UNL     1      -8.599   6.726   1.650  1.00  0.00     0.157 HD
ATOM     26  H11 UNL     1      -6.925   7.053   1.232  1.00  0.00     0.157 HD
ENDBRANCH   1  24
BRANCH   5  27
HETATM   27  C3  UNL     1      -9.188   2.733  -1.589  1.00  0.00     0.165 C 
BRANCH  27  28
HETATM   28  C4  UNL     1     -10.644   2.366  -1.275  1.00  0.00     0.249 C 
BRANCH  28  29
HETATM   29  N4  UNL     1     -11.337   3.501  -0.731  1.00  0.00    -0.078 N 
ATOM     30  H43 UNL     1     -10.699   4.156  -0.280  1.00  0.00     0.274 HD
ATOM     31  H42 UNL     1     -11.692   4.116  -1.463  1.00  0.00     0.274 HD
ATOM     32  H41 UNL     1     -12.076   3.194  -0.099  1.00  0.00     0.274 HD
ENDBRANCH  28  29
ENDBRANCH  27  28
ENDBRANCH   5  27
TORSDOF 4
ENDMDL
MODEL 5
REMARK VINA RESULT: -5.215154873      1.527      5.252
REMARK  4 active torsions:
REMARK  status: ('A' for Active; 'I' for Inactive)
REMARK    1  A    between atoms: N1_1  and  C1_4 
REMARK    2  A    between atoms: N3_8  and  C3_10 
REMARK    3  A    between atoms: C3_10  and  C4_11 
REMARK    4  A    between atoms: C4_11  and  N4_12 
REMARK       I    between atoms: N7_23  and  C8_24 
REMARK       I    between atoms: C8_24  and  N8_25 
REMARK       I    between atoms: C8_24  and  N9_29 
ROOT
HETATM    1  C1  UNL     1      -6.872   2.980  -0.129  1.00  0.00     0.145 A 
HETATM    2  N2  UNL     1      -8.161   2.839  -0.391  1.00  0.00    -0.175 N 
ATOM      3  H2  UNL     1      -8.507   3.143  -1.301  1.00  0.00     0.186 HD
HETATM    4  C2  UNL     1      -9.029   2.318   0.475  1.00  0.00     0.681 A 
HETATM    5  N3  UNL     1     -10.284   2.177   0.228  1.00  0.00    -0.224 N 
ATOM      6  H3  UNL     1     -10.858   1.766   0.964  1.00  0.00     0.177 HD
HETATM    7  N5  UNL     1      -8.591   1.912   1.680  1.00  0.00    -0.174 N 
ATOM      8  H5  UNL     1      -9.250   1.513   2.347  1.00  0.00     0.186 HD
HETATM    9  C5  UNL     1      -7.277   2.029   2.016  1.00  0.00     0.158 A 
HETATM   10  C6  UNL     1      -6.391   2.570   1.106  1.00  0.00     0.123 A 
HETATM   11  N6  UNL     1      -5.154   2.586   1.654  1.00  0.00    -0.346 N 
ATOM     12  H6  UNL     1      -4.298   2.930   1.220  1.00  0.00     0.167 HD
HETATM   13  C7  UNL     1      -5.279   2.065   2.876  1.00  0.00     0.189 A 
HETATM   14  N7  UNL     1      -6.560   1.726   3.101  1.00  0.00    -0.276 N 
HETATM   15  C8  UNL     1      -7.049   1.135   4.320  1.00  0.00     0.489 C 
HETATM   16  N8  UNL     1      -7.783   2.108   5.104  1.00  0.00    -0.032 N 
ATOM     17  H81 UNL     1      -8.130   1.690   5.967  1.00  0.00     0.279 HD
ATOM     18  H82 UNL     1      -8.535   2.538   4.564  1.00  0.00     0.279 HD
ATOM     19  H83 UNL     1      -7.227   2.944   5.286  1.00  0.00     0.279 HD
HETATM   20  N9  UNL     1      -5.984   0.627   5.151  1.00  0.00    -0.032 N 
ATOM     21  H91 UNL     1      -6.330   0.209   6.014  1.00  0.00     0.279 HD
ATOM     22  H92 UNL     1      -5.292   1.352   5.345  1.00  0.00     0.279 HD
ATOM     23  H93 UNL     1      -5.395  -0.027   4.635  1.00  0.00     0.279 HD
ENDROOT
BRANCH   1  24
HETATM   24  N1  UNL     1      -6.069   3.485  -0.989  1.00  0.00    -0.383 N 
ATOM     25  H12 UNL     1      -5.070   3.289  -0.925  1.00  0.00     0.157 HD
ATOM     26  H11 UNL     1      -6.406   4.084  -1.742  1.00  0.00     0.157 HD
ENDBRANCH   1  24
BRANCH   5  27
HETATM   27  C3  UNL     1     -10.945   2.540  -0.979  1.00  0.00     0.165 C 
BRANCH  27  28
HETATM   28  C4  UNL     1     -11.938   3.683  -0.730  1.00  0.00     0.249 C 
BRANCH  28  29
HETATM   29  N4  UNL     1     -11.239   4.865  -0.306  1.00  0.00    -0.078 N 
ATOM     30  H43 UNL     1     -11.230   4.958   0.710  1.00  0.00     0.274 HD
ATOM     31  H42 UNL     1     -10.233   4.788  -0.460  1.00  0.00     0.274 HD
ATOM     32  H41 UNL     1     -11.632   5.689  -0.760  1.00  0.00     0.274 HD
ENDBRANCH  28  29
ENDBRANCH  27  28
ENDBRANCH   5  27
TORSDOF 4
ENDMDL
