MODEL 1
REMARK VINA RESULT: -7.348521685      0.000      0.000
REMARK  2 active torsions:
REMARK  status: ('A' for Active; 'I' for Inactive)
REMARK       I    between atoms: C1_4  and  N3_6 
REMARK    1  A    between atoms: N3_6  and  C2_8 
REMARK    2  A    between atoms: N7_14  and  N8_15 
ROOT
HETATM    1  C2  UNL     1     -12.682 -29.398 -27.761  1.00  0.00     0.735 A 
HETATM    2  N4  UNL     1     -12.028 -30.426 -27.157  1.00  0.00    -0.116 N 
ATOM      3  H4  UNL     1     -11.067 -30.722 -27.325  1.00  0.00     0.207 HD
HETATM    4  N5  UNL     1     -12.885 -30.965 -26.313  1.00  0.00    -0.210 N 
ATOM      5  H5  UNL     1     -12.685 -31.762 -25.709  1.00  0.00     0.206 HD
HETATM    6  N6  UNL     1     -14.039 -30.325 -26.361  1.00  0.00     0.034 NA
HETATM    7  N7  UNL     1     -13.922 -29.352 -27.255  1.00  0.00     0.013 N 
ENDROOT
BRANCH   1   8
HETATM    8  N3  UNL     1     -12.184 -28.606 -28.666  1.00  0.00    -0.160 N 
HETATM    9  C1  UNL     1     -10.900 -28.821 -29.194  1.00  0.00     0.200 C 
HETATM   10  N1  UNL     1      -9.826 -28.282 -28.701  1.00  0.00    -0.373 N 
HETATM   11  N2  UNL     1     -10.746 -29.669 -30.334  1.00  0.00    -0.063 NA
ATOM     12  H12 UNL     1      -8.894 -28.438 -29.084  1.00  0.00     0.158 HD
ATOM     13  H11 UNL     1      -9.935 -27.676 -27.887  1.00  0.00     0.158 HD
ATOM     14  H3  UNL     1     -12.735 -27.814 -28.998  1.00  0.00     0.187 HD
ENDBRANCH   1   8
BRANCH   7  15
HETATM   15  N8  UNL     1     -14.960 -28.467 -27.566  1.00  0.00    -0.095 N 
HETATM   16  C3  UNL     1     -16.128 -28.654 -27.071  1.00  0.00     0.728 A 
HETATM   17  N9  UNL     1     -17.388 -28.155 -27.038  1.00  0.00    -0.115 N 
HETATM   18  N10 UNL     1     -17.100 -29.260 -26.338  1.00  0.00    -0.115 N 
ATOM     19  H9  UNL     1     -18.064 -27.450 -27.332  1.00  0.00     0.206 HD
ATOM     20  H10 UNL     1     -17.395 -30.009 -25.712  1.00  0.00     0.206 HD
ATOM     21  H8  UNL     1     -14.787 -27.675 -28.185  1.00  0.00     0.208 HD
ENDBRANCH   7  15
TORSDOF 2
ENDMDL
MODEL 2
REMARK VINA RESULT: -7.033151221      2.574      3.815
REMARK  2 active torsions:
REMARK  status: ('A' for Active; 'I' for Inactive)
REMARK       I    between atoms: C1_4  and  N3_6 
REMARK    1  A    between atoms: N3_6  and  C2_8 
REMARK    2  A    between atoms: N7_14  and  N8_15 
ROOT
HETATM    1  C2  UNL     1      -9.934 -29.260 -28.223  1.00  0.00     0.735 A 
HETATM    2  N4  UNL     1     -10.060 -30.195 -29.202  1.00  0.00    -0.116 N 
ATOM      3  H4  UNL     1      -9.376 -30.906 -29.461  1.00  0.00     0.207 HD
HETATM    4  N5  UNL     1     -11.243 -30.000 -29.750  1.00  0.00    -0.210 N 
ATOM      5  H5  UNL     1     -11.628 -30.551 -30.518  1.00  0.00     0.206 HD
HETATM    6  N6  UNL     1     -11.859 -28.990 -29.163  1.00  0.00     0.034 NA
HETATM    7  N7  UNL     1     -11.055 -28.526 -28.216  1.00  0.00     0.013 N 
ENDROOT
BRANCH   1   8
HETATM    8  N3  UNL     1      -8.904 -29.112 -27.440  1.00  0.00    -0.160 N 
HETATM    9  C1  UNL     1      -8.966 -29.466 -26.082  1.00  0.00     0.200 C 
HETATM   10  N1  UNL     1      -9.300 -28.634 -25.143  1.00  0.00    -0.373 N 
HETATM   11  N2  UNL     1      -8.645 -30.804 -25.694  1.00  0.00    -0.063 NA
ATOM     12  H12 UNL     1      -9.345 -28.892 -24.156  1.00  0.00     0.158 HD
ATOM     13  H11 UNL     1      -9.529 -27.680 -25.419  1.00  0.00     0.158 HD
ATOM     14  H3  UNL     1      -8.037 -28.732 -27.819  1.00  0.00     0.187 HD
ENDBRANCH   1   8
BRANCH   7  15
HETATM   15  N8  UNL     1     -11.388 -27.449 -27.387  1.00  0.00    -0.095 N 
HETATM   16  C3  UNL     1     -12.361 -27.556 -26.560  1.00  0.00     0.728 A 
HETATM   17  N9  UNL     1     -13.057 -26.891 -25.605  1.00  0.00    -0.115 N 
HETATM   18  N10 UNL     1     -13.399 -28.149 -25.911  1.00  0.00    -0.115 N 
ATOM     19  H9  UNL     1     -13.209 -26.046 -25.054  1.00  0.00     0.206 HD
ATOM     20  H10 UNL     1     -14.000 -28.960 -25.765  1.00  0.00     0.206 HD
ATOM     21  H8  UNL     1     -10.857 -26.580 -27.442  1.00  0.00     0.208 HD
ENDBRANCH   7  15
TORSDOF 2
ENDMDL
MODEL 3
REMARK VINA RESULT: -6.733419258      2.602      2.945
REMARK  2 active torsions:
REMARK  status: ('A' for Active; 'I' for Inactive)
REMARK       I    between atoms: C1_4  and  N3_6 
REMARK    1  A    between atoms: N3_6  and  C2_8 
REMARK    2  A    between atoms: N7_14  and  N8_15 
ROOT
HETATM    1  C2  UNL     1     -11.536 -29.417 -26.996  1.00  0.00     0.735 A 
HETATM    2  N4  UNL     1     -12.046 -30.650 -27.261  1.00  0.00    -0.116 N 
ATOM      3  H4  UNL     1     -11.539 -31.457 -27.624  1.00  0.00     0.207 HD
HETATM    4  N5  UNL     1     -13.327 -30.593 -26.957  1.00  0.00    -0.210 N 
ATOM      5  H5  UNL     1     -13.983 -31.369 -27.047  1.00  0.00     0.206 HD
HETATM    6  N6  UNL     1     -13.640 -29.388 -26.517  1.00  0.00     0.034 NA
HETATM    7  N7  UNL     1     -12.536 -28.653 -26.538  1.00  0.00     0.013 N 
ENDROOT
BRANCH   1   8
HETATM    8  N3  UNL     1     -10.296 -29.055 -27.162  1.00  0.00    -0.160 N 
HETATM    9  C1  UNL     1      -9.295 -29.453 -26.260  1.00  0.00     0.200 C 
HETATM   10  N1  UNL     1      -8.946 -28.749 -25.226  1.00  0.00    -0.373 N 
HETATM   11  N2  UNL     1      -8.610 -30.689 -26.477  1.00  0.00    -0.063 NA
ATOM     12  H12 UNL     1      -8.219 -29.038 -24.571  1.00  0.00     0.158 HD
ATOM     13  H11 UNL     1      -9.435 -27.867 -25.072  1.00  0.00     0.158 HD
ATOM     14  H3  UNL     1     -10.047 -28.472 -27.961  1.00  0.00     0.187 HD
ENDBRANCH   1   8
BRANCH   7  15
HETATM   15  N8  UNL     1     -12.498 -27.314 -26.134  1.00  0.00    -0.095 N 
HETATM   16  C3  UNL     1     -13.574 -26.732 -25.750  1.00  0.00     0.728 A 
HETATM   17  N9  UNL     1     -14.072 -25.556 -25.294  1.00  0.00    -0.115 N 
HETATM   18  N10 UNL     1     -14.895 -26.600 -25.457  1.00  0.00    -0.115 N 
ATOM     19  H9  UNL     1     -13.926 -24.584 -25.024  1.00  0.00     0.206 HD
ATOM     20  H10 UNL     1     -15.831 -27.003 -25.402  1.00  0.00     0.206 HD
ATOM     21  H8  UNL     1     -11.616 -26.803 -26.146  1.00  0.00     0.208 HD
ENDBRANCH   7  15
TORSDOF 2
ENDMDL
MODEL 4
REMARK VINA RESULT: -6.669150352      2.081      3.165
REMARK  2 active torsions:
REMARK  status: ('A' for Active; 'I' for Inactive)
REMARK       I    between atoms: C1_4  and  N3_6 
REMARK    1  A    between atoms: N3_6  and  C2_8 
REMARK    2  A    between atoms: N7_14  and  N8_15 
ROOT
HETATM    1  C2  UNL     1     -11.012 -29.436 -27.441  1.00  0.00     0.735 A 
HETATM    2  N4  UNL     1     -10.269 -28.620 -28.236  1.00  0.00    -0.116 N 
ATOM      3  H4  UNL     1      -9.263 -28.460 -28.178  1.00  0.00     0.207 HD
HETATM    4  N5  UNL     1     -11.107 -28.077 -29.096  1.00  0.00    -0.210 N 
ATOM      5  H5  UNL     1     -10.846 -27.416 -29.827  1.00  0.00     0.206 HD
HETATM    6  N6  UNL     1     -12.334 -28.514 -28.876  1.00  0.00     0.034 NA
HETATM    7  N7  UNL     1     -12.284 -29.356 -27.853  1.00  0.00     0.013 N 
ENDROOT
BRANCH   1   8
HETATM    8  N3  UNL     1     -10.558 -30.161 -26.459  1.00  0.00    -0.160 N 
HETATM    9  C1  UNL     1      -9.178 -30.324 -26.252  1.00  0.00     0.200 C 
HETATM   10  N1  UNL     1      -8.491 -31.299 -26.764  1.00  0.00    -0.373 N 
HETATM   11  N2  UNL     1      -8.478 -29.382 -25.436  1.00  0.00    -0.063 NA
ATOM     12  H12 UNL     1      -7.488 -31.418 -26.614  1.00  0.00     0.158 HD
ATOM     13  H11 UNL     1      -8.990 -31.971 -27.347  1.00  0.00     0.158 HD
ATOM     14  H3  UNL     1     -11.217 -30.619 -25.828  1.00  0.00     0.187 HD
ENDBRANCH   1   8
BRANCH   7  15
HETATM   15  N8  UNL     1     -13.410 -30.012 -27.344  1.00  0.00    -0.095 N 
HETATM   16  C3  UNL     1     -14.552 -29.430 -27.363  1.00  0.00     0.728 A 
HETATM   17  N9  UNL     1     -15.858 -29.585 -27.033  1.00  0.00    -0.115 N 
HETATM   18  N10 UNL     1     -15.454 -28.442 -27.605  1.00  0.00    -0.115 N 
ATOM     19  H9  UNL     1     -16.605 -30.155 -26.638  1.00  0.00     0.206 HD
ATOM     20  H10 UNL     1     -15.669 -27.511 -27.961  1.00  0.00     0.206 HD
ATOM     21  H8  UNL     1     -13.321 -30.952 -26.958  1.00  0.00     0.208 HD
ENDBRANCH   7  15
TORSDOF 2
ENDMDL
MODEL 5
REMARK VINA RESULT: -6.579582212      1.801      1.913
REMARK  2 active torsions:
REMARK  status: ('A' for Active; 'I' for Inactive)
REMARK       I    between atoms: C1_4  and  N3_6 
REMARK    1  A    between atoms: N3_6  and  C2_8 
REMARK    2  A    between atoms: N7_14  and  N8_15 
ROOT
HETATM    1  C2  UNL     1     -12.655 -29.186 -27.656  1.00  0.00     0.735 A 
HETATM    2  N4  UNL     1     -12.415 -30.508 -27.446  1.00  0.00    -0.116 N 
ATOM      3  H4  UNL     1     -11.782 -31.106 -27.975  1.00  0.00     0.207 HD
HETATM    4  N5  UNL     1     -13.166 -30.862 -26.421  1.00  0.00    -0.210 N 
ATOM      5  H5  UNL     1     -13.204 -31.800 -26.023  1.00  0.00     0.206 HD
HETATM    6  N6  UNL     1     -13.861 -29.828 -25.984  1.00  0.00     0.034 NA
HETATM    7  N7  UNL     1     -13.550 -28.785 -26.744  1.00  0.00     0.013 N 
ENDROOT
BRANCH   1   8
HETATM    8  N3  UNL     1     -12.108 -28.451 -28.581  1.00  0.00    -0.160 N 
HETATM    9  C1  UNL     1     -10.847 -28.770 -29.112  1.00  0.00     0.200 C 
HETATM   10  N1  UNL     1      -9.734 -28.300 -28.638  1.00  0.00    -0.373 N 
HETATM   11  N2  UNL     1     -10.764 -29.651 -30.235  1.00  0.00    -0.063 NA
ATOM     12  H12 UNL     1      -8.818 -28.531 -29.023  1.00  0.00     0.158 HD
ATOM     13  H11 UNL     1      -9.792 -27.671 -27.836  1.00  0.00     0.158 HD
ATOM     14  H3  UNL     1     -12.603 -27.629 -28.926  1.00  0.00     0.187 HD
ENDBRANCH   1   8
BRANCH   7  15
HETATM   15  N8  UNL     1     -14.104 -27.513 -26.563  1.00  0.00    -0.095 N 
HETATM   16  C3  UNL     1     -14.317 -27.072 -25.378  1.00  0.00     0.728 A 
HETATM   17  N9  UNL     1     -14.791 -26.009 -24.682  1.00  0.00    -0.115 N 
HETATM   18  N10 UNL     1     -14.340 -27.082 -24.019  1.00  0.00    -0.115 N 
ATOM     19  H9  UNL     1     -15.195 -25.073 -24.670  1.00  0.00     0.206 HD
ATOM     20  H10 UNL     1     -14.151 -27.559 -23.137  1.00  0.00     0.206 HD
ATOM     21  H8  UNL     1     -14.336 -26.938 -27.372  1.00  0.00     0.208 HD
ENDBRANCH   7  15
TORSDOF 2
ENDMDL
