MODEL 1
REMARK VINA RESULT: -6.724852100      0.000      0.000
REMARK  3 active torsions:
REMARK  status: ('A' for Active; 'I' for Inactive)
REMARK    1  A    between atoms: C2_5  and  C3_6 
REMARK       I    between atoms: C3_6  and  N3_8 
REMARK    2  A    between atoms: N3_8  and  N4_10 
REMARK    3  A    between atoms: N4_10  and  C4_12 
ROOT
HETATM    1  C3  UNL     1     -13.321 -29.154 -27.543  1.00  0.00     0.307 C 
HETATM    2  O1  UNL     1     -12.718 -28.577 -28.494  1.00  0.00    -0.262 OA
HETATM    3  N3  UNL     1     -12.736 -30.283 -26.945  1.00  0.00    -0.249 N 
ATOM      4  H3  UNL     1     -13.212 -30.757 -26.178  1.00  0.00     0.191 HD
ENDROOT
BRANCH   3   5
HETATM    5  N4  UNL     1     -11.506 -30.759 -27.399  1.00  0.00    -0.127 N 
ATOM      6  H4  UNL     1     -11.485 -31.488 -28.112  1.00  0.00     0.206 HD
BRANCH   5   7
HETATM    7  C4  UNL     1     -10.386 -30.291 -26.934  1.00  0.00     0.725 A 
HETATM    8  N5  UNL     1      -9.747 -30.745 -25.844  1.00  0.00    -0.112 N 
HETATM    9  N6  UNL     1      -8.652 -30.000 -25.717  1.00  0.00     0.009 NA
ATOM     10  H5  UNL     1     -10.041 -31.508 -25.236  1.00  0.00     0.203 HD
HETATM   11  N7  UNL     1      -8.585 -29.103 -26.686  1.00  0.00    -0.211 N 
HETATM   12  N8  UNL     1      -9.658 -29.289 -27.432  1.00  0.00    -0.117 N 
ATOM     13  H7  UNL     1      -7.852 -28.408 -26.829  1.00  0.00     0.206 HD
ATOM     14  H8  UNL     1      -9.896 -28.748 -28.264  1.00  0.00     0.207 HD
ENDBRANCH   5   7
ENDBRANCH   3   5
BRANCH   1  15
HETATM   15  C2  UNL     1     -14.621 -28.651 -27.064  1.00  0.00     0.208 A 
HETATM   16  N2  UNL     1     -15.890 -28.575 -27.503  1.00  0.00    -0.263 N 
HETATM   17  N1  UNL     1     -16.299 -27.978 -26.397  1.00  0.00    -0.235 N 
ATOM     18  H2  UNL     1     -16.357 -28.867 -28.361  1.00  0.00     0.190 HD
HETATM   19  C1  UNL     1     -17.552 -27.457 -25.857  1.00  0.00     0.200 C 
HETATM   20  N9  UNL     1     -15.065 -28.043 -25.952  1.00  0.00    -0.263 N 
ATOM     21  H9  UNL     1     -14.613 -27.745 -25.087  1.00  0.00     0.190 HD
ENDBRANCH   1  15
TORSDOF 3
ENDMDL
MODEL 2
REMARK VINA RESULT: -6.693254652      1.242      1.596
REMARK  3 active torsions:
REMARK  status: ('A' for Active; 'I' for Inactive)
REMARK    1  A    between atoms: C2_5  and  C3_6 
REMARK       I    between atoms: C3_6  and  N3_8 
REMARK    2  A    between atoms: N3_8  and  N4_10 
REMARK    3  A    between atoms: N4_10  and  C4_12 
ROOT
HETATM    1  C3  UNL     1     -12.752 -28.941 -27.553  1.00  0.00     0.307 C 
HETATM    2  O1  UNL     1     -12.445 -30.114 -27.915  1.00  0.00    -0.262 OA
HETATM    3  N3  UNL     1     -11.754 -27.952 -27.518  1.00  0.00    -0.249 N 
ATOM      4  H3  UNL     1     -11.990 -27.003 -27.228  1.00  0.00     0.191 HD
ENDROOT
BRANCH   3   5
HETATM    5  N4  UNL     1     -10.444 -28.264 -27.878  1.00  0.00    -0.127 N 
ATOM      6  H4  UNL     1     -10.014 -27.783 -28.668  1.00  0.00     0.206 HD
BRANCH   5   7
HETATM    7  C4  UNL     1      -9.758 -29.155 -27.227  1.00  0.00     0.725 A 
HETATM    8  N5  UNL     1      -9.245 -28.998 -25.996  1.00  0.00    -0.112 N 
HETATM    9  N6  UNL     1      -8.622 -30.136 -25.703  1.00  0.00     0.009 NA
ATOM     10  H5  UNL     1      -9.319 -28.171 -25.404  1.00  0.00     0.203 HD
HETATM   11  N7  UNL     1      -8.729 -30.995 -26.702  1.00  0.00    -0.211 N 
HETATM   12  N8  UNL     1      -9.430 -30.383 -27.638  1.00  0.00    -0.117 N 
ATOM     13  H7  UNL     1      -8.347 -31.940 -26.742  1.00  0.00     0.206 HD
ATOM     14  H8  UNL     1      -9.684 -30.787 -28.540  1.00  0.00     0.207 HD
ENDBRANCH   5   7
ENDBRANCH   3   5
BRANCH   1  15
HETATM   15  C2  UNL     1     -14.137 -28.612 -27.173  1.00  0.00     0.208 A 
HETATM   16  N2  UNL     1     -14.802 -28.174 -26.090  1.00  0.00    -0.263 N 
HETATM   17  N1  UNL     1     -15.964 -28.196 -26.722  1.00  0.00    -0.235 N 
ATOM     18  H2  UNL     1     -14.519 -27.920 -25.144  1.00  0.00     0.190 HD
HETATM   19  C1  UNL     1     -17.359 -27.890 -26.417  1.00  0.00     0.200 C 
HETATM   20  N9  UNL     1     -15.330 -28.625 -27.789  1.00  0.00    -0.263 N 
ATOM     21  H9  UNL     1     -15.631 -28.875 -28.732  1.00  0.00     0.190 HD
ENDBRANCH   1  15
TORSDOF 3
ENDMDL
MODEL 3
REMARK VINA RESULT: -6.613934071      1.338      1.450
REMARK  3 active torsions:
REMARK  status: ('A' for Active; 'I' for Inactive)
REMARK    1  A    between atoms: C2_5  and  C3_6 
REMARK       I    between atoms: C3_6  and  N3_8 
REMARK    2  A    between atoms: N3_8  and  N4_10 
REMARK    3  A    between atoms: N4_10  and  C4_12 
ROOT
HETATM    1  C3  UNL     1     -13.849 -28.876 -27.057  1.00  0.00     0.307 C 
HETATM    2  O1  UNL     1     -13.929 -30.119 -27.282  1.00  0.00    -0.262 OA
HETATM    3  N3  UNL     1     -12.650 -28.202 -27.348  1.00  0.00    -0.249 N 
ATOM      4  H3  UNL     1     -12.574 -27.201 -27.171  1.00  0.00     0.191 HD
ENDROOT
BRANCH   3   5
HETATM    5  N4  UNL     1     -11.565 -28.899 -27.878  1.00  0.00    -0.127 N 
ATOM      6  H4  UNL     1     -11.615 -29.249 -28.834  1.00  0.00     0.206 HD
BRANCH   5   7
HETATM    7  C4  UNL     1     -10.492 -29.114 -27.177  1.00  0.00     0.725 A 
HETATM    8  N5  UNL     1      -9.501 -29.956 -27.509  1.00  0.00    -0.112 N 
HETATM    9  N6  UNL     1      -8.602 -29.879 -26.532  1.00  0.00     0.009 NA
ATOM     10  H5  UNL     1      -9.448 -30.539 -28.344  1.00  0.00     0.203 HD
HETATM   11  N7  UNL     1      -8.994 -29.019 -25.607  1.00  0.00    -0.211 N 
HETATM   12  N8  UNL     1     -10.160 -28.552 -26.012  1.00  0.00    -0.117 N 
ATOM     13  H7  UNL     1      -8.496 -28.767 -24.753  1.00  0.00     0.206 HD
ATOM     14  H8  UNL     1     -10.723 -27.865 -25.510  1.00  0.00     0.207 HD
ENDBRANCH   5   7
ENDBRANCH   3   5
BRANCH   1  15
HETATM   15  C2  UNL     1     -14.997 -28.140 -26.496  1.00  0.00     0.208 A 
HETATM   16  N2  UNL     1     -16.331 -28.093 -26.653  1.00  0.00    -0.263 N 
HETATM   17  N1  UNL     1     -16.465 -27.153 -25.734  1.00  0.00    -0.235 N 
ATOM     18  H2  UNL     1     -16.988 -28.593 -27.252  1.00  0.00     0.190 HD
HETATM   19  C1  UNL     1     -17.552 -26.385 -25.132  1.00  0.00     0.200 C 
HETATM   20  N9  UNL     1     -15.163 -27.185 -25.567  1.00  0.00    -0.263 N 
ATOM     21  H9  UNL     1     -14.519 -26.676 -24.960  1.00  0.00     0.190 HD
ENDBRANCH   1  15
TORSDOF 3
ENDMDL
MODEL 4
REMARK VINA RESULT: -6.554553143      2.291      2.701
REMARK  3 active torsions:
REMARK  status: ('A' for Active; 'I' for Inactive)
REMARK    1  A    between atoms: C2_5  and  C3_6 
REMARK       I    between atoms: C3_6  and  N3_8 
REMARK    2  A    between atoms: N3_8  and  N4_10 
REMARK    3  A    between atoms: N4_10  and  C4_12 
ROOT
HETATM    1  C3  UNL     1     -13.011 -27.388 -26.333  1.00  0.00     0.307 C 
HETATM    2  O1  UNL     1     -13.597 -28.038 -27.247  1.00  0.00    -0.262 OA
HETATM    3  N3  UNL     1     -11.612 -27.462 -26.227  1.00  0.00    -0.249 N 
ATOM      4  H3  UNL     1     -11.129 -26.942 -25.494  1.00  0.00     0.191 HD
ENDROOT
BRANCH   3   5
HETATM    5  N4  UNL     1     -10.882 -28.244 -27.121  1.00  0.00    -0.127 N 
ATOM      6  H4  UNL     1     -10.941 -28.047 -28.120  1.00  0.00     0.206 HD
BRANCH   5   7
HETATM    7  C4  UNL     1     -10.127 -29.218 -26.709  1.00  0.00     0.725 A 
HETATM    8  N5  UNL     1      -8.800 -29.306 -26.891  1.00  0.00    -0.112 N 
HETATM    9  N6  UNL     1      -8.420 -30.446 -26.321  1.00  0.00     0.009 NA
ATOM     10  H5  UNL     1      -8.203 -28.633 -27.371  1.00  0.00     0.203 HD
HETATM   11  N7  UNL     1      -9.458 -31.069 -25.789  1.00  0.00    -0.211 N 
HETATM   12  N8  UNL     1     -10.507 -30.305 -26.033  1.00  0.00    -0.117 N 
ATOM     13  H7  UNL     1      -9.450 -31.959 -25.291  1.00  0.00     0.206 HD
ATOM     14  H8  UNL     1     -11.464 -30.515 -25.748  1.00  0.00     0.207 HD
ENDBRANCH   5   7
ENDBRANCH   3   5
BRANCH   1  15
HETATM   15  C2  UNL     1     -13.785 -26.563 -25.388  1.00  0.00     0.208 A 
HETATM   16  N2  UNL     1     -14.357 -25.347 -25.354  1.00  0.00    -0.263 N 
HETATM   17  N1  UNL     1     -14.792 -25.521 -24.118  1.00  0.00    -0.235 N 
ATOM     18  H2  UNL     1     -14.428 -24.582 -26.026  1.00  0.00     0.190 HD
HETATM   19  C1  UNL     1     -15.553 -24.761 -23.129  1.00  0.00     0.200 C 
HETATM   20  N9  UNL     1     -14.239 -26.712 -24.133  1.00  0.00    -0.263 N 
ATOM     21  H9  UNL     1     -14.178 -27.467 -23.449  1.00  0.00     0.190 HD
ENDBRANCH   1  15
TORSDOF 3
ENDMDL
MODEL 5
REMARK VINA RESULT: -6.492685120      1.710      1.966
REMARK  3 active torsions:
REMARK  status: ('A' for Active; 'I' for Inactive)
REMARK    1  A    between atoms: C2_5  and  C3_6 
REMARK       I    between atoms: C3_6  and  N3_8 
REMARK    2  A    between atoms: N3_8  and  N4_10 
REMARK    3  A    between atoms: N4_10  and  C4_12 
ROOT
HETATM    1  C3  UNL     1     -13.302 -27.871 -26.564  1.00  0.00     0.307 C 
HETATM    2  O1  UNL     1     -13.547 -28.442 -27.666  1.00  0.00    -0.262 OA
HETATM    3  N3  UNL     1     -11.970 -27.572 -26.228  1.00  0.00    -0.249 N 
ATOM      4  H3  UNL     1     -11.760 -27.112 -25.343  1.00  0.00     0.191 HD
ENDROOT
BRANCH   3   5
HETATM    5  N4  UNL     1     -10.936 -27.903 -27.103  1.00  0.00    -0.127 N 
ATOM      6  H4  UNL     1     -10.849 -27.402 -27.987  1.00  0.00     0.206 HD
BRANCH   5   7
HETATM    7  C4  UNL     1     -10.079 -28.837 -26.815  1.00  0.00     0.725 A 
HETATM    8  N5  UNL     1      -9.273 -28.851 -25.742  1.00  0.00    -0.112 N 
HETATM    9  N6  UNL     1      -8.561 -29.972 -25.823  1.00  0.00     0.009 NA
ATOM     10  H5  UNL     1      -9.218 -28.143 -25.009  1.00  0.00     0.203 HD
HETATM   11  N7  UNL     1      -8.896 -30.657 -26.903  1.00  0.00    -0.211 N 
HETATM   12  N8  UNL     1      -9.832 -29.951 -27.510  1.00  0.00    -0.117 N 
ATOM     13  H7  UNL     1      -8.508 -31.551 -27.207  1.00  0.00     0.206 HD
ATOM     14  H8  UNL     1     -10.296 -30.216 -28.378  1.00  0.00     0.207 HD
ENDBRANCH   5   7
ENDBRANCH   3   5
BRANCH   1  15
HETATM   15  C2  UNL     1     -14.396 -27.522 -25.641  1.00  0.00     0.208 A 
HETATM   16  N2  UNL     1     -15.691 -27.168 -25.709  1.00  0.00    -0.263 N 
HETATM   17  N1  UNL     1     -15.795 -27.072 -24.395  1.00  0.00    -0.235 N 
ATOM     18  H2  UNL     1     -16.344 -27.027 -26.480  1.00  0.00     0.190 HD
HETATM   19  C1  UNL     1     -16.830 -26.736 -23.420  1.00  0.00     0.200 C 
HETATM   20  N9  UNL     1     -14.531 -27.416 -24.309  1.00  0.00    -0.263 N 
ATOM     21  H9  UNL     1     -13.892 -27.553 -23.525  1.00  0.00     0.190 HD
ENDBRANCH   1  15
TORSDOF 3
ENDMDL
