MODEL 1
REMARK VINA RESULT: -7.164783727      0.000      0.000
REMARK  3 active torsions:
REMARK  status: ('A' for Active; 'I' for Inactive)
REMARK    1  A    between atoms: C2_5  and  C3_6 
REMARK    2  A    between atoms: C4_9  and  N4_10 
REMARK    3  A    between atoms: N4_10  and  N5_12 
ROOT
HETATM    1  N5  UNL     1      -9.496 -28.615 -25.582  1.00  0.00    -0.235 N 
ATOM      2  H5  UNL     1      -9.068 -28.185 -24.762  1.00  0.00     0.199 HD
HETATM    3  C5  UNL     1      -9.014 -29.839 -26.058  1.00  0.00     0.197 C 
HETATM    4  N6  UNL     1      -8.612 -30.864 -26.435  1.00  0.00    -0.170 NA
ENDROOT
BRANCH   1   5
HETATM    5  N4  UNL     1     -10.561 -27.981 -26.226  1.00  0.00    -0.273 N 
ATOM      6  H4  UNL     1     -10.525 -26.969 -26.340  1.00  0.00     0.189 HD
BRANCH   5   7
HETATM    7  C4  UNL     1     -11.584 -28.612 -26.680  1.00  0.00     0.170 A 
HETATM    8  C2  UNL     1     -11.773 -29.079 -27.958  1.00  0.00     0.161 A 
HETATM    9  N2  UNL     1     -12.983 -29.662 -27.943  1.00  0.00    -0.276 N 
HETATM   10  N1  UNL     1     -13.533 -29.576 -26.746  1.00  0.00    -0.236 N 
ATOM     11  H2  UNL     1     -13.418 -30.112 -28.749  1.00  0.00     0.189 HD
HETATM   12  C1  UNL     1     -14.811 -30.055 -26.268  1.00  0.00     0.200 C 
HETATM   13  N7  UNL     1     -12.678 -28.932 -25.972  1.00  0.00    -0.266 N 
ATOM     14  H7  UNL     1     -12.826 -28.713 -24.987  1.00  0.00     0.190 HD
BRANCH   8  15
HETATM   15  C3  UNL     1     -10.811 -28.934 -29.041  1.00  0.00     0.286 C 
HETATM   16  N3  UNL     1     -11.010 -29.570 -30.310  1.00  0.00    -0.056 NA
HETATM   17  O1  UNL     1      -9.767 -28.250 -28.927  1.00  0.00    -0.269 OA
ENDBRANCH   8  15
ENDBRANCH   5   7
ENDBRANCH   1   5
TORSDOF 3
ENDMDL
MODEL 2
REMARK VINA RESULT: -6.689188370      1.546      3.059
REMARK  3 active torsions:
REMARK  status: ('A' for Active; 'I' for Inactive)
REMARK    1  A    between atoms: C2_5  and  C3_6 
REMARK    2  A    between atoms: C4_9  and  N4_10 
REMARK    3  A    between atoms: N4_10  and  N5_12 
ROOT
HETATM    1  N5  UNL     1      -9.896 -28.208 -28.621  1.00  0.00    -0.235 N 
ATOM      2  H5  UNL     1      -9.064 -27.664 -28.854  1.00  0.00     0.199 HD
HETATM    3  C5  UNL     1     -10.514 -28.989 -29.603  1.00  0.00     0.197 C 
HETATM    4  N6  UNL     1     -11.011 -29.645 -30.426  1.00  0.00    -0.170 NA
ENDROOT
BRANCH   1   5
HETATM    5  N4  UNL     1     -10.412 -28.169 -27.325  1.00  0.00    -0.273 N 
ATOM      6  H4  UNL     1     -10.169 -27.378 -26.729  1.00  0.00     0.189 HD
BRANCH   5   7
HETATM    7  C4  UNL     1     -11.180 -29.082 -26.846  1.00  0.00     0.170 A 
HETATM    8  C2  UNL     1     -10.803 -30.286 -26.304  1.00  0.00     0.161 A 
HETATM    9  N2  UNL     1     -11.951 -30.886 -25.949  1.00  0.00    -0.276 N 
HETATM   10  N1  UNL     1     -12.990 -30.126 -26.240  1.00  0.00    -0.236 N 
ATOM     11  H2  UNL     1     -12.011 -31.805 -25.511  1.00  0.00     0.189 HD
HETATM   12  C1  UNL     1     -14.403 -30.358 -26.041  1.00  0.00     0.200 C 
HETATM   13  N7  UNL     1     -12.520 -29.020 -26.791  1.00  0.00    -0.266 N 
ATOM     14  H7  UNL     1     -13.087 -28.241 -27.122  1.00  0.00     0.190 HD
BRANCH   8  15
HETATM   15  C3  UNL     1      -9.425 -30.739 -26.177  1.00  0.00     0.286 C 
HETATM   16  N3  UNL     1      -9.031 -31.660 -25.152  1.00  0.00    -0.056 NA
HETATM   17  O1  UNL     1      -8.516 -30.355 -26.951  1.00  0.00    -0.269 OA
ENDBRANCH   8  15
ENDBRANCH   5   7
ENDBRANCH   1   5
TORSDOF 3
ENDMDL
MODEL 3
REMARK VINA RESULT: -6.638925940      1.399      3.534
REMARK  3 active torsions:
REMARK  status: ('A' for Active; 'I' for Inactive)
REMARK    1  A    between atoms: C2_5  and  C3_6 
REMARK    2  A    between atoms: C4_9  and  N4_10 
REMARK    3  A    between atoms: N4_10  and  N5_12 
ROOT
HETATM    1  N5  UNL     1     -12.623 -27.724 -26.129  1.00  0.00    -0.235 N 
ATOM      2  H5  UNL     1     -12.835 -27.412 -25.181  1.00  0.00     0.199 HD
HETATM    3  C5  UNL     1     -13.655 -28.159 -26.966  1.00  0.00     0.197 C 
HETATM    4  N6  UNL     1     -14.525 -28.506 -27.657  1.00  0.00    -0.170 NA
ENDROOT
BRANCH   1   5
HETATM    5  N4  UNL     1     -11.304 -27.714 -26.586  1.00  0.00    -0.273 N 
ATOM      6  H4  UNL     1     -10.860 -26.815 -26.768  1.00  0.00     0.189 HD
BRANCH   5   7
HETATM    7  C4  UNL     1     -10.622 -28.785 -26.789  1.00  0.00     0.170 A 
HETATM    8  C2  UNL     1     -10.361 -29.389 -27.994  1.00  0.00     0.161 A 
HETATM    9  N2  UNL     1      -9.618 -30.467 -27.692  1.00  0.00    -0.276 N 
HETATM   10  N1  UNL     1      -9.416 -30.551 -26.391  1.00  0.00    -0.236 N 
ATOM     11  H2  UNL     1      -9.257 -31.131 -28.378  1.00  0.00     0.189 HD
HETATM   12  C1  UNL     1      -8.684 -31.532 -25.620  1.00  0.00     0.200 C 
HETATM   13  N7  UNL     1     -10.031 -29.522 -25.835  1.00  0.00    -0.266 N 
ATOM     14  H7  UNL     1     -10.053 -29.319 -24.836  1.00  0.00     0.190 HD
BRANCH   8  15
HETATM   15  C3  UNL     1     -10.828 -28.898 -29.283  1.00  0.00     0.286 C 
HETATM   16  N3  UNL     1     -10.833 -29.735 -30.446  1.00  0.00    -0.056 NA
HETATM   17  O1  UNL     1     -11.249 -27.729 -29.445  1.00  0.00    -0.269 OA
ENDBRANCH   8  15
ENDBRANCH   5   7
ENDBRANCH   1   5
TORSDOF 3
ENDMDL
MODEL 4
REMARK VINA RESULT: -6.430336165      1.357      1.473
REMARK  3 active torsions:
REMARK  status: ('A' for Active; 'I' for Inactive)
REMARK    1  A    between atoms: C2_5  and  C3_6 
REMARK    2  A    between atoms: C4_9  and  N4_10 
REMARK    3  A    between atoms: N4_10  and  N5_12 
ROOT
HETATM    1  N5  UNL     1     -10.084 -30.320 -26.233  1.00  0.00    -0.235 N 
ATOM      2  H5  UNL     1      -9.848 -29.329 -26.296  1.00  0.00     0.199 HD
HETATM    3  C5  UNL     1      -9.168 -31.220 -25.680  1.00  0.00     0.197 C 
HETATM    4  N6  UNL     1      -8.402 -31.956 -25.206  1.00  0.00    -0.170 NA
ENDROOT
BRANCH   1   5
HETATM    5  N4  UNL     1     -11.320 -30.772 -26.700  1.00  0.00    -0.273 N 
ATOM      6  H4  UNL     1     -11.522 -31.769 -26.650  1.00  0.00     0.189 HD
BRANCH   5   7
HETATM    7  C4  UNL     1     -12.215 -29.990 -27.189  1.00  0.00     0.170 A 
HETATM    8  C2  UNL     1     -12.109 -29.202 -28.308  1.00  0.00     0.161 A 
HETATM    9  N2  UNL     1     -13.294 -28.576 -28.410  1.00  0.00    -0.276 N 
HETATM   10  N1  UNL     1     -14.102 -28.934 -27.430  1.00  0.00    -0.236 N 
ATOM     11  H2  UNL     1     -13.536 -27.913 -29.147  1.00  0.00     0.189 HD
HETATM   12  C1  UNL     1     -15.457 -28.522 -27.138  1.00  0.00     0.200 C 
HETATM   13  N7  UNL     1     -13.443 -29.800 -26.680  1.00  0.00    -0.266 N 
ATOM     14  H7  UNL     1     -13.810 -30.253 -25.845  1.00  0.00     0.190 HD
BRANCH   8  15
HETATM   15  C3  UNL     1     -10.926 -29.121 -29.153  1.00  0.00     0.286 C 
HETATM   16  N3  UNL     1     -10.921 -29.644 -30.488  1.00  0.00    -0.056 NA
HETATM   17  O1  UNL     1      -9.858 -28.593 -28.765  1.00  0.00    -0.269 OA
ENDBRANCH   8  15
ENDBRANCH   5   7
ENDBRANCH   1   5
TORSDOF 3
ENDMDL
MODEL 5
REMARK VINA RESULT: -6.288076462      1.637      1.753
REMARK  3 active torsions:
REMARK  status: ('A' for Active; 'I' for Inactive)
REMARK    1  A    between atoms: C2_5  and  C3_6 
REMARK    2  A    between atoms: C4_9  and  N4_10 
REMARK    3  A    between atoms: N4_10  and  N5_12 
ROOT
HETATM    1  N5  UNL     1     -10.529 -30.442 -26.006  1.00  0.00    -0.235 N 
ATOM      2  H5  UNL     1     -10.657 -29.778 -25.241  1.00  0.00     0.199 HD
HETATM    3  C5  UNL     1      -9.250 -30.924 -26.302  1.00  0.00     0.197 C 
HETATM    4  N6  UNL     1      -8.183 -31.326 -26.530  1.00  0.00    -0.170 NA
ENDROOT
BRANCH   1   5
HETATM    5  N4  UNL     1     -11.631 -30.865 -26.752  1.00  0.00    -0.273 N 
ATOM      6  H4  UNL     1     -11.718 -31.857 -26.969  1.00  0.00     0.189 HD
BRANCH   5   7
HETATM    7  C4  UNL     1     -12.541 -30.064 -27.178  1.00  0.00     0.170 A 
HETATM    8  C2  UNL     1     -12.452 -29.192 -28.236  1.00  0.00     0.161 A 
HETATM    9  N2  UNL     1     -13.647 -28.580 -28.287  1.00  0.00    -0.276 N 
HETATM   10  N1  UNL     1     -14.445 -29.023 -27.334  1.00  0.00    -0.236 N 
ATOM     11  H2  UNL     1     -13.903 -27.868 -28.971  1.00  0.00     0.189 HD
HETATM   12  C1  UNL     1     -15.805 -28.657 -27.008  1.00  0.00     0.200 C 
HETATM   13  N7  UNL     1     -13.769 -29.932 -26.653  1.00  0.00    -0.266 N 
ATOM     14  H7  UNL     1     -14.126 -30.453 -25.853  1.00  0.00     0.190 HD
BRANCH   8  15
HETATM   15  C3  UNL     1     -11.274 -29.028 -29.075  1.00  0.00     0.286 C 
HETATM   16  N3  UNL     1     -10.067 -28.444 -28.568  1.00  0.00    -0.056 NA
HETATM   17  O1  UNL     1     -11.249 -29.387 -30.276  1.00  0.00    -0.269 OA
ENDBRANCH   8  15
ENDBRANCH   5   7
ENDBRANCH   1   5
TORSDOF 3
ENDMDL
