MODEL 1
REMARK VINA RESULT: -6.267271335      0.000      0.000
REMARK  4 active torsions:
REMARK  status: ('A' for Active; 'I' for Inactive)
REMARK    1  A    between atoms: C2_7  and  C3_8 
REMARK       I    between atoms: C3_8  and  N3_10 
REMARK    2  A    between atoms: N3_10  and  N4_12 
REMARK    3  A    between atoms: N5_15  and  O2_16 
REMARK    4  A    between atoms: N6_19  and  O3_20 
ROOT
HETATM    1  N1  UNL     1     -14.282 -26.239 -25.462  1.00  0.00    -0.232 N 
ATOM      2  H11 UNL     1     -15.265 -26.001 -25.327  1.00  0.00     0.174 HD
ATOM      3  H12 UNL     1     -13.553 -25.581 -25.188  1.00  0.00     0.174 HD
HETATM    4  C1  UNL     1     -13.931 -27.366 -25.977  1.00  0.00     0.705 A 
HETATM    5  N2  UNL     1     -12.619 -27.685 -26.156  1.00  0.00    -0.167 N 
ATOM      6  H2  UNL     1     -11.907 -27.012 -25.875  1.00  0.00     0.186 HD
HETATM    7  C2  UNL     1     -12.230 -28.855 -26.691  1.00  0.00     0.218 A 
HETATM    8  N5  UNL     1     -13.194 -29.726 -27.053  1.00  0.00    -0.195 N 
HETATM    9  C4  UNL     1     -14.495 -29.398 -26.870  1.00  0.00     0.266 A 
HETATM   10  N6  UNL     1     -14.886 -28.229 -26.336  1.00  0.00    -0.046 N 
ENDROOT
BRANCH   7  11
HETATM   11  C3  UNL     1     -10.826 -29.190 -26.880  1.00  0.00     0.306 C 
HETATM   12  O1  UNL     1     -10.391 -29.762 -27.909  1.00  0.00    -0.263 OA
HETATM   13  N3  UNL     1      -9.884 -28.865 -25.866  1.00  0.00    -0.270 N 
ATOM     14  H3  UNL     1     -10.213 -28.399 -25.021  1.00  0.00     0.189 HD
BRANCH  13  15
HETATM   15  N4  UNL     1      -8.523 -29.159 -25.988  1.00  0.00    -0.342 N 
ATOM     16  H42 UNL     1      -8.046 -28.864 -26.840  1.00  0.00     0.176 HD
ATOM     17  H41 UNL     1      -8.004 -29.652 -25.261  1.00  0.00     0.176 HD
ENDBRANCH  13  15
ENDBRANCH   7  11
BRANCH   8  18
HETATM   18  O2  UNL     1     -12.830 -30.929 -27.603  1.00  0.00    -0.280 OA
ATOM     19  H2  UNL     1     -13.462 -31.639 -27.617  1.00  0.00     0.245 HD
ENDBRANCH   8  18
BRANCH  10  20
HETATM   20  O3  UNL     1     -16.212 -27.904 -26.153  1.00  0.00    -0.269 OA
ATOM     21  H3  UNL     1     -16.893 -28.500 -26.446  1.00  0.00     0.246 HD
ENDBRANCH  10  20
TORSDOF 4
ENDMDL
MODEL 2
REMARK VINA RESULT: -6.227342785      1.893      2.494
REMARK  4 active torsions:
REMARK  status: ('A' for Active; 'I' for Inactive)
REMARK    1  A    between atoms: C2_7  and  C3_8 
REMARK       I    between atoms: C3_8  and  N3_10 
REMARK    2  A    between atoms: N3_10  and  N4_12 
REMARK    3  A    between atoms: N5_15  and  O2_16 
REMARK    4  A    between atoms: N6_19  and  O3_20 
ROOT
HETATM    1  N1  UNL     1     -16.386 -28.445 -27.385  1.00  0.00    -0.232 N 
ATOM      2  H11 UNL     1     -17.147 -28.073 -26.815  1.00  0.00     0.174 HD
ATOM      3  H12 UNL     1     -16.590 -29.036 -28.190  1.00  0.00     0.174 HD
HETATM    4  C1  UNL     1     -15.155 -28.184 -27.111  1.00  0.00     0.705 A 
HETATM    5  N2  UNL     1     -14.140 -28.679 -27.871  1.00  0.00    -0.167 N 
ATOM      6  H2  UNL     1     -14.367 -29.268 -28.673  1.00  0.00     0.186 HD
HETATM    7  C2  UNL     1     -12.848 -28.420 -27.604  1.00  0.00     0.218 A 
HETATM    8  N5  UNL     1     -12.577 -27.639 -26.539  1.00  0.00    -0.195 N 
HETATM    9  C4  UNL     1     -13.596 -27.152 -25.790  1.00  0.00     0.266 A 
HETATM   10  N6  UNL     1     -14.886 -27.410 -26.056  1.00  0.00    -0.046 N 
ENDROOT
BRANCH   7  11
HETATM   11  C3  UNL     1     -11.767 -28.952 -28.421  1.00  0.00     0.306 C 
HETATM   12  O1  UNL     1     -11.578 -28.611 -29.614  1.00  0.00    -0.263 OA
HETATM   13  N3  UNL     1     -10.868 -29.902 -27.863  1.00  0.00    -0.270 N 
ATOM     14  H3  UNL     1     -11.001 -30.194 -26.895  1.00  0.00     0.189 HD
BRANCH  13  15
HETATM   15  N4  UNL     1      -9.810 -30.449 -28.594  1.00  0.00    -0.342 N 
ATOM     16  H42 UNL     1      -9.932 -31.386 -28.980  1.00  0.00     0.176 HD
ATOM     17  H41 UNL     1      -8.936 -29.947 -28.748  1.00  0.00     0.176 HD
ENDBRANCH  13  15
ENDBRANCH   7  11
BRANCH   8  18
HETATM   18  O2  UNL     1     -11.269 -27.355 -26.238  1.00  0.00    -0.280 OA
ATOM     19  H2  UNL     1     -10.644 -28.069 -26.186  1.00  0.00     0.245 HD
ENDBRANCH   8  18
BRANCH  10  20
HETATM   20  O3  UNL     1     -15.916 -26.910 -25.288  1.00  0.00    -0.269 OA
ATOM     21  H3  UNL     1     -16.036 -25.970 -25.208  1.00  0.00     0.246 HD
ENDBRANCH  10  20
TORSDOF 4
ENDMDL
MODEL 3
REMARK VINA RESULT: -6.113418004      1.837      4.714
REMARK  4 active torsions:
REMARK  status: ('A' for Active; 'I' for Inactive)
REMARK    1  A    between atoms: C2_7  and  C3_8 
REMARK       I    between atoms: C3_8  and  N3_10 
REMARK    2  A    between atoms: N3_10  and  N4_12 
REMARK    3  A    between atoms: N5_15  and  O2_16 
REMARK    4  A    between atoms: N6_19  and  O3_20 
ROOT
HETATM    1  N1  UNL     1     -10.048 -28.128 -28.482  1.00  0.00    -0.232 N 
ATOM      2  H11 UNL     1      -9.146 -28.572 -28.658  1.00  0.00     0.174 HD
ATOM      3  H12 UNL     1     -10.208 -27.163 -28.770  1.00  0.00     0.174 HD
HETATM    4  C1  UNL     1     -11.005 -28.763 -27.898  1.00  0.00     0.705 A 
HETATM    5  N2  UNL     1     -12.208 -28.171 -27.665  1.00  0.00    -0.167 N 
ATOM      6  H2  UNL     1     -12.347 -27.204 -27.961  1.00  0.00     0.186 HD
HETATM    7  C2  UNL     1     -13.220 -28.813 -27.057  1.00  0.00     0.218 A 
HETATM    8  N5  UNL     1     -13.008 -30.090 -26.677  1.00  0.00    -0.195 N 
HETATM    9  C4  UNL     1     -11.806 -30.668 -26.915  1.00  0.00     0.266 A 
HETATM   10  N6  UNL     1     -10.795 -30.027 -27.521  1.00  0.00    -0.046 N 
ENDROOT
BRANCH   7  11
HETATM   11  C3  UNL     1     -14.505 -28.175 -26.810  1.00  0.00     0.306 C 
HETATM   12  O1  UNL     1     -14.628 -27.115 -26.149  1.00  0.00    -0.263 OA
HETATM   13  N3  UNL     1     -15.690 -28.761 -27.333  1.00  0.00    -0.270 N 
ATOM     14  H3  UNL     1     -15.616 -29.622 -27.874  1.00  0.00     0.189 HD
BRANCH  13  15
HETATM   15  N4  UNL     1     -16.954 -28.198 -27.132  1.00  0.00    -0.342 N 
ATOM     16  H42 UNL     1     -17.280 -28.090 -26.171  1.00  0.00     0.176 HD
ATOM     17  H41 UNL     1     -17.547 -27.897 -27.905  1.00  0.00     0.176 HD
ENDBRANCH  13  15
ENDBRANCH   7  11
BRANCH   8  18
HETATM   18  O2  UNL     1     -14.021 -30.774 -26.054  1.00  0.00    -0.280 OA
ATOM     19  H2  UNL     1     -13.801 -31.495 -25.475  1.00  0.00     0.245 HD
ENDBRANCH   8  18
BRANCH  10  20
HETATM   20  O3  UNL     1      -9.575 -30.624 -27.760  1.00  0.00    -0.269 OA
ATOM     21  H3  UNL     1      -9.314 -31.388 -27.259  1.00  0.00     0.246 HD
ENDBRANCH  10  20
TORSDOF 4
ENDMDL
MODEL 4
REMARK VINA RESULT: -6.071289798      1.984      4.758
REMARK  4 active torsions:
REMARK  status: ('A' for Active; 'I' for Inactive)
REMARK    1  A    between atoms: C2_7  and  C3_8 
REMARK       I    between atoms: C3_8  and  N3_10 
REMARK    2  A    between atoms: N3_10  and  N4_12 
REMARK    3  A    between atoms: N5_15  and  O2_16 
REMARK    4  A    between atoms: N6_19  and  O3_20 
ROOT
HETATM    1  N1  UNL     1     -10.575 -28.183 -29.218  1.00  0.00    -0.232 N 
ATOM      2  H11 UNL     1      -9.563 -28.194 -29.348  1.00  0.00     0.174 HD
ATOM      3  H12 UNL     1     -11.163 -27.607 -29.822  1.00  0.00     0.174 HD
HETATM    4  C1  UNL     1     -11.142 -28.885 -28.299  1.00  0.00     0.705 A 
HETATM    5  N2  UNL     1     -12.492 -28.870 -28.127  1.00  0.00    -0.167 N 
ATOM      6  H2  UNL     1     -13.060 -28.288 -28.743  1.00  0.00     0.186 HD
HETATM    7  C2  UNL     1     -13.104 -29.595 -27.175  1.00  0.00     0.218 A 
HETATM    8  N5  UNL     1     -12.328 -30.356 -26.377  1.00  0.00    -0.195 N 
HETATM    9  C4  UNL     1     -10.985 -30.363 -26.558  1.00  0.00     0.266 A 
HETATM   10  N6  UNL     1     -10.373 -29.639 -27.508  1.00  0.00    -0.046 N 
ENDROOT
BRANCH   7  11
HETATM   11  C3  UNL     1     -14.549 -29.576 -26.995  1.00  0.00     0.306 C 
HETATM   12  O1  UNL     1     -15.199 -30.561 -26.568  1.00  0.00    -0.263 OA
HETATM   13  N3  UNL     1     -15.279 -28.397 -27.310  1.00  0.00    -0.270 N 
ATOM     14  H3  UNL     1     -14.772 -27.583 -27.658  1.00  0.00     0.189 HD
BRANCH  13  15
HETATM   15  N4  UNL     1     -16.666 -28.314 -27.159  1.00  0.00    -0.342 N 
ATOM     16  H42 UNL     1     -17.233 -28.239 -28.003  1.00  0.00     0.176 HD
ATOM     17  H41 UNL     1     -17.117 -28.327 -26.244  1.00  0.00     0.176 HD
ENDBRANCH  13  15
ENDBRANCH   7  11
BRANCH   8  18
HETATM   18  O2  UNL     1     -12.921 -31.108 -25.394  1.00  0.00    -0.280 OA
ATOM     19  H2  UNL     1     -12.375 -31.497 -24.719  1.00  0.00     0.245 HD
ENDBRANCH   8  18
BRANCH  10  20
HETATM   20  O3  UNL     1      -9.006 -29.652 -27.685  1.00  0.00    -0.269 OA
ATOM     21  H3  UNL     1      -8.430 -29.470 -26.952  1.00  0.00     0.246 HD
ENDBRANCH  10  20
TORSDOF 4
ENDMDL
MODEL 5
REMARK VINA RESULT: -6.063213317      1.295      1.300
REMARK  4 active torsions:
REMARK  status: ('A' for Active; 'I' for Inactive)
REMARK    1  A    between atoms: C2_7  and  C3_8 
REMARK       I    between atoms: C3_8  and  N3_10 
REMARK    2  A    between atoms: N3_10  and  N4_12 
REMARK    3  A    between atoms: N5_15  and  O2_16 
REMARK    4  A    between atoms: N6_19  and  O3_20 
ROOT
HETATM    1  N1  UNL     1     -15.422 -28.128 -24.643  1.00  0.00    -0.232 N 
ATOM      2  H11 UNL     1     -16.399 -27.847 -24.740  1.00  0.00     0.174 HD
ATOM      3  H12 UNL     1     -15.006 -28.220 -23.716  1.00  0.00     0.174 HD
HETATM    4  C1  UNL     1     -14.690 -28.375 -25.673  1.00  0.00     0.705 A 
HETATM    5  N2  UNL     1     -13.387 -28.750 -25.542  1.00  0.00    -0.167 N 
ATOM      6  H2  UNL     1     -12.991 -28.836 -24.606  1.00  0.00     0.186 HD
HETATM    7  C2  UNL     1     -12.604 -29.013 -26.603  1.00  0.00     0.218 A 
HETATM    8  N5  UNL     1     -13.155 -28.892 -27.828  1.00  0.00    -0.195 N 
HETATM    9  C4  UNL     1     -14.452 -28.518 -27.945  1.00  0.00     0.266 A 
HETATM   10  N6  UNL     1     -15.235 -28.256 -26.886  1.00  0.00    -0.046 N 
ENDROOT
BRANCH   7  11
HETATM   11  C3  UNL     1     -11.213 -29.414 -26.457  1.00  0.00     0.306 C 
HETATM   12  O1  UNL     1     -10.771 -30.515 -26.867  1.00  0.00    -0.263 OA
HETATM   13  N3  UNL     1     -10.291 -28.535 -25.827  1.00  0.00    -0.270 N 
ATOM     14  H3  UNL     1     -10.626 -27.634 -25.486  1.00  0.00     0.189 HD
BRANCH  13  15
HETATM   15  N4  UNL     1      -8.942 -28.861 -25.658  1.00  0.00    -0.342 N 
ATOM     16  H42 UNL     1      -8.693 -29.849 -25.616  1.00  0.00     0.176 HD
ATOM     17  H41 UNL     1      -8.215 -28.150 -25.576  1.00  0.00     0.176 HD
ENDBRANCH  13  15
ENDBRANCH   7  11
BRANCH   8  18
HETATM   18  O2  UNL     1     -12.383 -29.152 -28.932  1.00  0.00    -0.280 OA
ATOM     19  H2  UNL     1     -12.129 -30.050 -29.115  1.00  0.00     0.245 HD
ENDBRANCH   8  18
BRANCH  10  20
HETATM   20  O3  UNL     1     -16.553 -27.876 -27.016  1.00  0.00    -0.269 OA
ATOM     21  H3  UNL     1     -17.166 -28.037 -26.307  1.00  0.00     0.246 HD
ENDBRANCH  10  20
TORSDOF 4
ENDMDL
