MODEL 1
REMARK VINA RESULT: -6.308610340      0.000      0.000
REMARK  2 active torsions:
REMARK  status: ('A' for Active; 'I' for Inactive)
REMARK    1  A    between atoms: C1_2  and  C2_4 
REMARK    2  A    between atoms: N4_9  and  N5_10 
ROOT
HETATM    1  C2  UNL     1     -10.825 -29.807 -27.061  1.00  0.00     0.143 A 
HETATM    2  N2  UNL     1     -11.886 -30.291 -26.372  1.00  0.00    -0.321 N 
ATOM      3  H2  UNL     1     -11.722 -30.932 -25.596  1.00  0.00     0.169 HD
HETATM    4  C3  UNL     1     -13.127 -29.954 -26.680  1.00  0.00     0.230 A 
HETATM    5  N3  UNL     1     -14.271 -30.451 -25.968  1.00  0.00    -0.060 NA
HETATM    6  N4  UNL     1     -13.352 -29.108 -27.699  1.00  0.00    -0.170 N 
HETATM    7  N6  UNL     1     -12.337 -28.620 -28.390  1.00  0.00    -0.262 N 
ATOM      8  H6  UNL     1     -12.524 -27.979 -29.162  1.00  0.00     0.190 HD
HETATM    9  C4  UNL     1     -11.068 -28.943 -28.103  1.00  0.00     0.164 A 
HETATM   10  N7  UNL     1      -9.986 -28.389 -28.880  1.00  0.00    -0.079 NA
ENDROOT
BRANCH   1  11
HETATM   11  C1  UNL     1      -9.460 -30.165 -26.740  1.00  0.00     0.284 C 
HETATM   12  N1  UNL     1      -8.761 -29.483 -25.722  1.00  0.00    -0.056 NA
HETATM   13  O1  UNL     1      -8.888 -31.082 -27.362  1.00  0.00    -0.269 OA
ENDBRANCH   1  11
BRANCH   6  14
HETATM   14  N5  UNL     1     -14.667 -28.731 -28.050  1.00  0.00    -0.321 N 
ATOM     15  H52 UNL     1     -15.434 -29.379 -27.870  1.00  0.00     0.179 HD
ATOM     16  H51 UNL     1     -14.854 -27.823 -28.476  1.00  0.00     0.179 HD
ENDBRANCH   6  14
TORSDOF 2
ENDMDL
MODEL 2
REMARK VINA RESULT: -5.748466083      3.418      5.329
REMARK  2 active torsions:
REMARK  status: ('A' for Active; 'I' for Inactive)
REMARK    1  A    between atoms: C1_2  and  C2_4 
REMARK    2  A    between atoms: N4_9  and  N5_10 
ROOT
HETATM    1  C2  UNL     1     -15.011 -28.660 -26.711  1.00  0.00     0.143 A 
HETATM    2  N2  UNL     1     -14.143 -28.839 -27.736  1.00  0.00    -0.321 N 
ATOM      3  H2  UNL     1     -14.476 -29.269 -28.598  1.00  0.00     0.169 HD
HETATM    4  C3  UNL     1     -12.875 -28.471 -27.645  1.00  0.00     0.230 A 
HETATM    5  N3  UNL     1     -11.932 -28.649 -28.713  1.00  0.00    -0.060 NA
HETATM    6  N4  UNL     1     -12.428 -27.903 -26.513  1.00  0.00    -0.170 N 
HETATM    7  N6  UNL     1     -13.251 -27.715 -25.497  1.00  0.00    -0.262 N 
ATOM      8  H6  UNL     1     -12.896 -27.283 -24.644  1.00  0.00     0.190 HD
HETATM    9  C4  UNL     1     -14.540 -28.078 -25.558  1.00  0.00     0.164 A 
HETATM   10  N7  UNL     1     -15.408 -27.856 -24.426  1.00  0.00    -0.079 NA
ENDROOT
BRANCH   1  11
HETATM   11  C1  UNL     1     -16.400 -29.056 -26.791  1.00  0.00     0.284 C 
HETATM   12  N1  UNL     1     -16.787 -30.376 -26.481  1.00  0.00    -0.056 NA
HETATM   13  O1  UNL     1     -17.270 -28.231 -27.136  1.00  0.00    -0.269 OA
ENDBRANCH   1  11
BRANCH   6  14
HETATM   14  N5  UNL     1     -11.079 -27.501 -26.389  1.00  0.00    -0.321 N 
ATOM     15  H52 UNL     1     -10.525 -27.355 -27.233  1.00  0.00     0.179 HD
ATOM     16  H51 UNL     1     -10.660 -27.355 -25.471  1.00  0.00     0.179 HD
ENDBRANCH   6  14
TORSDOF 2
ENDMDL
MODEL 3
REMARK VINA RESULT: -5.705658720      2.623      4.669
REMARK  2 active torsions:
REMARK  status: ('A' for Active; 'I' for Inactive)
REMARK    1  A    between atoms: C1_2  and  C2_4 
REMARK    2  A    between atoms: N4_9  and  N5_10 
ROOT
HETATM    1  C2  UNL     1     -13.481 -28.900 -27.565  1.00  0.00     0.143 A 
HETATM    2  N2  UNL     1     -12.600 -28.316 -28.413  1.00  0.00    -0.321 N 
ATOM      3  H2  UNL     1     -12.874 -27.466 -28.905  1.00  0.00     0.169 HD
HETATM    4  C3  UNL     1     -11.395 -28.821 -28.620  1.00  0.00     0.230 A 
HETATM    5  N3  UNL     1     -10.441 -28.226 -29.513  1.00  0.00    -0.060 NA
HETATM    6  N4  UNL     1     -11.025 -29.940 -27.975  1.00  0.00    -0.170 N 
HETATM    7  N6  UNL     1     -11.862 -30.532 -27.141  1.00  0.00    -0.262 N 
ATOM      8  H6  UNL     1     -11.566 -31.381 -26.660  1.00  0.00     0.190 HD
HETATM    9  C4  UNL     1     -13.089 -30.045 -26.911  1.00  0.00     0.164 A 
HETATM   10  N7  UNL     1     -13.976 -30.719 -25.993  1.00  0.00    -0.079 NA
ENDROOT
BRANCH   1  11
HETATM   11  C1  UNL     1     -14.803 -28.362 -27.326  1.00  0.00     0.284 C 
HETATM   12  N1  UNL     1     -15.030 -27.464 -26.264  1.00  0.00    -0.056 NA
HETATM   13  O1  UNL     1     -15.757 -28.692 -28.060  1.00  0.00    -0.269 OA
ENDBRANCH   1  11
BRANCH   6  14
HETATM   14  N5  UNL     1      -9.744 -30.502 -28.177  1.00  0.00    -0.321 N 
ATOM     15  H52 UNL     1      -9.621 -31.208 -28.902  1.00  0.00     0.179 HD
ATOM     16  H51 UNL     1      -8.950 -30.208 -27.608  1.00  0.00     0.179 HD
ENDBRANCH   6  14
TORSDOF 2
ENDMDL
MODEL 4
REMARK VINA RESULT: -5.669800005      1.671      2.846
REMARK  2 active torsions:
REMARK  status: ('A' for Active; 'I' for Inactive)
REMARK    1  A    between atoms: C1_2  and  C2_4 
REMARK    2  A    between atoms: N4_9  and  N5_10 
ROOT
HETATM    1  C2  UNL     1     -11.892 -29.252 -28.231  1.00  0.00     0.143 A 
HETATM    2  N2  UNL     1     -13.132 -28.752 -28.445  1.00  0.00    -0.321 N 
ATOM      3  H2  UNL     1     -13.306 -28.196 -29.282  1.00  0.00     0.169 HD
HETATM    4  C3  UNL     1     -14.124 -28.965 -27.595  1.00  0.00     0.230 A 
HETATM    5  N3  UNL     1     -15.448 -28.448 -27.794  1.00  0.00    -0.060 NA
HETATM    6  N4  UNL     1     -13.905 -29.696 -26.489  1.00  0.00    -0.170 N 
HETATM    7  N6  UNL     1     -12.705 -30.197 -26.254  1.00  0.00    -0.262 N 
ATOM      8  H6  UNL     1     -12.555 -30.750 -25.410  1.00  0.00     0.190 HD
HETATM    9  C4  UNL     1     -11.681 -29.999 -27.095  1.00  0.00     0.164 A 
HETATM   10  N7  UNL     1     -10.385 -30.562 -26.804  1.00  0.00    -0.079 NA
ENDROOT
BRANCH   1  11
HETATM   11  C1  UNL     1     -10.795 -29.029 -29.148  1.00  0.00     0.284 C 
HETATM   12  N1  UNL     1     -10.744 -29.710 -30.382  1.00  0.00    -0.056 NA
HETATM   13  O1  UNL     1      -9.882 -28.231 -28.854  1.00  0.00    -0.269 OA
ENDBRANCH   1  11
BRANCH   6  14
HETATM   14  N5  UNL     1     -14.945 -29.940 -25.565  1.00  0.00    -0.321 N 
ATOM     15  H52 UNL     1     -15.660 -30.631 -25.793  1.00  0.00     0.179 HD
ATOM     16  H51 UNL     1     -14.986 -29.435 -24.680  1.00  0.00     0.179 HD
ENDBRANCH   6  14
TORSDOF 2
ENDMDL
MODEL 5
REMARK VINA RESULT: -5.646118077      2.042      3.325
REMARK  2 active torsions:
REMARK  status: ('A' for Active; 'I' for Inactive)
REMARK    1  A    between atoms: C1_2  and  C2_4 
REMARK    2  A    between atoms: N4_9  and  N5_10 
ROOT
HETATM    1  C2  UNL     1     -12.982 -28.989 -27.705  1.00  0.00     0.143 A 
HETATM    2  N2  UNL     1     -14.190 -28.403 -27.886  1.00  0.00    -0.321 N 
ATOM      3  H2  UNL     1     -14.271 -27.624 -28.539  1.00  0.00     0.169 HD
HETATM    4  C3  UNL     1     -15.267 -28.815 -27.237  1.00  0.00     0.230 A 
HETATM    5  N3  UNL     1     -16.559 -28.214 -27.407  1.00  0.00    -0.060 NA
HETATM    6  N4  UNL     1     -15.170 -29.842 -26.375  1.00  0.00    -0.170 N 
HETATM    7  N6  UNL     1     -14.005 -30.433 -26.179  1.00  0.00    -0.262 N 
ATOM      8  H6  UNL     1     -13.947 -31.211 -25.521  1.00  0.00     0.190 HD
HETATM    9  C4  UNL     1     -12.897 -30.038 -26.821  1.00  0.00     0.164 A 
HETATM   10  N7  UNL     1     -11.642 -30.709 -26.579  1.00  0.00    -0.079 NA
ENDROOT
BRANCH   1  11
HETATM   11  C1  UNL     1     -11.794 -28.551 -28.406  1.00  0.00     0.284 C 
HETATM   12  N1  UNL     1     -11.541 -28.981 -29.724  1.00  0.00    -0.056 NA
HETATM   13  O1  UNL     1     -10.980 -27.788 -27.847  1.00  0.00    -0.269 OA
ENDBRANCH   1  11
BRANCH   6  14
HETATM   14  N5  UNL     1     -16.303 -30.303 -25.669  1.00  0.00    -0.321 N 
ATOM     15  H52 UNL     1     -17.184 -29.797 -25.759  1.00  0.00     0.179 HD
ATOM     16  H51 UNL     1     -16.247 -31.131 -25.076  1.00  0.00     0.179 HD
ENDBRANCH   6  14
TORSDOF 2
ENDMDL
