MODEL 1
REMARK VINA RESULT: -6.095651036      0.000      0.000
REMARK  11 active torsions:
REMARK  status: ('A' for Active; 'I' for Inactive)
REMARK    1  A    between atoms: C4_4  and  O1_5 
REMARK    2  A    between atoms: C9_11  and  O2_12 
REMARK    3  A    between atoms: C13_17  and  O3_18 
REMARK    4  A    between atoms: C18_24  and  O4_25 
REMARK    5  A    between atoms: O4_25  and  C19_26 
REMARK    6  A    between atoms: C19_26  and  C20_27 
REMARK    7  A    between atoms: C20_27  and  C21_28 
REMARK    8  A    between atoms: C21_28  and  C22_29 
REMARK    9  A    between atoms: C22_29  and  C23_30 
REMARK   10  A    between atoms: C23_30  and  C24_31 
REMARK   11  A    between atoms: C24_31  and  N1_32 
ROOT
HETATM    1  C1  UNL     1      36.273  40.772  56.532  1.00  0.00     0.020 C 
HETATM    2  C2  UNL     1      37.395  39.811  56.696  1.00  0.00     0.011 C 
HETATM    3  C3  UNL     1      37.387  39.046  55.365  1.00  0.00     0.020 C 
HETATM    4  C4  UNL     1      38.661  40.640  56.673  1.00  0.00     0.129 C 
HETATM    5  C5  UNL     1      39.551  40.719  57.810  1.00  0.00     0.033 C 
HETATM    6  C6  UNL     1      39.244  40.042  59.084  1.00  0.00     0.017 C 
HETATM    7  C7  UNL     1      37.766  39.691  59.080  1.00  0.00     0.015 C 
HETATM    8  C8  UNL     1      37.168  41.006  59.312  1.00  0.00     0.021 C 
HETATM    9  C9  UNL     1      37.561  38.922  60.389  1.00  0.00     0.129 C 
HETATM   10  C10 UNL     1      36.094  38.822  60.576  1.00  0.00     0.038 C 
HETATM   11  C11 UNL     1      35.324  38.591  59.297  1.00  0.00     0.002 C 
HETATM   12  C12 UNL     1      34.141  37.754  59.689  1.00  0.00     0.037 C 
HETATM   13  C13 UNL     1      34.433  36.357  60.054  1.00  0.00     0.118 C 
HETATM   14  C14 UNL     1      35.374  35.799  59.071  1.00  0.00     0.032 C 
HETATM   15  C15 UNL     1      36.408  36.608  58.444  1.00  0.00     0.015 C 
HETATM   16  C16 UNL     1      36.145  38.081  58.163  1.00  0.00    -0.007 C 
HETATM   17  C17 UNL     1      35.184  37.956  56.997  1.00  0.00     0.019 C 
HETATM   18  C18 UNL     1      37.422  38.852  57.877  1.00  0.00     0.087 C 
ENDROOT
BRANCH  18  19
HETATM   19  O4  UNL     1      38.466  38.143  57.558  1.00  0.00    -0.378 OA
BRANCH  19  20
HETATM   20  C19 UNL     1      39.193  37.184  57.374  1.00  0.00     0.169 C 
BRANCH  20  21
HETATM   21  C20 UNL     1      40.044  37.030  56.086  1.00  0.00     0.026 C 
BRANCH  21  22
HETATM   22  C21 UNL     1      39.303  36.057  55.227  1.00  0.00     0.002 C 
BRANCH  22  23
HETATM   23  C22 UNL     1      39.378  36.400  53.765  1.00  0.00     0.002 C 
BRANCH  23  24
HETATM   24  C23 UNL     1      39.724  35.203  52.923  1.00  0.00     0.027 C 
BRANCH  24  25
HETATM   25  C24 UNL     1      40.501  35.671  51.709  1.00  0.00     0.229 C 
BRANCH  25  26
HETATM   26  N1  UNL     1      40.143  37.046  51.404  1.00  0.00    -0.079 N 
ATOM     27  H13 UNL     1      40.517  37.351  50.506  1.00  0.00     0.274 HD
ATOM     28  H12 UNL     1      39.151  37.148  51.193  1.00  0.00     0.274 HD
ATOM     29  H11 UNL     1      40.438  37.652  52.170  1.00  0.00     0.274 HD
ENDBRANCH  25  26
ENDBRANCH  24  25
ENDBRANCH  23  24
ENDBRANCH  22  23
ENDBRANCH  21  22
ENDBRANCH  20  21
ENDBRANCH  19  20
ENDBRANCH  18  19
BRANCH   4  30
HETATM   30  O1  UNL     1      39.429  40.481  55.488  1.00  0.00    -0.395 OA
ATOM     31  H1  UNL     1      39.415  39.598  55.137  1.00  0.00     0.210 HD
ENDBRANCH   4  30
BRANCH   9  32
HETATM   32  O2  UNL     1      38.064  39.764  61.413  1.00  0.00    -0.395 OA
ATOM     33  H2  UNL     1      37.474  40.507  61.448  1.00  0.00     0.210 HD
ENDBRANCH   9  32
BRANCH  13  34
HETATM   34  O3  UNL     1      33.267  35.574  60.200  1.00  0.00    -0.396 OA
ATOM     35  H3  UNL     1      33.272  34.799  59.651  1.00  0.00     0.210 HD
ENDBRANCH  13  34
TORSDOF 11
ENDMDL
MODEL 2
REMARK VINA RESULT: -6.040758969      2.328      5.137
REMARK  11 active torsions:
REMARK  status: ('A' for Active; 'I' for Inactive)
REMARK    1  A    between atoms: C4_4  and  O1_5 
REMARK    2  A    between atoms: C9_11  and  O2_12 
REMARK    3  A    between atoms: C13_17  and  O3_18 
REMARK    4  A    between atoms: C18_24  and  O4_25 
REMARK    5  A    between atoms: O4_25  and  C19_26 
REMARK    6  A    between atoms: C19_26  and  C20_27 
REMARK    7  A    between atoms: C20_27  and  C21_28 
REMARK    8  A    between atoms: C21_28  and  C22_29 
REMARK    9  A    between atoms: C22_29  and  C23_30 
REMARK   10  A    between atoms: C23_30  and  C24_31 
REMARK   11  A    between atoms: C24_31  and  N1_32 
ROOT
HETATM    1  C1  UNL     1      38.544  37.898  59.582  1.00  0.00     0.020 C 
HETATM    2  C2  UNL     1      37.356  37.458  58.803  1.00  0.00     0.011 C 
HETATM    3  C3  UNL     1      37.426  35.928  58.910  1.00  0.00     0.020 C 
HETATM    4  C4  UNL     1      36.148  37.861  59.621  1.00  0.00     0.129 C 
HETATM    5  C5  UNL     1      35.175  38.815  59.139  1.00  0.00     0.033 C 
HETATM    6  C6  UNL     1      35.337  39.500  57.842  1.00  0.00     0.017 C 
HETATM    7  C7  UNL     1      36.787  39.350  57.414  1.00  0.00     0.015 C 
HETATM    8  C8  UNL     1      37.442  40.299  58.315  1.00  0.00     0.021 C 
HETATM    9  C9  UNL     1      36.838  40.009  56.032  1.00  0.00     0.129 C 
HETATM   10  C10 UNL     1      38.277  40.157  55.706  1.00  0.00     0.038 C 
HETATM   11  C11 UNL     1      39.132  38.995  56.153  1.00  0.00     0.002 C 
HETATM   12  C12 UNL     1      40.227  38.890  55.131  1.00  0.00     0.037 C 
HETATM   13  C13 UNL     1      39.823  38.399  53.803  1.00  0.00     0.118 C 
HETATM   14  C14 UNL     1      38.934  37.242  53.978  1.00  0.00     0.032 C 
HETATM   15  C15 UNL     1      38.005  37.141  55.093  1.00  0.00     0.015 C 
HETATM   16  C16 UNL     1      38.378  37.743  56.440  1.00  0.00    -0.007 C 
HETATM   17  C17 UNL     1      39.421  36.741  56.894  1.00  0.00     0.019 C 
HETATM   18  C18 UNL     1      37.176  37.896  57.357  1.00  0.00     0.087 C 
ENDROOT
BRANCH  18  19
HETATM   19  O4  UNL     1      36.121  37.199  57.048  1.00  0.00    -0.378 OA
BRANCH  19  20
HETATM   20  C19 UNL     1      35.372  36.452  56.447  1.00  0.00     0.169 C 
BRANCH  20  21
HETATM   21  C20 UNL     1      35.194  34.964  56.851  1.00  0.00     0.026 C 
BRANCH  21  22
HETATM   22  C21 UNL     1      35.739  34.169  55.707  1.00  0.00     0.002 C 
BRANCH  22  23
HETATM   23  C22 UNL     1      36.784  33.177  56.137  1.00  0.00     0.002 C 
BRANCH  23  24
HETATM   24  C23 UNL     1      37.566  32.641  54.968  1.00  0.00     0.027 C 
BRANCH  24  25
HETATM   25  C24 UNL     1      37.519  33.658  53.846  1.00  0.00     0.229 C 
BRANCH  25  26
HETATM   26  N1  UNL     1      37.485  32.968  52.567  1.00  0.00    -0.079 N 
ATOM     27  H13 UNL     1      36.549  32.949  52.165  1.00  0.00     0.274 HD
ATOM     28  H12 UNL     1      37.950  33.499  51.830  1.00  0.00     0.274 HD
ATOM     29  H11 UNL     1      37.879  32.033  52.675  1.00  0.00     0.274 HD
ENDBRANCH  25  26
ENDBRANCH  24  25
ENDBRANCH  23  24
ENDBRANCH  22  23
ENDBRANCH  21  22
ENDBRANCH  20  21
ENDBRANCH  19  20
ENDBRANCH  18  19
BRANCH   4  30
HETATM   30  O1  UNL     1      35.471  36.765  60.222  1.00  0.00    -0.395 OA
ATOM     31  H1  UNL     1      36.041  36.185  60.713  1.00  0.00     0.210 HD
ENDBRANCH   4  30
BRANCH   9  32
HETATM   32  O2  UNL     1      36.305  41.311  56.207  1.00  0.00    -0.395 OA
ATOM     33  H2  UNL     1      37.055  41.888  56.291  1.00  0.00     0.210 HD
ENDBRANCH   9  32
BRANCH  13  34
HETATM   34  O3  UNL     1      40.925  38.121  52.964  1.00  0.00    -0.396 OA
ATOM     35  H3  UNL     1      41.113  37.192  52.898  1.00  0.00     0.210 HD
ENDBRANCH  13  34
TORSDOF 11
ENDMDL
MODEL 3
REMARK VINA RESULT: -5.910040714      2.814      5.759
REMARK  11 active torsions:
REMARK  status: ('A' for Active; 'I' for Inactive)
REMARK    1  A    between atoms: C4_4  and  O1_5 
REMARK    2  A    between atoms: C9_11  and  O2_12 
REMARK    3  A    between atoms: C13_17  and  O3_18 
REMARK    4  A    between atoms: C18_24  and  O4_25 
REMARK    5  A    between atoms: O4_25  and  C19_26 
REMARK    6  A    between atoms: C19_26  and  C20_27 
REMARK    7  A    between atoms: C20_27  and  C21_28 
REMARK    8  A    between atoms: C21_28  and  C22_29 
REMARK    9  A    between atoms: C22_29  and  C23_30 
REMARK   10  A    between atoms: C23_30  and  C24_31 
REMARK   11  A    between atoms: C24_31  and  N1_32 
ROOT
HETATM    1  C1  UNL     1      38.820  38.340  59.519  1.00  0.00     0.020 C 
HETATM    2  C2  UNL     1      37.640  37.887  58.736  1.00  0.00     0.011 C 
HETATM    3  C3  UNL     1      37.770  36.358  58.778  1.00  0.00     0.020 C 
HETATM    4  C4  UNL     1      36.428  38.208  59.586  1.00  0.00     0.129 C 
HETATM    5  C5  UNL     1      35.413  39.143  59.156  1.00  0.00     0.033 C 
HETATM    6  C6  UNL     1      35.531  39.889  57.888  1.00  0.00     0.017 C 
HETATM    7  C7  UNL     1      36.979  39.813  57.437  1.00  0.00     0.015 C 
HETATM    8  C8  UNL     1      37.610  40.748  58.369  1.00  0.00     0.021 C 
HETATM    9  C9  UNL     1      36.987  40.531  56.083  1.00  0.00     0.129 C 
HETATM   10  C10 UNL     1      38.414  40.749  55.747  1.00  0.00     0.038 C 
HETATM   11  C11 UNL     1      39.319  39.603  56.133  1.00  0.00     0.002 C 
HETATM   12  C12 UNL     1      40.404  39.583  55.096  1.00  0.00     0.037 C 
HETATM   13  C13 UNL     1      40.001  39.134  53.752  1.00  0.00     0.118 C 
HETATM   14  C14 UNL     1      39.159  37.936  53.888  1.00  0.00     0.032 C 
HETATM   15  C15 UNL     1      38.249  37.752  55.009  1.00  0.00     0.015 C 
HETATM   16  C16 UNL     1      38.617  38.312  56.376  1.00  0.00    -0.007 C 
HETATM   17  C17 UNL     1      39.704  37.332  56.774  1.00  0.00     0.019 C 
HETATM   18  C18 UNL     1      37.423  38.379  57.313  1.00  0.00     0.087 C 
ENDROOT
BRANCH  18  19
HETATM   19  O4  UNL     1      36.392  37.655  56.987  1.00  0.00    -0.378 OA
BRANCH  19  20
HETATM   20  C19 UNL     1      35.596  37.022  56.318  1.00  0.00     0.169 C 
BRANCH  20  21
HETATM   21  C20 UNL     1      35.129  35.599  56.722  1.00  0.00     0.026 C 
BRANCH  21  22
HETATM   22  C21 UNL     1      36.142  34.663  56.145  1.00  0.00     0.002 C 
BRANCH  22  23
HETATM   23  C22 UNL     1      36.251  33.378  56.918  1.00  0.00     0.002 C 
BRANCH  23  24
HETATM   24  C23 UNL     1      35.294  33.337  58.078  1.00  0.00     0.027 C 
BRANCH  24  25
HETATM   25  C24 UNL     1      36.085  33.118  59.352  1.00  0.00     0.229 C 
BRANCH  25  26
HETATM   26  N1  UNL     1      35.610  34.028  60.380  1.00  0.00    -0.079 N 
ATOM     27  H13 UNL     1      36.266  34.107  61.157  1.00  0.00     0.274 HD
ATOM     28  H12 UNL     1      35.629  35.000  60.073  1.00  0.00     0.274 HD
ATOM     29  H11 UNL     1      34.681  33.739  60.688  1.00  0.00     0.274 HD
ENDBRANCH  25  26
ENDBRANCH  24  25
ENDBRANCH  23  24
ENDBRANCH  22  23
ENDBRANCH  21  22
ENDBRANCH  20  21
ENDBRANCH  19  20
ENDBRANCH  18  19
BRANCH   4  30
HETATM   30  O1  UNL     1      35.801  37.062  60.147  1.00  0.00    -0.395 OA
ATOM     31  H1  UNL     1      35.540  37.174  61.054  1.00  0.00     0.210 HD
ENDBRANCH   4  30
BRANCH   9  32
HETATM   32  O2  UNL     1      36.406  41.803  56.319  1.00  0.00    -0.395 OA
ATOM     33  H2  UNL     1      36.469  42.272  55.495  1.00  0.00     0.210 HD
ENDBRANCH   9  32
BRANCH  13  34
HETATM   34  O3  UNL     1      41.101  38.934  52.889  1.00  0.00    -0.396 OA
ATOM     35  H3  UNL     1      41.099  38.076  52.482  1.00  0.00     0.210 HD
ENDBRANCH  13  34
TORSDOF 11
ENDMDL
MODEL 4
REMARK VINA RESULT: -5.884026504      2.461      3.461
REMARK  11 active torsions:
REMARK  status: ('A' for Active; 'I' for Inactive)
REMARK    1  A    between atoms: C4_4  and  O1_5 
REMARK    2  A    between atoms: C9_11  and  O2_12 
REMARK    3  A    between atoms: C13_17  and  O3_18 
REMARK    4  A    between atoms: C18_24  and  O4_25 
REMARK    5  A    between atoms: O4_25  and  C19_26 
REMARK    6  A    between atoms: C19_26  and  C20_27 
REMARK    7  A    between atoms: C20_27  and  C21_28 
REMARK    8  A    between atoms: C21_28  and  C22_29 
REMARK    9  A    between atoms: C22_29  and  C23_30 
REMARK   10  A    between atoms: C23_30  and  C24_31 
REMARK   11  A    between atoms: C24_31  and  N1_32 
ROOT
HETATM    1  C1  UNL     1      36.917  43.309  59.157  1.00  0.00     0.020 C 
HETATM    2  C2  UNL     1      38.200  42.715  58.697  1.00  0.00     0.011 C 
HETATM    3  C3  UNL     1      38.404  43.368  57.323  1.00  0.00     0.020 C 
HETATM    4  C4  UNL     1      39.275  43.307  59.584  1.00  0.00     0.129 C 
HETATM    5  C5  UNL     1      40.080  42.493  60.466  1.00  0.00     0.033 C 
HETATM    6  C6  UNL     1      39.858  41.040  60.599  1.00  0.00     0.017 C 
HETATM    7  C7  UNL     1      38.482  40.726  60.039  1.00  0.00     0.015 C 
HETATM    8  C8  UNL     1      37.624  41.239  61.107  1.00  0.00     0.021 C 
HETATM    9  C9  UNL     1      38.377  39.201  60.137  1.00  0.00     0.129 C 
HETATM   10  C10 UNL     1      36.953  38.875  59.889  1.00  0.00     0.038 C 
HETATM   11  C11 UNL     1      36.302  39.728  58.826  1.00  0.00     0.002 C 
HETATM   12  C12 UNL     1      35.294  38.837  58.160  1.00  0.00     0.037 C 
HETATM   13  C13 UNL     1      35.843  37.766  57.311  1.00  0.00     0.118 C 
HETATM   14  C14 UNL     1      36.918  38.327  56.480  1.00  0.00     0.032 C 
HETATM   15  C15 UNL     1      37.797  39.383  56.959  1.00  0.00     0.015 C 
HETATM   16  C16 UNL     1      37.257  40.431  57.923  1.00  0.00    -0.007 C 
HETATM   17  C17 UNL     1      36.393  41.238  56.974  1.00  0.00     0.019 C 
HETATM   18  C18 UNL     1      38.366  41.205  58.615  1.00  0.00     0.087 C 
ENDROOT
BRANCH  18  19
HETATM   19  O4  UNL     1      39.544  41.145  58.063  1.00  0.00    -0.378 OA
BRANCH  19  20
HETATM   20  C19 UNL     1      40.464  40.785  57.352  1.00  0.00     0.169 C 
BRANCH  20  21
HETATM   21  C20 UNL     1      40.948  41.628  56.142  1.00  0.00     0.026 C 
BRANCH  21  22
HETATM   22  C21 UNL     1      40.425  40.927  54.929  1.00  0.00     0.002 C 
BRANCH  22  23
HETATM   23  C22 UNL     1      40.736  39.456  54.931  1.00  0.00     0.002 C 
BRANCH  23  24
HETATM   24  C23 UNL     1      41.241  38.986  53.594  1.00  0.00     0.027 C 
BRANCH  24  25
HETATM   25  C24 UNL     1      42.545  39.695  53.291  1.00  0.00     0.229 C 
BRANCH  25  26
HETATM   26  N1  UNL     1      42.455  40.342  51.993  1.00  0.00    -0.079 N 
ATOM     27  H13 UNL     1      43.321  40.817  51.739  1.00  0.00     0.274 HD
ATOM     28  H12 UNL     1      42.428  39.668  51.227  1.00  0.00     0.274 HD
ATOM     29  H11 UNL     1      41.652  40.971  51.981  1.00  0.00     0.274 HD
ENDBRANCH  25  26
ENDBRANCH  24  25
ENDBRANCH  23  24
ENDBRANCH  22  23
ENDBRANCH  21  22
ENDBRANCH  20  21
ENDBRANCH  19  20
ENDBRANCH  18  19
BRANCH   4  30
HETATM   30  O1  UNL     1      40.111  44.248  58.922  1.00  0.00    -0.395 OA
ATOM     31  H1  UNL     1      39.755  45.128  58.901  1.00  0.00     0.210 HD
ENDBRANCH   4  30
BRANCH   9  32
HETATM   32  O2  UNL     1      38.657  38.883  61.491  1.00  0.00    -0.395 OA
ATOM     33  H2  UNL     1      37.851  39.048  61.966  1.00  0.00     0.210 HD
ENDBRANCH   9  32
BRANCH  13  34
HETATM   34  O3  UNL     1      34.851  37.108  56.551  1.00  0.00    -0.396 OA
ATOM     35  H3  UNL     1      34.032  37.007  57.021  1.00  0.00     0.210 HD
ENDBRANCH  13  34
TORSDOF 11
ENDMDL
MODEL 5
REMARK VINA RESULT: -5.835331279      3.208      5.690
REMARK  11 active torsions:
REMARK  status: ('A' for Active; 'I' for Inactive)
REMARK    1  A    between atoms: C4_4  and  O1_5 
REMARK    2  A    between atoms: C9_11  and  O2_12 
REMARK    3  A    between atoms: C13_17  and  O3_18 
REMARK    4  A    between atoms: C18_24  and  O4_25 
REMARK    5  A    between atoms: O4_25  and  C19_26 
REMARK    6  A    between atoms: C19_26  and  C20_27 
REMARK    7  A    between atoms: C20_27  and  C21_28 
REMARK    8  A    between atoms: C21_28  and  C22_29 
REMARK    9  A    between atoms: C22_29  and  C23_30 
REMARK   10  A    between atoms: C23_30  and  C24_31 
REMARK   11  A    between atoms: C24_31  and  N1_32 
ROOT
HETATM    1  C1  UNL     1      36.763  40.678  59.784  1.00  0.00     0.020 C 
HETATM    2  C2  UNL     1      37.566  40.692  58.533  1.00  0.00     0.011 C 
HETATM    3  C3  UNL     1      37.972  39.221  58.371  1.00  0.00     0.020 C 
HETATM    4  C4  UNL     1      36.586  40.963  57.411  1.00  0.00     0.129 C 
HETATM    5  C5  UNL     1      36.666  42.148  56.589  1.00  0.00     0.033 C 
HETATM    6  C6  UNL     1      37.673  43.198  56.835  1.00  0.00     0.017 C 
HETATM    7  C7  UNL     1      38.217  43.000  58.239  1.00  0.00     0.015 C 
HETATM    8  C8  UNL     1      37.099  43.492  59.043  1.00  0.00     0.021 C 
HETATM    9  C9  UNL     1      39.307  44.068  58.371  1.00  0.00     0.129 C 
HETATM   10  C10 UNL     1      39.657  44.116  59.811  1.00  0.00     0.038 C 
HETATM   11  C11 UNL     1      39.672  42.765  60.486  1.00  0.00     0.002 C 
HETATM   12  C12 UNL     1      40.738  42.856  61.538  1.00  0.00     0.037 C 
HETATM   13  C13 UNL     1      42.126  42.898  61.047  1.00  0.00     0.118 C 
HETATM   14  C14 UNL     1      42.285  41.884  59.994  1.00  0.00     0.032 C 
HETATM   15  C15 UNL     1      41.208  41.546  59.075  1.00  0.00     0.015 C 
HETATM   16  C16 UNL     1      39.764  41.606  59.554  1.00  0.00    -0.007 C 
HETATM   17  C17 UNL     1      39.731  40.375  60.438  1.00  0.00     0.019 C 
HETATM   18  C18 UNL     1      38.773  41.609  58.402  1.00  0.00     0.087 C 
ENDROOT
BRANCH  18  19
HETATM   19  O4  UNL     1      39.227  41.209  57.249  1.00  0.00    -0.378 OA
BRANCH  19  20
HETATM   20  C19 UNL     1      40.000  40.896  56.363  1.00  0.00     0.169 C 
BRANCH  20  21
HETATM   21  C20 UNL     1      39.592  39.935  55.215  1.00  0.00     0.026 C 
BRANCH  21  22
HETATM   22  C21 UNL     1      40.801  39.100  54.940  1.00  0.00     0.002 C 
BRANCH  22  23
HETATM   23  C22 UNL     1      41.399  39.373  53.588  1.00  0.00     0.002 C 
BRANCH  23  24
HETATM   24  C23 UNL     1      42.729  40.069  53.691  1.00  0.00     0.027 C 
BRANCH  24  25
HETATM   25  C24 UNL     1      42.521  41.552  53.459  1.00  0.00     0.229 C 
BRANCH  25  26
HETATM   26  N1  UNL     1      41.354  41.752  52.618  1.00  0.00    -0.079 N 
ATOM     27  H13 UNL     1      41.471  41.342  51.691  1.00  0.00     0.274 HD
ATOM     28  H12 UNL     1      40.557  41.194  52.924  1.00  0.00     0.274 HD
ATOM     29  H11 UNL     1      41.132  42.747  52.573  1.00  0.00     0.274 HD
ENDBRANCH  25  26
ENDBRANCH  24  25
ENDBRANCH  23  24
ENDBRANCH  22  23
ENDBRANCH  21  22
ENDBRANCH  20  21
ENDBRANCH  19  20
ENDBRANCH  18  19
BRANCH   4  30
HETATM   30  O1  UNL     1      36.337  39.834  56.583  1.00  0.00    -0.395 OA
ATOM     31  H1  UNL     1      37.081  39.579  56.050  1.00  0.00     0.210 HD
ENDBRANCH   4  30
BRANCH   9  32
HETATM   32  O2  UNL     1      38.681  45.298  58.044  1.00  0.00    -0.395 OA
ATOM     33  H2  UNL     1      39.348  45.820  57.614  1.00  0.00     0.210 HD
ENDBRANCH   9  32
BRANCH  13  34
HETATM   34  O3  UNL     1      43.078  42.766  62.082  1.00  0.00    -0.396 OA
ATOM     35  H3  UNL     1      42.862  43.282  62.849  1.00  0.00     0.210 HD
ENDBRANCH  13  34
TORSDOF 11
ENDMDL
