MODEL 1
REMARK VINA RESULT: -8.352829109      0.000      0.000
REMARK  9 active torsions:
REMARK  status: ('A' for Active; 'I' for Inactive)
REMARK    1  A    between atoms: C11_11  and  O1_12 
REMARK    2  A    between atoms: C12_14  and  O2_15 
REMARK    3  A    between atoms: C20_24  and  N1_25 
REMARK    4  A    between atoms: N1_25  and  C21_27 
REMARK    5  A    between atoms: C21_27  and  C22_28 
REMARK    6  A    between atoms: C22_28  and  N2_29 
REMARK    7  A    between atoms: N2_29  and  C24_31 
REMARK    8  A    between atoms: C24_31  and  C25_32 
REMARK    9  A    between atoms: C25_32  and  O3_33 
ROOT
HETATM    1  C1  UNL     1      35.581  37.545  59.091  1.00  0.00     0.016 C 
HETATM    2  C2  UNL     1      36.358  36.633  58.550  1.00  0.00    -0.066 C 
HETATM    3  C3  UNL     1      37.788  36.449  59.007  1.00  0.00     0.036 C 
HETATM    4  C4  UNL     1      38.672  36.670  57.833  1.00  0.00     0.010 C 
HETATM    5  C5  UNL     1      38.249  36.076  56.528  1.00  0.00     0.001 C 
HETATM    6  C6  UNL     1      39.116  36.703  55.461  1.00  0.00    -0.001 C 
HETATM    7  C7  UNL     1      39.645  35.714  54.440  1.00  0.00     0.010 C 
HETATM    8  C8  UNL     1      39.932  36.344  53.097  1.00  0.00     0.039 C 
HETATM    9  C9  UNL     1      40.258  37.799  53.174  1.00  0.00    -0.049 A 
HETATM   10  C10 UNL     1      41.296  38.379  52.481  1.00  0.00     0.047 A 
HETATM   11  C11 UNL     1      41.504  39.742  52.629  1.00  0.00     0.099 A 
HETATM   12  C12 UNL     1      40.672  40.492  53.466  1.00  0.00     0.099 A 
HETATM   13  C13 UNL     1      39.629  39.902  54.161  1.00  0.00     0.047 A 
HETATM   14  C14 UNL     1      39.439  38.551  53.999  1.00  0.00    -0.044 A 
HETATM   15  C15 UNL     1      38.378  37.757  54.652  1.00  0.00     0.024 C 
HETATM   16  C16 UNL     1      37.355  38.479  55.424  1.00  0.00     0.010 C 
HETATM   17  C17 UNL     1      36.294  37.469  55.809  1.00  0.00     0.012 C 
HETATM   18  C18 UNL     1      36.810  36.141  56.220  1.00  0.00    -0.016 C 
HETATM   19  C19 UNL     1      36.404  35.042  55.215  1.00  0.00     0.018 C 
HETATM   20  C20 UNL     1      35.983  35.717  57.455  1.00  0.00     0.117 C 
ENDROOT
BRANCH  20  21
HETATM   21  N1  UNL     1      36.144  34.373  57.775  1.00  0.00    -0.392 N 
ATOM     22  H1  UNL     1      36.994  33.919  57.442  1.00  0.00     0.159 HD
BRANCH  21  23
HETATM   23  C21 UNL     1      35.263  33.594  58.503  1.00  0.00     0.086 C 
BRANCH  23  24
HETATM   24  C22 UNL     1      35.251  33.590  60.001  1.00  0.00     0.316 C 
BRANCH  24  25
HETATM   25  N2  UNL     1      34.092  32.980  60.568  1.00  0.00     0.090 N 
HETATM   26  C23 UNL     1      34.438  31.733  61.182  1.00  0.00     0.310 C 
BRANCH  25  27
HETATM   27  C24 UNL     1      33.290  33.853  61.325  1.00  0.00     0.298 C 
BRANCH  27  28
HETATM   28  C25 UNL     1      32.265  33.087  62.180  1.00  0.00     0.194 C 
BRANCH  28  29
HETATM   29  O3  UNL     1      32.271  33.700  63.453  1.00  0.00    -0.399 OA
ATOM     30  H3  UNL     1      31.711  33.169  64.008  1.00  0.00     0.209 HD
ENDBRANCH  28  29
ENDBRANCH  27  28
ENDBRANCH  25  27
ENDBRANCH  24  25
ENDBRANCH  23  24
ENDBRANCH  21  23
ENDBRANCH  20  21
BRANCH  12  31
HETATM   31  O2  UNL     1      40.941  41.828  53.558  1.00  0.00    -0.358 OA
ATOM     32  H2  UNL     1      40.995  42.309  52.741  1.00  0.00     0.217 HD
ENDBRANCH  12  31
BRANCH  11  33
HETATM   33  O1  UNL     1      42.539  40.318  51.936  1.00  0.00    -0.358 OA
ATOM     34  H1  UNL     1      42.328  40.910  51.224  1.00  0.00     0.217 HD
ENDBRANCH  11  33
TORSDOF 9
ENDMDL
MODEL 2
REMARK VINA RESULT: -8.187623549      1.695      2.163
REMARK  9 active torsions:
REMARK  status: ('A' for Active; 'I' for Inactive)
REMARK    1  A    between atoms: C11_11  and  O1_12 
REMARK    2  A    between atoms: C12_14  and  O2_15 
REMARK    3  A    between atoms: C20_24  and  N1_25 
REMARK    4  A    between atoms: N1_25  and  C21_27 
REMARK    5  A    between atoms: C21_27  and  C22_28 
REMARK    6  A    between atoms: C22_28  and  N2_29 
REMARK    7  A    between atoms: N2_29  and  C24_31 
REMARK    8  A    between atoms: C24_31  and  C25_32 
REMARK    9  A    between atoms: C25_32  and  O3_33 
ROOT
HETATM    1  C1  UNL     1      36.516  38.326  59.262  1.00  0.00     0.016 C 
HETATM    2  C2  UNL     1      36.911  37.504  58.316  1.00  0.00    -0.066 C 
HETATM    3  C3  UNL     1      38.109  36.600  58.512  1.00  0.00     0.036 C 
HETATM    4  C4  UNL     1      39.104  36.929  57.458  1.00  0.00     0.010 C 
HETATM    5  C5  UNL     1      38.591  37.158  56.072  1.00  0.00     0.001 C 
HETATM    6  C6  UNL     1      39.722  37.780  55.286  1.00  0.00    -0.001 C 
HETATM    7  C7  UNL     1      39.900  37.192  53.899  1.00  0.00     0.010 C 
HETATM    8  C8  UNL     1      40.524  38.161  52.921  1.00  0.00     0.039 C 
HETATM    9  C9  UNL     1      41.390  39.191  53.566  1.00  0.00    -0.049 A 
HETATM   10  C10 UNL     1      42.627  39.551  53.081  1.00  0.00     0.047 A 
HETATM   11  C11 UNL     1      43.343  40.523  53.764  1.00  0.00     0.099 A 
HETATM   12  C12 UNL     1      42.809  41.110  54.915  1.00  0.00     0.099 A 
HETATM   13  C13 UNL     1      41.563  40.743  55.398  1.00  0.00     0.047 A 
HETATM   14  C14 UNL     1      40.869  39.781  54.706  1.00  0.00    -0.044 A 
HETATM   15  C15 UNL     1      39.530  39.271  55.068  1.00  0.00     0.024 C 
HETATM   16  C16 UNL     1      38.815  39.938  56.166  1.00  0.00     0.010 C 
HETATM   17  C17 UNL     1      37.413  39.366  56.196  1.00  0.00     0.012 C 
HETATM   18  C18 UNL     1      37.326  37.904  55.962  1.00  0.00    -0.016 C 
HETATM   19  C19 UNL     1      36.604  37.587  54.635  1.00  0.00     0.018 C 
HETATM   20  C20 UNL     1      36.299  37.361  56.981  1.00  0.00     0.117 C 
ENDROOT
BRANCH  20  21
HETATM   21  N1  UNL     1      35.888  36.064  56.693  1.00  0.00    -0.392 N 
ATOM     22  H1  UNL     1      36.305  35.620  55.874  1.00  0.00     0.159 HD
BRANCH  21  23
HETATM   23  C21 UNL     1      34.970  35.318  57.409  1.00  0.00     0.086 C 
BRANCH  23  24
HETATM   24  C22 UNL     1      35.350  34.055  58.121  1.00  0.00     0.316 C 
BRANCH  24  25
HETATM   25  N2  UNL     1      35.309  34.158  59.543  1.00  0.00     0.090 N 
HETATM   26  C23 UNL     1      34.397  35.190  59.940  1.00  0.00     0.310 C 
BRANCH  25  27
HETATM   27  C24 UNL     1      35.194  32.926  60.211  1.00  0.00     0.298 C 
BRANCH  27  28
HETATM   28  C25 UNL     1      33.828  32.777  60.902  1.00  0.00     0.194 C 
BRANCH  28  29
HETATM   29  O3  UNL     1      33.212  31.642  60.329  1.00  0.00    -0.399 OA
ATOM     30  H3  UNL     1      33.003  31.058  61.050  1.00  0.00     0.209 HD
ENDBRANCH  28  29
ENDBRANCH  27  28
ENDBRANCH  25  27
ENDBRANCH  24  25
ENDBRANCH  23  24
ENDBRANCH  21  23
ENDBRANCH  20  21
BRANCH  12  31
HETATM   31  O2  UNL     1      43.574  42.058  55.530  1.00  0.00    -0.358 OA
ATOM     32  H2  UNL     1      43.236  42.417  56.342  1.00  0.00     0.217 HD
ENDBRANCH  12  31
BRANCH  11  33
HETATM   33  O1  UNL     1      44.576  40.879  53.277  1.00  0.00    -0.358 OA
ATOM     34  H1  UNL     1      44.744  40.759  52.350  1.00  0.00     0.217 HD
ENDBRANCH  11  33
TORSDOF 9
ENDMDL
MODEL 3
REMARK VINA RESULT: -8.128328445      4.014      8.429
REMARK  9 active torsions:
REMARK  status: ('A' for Active; 'I' for Inactive)
REMARK    1  A    between atoms: C11_11  and  O1_12 
REMARK    2  A    between atoms: C12_14  and  O2_15 
REMARK    3  A    between atoms: C20_24  and  N1_25 
REMARK    4  A    between atoms: N1_25  and  C21_27 
REMARK    5  A    between atoms: C21_27  and  C22_28 
REMARK    6  A    between atoms: C22_28  and  N2_29 
REMARK    7  A    between atoms: N2_29  and  C24_31 
REMARK    8  A    between atoms: C24_31  and  C25_32 
REMARK    9  A    between atoms: C25_32  and  O3_33 
ROOT
HETATM    1  C1  UNL     1      37.963  40.105  58.433  1.00  0.00     0.016 C 
HETATM    2  C2  UNL     1      38.194  40.007  57.143  1.00  0.00    -0.066 C 
HETATM    3  C3  UNL     1      37.082  40.176  56.131  1.00  0.00     0.036 C 
HETATM    4  C4  UNL     1      36.991  38.919  55.342  1.00  0.00     0.010 C 
HETATM    5  C5  UNL     1      38.272  38.282  54.907  1.00  0.00     0.001 C 
HETATM    6  C6  UNL     1      37.927  36.892  54.425  1.00  0.00    -0.001 C 
HETATM    7  C7  UNL     1      38.618  36.502  53.133  1.00  0.00     0.010 C 
HETATM    8  C8  UNL     1      38.809  35.010  52.990  1.00  0.00     0.039 C 
HETATM    9  C9  UNL     1      37.799  34.201  53.735  1.00  0.00    -0.049 A 
HETATM   10  C10 UNL     1      37.165  33.103  53.200  1.00  0.00     0.047 A 
HETATM   11  C11 UNL     1      36.245  32.427  53.987  1.00  0.00     0.099 A 
HETATM   12  C12 UNL     1      35.978  32.865  55.287  1.00  0.00     0.099 A 
HETATM   13  C13 UNL     1      36.619  33.972  55.821  1.00  0.00     0.047 A 
HETATM   14  C14 UNL     1      37.529  34.625  55.025  1.00  0.00    -0.044 A 
HETATM   15  C15 UNL     1      38.309  35.815  55.425  1.00  0.00     0.024 C 
HETATM   16  C16 UNL     1      38.221  36.256  56.826  1.00  0.00     0.010 C 
HETATM   17  C17 UNL     1      39.254  37.347  57.015  1.00  0.00     0.012 C 
HETATM   18  C18 UNL     1      39.373  38.302  55.887  1.00  0.00    -0.016 C 
HETATM   19  C19 UNL     1      40.744  38.182  55.187  1.00  0.00     0.018 C 
HETATM   20  C20 UNL     1      39.497  39.706  56.517  1.00  0.00     0.117 C 
ENDROOT
BRANCH  20  21
HETATM   21  N1  UNL     1      39.912  40.672  55.606  1.00  0.00    -0.392 N 
ATOM     22  H1  UNL     1      39.484  40.645  54.680  1.00  0.00     0.159 HD
BRANCH  21  23
HETATM   23  C21 UNL     1      40.847  41.665  55.834  1.00  0.00     0.086 C 
BRANCH  23  24
HETATM   24  C22 UNL     1      42.321  41.405  55.758  1.00  0.00     0.316 C 
BRANCH  24  25
HETATM   25  N2  UNL     1      42.874  41.592  54.456  1.00  0.00     0.090 N 
HETATM   26  C23 UNL     1      44.000  40.727  54.266  1.00  0.00     0.310 C 
BRANCH  25  27
HETATM   27  C24 UNL     1      41.923  41.622  53.420  1.00  0.00     0.298 C 
BRANCH  27  28
HETATM   28  C25 UNL     1      42.023  40.381  52.518  1.00  0.00     0.194 C 
BRANCH  28  29
HETATM   29  O3  UNL     1      40.844  40.358  51.739  1.00  0.00    -0.399 OA
ATOM     30  H3  UNL     1      40.789  39.487  51.362  1.00  0.00     0.209 HD
ENDBRANCH  28  29
ENDBRANCH  27  28
ENDBRANCH  25  27
ENDBRANCH  24  25
ENDBRANCH  23  24
ENDBRANCH  21  23
ENDBRANCH  20  21
BRANCH  12  31
HETATM   31  O2  UNL     1      35.060  32.148  55.998  1.00  0.00    -0.358 OA
ATOM     32  H2  UNL     1      35.395  31.610  56.707  1.00  0.00     0.217 HD
ENDBRANCH  12  31
BRANCH  11  33
HETATM   33  O1  UNL     1      35.615  31.332  53.450  1.00  0.00    -0.358 OA
ATOM     34  H1  UNL     1      35.443  30.591  54.018  1.00  0.00     0.217 HD
ENDBRANCH  11  33
TORSDOF 9
ENDMDL
MODEL 4
REMARK VINA RESULT: -8.110021547      2.387      3.115
REMARK  9 active torsions:
REMARK  status: ('A' for Active; 'I' for Inactive)
REMARK    1  A    between atoms: C11_11  and  O1_12 
REMARK    2  A    between atoms: C12_14  and  O2_15 
REMARK    3  A    between atoms: C20_24  and  N1_25 
REMARK    4  A    between atoms: N1_25  and  C21_27 
REMARK    5  A    between atoms: C21_27  and  C22_28 
REMARK    6  A    between atoms: C22_28  and  N2_29 
REMARK    7  A    between atoms: N2_29  and  C24_31 
REMARK    8  A    between atoms: C24_31  and  C25_32 
REMARK    9  A    between atoms: C25_32  and  O3_33 
ROOT
HETATM    1  C1  UNL     1      36.424  39.453  59.156  1.00  0.00     0.016 C 
HETATM    2  C2  UNL     1      36.513  38.143  59.098  1.00  0.00    -0.066 C 
HETATM    3  C3  UNL     1      37.807  37.429  59.423  1.00  0.00     0.036 C 
HETATM    4  C4  UNL     1      38.213  36.654  58.221  1.00  0.00     0.010 C 
HETATM    5  C5  UNL     1      37.144  35.913  57.484  1.00  0.00     0.001 C 
HETATM    6  C6  UNL     1      37.738  35.494  56.159  1.00  0.00    -0.001 C 
HETATM    7  C7  UNL     1      37.413  34.065  55.766  1.00  0.00     0.010 C 
HETATM    8  C8  UNL     1      37.420  33.846  54.271  1.00  0.00     0.039 C 
HETATM    9  C9  UNL     1      38.307  34.790  53.529  1.00  0.00    -0.049 A 
HETATM   10  C10 UNL     1      39.161  34.395  52.525  1.00  0.00     0.047 A 
HETATM   11  C11 UNL     1      39.938  35.362  51.905  1.00  0.00     0.099 A 
HETATM   12  C12 UNL     1      39.846  36.698  52.303  1.00  0.00     0.099 A 
HETATM   13  C13 UNL     1      38.984  37.090  53.316  1.00  0.00     0.047 A 
HETATM   14  C14 UNL     1      38.222  36.117  53.915  1.00  0.00    -0.044 A 
HETATM   15  C15 UNL     1      37.248  36.348  55.002  1.00  0.00     0.024 C 
HETATM   16  C16 UNL     1      36.959  37.740  55.382  1.00  0.00     0.010 C 
HETATM   17  C17 UNL     1      35.800  37.703  56.357  1.00  0.00     0.012 C 
HETATM   18  C18 UNL     1      35.849  36.603  57.349  1.00  0.00    -0.016 C 
HETATM   19  C19 UNL     1      34.700  35.594  57.130  1.00  0.00     0.018 C 
HETATM   20  C20 UNL     1      35.432  37.218  58.703  1.00  0.00     0.117 C 
ENDROOT
BRANCH  20  21
HETATM   21  N1  UNL     1      35.143  36.258  59.666  1.00  0.00    -0.392 N 
ATOM     22  H1  UNL     1      35.553  35.333  59.532  1.00  0.00     0.159 HD
BRANCH  21  23
HETATM   23  C21 UNL     1      34.353  36.435  60.788  1.00  0.00     0.086 C 
BRANCH  23  24
HETATM   24  C22 UNL     1      32.856  36.443  60.716  1.00  0.00     0.316 C 
BRANCH  24  25
HETATM   25  N2  UNL     1      32.239  35.368  61.423  1.00  0.00     0.090 N 
HETATM   26  C23 UNL     1      32.903  35.149  62.672  1.00  0.00     0.310 C 
BRANCH  25  27
HETATM   27  C24 UNL     1      30.834  35.430  61.459  1.00  0.00     0.298 C 
BRANCH  27  28
HETATM   28  C25 UNL     1      30.213  34.063  61.792  1.00  0.00     0.194 C 
BRANCH  28  29
HETATM   29  O3  UNL     1      29.494  33.661  60.643  1.00  0.00    -0.399 OA
ATOM     30  H3  UNL     1      30.093  33.744  59.910  1.00  0.00     0.209 HD
ENDBRANCH  28  29
ENDBRANCH  27  28
ENDBRANCH  25  27
ENDBRANCH  24  25
ENDBRANCH  23  24
ENDBRANCH  21  23
ENDBRANCH  20  21
BRANCH  12  31
HETATM   31  O2  UNL     1      40.643  37.590  51.645  1.00  0.00    -0.358 OA
ATOM     32  H2  UNL     1      41.368  37.957  52.137  1.00  0.00     0.217 HD
ENDBRANCH  12  31
BRANCH  11  33
HETATM   33  O1  UNL     1      40.789  34.964  50.903  1.00  0.00    -0.358 OA
ATOM     34  H1  UNL     1      40.413  34.729  50.063  1.00  0.00     0.217 HD
ENDBRANCH  11  33
TORSDOF 9
ENDMDL
MODEL 5
REMARK VINA RESULT: -8.037885214      2.166      3.021
REMARK  9 active torsions:
REMARK  status: ('A' for Active; 'I' for Inactive)
REMARK    1  A    between atoms: C11_11  and  O1_12 
REMARK    2  A    between atoms: C12_14  and  O2_15 
REMARK    3  A    between atoms: C20_24  and  N1_25 
REMARK    4  A    between atoms: N1_25  and  C21_27 
REMARK    5  A    between atoms: C21_27  and  C22_28 
REMARK    6  A    between atoms: C22_28  and  N2_29 
REMARK    7  A    between atoms: N2_29  and  C24_31 
REMARK    8  A    between atoms: C24_31  and  C25_32 
REMARK    9  A    between atoms: C25_32  and  O3_33 
ROOT
HETATM    1  C1  UNL     1      36.394  39.396  59.186  1.00  0.00     0.016 C 
HETATM    2  C2  UNL     1      36.482  38.086  59.108  1.00  0.00    -0.066 C 
HETATM    3  C3  UNL     1      37.771  37.365  59.437  1.00  0.00     0.036 C 
HETATM    4  C4  UNL     1      38.191  36.610  58.227  1.00  0.00     0.010 C 
HETATM    5  C5  UNL     1      37.131  35.882  57.464  1.00  0.00     0.001 C 
HETATM    6  C6  UNL     1      37.741  35.485  56.140  1.00  0.00    -0.001 C 
HETATM    7  C7  UNL     1      37.419  34.063  55.720  1.00  0.00     0.010 C 
HETATM    8  C8  UNL     1      37.445  33.869  54.221  1.00  0.00     0.039 C 
HETATM    9  C9  UNL     1      38.343  34.824  53.507  1.00  0.00    -0.049 A 
HETATM   10  C10 UNL     1      39.209  34.444  52.507  1.00  0.00     0.047 A 
HETATM   11  C11 UNL     1      39.995  35.420  51.913  1.00  0.00     0.099 A 
HETATM   12  C12 UNL     1      39.899  36.750  52.333  1.00  0.00     0.099 A 
HETATM   13  C13 UNL     1      39.025  37.127  53.340  1.00  0.00     0.047 A 
HETATM   14  C14 UNL     1      38.254  36.145  53.914  1.00  0.00    -0.044 A 
HETATM   15  C15 UNL     1      37.266  36.359  54.992  1.00  0.00     0.024 C 
HETATM   16  C16 UNL     1      36.975  37.744  55.391  1.00  0.00     0.010 C 
HETATM   17  C17 UNL     1      35.804  37.693  56.351  1.00  0.00     0.012 C 
HETATM   18  C18 UNL     1      35.838  36.576  57.325  1.00  0.00    -0.016 C 
HETATM   19  C19 UNL     1      34.691  35.573  57.075  1.00  0.00     0.018 C 
HETATM   20  C20 UNL     1      35.405  37.170  58.683  1.00  0.00     0.117 C 
ENDROOT
BRANCH  20  21
HETATM   21  N1  UNL     1      35.102  36.194  59.627  1.00  0.00    -0.392 N 
ATOM     22  H1  UNL     1      35.551  35.286  59.510  1.00  0.00     0.159 HD
BRANCH  21  23
HETATM   23  C21 UNL     1      34.252  36.337  60.708  1.00  0.00     0.086 C 
BRANCH  23  24
HETATM   24  C22 UNL     1      33.033  35.484  60.882  1.00  0.00     0.316 C 
BRANCH  24  25
HETATM   25  N2  UNL     1      33.239  34.344  61.716  1.00  0.00     0.090 N 
HETATM   26  C23 UNL     1      32.488  34.475  62.929  1.00  0.00     0.310 C 
BRANCH  25  27
HETATM   27  C24 UNL     1      33.144  33.111  61.047  1.00  0.00     0.298 C 
BRANCH  27  28
HETATM   28  C25 UNL     1      34.529  32.569  60.654  1.00  0.00     0.194 C 
BRANCH  28  29
HETATM   29  O3  UNL     1      34.749  32.969  59.316  1.00  0.00    -0.399 OA
ATOM     30  H3  UNL     1      34.210  33.739  59.175  1.00  0.00     0.209 HD
ENDBRANCH  28  29
ENDBRANCH  27  28
ENDBRANCH  25  27
ENDBRANCH  24  25
ENDBRANCH  23  24
ENDBRANCH  21  23
ENDBRANCH  20  21
BRANCH  12  31
HETATM   31  O2  UNL     1      40.705  37.652  51.699  1.00  0.00    -0.358 OA
ATOM     32  H2  UNL     1      40.356  38.057  50.914  1.00  0.00     0.217 HD
ENDBRANCH  12  31
BRANCH  11  33
HETATM   33  O1  UNL     1      40.857  35.038  50.916  1.00  0.00    -0.358 OA
ATOM     34  H1  UNL     1      41.761  35.326  50.970  1.00  0.00     0.217 HD
ENDBRANCH  11  33
TORSDOF 9
ENDMDL
