MODEL 1
REMARK VINA RESULT: -7.823925373      0.000      0.000
REMARK  11 active torsions:
REMARK  status: ('A' for Active; 'I' for Inactive)
REMARK    1  A    between atoms: C2_2  and  C3_3 
REMARK    2  A    between atoms: C3_3  and  C5_5 
REMARK    3  A    between atoms: C8_8  and  C9_9 
REMARK    4  A    between atoms: C9_9  and  C10_10 
REMARK    5  A    between atoms: C10_10  and  C11_11 
REMARK    6  A    between atoms: C11_11  and  C12_12 
REMARK    7  A    between atoms: N1_14  and  O1_16 
REMARK    8  A    between atoms: C15_19  and  C16_20 
REMARK    9  A    between atoms: C19_23  and  O2_24 
REMARK   10  A    between atoms: C22_28  and  O3_29 
REMARK   11  A    between atoms: C25_33  and  O4_34 
ROOT
HETATM    1  C5  UNL     1      37.566  36.732  56.476  1.00  0.00     0.051 C 
HETATM    2  C6  UNL     1      38.965  37.162  56.150  1.00  0.00    -0.074 C 
HETATM    3  C7  UNL     1      39.964  36.551  56.721  1.00  0.00     0.015 C 
HETATM    4  C8  UNL     1      39.149  38.292  55.218  1.00  0.00     0.043 C 
HETATM    5  C14 UNL     1      38.529  39.488  55.895  1.00  0.00    -0.069 C 
HETATM    6  C15 UNL     1      39.010  40.696  55.867  1.00  0.00     0.004 C 
HETATM    7  C24 UNL     1      37.263  39.230  56.652  1.00  0.00     0.067 C 
HETATM    8  C25 UNL     1      36.612  37.918  56.276  1.00  0.00     0.131 C 
ENDROOT
BRANCH   4   9
HETATM    9  C9  UNL     1      40.480  38.557  54.684  1.00  0.00     0.014 C 
BRANCH   9  10
HETATM   10  C10 UNL     1      40.718  38.213  53.235  1.00  0.00     0.007 C 
BRANCH  10  11
HETATM   11  C11 UNL     1      40.231  39.333  52.321  1.00  0.00     0.054 C 
BRANCH  11  12
HETATM   12  C12 UNL     1      41.190  40.469  52.430  1.00  0.00     0.006 C 
HETATM   13  C13 UNL     1      40.794  41.805  52.911  1.00  0.00     0.065 C 
HETATM   14  N1  UNL     1      42.412  40.257  52.086  1.00  0.00    -0.278 N 
ATOM     15  H1  UNL     1      42.665  39.326  51.756  1.00  0.00     0.193 HD
BRANCH  14  16
HETATM   16  O1  UNL     1      43.386  41.208  52.138  1.00  0.00    -0.290 OA
ATOM     17  H1  UNL     1      44.312  41.020  52.036  1.00  0.00     0.244 HD
ENDBRANCH  14  16
ENDBRANCH  11  12
ENDBRANCH  10  11
ENDBRANCH   9  10
ENDBRANCH   4   9
BRANCH   6  18
HETATM   18  C16 UNL     1      38.332  41.796  56.560  1.00  0.00     0.003 C 
HETATM   19  C17 UNL     1      39.018  42.676  57.280  1.00  0.00    -0.074 C 
HETATM   20  C18 UNL     1      40.489  42.487  57.344  1.00  0.00     0.070 C 
HETATM   21  C23 UNL     1      38.338  43.801  57.990  1.00  0.00     0.070 C 
HETATM   22  C19 UNL     1      41.130  43.576  58.162  1.00  0.00     0.152 C 
HETATM   23  C20 UNL     1      40.365  43.713  59.421  1.00  0.00    -0.032 C 
HETATM   24  C21 UNL     1      40.973  43.578  60.593  1.00  0.00     0.019 C 
HETATM   25  C22 UNL     1      38.915  44.003  59.374  1.00  0.00     0.152 C 
BRANCH  22  26
HETATM   26  O2  UNL     1      41.207  44.776  57.460  1.00  0.00    -0.391 OA
ATOM     27  H2  UNL     1      41.337  44.634  56.530  1.00  0.00     0.210 HD
ENDBRANCH  22  26
BRANCH  25  28
HETATM   28  O3  UNL     1      38.252  43.173  60.306  1.00  0.00    -0.391 OA
ATOM     29  H3  UNL     1      37.336  43.424  60.345  1.00  0.00     0.210 HD
ENDBRANCH  25  28
ENDBRANCH   6  18
BRANCH   8  30
HETATM   30  O4  UNL     1      36.115  37.943  54.976  1.00  0.00    -0.395 OA
ATOM     31  H4  UNL     1      35.282  38.399  54.939  1.00  0.00     0.210 HD
ENDBRANCH   8  30
BRANCH   1  32
HETATM   32  C3  UNL     1      37.072  35.628  55.585  1.00  0.00     0.014 C 
HETATM   33  C4  UNL     1      36.588  34.508  56.513  1.00  0.00     0.015 C 
BRANCH  32  34
HETATM   34  C2  UNL     1      38.134  35.058  54.731  1.00  0.00    -0.032 C 
HETATM   35  C1  UNL     1      38.076  35.081  53.408  1.00  0.00     0.007 C 
ENDBRANCH  32  34
ENDBRANCH   1  32
TORSDOF 11
ENDMDL
MODEL 2
REMARK VINA RESULT: -7.545376861      2.468      3.475
REMARK  11 active torsions:
REMARK  status: ('A' for Active; 'I' for Inactive)
REMARK    1  A    between atoms: C2_2  and  C3_3 
REMARK    2  A    between atoms: C3_3  and  C5_5 
REMARK    3  A    between atoms: C8_8  and  C9_9 
REMARK    4  A    between atoms: C9_9  and  C10_10 
REMARK    5  A    between atoms: C10_10  and  C11_11 
REMARK    6  A    between atoms: C11_11  and  C12_12 
REMARK    7  A    between atoms: N1_14  and  O1_16 
REMARK    8  A    between atoms: C15_19  and  C16_20 
REMARK    9  A    between atoms: C19_23  and  O2_24 
REMARK   10  A    between atoms: C22_28  and  O3_29 
REMARK   11  A    between atoms: C25_33  and  O4_34 
ROOT
HETATM    1  C5  UNL     1      35.875  36.223  58.243  1.00  0.00     0.051 C 
HETATM    2  C6  UNL     1      37.339  36.274  57.924  1.00  0.00    -0.074 C 
HETATM    3  C7  UNL     1      38.194  35.836  58.804  1.00  0.00     0.015 C 
HETATM    4  C8  UNL     1      37.752  36.857  56.632  1.00  0.00     0.043 C 
HETATM    5  C14 UNL     1      37.320  38.300  56.675  1.00  0.00    -0.069 C 
HETATM    6  C15 UNL     1      38.002  39.300  56.199  1.00  0.00     0.004 C 
HETATM    7  C24 UNL     1      35.999  38.569  57.326  1.00  0.00     0.067 C 
HETATM    8  C25 UNL     1      35.148  37.327  57.463  1.00  0.00     0.131 C 
ENDROOT
BRANCH   4   9
HETATM    9  C9  UNL     1      39.129  36.679  56.186  1.00  0.00     0.014 C 
BRANCH   9  10
HETATM   10  C10 UNL     1      39.334  36.167  54.783  1.00  0.00     0.007 C 
BRANCH  10  11
HETATM   11  C11 UNL     1      38.067  35.502  54.254  1.00  0.00     0.054 C 
BRANCH  11  12
HETATM   12  C12 UNL     1      38.421  34.750  53.017  1.00  0.00     0.006 C 
HETATM   13  C13 UNL     1      37.733  33.510  52.612  1.00  0.00     0.065 C 
HETATM   14  N1  UNL     1      39.369  35.216  52.282  1.00  0.00    -0.278 N 
ATOM     15  H1  UNL     1      39.832  36.074  52.579  1.00  0.00     0.193 HD
BRANCH  14  16
HETATM   16  O1  UNL     1      39.789  34.626  51.128  1.00  0.00    -0.290 OA
ATOM     17  H1  UNL     1      40.688  34.644  50.824  1.00  0.00     0.244 HD
ENDBRANCH  14  16
ENDBRANCH  11  12
ENDBRANCH  10  11
ENDBRANCH   9  10
ENDBRANCH   4   9
BRANCH   6  18
HETATM   18  C16 UNL     1      37.495  40.672  56.290  1.00  0.00     0.003 C 
HETATM   19  C17 UNL     1      38.215  41.630  56.865  1.00  0.00    -0.074 C 
HETATM   20  C18 UNL     1      39.543  41.238  57.402  1.00  0.00     0.070 C 
HETATM   21  C23 UNL     1      37.709  43.031  56.964  1.00  0.00     0.070 C 
HETATM   22  C19 UNL     1      40.252  42.429  57.988  1.00  0.00     0.152 C 
HETATM   23  C20 UNL     1      39.299  43.143  58.867  1.00  0.00    -0.032 C 
HETATM   24  C21 UNL     1      39.592  43.348  60.146  1.00  0.00     0.019 C 
HETATM   25  C22 UNL     1      38.014  43.629  58.320  1.00  0.00     0.152 C 
BRANCH  22  26
HETATM   26  O2  UNL     1      40.777  43.258  57.000  1.00  0.00    -0.391 OA
ATOM     27  H2  UNL     1      41.320  43.946  57.367  1.00  0.00     0.210 HD
ENDBRANCH  22  26
BRANCH  25  28
HETATM   28  O3  UNL     1      36.981  43.320  59.234  1.00  0.00    -0.391 OA
ATOM     29  H3  UNL     1      36.252  43.912  59.086  1.00  0.00     0.210 HD
ENDBRANCH  25  28
ENDBRANCH   6  18
BRANCH   8  30
HETATM   30  O4  UNL     1      34.715  36.860  56.225  1.00  0.00    -0.395 OA
ATOM     31  H4  UNL     1      34.197  36.069  56.321  1.00  0.00     0.210 HD
ENDBRANCH   8  30
BRANCH   1  32
HETATM   32  C3  UNL     1      35.235  34.923  57.846  1.00  0.00     0.014 C 
HETATM   33  C4  UNL     1      34.800  34.240  59.148  1.00  0.00     0.015 C 
BRANCH  32  34
HETATM   34  C2  UNL     1      36.170  34.007  57.163  1.00  0.00    -0.032 C 
HETATM   35  C1  UNL     1      35.822  33.288  56.106  1.00  0.00     0.007 C 
ENDBRANCH  32  34
ENDBRANCH   1  32
TORSDOF 11
ENDMDL
MODEL 3
REMARK VINA RESULT: -7.526301440      2.395      2.980
REMARK  11 active torsions:
REMARK  status: ('A' for Active; 'I' for Inactive)
REMARK    1  A    between atoms: C2_2  and  C3_3 
REMARK    2  A    between atoms: C3_3  and  C5_5 
REMARK    3  A    between atoms: C8_8  and  C9_9 
REMARK    4  A    between atoms: C9_9  and  C10_10 
REMARK    5  A    between atoms: C10_10  and  C11_11 
REMARK    6  A    between atoms: C11_11  and  C12_12 
REMARK    7  A    between atoms: N1_14  and  O1_16 
REMARK    8  A    between atoms: C15_19  and  C16_20 
REMARK    9  A    between atoms: C19_23  and  O2_24 
REMARK   10  A    between atoms: C22_28  and  O3_29 
REMARK   11  A    between atoms: C25_33  and  O4_34 
ROOT
HETATM    1  C5  UNL     1      36.588  36.266  57.588  1.00  0.00     0.051 C 
HETATM    2  C6  UNL     1      37.852  36.717  56.920  1.00  0.00    -0.074 C 
HETATM    3  C7  UNL     1      38.993  36.247  57.340  1.00  0.00     0.015 C 
HETATM    4  C8  UNL     1      37.752  37.712  55.834  1.00  0.00     0.043 C 
HETATM    5  C14 UNL     1      37.189  38.958  56.468  1.00  0.00    -0.069 C 
HETATM    6  C15 UNL     1      37.555  40.173  56.185  1.00  0.00     0.004 C 
HETATM    7  C24 UNL     1      36.127  38.744  57.503  1.00  0.00     0.067 C 
HETATM    8  C25 UNL     1      35.521  37.360  57.445  1.00  0.00     0.131 C 
ENDROOT
BRANCH   4   9
HETATM    9  C9  UNL     1      38.921  37.967  55.000  1.00  0.00     0.014 C 
BRANCH   9  10
HETATM   10  C10 UNL     1      38.995  37.239  53.682  1.00  0.00     0.007 C 
BRANCH  10  11
HETATM   11  C11 UNL     1      39.613  35.855  53.857  1.00  0.00     0.054 C 
BRANCH  11  12
HETATM   12  C12 UNL     1      39.455  35.111  52.576  1.00  0.00     0.006 C 
HETATM   13  C13 UNL     1      38.628  33.896  52.454  1.00  0.00     0.065 C 
HETATM   14  N1  UNL     1      40.071  35.562  51.540  1.00  0.00    -0.278 N 
ATOM     15  H1  UNL     1      40.638  36.403  51.645  1.00  0.00     0.193 HD
BRANCH  14  16
HETATM   16  O1  UNL     1      40.010  34.978  50.311  1.00  0.00    -0.290 OA
ATOM     17  H1  UNL     1      39.475  35.306  49.598  1.00  0.00     0.244 HD
ENDBRANCH  14  16
ENDBRANCH  11  12
ENDBRANCH  10  11
ENDBRANCH   9  10
ENDBRANCH   4   9
BRANCH   6  18
HETATM   18  C16 UNL     1      36.946  41.323  56.859  1.00  0.00     0.003 C 
HETATM   19  C17 UNL     1      37.683  42.164  57.577  1.00  0.00    -0.074 C 
HETATM   20  C18 UNL     1      39.137  41.879  57.657  1.00  0.00     0.070 C 
HETATM   21  C23 UNL     1      37.072  43.339  58.268  1.00  0.00     0.070 C 
HETATM   22  C19 UNL     1      39.842  42.931  58.470  1.00  0.00     0.152 C 
HETATM   23  C20 UNL     1      39.076  43.134  59.720  1.00  0.00    -0.032 C 
HETATM   24  C21 UNL     1      39.663  42.971  60.899  1.00  0.00     0.019 C 
HETATM   25  C22 UNL     1      37.649  43.518  59.655  1.00  0.00     0.152 C 
BRANCH  22  26
HETATM   26  O2  UNL     1      40.005  44.116  57.755  1.00  0.00    -0.391 OA
ATOM     27  H2  UNL     1      40.062  44.870  58.330  1.00  0.00     0.210 HD
ENDBRANCH  22  26
BRANCH  25  28
HETATM   28  O3  UNL     1      36.924  42.745  60.590  1.00  0.00    -0.391 OA
ATOM     29  H3  UNL     1      36.049  42.593  60.251  1.00  0.00     0.210 HD
ENDBRANCH  25  28
ENDBRANCH   6  18
BRANCH   8  30
HETATM   30  O4  UNL     1      34.770  37.175  56.287  1.00  0.00    -0.395 OA
ATOM     31  H4  UNL     1      34.289  37.963  56.064  1.00  0.00     0.210 HD
ENDBRANCH   8  30
BRANCH   1  32
HETATM   32  C3  UNL     1      36.014  35.022  56.971  1.00  0.00     0.014 C 
HETATM   33  C4  UNL     1      35.879  34.000  58.105  1.00  0.00     0.015 C 
BRANCH  32  34
HETATM   34  C2  UNL     1      36.897  34.427  55.948  1.00  0.00    -0.032 C 
HETATM   35  C1  UNL     1      36.900  33.131  55.673  1.00  0.00     0.007 C 
ENDBRANCH  32  34
ENDBRANCH   1  32
TORSDOF 11
ENDMDL
MODEL 4
REMARK VINA RESULT: -7.461228364      5.155      9.189
REMARK  11 active torsions:
REMARK  status: ('A' for Active; 'I' for Inactive)
REMARK    1  A    between atoms: C2_2  and  C3_3 
REMARK    2  A    between atoms: C3_3  and  C5_5 
REMARK    3  A    between atoms: C8_8  and  C9_9 
REMARK    4  A    between atoms: C9_9  and  C10_10 
REMARK    5  A    between atoms: C10_10  and  C11_11 
REMARK    6  A    between atoms: C11_11  and  C12_12 
REMARK    7  A    between atoms: N1_14  and  O1_16 
REMARK    8  A    between atoms: C15_19  and  C16_20 
REMARK    9  A    between atoms: C19_23  and  O2_24 
REMARK   10  A    between atoms: C22_28  and  O3_29 
REMARK   11  A    between atoms: C25_33  and  O4_34 
ROOT
HETATM    1  C5  UNL     1      36.638  37.985  57.602  1.00  0.00     0.051 C 
HETATM    2  C6  UNL     1      36.170  36.723  56.942  1.00  0.00    -0.074 C 
HETATM    3  C7  UNL     1      35.602  36.794  55.771  1.00  0.00     0.015 C 
HETATM    4  C8  UNL     1      36.340  35.449  57.669  1.00  0.00     0.043 C 
HETATM    5  C14 UNL     1      35.493  35.568  58.910  1.00  0.00    -0.069 C 
HETATM    6  C15 UNL     1      34.786  34.607  59.428  1.00  0.00     0.004 C 
HETATM    7  C24 UNL     1      35.485  36.911  59.572  1.00  0.00     0.067 C 
HETATM    8  C25 UNL     1      36.629  37.792  59.125  1.00  0.00     0.131 C 
ENDROOT
BRANCH   4   9
HETATM    9  C9  UNL     1      36.141  34.195  56.952  1.00  0.00     0.014 C 
BRANCH   9  10
HETATM   10  C10 UNL     1      37.211  33.790  55.970  1.00  0.00     0.007 C 
BRANCH  10  11
HETATM   11  C11 UNL     1      36.594  33.262  54.678  1.00  0.00     0.054 C 
BRANCH  11  12
HETATM   12  C12 UNL     1      37.456  33.694  53.542  1.00  0.00     0.006 C 
HETATM   13  C13 UNL     1      38.172  34.983  53.529  1.00  0.00     0.065 C 
HETATM   14  N1  UNL     1      37.571  32.898  52.539  1.00  0.00    -0.278 N 
ATOM     15  H1  UNL     1      37.068  32.011  52.567  1.00  0.00     0.193 HD
BRANCH  14  16
HETATM   16  O1  UNL     1      38.327  33.172  51.439  1.00  0.00    -0.290 OA
ATOM     17  H1  UNL     1      39.277  33.181  51.442  1.00  0.00     0.244 HD
ENDBRANCH  14  16
ENDBRANCH  11  12
ENDBRANCH  10  11
ENDBRANCH   9  10
ENDBRANCH   4   9
BRANCH   6  18
HETATM   18  C16 UNL     1      33.991  34.822  60.641  1.00  0.00     0.003 C 
HETATM   19  C17 UNL     1      33.367  33.812  61.237  1.00  0.00    -0.074 C 
HETATM   20  C18 UNL     1      33.517  32.472  60.616  1.00  0.00     0.070 C 
HETATM   21  C23 UNL     1      32.555  34.020  62.473  1.00  0.00     0.070 C 
HETATM   22  C19 UNL     1      32.786  31.429  61.418  1.00  0.00     0.152 C 
HETATM   23  C20 UNL     1      31.429  31.943  61.709  1.00  0.00    -0.032 C 
HETATM   24  C21 UNL     1      30.357  31.254  61.336  1.00  0.00     0.019 C 
HETATM   25  C22 UNL     1      31.265  33.230  62.420  1.00  0.00     0.152 C 
BRANCH  22  26
HETATM   26  O2  UNL     1      33.479  31.087  62.577  1.00  0.00    -0.391 OA
ATOM     27  H2  UNL     1      33.469  31.791  63.216  1.00  0.00     0.210 HD
ENDBRANCH  22  26
BRANCH  25  28
HETATM   28  O3  UNL     1      30.257  33.983  61.776  1.00  0.00    -0.391 OA
ATOM     29  H3  UNL     1      30.098  34.775  62.276  1.00  0.00     0.210 HD
ENDBRANCH  25  28
ENDBRANCH   6  18
BRANCH   8  30
HETATM   30  O4  UNL     1      37.856  37.310  59.573  1.00  0.00    -0.395 OA
ATOM     31  H4  UNL     1      38.238  37.896  60.217  1.00  0.00     0.210 HD
ENDBRANCH   8  30
BRANCH   1  32
HETATM   32  C3  UNL     1      38.043  38.356  57.223  1.00  0.00     0.014 C 
HETATM   33  C4  UNL     1      37.965  39.749  56.588  1.00  0.00     0.015 C 
BRANCH  32  34
HETATM   34  C2  UNL     1      38.627  37.447  56.216  1.00  0.00    -0.032 C 
HETATM   35  C1  UNL     1      39.758  36.788  56.419  1.00  0.00     0.007 C 
ENDBRANCH  32  34
ENDBRANCH   1  32
TORSDOF 11
ENDMDL
MODEL 5
REMARK VINA RESULT: -7.444202432      1.580      1.874
REMARK  11 active torsions:
REMARK  status: ('A' for Active; 'I' for Inactive)
REMARK    1  A    between atoms: C2_2  and  C3_3 
REMARK    2  A    between atoms: C3_3  and  C5_5 
REMARK    3  A    between atoms: C8_8  and  C9_9 
REMARK    4  A    between atoms: C9_9  and  C10_10 
REMARK    5  A    between atoms: C10_10  and  C11_11 
REMARK    6  A    between atoms: C11_11  and  C12_12 
REMARK    7  A    between atoms: N1_14  and  O1_16 
REMARK    8  A    between atoms: C15_19  and  C16_20 
REMARK    9  A    between atoms: C19_23  and  O2_24 
REMARK   10  A    between atoms: C22_28  and  O3_29 
REMARK   11  A    between atoms: C25_33  and  O4_34 
ROOT
HETATM    1  C5  UNL     1      36.718  36.196  57.450  1.00  0.00     0.051 C 
HETATM    2  C6  UNL     1      37.899  36.723  56.691  1.00  0.00    -0.074 C 
HETATM    3  C7  UNL     1      39.090  36.288  56.993  1.00  0.00     0.015 C 
HETATM    4  C8  UNL     1      37.665  37.747  55.655  1.00  0.00     0.043 C 
HETATM    5  C14 UNL     1      37.110  38.947  56.380  1.00  0.00    -0.069 C 
HETATM    6  C15 UNL     1      37.401  40.185  56.110  1.00  0.00     0.004 C 
HETATM    7  C24 UNL     1      36.154  38.655  57.494  1.00  0.00     0.067 C 
HETATM    8  C25 UNL     1      35.600  37.249  57.439  1.00  0.00     0.131 C 
ENDROOT
BRANCH   4   9
HETATM    9  C9  UNL     1      38.744  38.079  54.732  1.00  0.00     0.014 C 
BRANCH   9  10
HETATM   10  C10 UNL     1      38.909  37.192  53.524  1.00  0.00     0.007 C 
BRANCH  10  11
HETATM   11  C11 UNL     1      40.362  37.169  53.058  1.00  0.00     0.054 C 
BRANCH  11  12
HETATM   12  C12 UNL     1      40.771  38.568  52.749  1.00  0.00     0.006 C 
HETATM   13  C13 UNL     1      41.890  39.243  53.434  1.00  0.00     0.065 C 
HETATM   14  N1  UNL     1      40.112  39.201  51.844  1.00  0.00    -0.278 N 
ATOM     15  H1  UNL     1      39.342  38.717  51.382  1.00  0.00     0.193 HD
BRANCH  14  16
HETATM   16  O1  UNL     1      40.383  40.481  51.467  1.00  0.00    -0.290 OA
ATOM     17  H1  UNL     1      39.729  41.082  51.131  1.00  0.00     0.244 HD
ENDBRANCH  14  16
ENDBRANCH  11  12
ENDBRANCH  10  11
ENDBRANCH   9  10
ENDBRANCH   4   9
BRANCH   6  18
HETATM   18  C16 UNL     1      36.809  41.286  56.875  1.00  0.00     0.003 C 
HETATM   19  C17 UNL     1      37.570  42.109  57.588  1.00  0.00    -0.074 C 
HETATM   20  C18 UNL     1      39.033  41.857  57.567  1.00  0.00     0.070 C 
HETATM   21  C23 UNL     1      36.977  43.234  58.372  1.00  0.00     0.070 C 
HETATM   22  C19 UNL     1      39.762  42.886  58.387  1.00  0.00     0.152 C 
HETATM   23  C20 UNL     1      39.069  43.009  59.689  1.00  0.00    -0.032 C 
HETATM   24  C21 UNL     1      39.730  42.805  60.822  1.00  0.00     0.019 C 
HETATM   25  C22 UNL     1      37.633  43.361  59.730  1.00  0.00     0.152 C 
BRANCH  22  26
HETATM   26  O2  UNL     1      39.855  44.108  57.724  1.00  0.00    -0.391 OA
ATOM     27  H2  UNL     1      40.191  44.793  58.290  1.00  0.00     0.210 HD
ENDBRANCH  22  26
BRANCH  25  28
HETATM   28  O3  UNL     1      36.984  42.525  60.666  1.00  0.00    -0.391 OA
ATOM     29  H3  UNL     1      36.097  42.359  60.368  1.00  0.00     0.210 HD
ENDBRANCH  25  28
ENDBRANCH   6  18
BRANCH   8  30
HETATM   30  O4  UNL     1      34.757  37.070  56.346  1.00  0.00    -0.395 OA
ATOM     31  H4  UNL     1      34.083  37.738  56.322  1.00  0.00     0.210 HD
ENDBRANCH   8  30
BRANCH   1  32
HETATM   32  C3  UNL     1      36.141  34.950  56.841  1.00  0.00     0.014 C 
HETATM   33  C4  UNL     1      35.993  33.940  57.983  1.00  0.00     0.015 C 
BRANCH  32  34
HETATM   34  C2  UNL     1      37.028  34.341  55.829  1.00  0.00    -0.032 C 
HETATM   35  C1  UNL     1      36.919  33.075  55.453  1.00  0.00     0.007 C 
ENDBRANCH  32  34
ENDBRANCH   1  32
TORSDOF 11
ENDMDL
