MODEL 1
REMARK VINA RESULT: -4.950666122      0.000      0.000
REMARK  1 active torsions:
REMARK  status: ('A' for Active; 'I' for Inactive)
REMARK    1  A    between atoms: C1_2  and  C2_5 
ROOT
HETATM    1  C2  UNL     1       3.144  -0.819  20.713  1.00  0.00     0.207 A 
HETATM    2  N1  UNL     1       4.289  -0.754  20.012  1.00  0.00    -0.279 N 
ATOM      3  H1  UNL     1       5.099  -0.187  20.266  1.00  0.00     0.188 HD
HETATM    4  N2  UNL     1       4.211  -1.539  18.936  1.00  0.00    -0.275 N 
ATOM      5  H2  UNL     1       4.939  -1.674  18.234  1.00  0.00     0.189 HD
HETATM    6  C3  UNL     1       3.002  -2.116  18.944  1.00  0.00     0.192 A 
HETATM    7  S1  UNL     1       2.438  -3.176  17.812  1.00  0.00    -0.039 SA
HETATM    8  N3  UNL     1       2.366  -1.674  20.023  1.00  0.00    -0.313 N 
ATOM      9  H3  UNL     1       1.419  -1.945  20.292  1.00  0.00     0.170 HD
ENDROOT
BRANCH   1  10
HETATM   10  C1  UNL     1       2.835  -0.101  21.974  1.00  0.00     0.450 C 
HETATM   11  F1  UNL     1       4.016   0.360  22.530  1.00  0.00    -0.163 F 
HETATM   12  F2  UNL     1       2.267  -0.952  22.897  1.00  0.00    -0.163 F 
HETATM   13  F3  UNL     1       2.024   1.011  21.740  1.00  0.00    -0.163 F 
ENDBRANCH   1  10
TORSDOF 1
ENDMDL
MODEL 2
REMARK VINA RESULT: -4.892415810      0.040      1.231
REMARK  1 active torsions:
REMARK  status: ('A' for Active; 'I' for Inactive)
REMARK    1  A    between atoms: C1_2  and  C2_5 
ROOT
HETATM    1  C2  UNL     1       3.164  -0.796  20.707  1.00  0.00     0.207 A 
HETATM    2  N1  UNL     1       4.301  -0.743  19.992  1.00  0.00    -0.279 N 
ATOM      3  H1  UNL     1       5.115  -0.175  20.229  1.00  0.00     0.188 HD
HETATM    4  N2  UNL     1       4.209  -1.541  18.927  1.00  0.00    -0.275 N 
ATOM      5  H2  UNL     1       4.929  -1.687  18.220  1.00  0.00     0.189 HD
HETATM    6  C3  UNL     1       2.999  -2.116  18.957  1.00  0.00     0.192 A 
HETATM    7  S1  UNL     1       2.419  -3.189  17.845  1.00  0.00    -0.039 SA
HETATM    8  N3  UNL     1       2.376  -1.658  20.037  1.00  0.00    -0.313 N 
ATOM      9  H3  UNL     1       1.432  -1.923  20.320  1.00  0.00     0.170 HD
ENDROOT
BRANCH   1  10
HETATM   10  C1  UNL     1       2.870  -0.061  21.962  1.00  0.00     0.450 C 
HETATM   11  F1  UNL     1       2.248  -0.922  22.851  1.00  0.00    -0.163 F 
HETATM   12  F2  UNL     1       1.991   0.974  21.730  1.00  0.00    -0.163 F 
HETATM   13  F3  UNL     1       4.041   0.391  22.572  1.00  0.00    -0.163 F 
ENDBRANCH   1  10
TORSDOF 1
ENDMDL
MODEL 3
REMARK VINA RESULT: -4.844713007      0.900      1.998
REMARK  1 active torsions:
REMARK  status: ('A' for Active; 'I' for Inactive)
REMARK    1  A    between atoms: C1_2  and  C2_5 
ROOT
HETATM    1  C2  UNL     1       2.313  -1.194  20.752  1.00  0.00     0.207 A 
HETATM    2  N1  UNL     1       1.148  -1.864  20.757  1.00  0.00    -0.279 N 
ATOM      3  H1  UNL     1       0.427  -1.780  21.475  1.00  0.00     0.188 HD
HETATM    4  N2  UNL     1       1.071  -2.654  19.684  1.00  0.00    -0.275 N 
ATOM      5  H2  UNL     1       0.295  -3.270  19.443  1.00  0.00     0.189 HD
HETATM    6  C3  UNL     1       2.200  -2.490  18.980  1.00  0.00     0.192 A 
HETATM    7  S1  UNL     1       2.569  -3.258  17.567  1.00  0.00    -0.039 SA
HETATM    8  N3  UNL     1       2.944  -1.606  19.636  1.00  0.00    -0.313 N 
ATOM      9  H3  UNL     1       3.864  -1.283  19.335  1.00  0.00     0.170 HD
ENDROOT
BRANCH   1  10
HETATM   10  C1  UNL     1       2.776  -0.214  21.766  1.00  0.00     0.450 C 
HETATM   11  F1  UNL     1       2.534  -0.727  23.029  1.00  0.00    -0.163 F 
HETATM   12  F2  UNL     1       2.066   0.962  21.672  1.00  0.00    -0.163 F 
HETATM   13  F3  UNL     1       4.150   0.011  21.665  1.00  0.00    -0.163 F 
ENDBRANCH   1  10
TORSDOF 1
ENDMDL
MODEL 4
REMARK VINA RESULT: -4.653542115      3.539      4.136
REMARK  1 active torsions:
REMARK  status: ('A' for Active; 'I' for Inactive)
REMARK    1  A    between atoms: C1_2  and  C2_5 
ROOT
HETATM    1  C2  UNL     1       2.945  -1.908  19.126  1.00  0.00     0.207 A 
HETATM    2  N1  UNL     1       4.239  -1.544  19.128  1.00  0.00    -0.279 N 
ATOM      3  H1  UNL     1       4.944  -1.886  18.475  1.00  0.00     0.188 HD
HETATM    4  N2  UNL     1       4.465  -0.669  20.110  1.00  0.00    -0.275 N 
ATOM      5  H2  UNL     1       5.359  -0.233  20.335  1.00  0.00     0.189 HD
HETATM    6  C3  UNL     1       3.303  -0.467  20.747  1.00  0.00     0.192 A 
HETATM    7  S1  UNL     1       3.078   0.538  22.036  1.00  0.00    -0.039 SA
HETATM    8  N3  UNL     1       2.391  -1.221  20.143  1.00  0.00    -0.313 N 
ATOM      9  H3  UNL     1       1.408  -1.272  20.413  1.00  0.00     0.170 HD
ENDROOT
BRANCH   1  10
HETATM   10  C1  UNL     1       2.292  -2.857  18.190  1.00  0.00     0.450 C 
HETATM   11  F1  UNL     1       1.305  -3.550  18.869  1.00  0.00    -0.163 F 
HETATM   12  F2  UNL     1       3.193  -3.793  17.733  1.00  0.00    -0.163 F 
HETATM   13  F3  UNL     1       1.675  -2.185  17.133  1.00  0.00    -0.163 F 
ENDBRANCH   1  10
TORSDOF 1
ENDMDL
MODEL 5
REMARK VINA RESULT: -4.637701358      3.536      4.155
REMARK  1 active torsions:
REMARK  status: ('A' for Active; 'I' for Inactive)
REMARK    1  A    between atoms: C1_2  and  C2_5 
ROOT
HETATM    1  C2  UNL     1       2.923  -1.932  19.166  1.00  0.00     0.207 A 
HETATM    2  N1  UNL     1       4.215  -1.561  19.138  1.00  0.00    -0.279 N 
ATOM      3  H1  UNL     1       4.910  -1.910  18.478  1.00  0.00     0.188 HD
HETATM    4  N2  UNL     1       4.454  -0.670  20.102  1.00  0.00    -0.275 N 
ATOM      5  H2  UNL     1       5.350  -0.226  20.303  1.00  0.00     0.189 HD
HETATM    6  C3  UNL     1       3.304  -0.464  20.757  1.00  0.00     0.192 A 
HETATM    7  S1  UNL     1       3.097   0.559  22.035  1.00  0.00    -0.039 SA
HETATM    8  N3  UNL     1       2.385  -1.233  20.183  1.00  0.00    -0.313 N 
ATOM      9  H3  UNL     1       1.408  -1.286  20.471  1.00  0.00     0.170 HD
ENDROOT
BRANCH   1  10
HETATM   10  C1  UNL     1       2.259  -2.899  18.256  1.00  0.00     0.450 C 
HETATM   11  F1  UNL     1       1.674  -2.203  17.212  1.00  0.00    -0.163 F 
HETATM   12  F2  UNL     1       1.246  -3.567  18.906  1.00  0.00    -0.163 F 
HETATM   13  F3  UNL     1       3.180  -3.787  17.699  1.00  0.00    -0.163 F 
ENDBRANCH   1  10
TORSDOF 1
ENDMDL
