MODEL 1
REMARK VINA RESULT: -5.584294994      0.000      0.000
REMARK  2 active torsions:
REMARK  status: ('A' for Active; 'I' for Inactive)
REMARK    1  A    between atoms: C7_10  and  O1_11 
REMARK    2  A    between atoms: C7_10  and  C8_13 
ROOT
HETATM    1  N1  UNL     1       1.883  -1.470  22.209  1.00  0.00    -0.403 N 
ATOM      2  H11 UNL     1       1.347  -2.291  22.490  1.00  0.00     0.155 HD
ATOM      3  H12 UNL     1       2.400  -0.782  22.758  1.00  0.00     0.155 HD
HETATM    4  C1  UNL     1       1.872  -1.315  20.918  1.00  0.00     0.020 C 
HETATM    5  C2  UNL     1       2.654  -0.116  20.510  1.00  0.00     0.055 C 
HETATM    6  C3  UNL     1       4.048  -0.633  20.214  1.00  0.00     0.006 C 
HETATM    7  C4  UNL     1       4.041  -1.787  19.249  1.00  0.00     0.000 C 
HETATM    8  C5  UNL     1       2.857  -1.836  18.355  1.00  0.00     0.004 C 
HETATM    9  C6  UNL     1       1.738  -2.698  18.849  1.00  0.00     0.050 C 
HETATM   10  C7  UNL     1       1.130  -2.302  20.130  1.00  0.00     0.154 C 
ENDROOT
BRANCH  10  11
HETATM   11  O1  UNL     1       1.015  -3.459  20.936  1.00  0.00    -0.378 OA
ATOM     12  H1  UNL     1       1.586  -4.114  20.554  1.00  0.00     0.211 HD
ENDBRANCH  10  11
BRANCH  10  13
HETATM   13  C8  UNL     1      -0.295  -1.756  19.968  1.00  0.00     0.392 C 
HETATM   14  F1  UNL     1      -0.700  -1.859  18.651  1.00  0.00    -0.211 F 
HETATM   15  F2  UNL     1      -0.314  -0.422  20.315  1.00  0.00    -0.211 F 
ENDBRANCH  10  13
TORSDOF 2
ENDMDL
MODEL 2
REMARK VINA RESULT: -5.081217144      2.437      3.286
REMARK  2 active torsions:
REMARK  status: ('A' for Active; 'I' for Inactive)
REMARK    1  A    between atoms: C7_10  and  O1_11 
REMARK    2  A    between atoms: C7_10  and  C8_13 
ROOT
HETATM    1  N1  UNL     1       0.449  -0.881  20.423  1.00  0.00    -0.403 N 
ATOM      2  H11 UNL     1       0.559   0.129  20.509  1.00  0.00     0.155 HD
ATOM      3  H12 UNL     1      -0.383  -1.463  20.322  1.00  0.00     0.155 HD
HETATM    4  C1  UNL     1       1.598  -1.488  20.455  1.00  0.00     0.020 C 
HETATM    5  C2  UNL     1       1.436  -2.963  20.330  1.00  0.00     0.055 C 
HETATM    6  C3  UNL     1       1.575  -3.253  18.849  1.00  0.00     0.006 C 
HETATM    7  C4  UNL     1       2.829  -2.666  18.262  1.00  0.00     0.000 C 
HETATM    8  C5  UNL     1       3.925  -2.449  19.241  1.00  0.00     0.004 C 
HETATM    9  C6  UNL     1       3.974  -1.073  19.827  1.00  0.00     0.050 C 
HETATM   10  C7  UNL     1       2.794  -0.654  20.600  1.00  0.00     0.154 C 
ENDROOT
BRANCH  10  11
HETATM   11  O1  UNL     1       2.433   0.647  20.178  1.00  0.00    -0.378 OA
ATOM     12  H1  UNL     1       3.063   1.243  20.564  1.00  0.00     0.211 HD
ENDBRANCH  10  11
BRANCH  10  13
HETATM   13  C8  UNL     1       3.077  -0.545  22.105  1.00  0.00     0.392 C 
HETATM   14  F1  UNL     1       2.186  -1.325  22.817  1.00  0.00    -0.211 F 
HETATM   15  F2  UNL     1       2.910   0.763  22.506  1.00  0.00    -0.211 F 
ENDBRANCH  10  13
TORSDOF 2
ENDMDL
MODEL 3
REMARK VINA RESULT: -5.030958492      2.375      3.334
REMARK  2 active torsions:
REMARK  status: ('A' for Active; 'I' for Inactive)
REMARK    1  A    between atoms: C7_10  and  O1_11 
REMARK    2  A    between atoms: C7_10  and  C8_13 
ROOT
HETATM    1  N1  UNL     1       0.077  -1.229  20.348  1.00  0.00    -0.403 N 
ATOM      2  H11 UNL     1      -0.041  -0.233  20.535  1.00  0.00     0.155 HD
ATOM      3  H12 UNL     1      -0.598  -1.954  20.104  1.00  0.00     0.155 HD
HETATM    4  C1  UNL     1       1.323  -1.587  20.455  1.00  0.00     0.020 C 
HETATM    5  C2  UNL     1       1.494  -3.041  20.183  1.00  0.00     0.055 C 
HETATM    6  C3  UNL     1       1.825  -3.132  18.707  1.00  0.00     0.006 C 
HETATM    7  C4  UNL     1       2.971  -2.239  18.318  1.00  0.00     0.000 C 
HETATM    8  C5  UNL     1       3.901  -1.911  19.428  1.00  0.00     0.004 C 
HETATM    9  C6  UNL     1       3.600  -0.627  20.134  1.00  0.00     0.050 C 
HETATM   10  C7  UNL     1       2.292  -0.546  20.805  1.00  0.00     0.154 C 
ENDROOT
BRANCH  10  11
HETATM   11  O1  UNL     1       1.699   0.691  20.461  1.00  0.00    -0.378 OA
ATOM     12  H1  UNL     1       1.952   1.310  21.135  1.00  0.00     0.211 HD
ENDBRANCH  10  11
BRANCH  10  13
HETATM   13  C8  UNL     1       2.408  -0.548  22.336  1.00  0.00     0.392 C 
HETATM   14  F1  UNL     1       3.729  -0.397  22.715  1.00  0.00    -0.211 F 
HETATM   15  F2  UNL     1       1.963  -1.757  22.824  1.00  0.00    -0.211 F 
ENDBRANCH  10  13
TORSDOF 2
ENDMDL
MODEL 4
REMARK VINA RESULT: -4.744458186      1.940      2.961
REMARK  2 active torsions:
REMARK  status: ('A' for Active; 'I' for Inactive)
REMARK    1  A    between atoms: C7_10  and  O1_11 
REMARK    2  A    between atoms: C7_10  and  C8_13 
ROOT
HETATM    1  N1  UNL     1       1.569  -3.556  20.347  1.00  0.00    -0.403 N 
ATOM      2  H11 UNL     1       2.164  -4.223  19.855  1.00  0.00     0.155 HD
ATOM      3  H12 UNL     1       0.801  -3.694  21.003  1.00  0.00     0.155 HD
HETATM    4  C1  UNL     1       1.886  -2.331  20.049  1.00  0.00     0.020 C 
HETATM    5  C2  UNL     1       1.018  -1.357  20.767  1.00  0.00     0.055 C 
HETATM    6  C3  UNL     1       1.774  -1.011  22.034  1.00  0.00     0.006 C 
HETATM    7  C4  UNL     1       3.186  -0.572  21.761  1.00  0.00     0.000 C 
HETATM    8  C5  UNL     1       3.405  -0.011  20.403  1.00  0.00     0.004 C 
HETATM    9  C6  UNL     1       3.889  -1.002  19.391  1.00  0.00     0.050 C 
HETATM   10  C7  UNL     1       2.990  -2.133  19.107  1.00  0.00     0.154 C 
ENDROOT
BRANCH  10  11
HETATM   11  O1  UNL     1       3.759  -3.319  19.129  1.00  0.00    -0.378 OA
ATOM     12  H1  UNL     1       4.218  -3.362  18.299  1.00  0.00     0.211 HD
ENDBRANCH  10  11
BRANCH  10  13
HETATM   13  C8  UNL     1       2.367  -2.059  17.706  1.00  0.00     0.392 C 
HETATM   14  F1  UNL     1       0.999  -1.892  17.799  1.00  0.00    -0.211 F 
HETATM   15  F2  UNL     1       2.605  -3.243  17.040  1.00  0.00    -0.211 F 
ENDBRANCH  10  13
TORSDOF 2
ENDMDL
MODEL 5
REMARK VINA RESULT: -4.714090415      2.155      2.749
REMARK  2 active torsions:
REMARK  status: ('A' for Active; 'I' for Inactive)
REMARK    1  A    between atoms: C7_10  and  O1_11 
REMARK    2  A    between atoms: C7_10  and  C8_13 
ROOT
HETATM    1  N1  UNL     1       2.363  -2.273  17.824  1.00  0.00    -0.403 N 
ATOM      2  H11 UNL     1       1.377  -2.247  17.563  1.00  0.00     0.155 HD
ATOM      3  H12 UNL     1       3.210  -2.330  17.259  1.00  0.00     0.155 HD
HETATM    4  C1  UNL     1       2.511  -2.222  19.115  1.00  0.00     0.020 C 
HETATM    5  C2  UNL     1       3.950  -2.260  19.497  1.00  0.00     0.055 C 
HETATM    6  C3  UNL     1       4.367  -0.807  19.614  1.00  0.00     0.006 C 
HETATM    7  C4  UNL     1       3.457  -0.018  20.515  1.00  0.00     0.000 C 
HETATM    8  C5  UNL     1       2.737  -0.830  21.528  1.00  0.00     0.004 C 
HETATM    9  C6  UNL     1       1.368  -1.271  21.115  1.00  0.00     0.050 C 
HETATM   10  C7  UNL     1       1.296  -2.139  19.928  1.00  0.00     0.154 C 
ENDROOT
BRANCH  10  11
HETATM   11  O1  UNL     1       0.277  -1.641  19.083  1.00  0.00    -0.378 OA
ATOM     12  H1  UNL     1      -0.549  -1.824  19.515  1.00  0.00     0.211 HD
ENDBRANCH  10  11
BRANCH  10  13
HETATM   13  C8  UNL     1       0.894  -3.581  20.270  1.00  0.00     0.392 C 
HETATM   14  F1  UNL     1      -0.483  -3.697  20.308  1.00  0.00    -0.211 F 
HETATM   15  F2  UNL     1       1.381  -3.904  21.518  1.00  0.00    -0.211 F 
ENDBRANCH  10  13
TORSDOF 2
ENDMDL
