MODEL 1
REMARK VINA RESULT: -4.108979861      0.000      0.000
REMARK  2 active torsions:
REMARK  status: ('A' for Active; 'I' for Inactive)
REMARK    1  A    between atoms: O1_1  and  C1_3 
REMARK    2  A    between atoms: C4_6  and  C5_8 
ROOT
HETATM    1  C1  UNL     1       3.815  -1.612  18.964  1.00  0.00     0.118 C 
HETATM    2  C2  UNL     1       3.364  -0.991  20.240  1.00  0.00     0.033 C 
HETATM    3  C3  UNL     1       1.881  -0.956  20.437  1.00  0.00     0.033 C 
HETATM    4  C4  UNL     1       1.143  -2.140  19.915  1.00  0.00     0.116 C 
HETATM    5  S1  UNL     1       1.143  -3.457  21.164  1.00  0.00    -0.077 SA
HETATM    6  C6  UNL     1       1.694  -2.709  18.640  1.00  0.00     0.033 C 
HETATM    7  C7  UNL     1       2.678  -1.760  17.970  1.00  0.00     0.033 C 
ENDROOT
BRANCH   4   8
HETATM    8  C5  UNL     1      -0.309  -1.759  19.651  1.00  0.00     0.405 C 
HETATM    9  F1  UNL     1      -1.182  -2.705  20.158  1.00  0.00    -0.169 F 
HETATM   10  F2  UNL     1      -0.562  -1.681  18.292  1.00  0.00    -0.169 F 
HETATM   11  F3  UNL     1      -0.632  -0.551  20.231  1.00  0.00    -0.169 F 
ENDBRANCH   4   8
BRANCH   1  12
HETATM   12  O1  UNL     1       4.394  -2.872  19.194  1.00  0.00    -0.396 OA
ATOM     13  H1  UNL     1       4.810  -3.204  18.407  1.00  0.00     0.210 HD
ENDBRANCH   1  12
TORSDOF 2
ENDMDL
MODEL 2
REMARK VINA RESULT: -4.105004257      0.021      1.111
REMARK  2 active torsions:
REMARK  status: ('A' for Active; 'I' for Inactive)
REMARK    1  A    between atoms: O1_1  and  C1_3 
REMARK    2  A    between atoms: C4_6  and  C5_8 
ROOT
HETATM    1  C1  UNL     1       3.797  -1.608  18.964  1.00  0.00     0.118 C 
HETATM    2  C2  UNL     1       3.348  -0.988  20.241  1.00  0.00     0.033 C 
HETATM    3  C3  UNL     1       1.865  -0.960  20.443  1.00  0.00     0.033 C 
HETATM    4  C4  UNL     1       1.130  -2.147  19.924  1.00  0.00     0.116 C 
HETATM    5  S1  UNL     1       1.140  -3.463  21.174  1.00  0.00    -0.077 SA
HETATM    6  C6  UNL     1       1.680  -2.715  18.648  1.00  0.00     0.033 C 
HETATM    7  C7  UNL     1       2.657  -1.762  17.974  1.00  0.00     0.033 C 
ENDROOT
BRANCH   4   8
HETATM    8  C5  UNL     1      -0.324  -1.773  19.664  1.00  0.00     0.405 C 
HETATM    9  F1  UNL     1      -0.587  -1.673  18.309  1.00  0.00    -0.169 F 
HETATM   10  F2  UNL     1      -0.625  -0.539  20.213  1.00  0.00    -0.169 F 
HETATM   11  F3  UNL     1      -1.192  -2.711  20.182  1.00  0.00    -0.169 F 
ENDBRANCH   4   8
BRANCH   1  12
HETATM   12  O1  UNL     1       4.382  -2.866  19.193  1.00  0.00    -0.396 OA
ATOM     13  H1  UNL     1       5.179  -2.782  19.703  1.00  0.00     0.210 HD
ENDBRANCH   1  12
TORSDOF 2
ENDMDL
MODEL 3
REMARK VINA RESULT: -4.101043329      0.020      1.117
REMARK  2 active torsions:
REMARK  status: ('A' for Active; 'I' for Inactive)
REMARK    1  A    between atoms: O1_1  and  C1_3 
REMARK    2  A    between atoms: C4_6  and  C5_8 
ROOT
HETATM    1  C1  UNL     1       3.803  -1.609  18.966  1.00  0.00     0.118 C 
HETATM    2  C2  UNL     1       3.345  -0.992  20.241  1.00  0.00     0.033 C 
HETATM    3  C3  UNL     1       1.860  -0.964  20.433  1.00  0.00     0.033 C 
HETATM    4  C4  UNL     1       1.129  -2.149  19.906  1.00  0.00     0.116 C 
HETATM    5  S1  UNL     1       1.130  -3.469  21.153  1.00  0.00    -0.077 SA
HETATM    6  C6  UNL     1       1.687  -2.714  18.633  1.00  0.00     0.033 C 
HETATM    7  C7  UNL     1       2.670  -1.761  17.968  1.00  0.00     0.033 C 
ENDROOT
BRANCH   4   8
HETATM    8  C5  UNL     1      -0.323  -1.774  19.637  1.00  0.00     0.405 C 
HETATM    9  F1  UNL     1      -0.647  -0.556  20.210  1.00  0.00    -0.169 F 
HETATM   10  F2  UNL     1      -1.187  -2.706  20.184  1.00  0.00    -0.169 F 
HETATM   11  F3  UNL     1      -0.580  -1.672  18.287  1.00  0.00    -0.169 F 
ENDBRANCH   4   8
BRANCH   1  12
HETATM   12  O1  UNL     1       4.386  -2.868  19.197  1.00  0.00    -0.396 OA
ATOM     13  H1  UNL     1       4.616  -3.291  18.378  1.00  0.00     0.210 HD
ENDBRANCH   1  12
TORSDOF 2
ENDMDL
MODEL 4
REMARK VINA RESULT: -3.606764856      2.910      3.528
REMARK  2 active torsions:
REMARK  status: ('A' for Active; 'I' for Inactive)
REMARK    1  A    between atoms: O1_1  and  C1_3 
REMARK    2  A    between atoms: C4_6  and  C5_8 
ROOT
HETATM    1  C1  UNL     1       2.469  -2.954  18.662  1.00  0.00     0.118 C 
HETATM    2  C2  UNL     1       1.436  -3.212  19.703  1.00  0.00     0.033 C 
HETATM    3  C3  UNL     1       1.581  -2.401  20.953  1.00  0.00     0.033 C 
HETATM    4  C4  UNL     1       2.066  -1.007  20.754  1.00  0.00     0.116 C 
HETATM    5  S1  UNL     1       0.661   0.077  20.374  1.00  0.00    -0.077 SA
HETATM    6  C6  UNL     1       3.083  -0.848  19.661  1.00  0.00     0.033 C 
HETATM    7  C7  UNL     1       3.656  -2.187  19.215  1.00  0.00     0.033 C 
ENDROOT
BRANCH   4   8
HETATM    8  C5  UNL     1       2.702  -0.500  22.042  1.00  0.00     0.405 C 
HETATM    9  F1  UNL     1       2.403   0.833  22.264  1.00  0.00    -0.169 F 
HETATM   10  F2  UNL     1       4.082  -0.587  21.982  1.00  0.00    -0.169 F 
HETATM   11  F3  UNL     1       2.261  -1.207  23.140  1.00  0.00    -0.169 F 
ENDBRANCH   4   8
BRANCH   1  12
HETATM   12  O1  UNL     1       1.924  -2.242  17.578  1.00  0.00    -0.396 OA
ATOM     13  H1  UNL     1       2.482  -2.309  16.813  1.00  0.00     0.210 HD
ENDBRANCH   1  12
TORSDOF 2
ENDMDL
MODEL 5
REMARK VINA RESULT: -3.262486876      2.165      3.054
REMARK  2 active torsions:
REMARK  status: ('A' for Active; 'I' for Inactive)
REMARK    1  A    between atoms: O1_1  and  C1_3 
REMARK    2  A    between atoms: C4_6  and  C5_8 
ROOT
HETATM    1  C1  UNL     1       2.686   0.157  21.582  1.00  0.00     0.118 C 
HETATM    2  C2  UNL     1       1.266   0.067  21.144  1.00  0.00     0.033 C 
HETATM    3  C3  UNL     1       1.033  -0.765  19.922  1.00  0.00     0.033 C 
HETATM    4  C4  UNL     1       1.900  -1.970  19.799  1.00  0.00     0.116 C 
HETATM    5  S1  UNL     1       1.159  -3.350  20.716  1.00  0.00    -0.077 SA
HETATM    6  C6  UNL     1       3.304  -1.784  20.295  1.00  0.00     0.033 C 
HETATM    7  C7  UNL     1       3.646  -0.315  20.505  1.00  0.00     0.033 C 
ENDROOT
BRANCH   4   8
HETATM    8  C5  UNL     1       1.988  -2.386  18.335  1.00  0.00     0.405 C 
HETATM    9  F1  UNL     1       3.112  -1.857  17.724  1.00  0.00    -0.169 F 
HETATM   10  F2  UNL     1       0.898  -1.921  17.620  1.00  0.00    -0.169 F 
HETATM   11  F3  UNL     1       2.054  -3.756  18.199  1.00  0.00    -0.169 F 
ENDBRANCH   4   8
BRANCH   1  12
HETATM   12  O1  UNL     1       2.901  -0.592  22.753  1.00  0.00    -0.396 OA
ATOM     13  H1  UNL     1       3.309  -0.061  23.426  1.00  0.00     0.210 HD
ENDBRANCH   1  12
TORSDOF 2
ENDMDL
