MODEL 1
REMARK VINA RESULT: -3.746969808      0.000      0.000
REMARK  2 active torsions:
REMARK  status: ('A' for Active; 'I' for Inactive)
REMARK    1  A    between atoms: N1_2  and  C2_4 
REMARK    2  A    between atoms: C2_4  and  C3_8 
ROOT
HETATM    1  C2  UNL     1       1.763  -1.766  20.259  1.00  0.00     0.144 C 
HETATM    2  N2  UNL     1       2.069  -1.009  21.248  1.00  0.00    -0.383 N 
ATOM      3  H21 UNL     1       3.019  -0.643  21.311  1.00  0.00     0.157 HD
ATOM      4  H22 UNL     1       1.349  -0.799  21.939  1.00  0.00     0.157 HD
ENDROOT
BRANCH   1   5
HETATM    5  N1  UNL     1       0.446  -2.275  20.171  1.00  0.00    -0.278 N 
HETATM    6  C1  UNL     1      -0.688  -1.472  19.781  1.00  0.00     0.173 C 
HETATM    7 CL1  UNL     1       0.197  -3.951  20.556  1.00  0.00     0.014 Cl
ENDBRANCH   1   5
BRANCH   1   8
HETATM    8  C3  UNL     1       2.790  -2.067  19.272  1.00  0.00     0.145 C 
HETATM    9  S1  UNL     1       4.296  -1.393  19.388  1.00  0.00    -0.063 SA
HETATM   10 CL2  UNL     1       2.521  -3.134  17.924  1.00  0.00    -0.067 Cl
ENDBRANCH   1   8
TORSDOF 2
ENDMDL
MODEL 2
REMARK VINA RESULT: -3.736488981      2.121      3.347
REMARK  2 active torsions:
REMARK  status: ('A' for Active; 'I' for Inactive)
REMARK    1  A    between atoms: N1_2  and  C2_4 
REMARK    2  A    between atoms: C2_4  and  C3_8 
ROOT
HETATM    1  C2  UNL     1       1.975  -1.647  20.238  1.00  0.00     0.144 C 
HETATM    2  N2  UNL     1       2.249  -0.843  21.199  1.00  0.00    -0.383 N 
ATOM      3  H21 UNL     1       1.542  -0.671  21.913  1.00  0.00     0.157 HD
ATOM      4  H22 UNL     1       3.168  -0.401  21.215  1.00  0.00     0.157 HD
ENDROOT
BRANCH   1   5
HETATM    5  N1  UNL     1       2.956  -1.885  19.247  1.00  0.00    -0.278 N 
HETATM    6  C1  UNL     1       4.323  -1.438  19.362  1.00  0.00     0.173 C 
HETATM    7 CL1  UNL     1       2.474  -2.761  17.825  1.00  0.00     0.014 Cl
ENDBRANCH   1   5
BRANCH   1   8
HETATM    8  C3  UNL     1       0.664  -2.278  20.215  1.00  0.00     0.145 C 
HETATM    9  S1  UNL     1      -0.678  -1.421  19.767  1.00  0.00    -0.063 SA
HETATM   10 CL2  UNL     1       0.410  -3.945  20.646  1.00  0.00    -0.067 Cl
ENDBRANCH   1   8
TORSDOF 2
ENDMDL
MODEL 3
REMARK VINA RESULT: -3.677158700      2.319      2.909
REMARK  2 active torsions:
REMARK  status: ('A' for Active; 'I' for Inactive)
REMARK    1  A    between atoms: N1_2  and  C2_4 
REMARK    2  A    between atoms: C2_4  and  C3_8 
ROOT
HETATM    1  C2  UNL     1       2.869  -1.300  20.174  1.00  0.00     0.144 C 
HETATM    2  N2  UNL     1       4.069  -1.216  19.728  1.00  0.00    -0.383 N 
ATOM      3  H21 UNL     1       4.315  -1.725  18.880  1.00  0.00     0.157 HD
ATOM      4  H22 UNL     1       4.737  -0.640  20.240  1.00  0.00     0.157 HD
ENDROOT
BRANCH   1   5
HETATM    5  N1  UNL     1       2.527  -0.593  21.351  1.00  0.00    -0.278 N 
HETATM    6  C1  UNL     1       2.599   0.843  21.460  1.00  0.00     0.173 C 
HETATM    7 CL1  UNL     1       1.995  -1.516  22.724  1.00  0.00     0.014 Cl
ENDBRANCH   1   5
BRANCH   1   8
HETATM    8  C3  UNL     1       1.915  -2.121  19.444  1.00  0.00     0.145 C 
HETATM    9  S1  UNL     1       2.397  -3.022  18.143  1.00  0.00    -0.063 SA
HETATM   10 CL2  UNL     1       0.231  -2.219  19.872  1.00  0.00    -0.067 Cl
ENDBRANCH   1   8
TORSDOF 2
ENDMDL
MODEL 4
REMARK VINA RESULT: -3.663709812      2.312      3.413
REMARK  2 active torsions:
REMARK  status: ('A' for Active; 'I' for Inactive)
REMARK    1  A    between atoms: N1_2  and  C2_4 
REMARK    2  A    between atoms: C2_4  and  C3_8 
ROOT
HETATM    1  C2  UNL     1       1.984  -1.504  20.253  1.00  0.00     0.144 C 
HETATM    2  N2  UNL     1       2.291  -0.708  21.210  1.00  0.00    -0.383 N 
ATOM      3  H21 UNL     1       1.597  -0.516  21.932  1.00  0.00     0.157 HD
ATOM      4  H22 UNL     1       3.223  -0.293  21.217  1.00  0.00     0.157 HD
ENDROOT
BRANCH   1   5
HETATM    5  N1  UNL     1       2.947  -1.771  19.252  1.00  0.00    -0.278 N 
HETATM    6  C1  UNL     1       4.347  -1.453  19.396  1.00  0.00     0.173 C 
HETATM    7 CL1  UNL     1       2.401  -2.519  17.781  1.00  0.00     0.014 Cl
ENDBRANCH   1   5
BRANCH   1   8
HETATM    8  C3  UNL     1       0.654  -2.096  20.244  1.00  0.00     0.145 C 
HETATM    9  S1  UNL     1       0.434  -3.684  20.650  1.00  0.00    -0.063 SA
HETATM   10 CL2  UNL     1      -0.776  -1.200  19.815  1.00  0.00    -0.067 Cl
ENDBRANCH   1   8
TORSDOF 2
ENDMDL
MODEL 5
REMARK VINA RESULT: -3.649459119      2.250      2.436
REMARK  2 active torsions:
REMARK  status: ('A' for Active; 'I' for Inactive)
REMARK    1  A    between atoms: N1_2  and  C2_4 
REMARK    2  A    between atoms: C2_4  and  C3_8 
ROOT
HETATM    1  C2  UNL     1       1.967  -2.084  19.263  1.00  0.00     0.144 C 
HETATM    2  N2  UNL     1       2.169  -2.432  18.046  1.00  0.00    -0.383 N 
ATOM      3  H21 UNL     1       3.033  -2.142  17.589  1.00  0.00     0.157 HD
ATOM      4  H22 UNL     1       1.455  -2.988  17.575  1.00  0.00     0.157 HD
ENDROOT
BRANCH   1   5
HETATM    5  N1  UNL     1       0.768  -2.486  19.898  1.00  0.00    -0.278 N 
HETATM    6  C1  UNL     1       0.661  -3.674  20.709  1.00  0.00     0.173 C 
HETATM    7 CL1  UNL     1      -0.639  -1.488  19.678  1.00  0.00     0.014 Cl
ENDBRANCH   1   5
BRANCH   1   8
HETATM    8  C3  UNL     1       2.985  -1.291  19.936  1.00  0.00     0.145 C 
HETATM    9  S1  UNL     1       2.590  -0.319  21.214  1.00  0.00    -0.063 SA
HETATM   10 CL2  UNL     1       4.659  -1.303  19.460  1.00  0.00    -0.067 Cl
ENDBRANCH   1   8
TORSDOF 2
ENDMDL
