MODEL 1
REMARK VINA RESULT: -4.423779957      0.000      0.000
REMARK  1 active torsions:
REMARK  status: ('A' for Active; 'I' for Inactive)
REMARK    1  A    between atoms: N1_2  and  C2_4 
ROOT
HETATM    1  C2  UNL     1      -4.854  -8.095  14.377  1.00  0.00     0.268 C 
HETATM    2  F1  UNL     1      -5.125  -9.410  13.985  1.00  0.00    -0.200 F 
HETATM    3  S1  UNL     1      -5.255  -7.072  12.906  1.00  0.00    -0.023 SA
HETATM    4  C3  UNL     1      -3.527  -6.824  12.476  1.00  0.00     0.143 C 
HETATM    5  N2  UNL     1      -3.002  -6.333  11.411  1.00  0.00    -0.380 N 
ATOM      6  H21 UNL     1      -2.021  -6.193  11.168  1.00  0.00     0.158 HD
ATOM      7  H22 UNL     1      -3.526  -5.993  10.605  1.00  0.00     0.158 HD
HETATM    8  N3  UNL     1      -2.813  -7.288  13.571  1.00  0.00    -0.339 N 
ATOM      9  H3  UNL     1      -1.806  -7.135  13.626  1.00  0.00     0.167 HD
HETATM   10  C4  UNL     1      -3.397  -7.883  14.477  1.00  0.00     0.056 C 
HETATM   11  C5  UNL     1      -2.691  -8.408  15.705  1.00  0.00     0.070 C 
ENDROOT
BRANCH   1  12
HETATM   12  N1  UNL     1      -5.609  -7.694  15.489  1.00  0.00    -0.378 N 
HETATM   13  C1  UNL     1      -6.257  -8.686  16.266  1.00  0.00     0.144 C 
ATOM     14  H1  UNL     1      -5.690  -6.707  15.733  1.00  0.00     0.157 HD
ENDBRANCH   1  12
TORSDOF 1
ENDMDL
MODEL 2
REMARK VINA RESULT: -4.380021833     10.275     11.135
REMARK  1 active torsions:
REMARK  status: ('A' for Active; 'I' for Inactive)
REMARK    1  A    between atoms: N1_2  and  C2_4 
ROOT
HETATM    1  C2  UNL     1       2.123  -2.193  19.520  1.00  0.00     0.268 C 
HETATM    2  F1  UNL     1       2.323  -3.439  20.123  1.00  0.00    -0.200 F 
HETATM    3  S1  UNL     1       3.592  -1.199  19.993  1.00  0.00    -0.023 SA
HETATM    4  C3  UNL     1       2.684  -0.247  21.219  1.00  0.00     0.143 C 
HETATM    5  N2  UNL     1       3.113   0.558  22.124  1.00  0.00    -0.380 N 
ATOM      6  H21 UNL     1       2.597   1.097  22.820  1.00  0.00     0.158 HD
ATOM      7  H22 UNL     1       4.094   0.785  22.286  1.00  0.00     0.158 HD
HETATM    8  N3  UNL     1       1.350  -0.557  21.000  1.00  0.00    -0.339 N 
ATOM      9  H3  UNL     1       0.619  -0.040  21.488  1.00  0.00     0.167 HD
HETATM   10  C4  UNL     1       1.050  -1.456  20.215  1.00  0.00     0.056 C 
HETATM   11  C5  UNL     1      -0.380  -1.844  19.916  1.00  0.00     0.070 C 
ENDROOT
BRANCH   1  12
HETATM   12  N1  UNL     1       2.003  -2.279  18.125  1.00  0.00    -0.378 N 
HETATM   13  C1  UNL     1       2.598  -3.378  17.456  1.00  0.00     0.144 C 
ATOM     14  H1  UNL     1       1.497  -1.565  17.602  1.00  0.00     0.157 HD
ENDBRANCH   1  12
TORSDOF 1
ENDMDL
MODEL 3
REMARK VINA RESULT: -4.257728208      2.131      3.406
REMARK  1 active torsions:
REMARK  status: ('A' for Active; 'I' for Inactive)
REMARK    1  A    between atoms: N1_2  and  C2_4 
ROOT
HETATM    1  C2  UNL     1      -4.651  -8.175  13.389  1.00  0.00     0.268 C 
HETATM    2  F1  UNL     1      -5.786  -7.359  13.448  1.00  0.00    -0.200 F 
HETATM    3  S1  UNL     1      -4.774  -9.260  14.865  1.00  0.00    -0.023 SA
HETATM    4  C3  UNL     1      -3.519  -8.346  15.772  1.00  0.00     0.143 C 
HETATM    5  N2  UNL     1      -3.179  -8.416  17.009  1.00  0.00    -0.380 N 
ATOM      6  H21 UNL     1      -2.466  -7.897  17.523  1.00  0.00     0.158 HD
ATOM      7  H22 UNL     1      -3.600  -9.039  17.697  1.00  0.00     0.158 HD
HETATM    8  N3  UNL     1      -2.946  -7.498  14.837  1.00  0.00    -0.339 N 
ATOM      9  H3  UNL     1      -2.112  -6.962  15.078  1.00  0.00     0.167 HD
HETATM   10  C4  UNL     1      -3.444  -7.392  13.717  1.00  0.00     0.056 C 
HETATM   11  C5  UNL     1      -2.871  -6.497  12.642  1.00  0.00     0.070 C 
ENDROOT
BRANCH   1  12
HETATM   12  N1  UNL     1      -4.589  -8.933  12.212  1.00  0.00    -0.378 N 
HETATM   13  C1  UNL     1      -5.778  -9.132  11.465  1.00  0.00     0.144 C 
ATOM     14  H1  UNL     1      -3.705  -9.334  11.898  1.00  0.00     0.157 HD
ENDBRANCH   1  12
TORSDOF 1
ENDMDL
MODEL 4
REMARK VINA RESULT: -3.950890952     10.038     10.685
REMARK  1 active torsions:
REMARK  status: ('A' for Active; 'I' for Inactive)
REMARK    1  A    between atoms: N1_2  and  C2_4 
ROOT
HETATM    1  C2  UNL     1       1.582  -2.219  19.940  1.00  0.00     0.268 C 
HETATM    2  F1  UNL     1       0.496  -1.523  19.398  1.00  0.00    -0.200 F 
HETATM    3  S1  UNL     1       2.296  -1.080  21.190  1.00  0.00    -0.023 SA
HETATM    4  C3  UNL     1       3.685  -0.631  20.140  1.00  0.00     0.143 C 
HETATM    5  N2  UNL     1       4.557   0.303  20.278  1.00  0.00    -0.380 N 
ATOM      6  H21 UNL     1       5.345   0.558  19.682  1.00  0.00     0.158 HD
ATOM      7  H22 UNL     1       4.586   0.965  21.053  1.00  0.00     0.158 HD
HETATM    8  N3  UNL     1       3.646  -1.531  19.086  1.00  0.00    -0.339 N 
ATOM      9  H3  UNL     1       4.414  -1.566  18.416  1.00  0.00     0.167 HD
HETATM   10  C4  UNL     1       2.683  -2.287  18.960  1.00  0.00     0.056 C 
HETATM   11  C5  UNL     1       2.574  -3.301  17.845  1.00  0.00     0.070 C 
ENDROOT
BRANCH   1  12
HETATM   12  N1  UNL     1       1.207  -3.437  20.525  1.00  0.00    -0.378 N 
HETATM   13  C1  UNL     1      -0.164  -3.797  20.532  1.00  0.00     0.144 C 
ATOM     14  H1  UNL     1       1.907  -4.052  20.940  1.00  0.00     0.157 HD
ENDBRANCH   1  12
TORSDOF 1
ENDMDL
MODEL 5
REMARK VINA RESULT: -3.694806715     10.273     10.889
REMARK  1 active torsions:
REMARK  status: ('A' for Active; 'I' for Inactive)
REMARK    1  A    between atoms: N1_2  and  C2_4 
ROOT
HETATM    1  C2  UNL     1       1.376  -1.644  20.692  1.00  0.00     0.268 C 
HETATM    2  F1  UNL     1       1.338  -2.320  21.916  1.00  0.00    -0.200 F 
HETATM    3  S1  UNL     1       1.688  -2.951  19.441  1.00  0.00    -0.023 SA
HETATM    4  C3  UNL     1       3.414  -2.489  19.237  1.00  0.00     0.143 C 
HETATM    5  N2  UNL     1       4.366  -3.099  18.626  1.00  0.00    -0.380 N 
ATOM      6  H21 UNL     1       5.345  -2.837  18.510  1.00  0.00     0.158 HD
ATOM      7  H22 UNL     1       4.271  -3.990  18.139  1.00  0.00     0.158 HD
HETATM    8  N3  UNL     1       3.544  -1.278  19.899  1.00  0.00    -0.339 N 
ATOM      9  H3  UNL     1       4.408  -0.742  19.817  1.00  0.00     0.167 HD
HETATM   10  C4  UNL     1       2.616  -0.852  20.586  1.00  0.00     0.056 C 
HETATM   11  C5  UNL     1       2.678   0.463  21.328  1.00  0.00     0.070 C 
ENDROOT
BRANCH   1  12
HETATM   12  N1  UNL     1       0.185  -0.958  20.415  1.00  0.00    -0.378 N 
HETATM   13  C1  UNL     1      -0.809  -1.603  19.637  1.00  0.00     0.144 C 
ATOM     14  H1  UNL     1       0.036  -0.012  20.767  1.00  0.00     0.157 HD
ENDBRANCH   1  12
TORSDOF 1
ENDMDL
