MODEL 1
REMARK VINA RESULT: -4.247712076      0.000      0.000
REMARK  4 active torsions:
REMARK  status: ('A' for Active; 'I' for Inactive)
REMARK    1  A    between atoms: N1_2  and  N2_3 
REMARK    2  A    between atoms: N1_2  and  C2_7 
REMARK    3  A    between atoms: N2_3  and  N3_4 
REMARK    4  A    between atoms: C2_7  and  C3_11 
ROOT
HETATM    1  C2  UNL     1       2.552  -1.024  20.389  1.00  0.00     0.144 C 
HETATM    2  N4  UNL     1       2.811   0.173  20.761  1.00  0.00    -0.384 N 
ATOM      3  H41 UNL     1       2.235   0.668  21.442  1.00  0.00     0.157 HD
ATOM      4  H42 UNL     1       3.621   0.647  20.362  1.00  0.00     0.157 HD
ENDROOT
BRANCH   1   5
HETATM    5  N1  UNL     1       3.359  -1.717  19.434  1.00  0.00    -0.198 N 
HETATM    6  C1  UNL     1       4.782  -1.814  19.676  1.00  0.00     0.197 C 
BRANCH   5   7
HETATM    7  N2  UNL     1       2.832  -2.275  18.325  1.00  0.00    -0.240 NA
BRANCH   7   8
HETATM    8  N3  UNL     1       2.374  -2.756  17.399  1.00  0.00    -0.260 N 
ATOM      9  H32 UNL     1       2.213  -2.702  18.404  1.00  0.00     0.193 HD
ATOM     10  H31 UNL     1       1.977  -3.179  16.560  1.00  0.00     0.193 HD
ENDBRANCH   7   8
ENDBRANCH   5   7
ENDBRANCH   1   5
BRANCH   1  11
HETATM   11  C3  UNL     1       1.377  -1.711  20.966  1.00  0.00     0.169 C 
HETATM   12  C4  UNL     1       1.408  -3.182  20.690  1.00  0.00     0.059 C 
HETATM   13 CL1  UNL     1      -0.126  -0.982  20.362  1.00  0.00    -0.093 Cl
HETATM   14 CL2  UNL     1       1.495  -1.510  22.745  1.00  0.00    -0.093 Cl
ENDBRANCH   1  11
TORSDOF 4
ENDMDL
MODEL 2
REMARK VINA RESULT: -4.175549818      1.044      1.535
REMARK  4 active torsions:
REMARK  status: ('A' for Active; 'I' for Inactive)
REMARK    1  A    between atoms: N1_2  and  N2_3 
REMARK    2  A    between atoms: N1_2  and  C2_7 
REMARK    3  A    between atoms: N2_3  and  N3_4 
REMARK    4  A    between atoms: C2_7  and  C3_11 
ROOT
HETATM    1  C2  UNL     1       2.678  -1.053  20.381  1.00  0.00     0.144 C 
HETATM    2  N4  UNL     1       3.047   0.131  20.703  1.00  0.00    -0.384 N 
ATOM      3  H41 UNL     1       2.537   0.693  21.384  1.00  0.00     0.157 HD
ATOM      4  H42 UNL     1       3.880   0.522  20.263  1.00  0.00     0.157 HD
ENDROOT
BRANCH   1   5
HETATM    5  N1  UNL     1       3.393  -1.841  19.427  1.00  0.00    -0.198 N 
HETATM    6  C1  UNL     1       4.774  -2.170  19.701  1.00  0.00     0.197 C 
BRANCH   5   7
HETATM    7  N2  UNL     1       2.818  -2.278  18.288  1.00  0.00    -0.240 NA
BRANCH   7   8
HETATM    8  N3  UNL     1       2.323  -2.662  17.336  1.00  0.00    -0.260 N 
ATOM      9  H32 UNL     1       2.170  -2.666  18.344  1.00  0.00     0.193 HD
ATOM     10  H31 UNL     1       1.893  -2.999  16.474  1.00  0.00     0.193 HD
ENDBRANCH   7   8
ENDBRANCH   5   7
ENDBRANCH   1   5
BRANCH   1  11
HETATM   11  C3  UNL     1       1.471  -1.620  21.018  1.00  0.00     0.169 C 
HETATM   12  C4  UNL     1       0.220  -0.998  20.481  1.00  0.00     0.059 C 
HETATM   13 CL1  UNL     1       1.561  -1.446  22.783  1.00  0.00    -0.093 Cl
HETATM   14 CL2  UNL     1       1.427  -3.356  20.565  1.00  0.00    -0.093 Cl
ENDBRANCH   1  11
TORSDOF 4
ENDMDL
MODEL 3
REMARK VINA RESULT: -4.145633199      1.221      1.632
REMARK  4 active torsions:
REMARK  status: ('A' for Active; 'I' for Inactive)
REMARK    1  A    between atoms: N1_2  and  N2_3 
REMARK    2  A    between atoms: N1_2  and  C2_7 
REMARK    3  A    between atoms: N2_3  and  N3_4 
REMARK    4  A    between atoms: C2_7  and  C3_11 
ROOT
HETATM    1  C2  UNL     1       2.508  -1.220  20.260  1.00  0.00     0.144 C 
HETATM    2  N4  UNL     1       2.939  -0.065  20.609  1.00  0.00    -0.384 N 
ATOM      3  H41 UNL     1       2.484   0.488  21.336  1.00  0.00     0.157 HD
ATOM      4  H42 UNL     1       3.764   0.312  20.144  1.00  0.00     0.157 HD
ENDROOT
BRANCH   1   5
HETATM    5  N1  UNL     1       3.145  -1.995  19.242  1.00  0.00    -0.198 N 
HETATM    6  C1  UNL     1       2.407  -2.285  18.033  1.00  0.00     0.197 C 
BRANCH   5   7
HETATM    7  N2  UNL     1       4.405  -2.458  19.382  1.00  0.00    -0.240 NA
BRANCH   7   8
HETATM    8  N3  UNL     1       5.466  -2.849  19.518  1.00  0.00    -0.260 N 
ATOM      9  H32 UNL     1       4.573  -3.152  19.132  1.00  0.00     0.193 HD
ATOM     10  H31 UNL     1       6.421  -3.185  19.649  1.00  0.00     0.193 HD
ENDBRANCH   7   8
ENDBRANCH   5   7
ENDBRANCH   1   5
BRANCH   1  11
HETATM   11  C3  UNL     1       1.311  -1.767  20.933  1.00  0.00     0.169 C 
HETATM   12  C4  UNL     1       1.216  -3.251  20.767  1.00  0.00     0.059 C 
HETATM   13 CL1  UNL     1      -0.157  -0.965  20.337  1.00  0.00    -0.093 Cl
HETATM   14 CL2  UNL     1       1.525  -1.449  22.686  1.00  0.00    -0.093 Cl
ENDBRANCH   1  11
TORSDOF 4
ENDMDL
MODEL 4
REMARK VINA RESULT: -4.094878521      1.586      2.230
REMARK  4 active torsions:
REMARK  status: ('A' for Active; 'I' for Inactive)
REMARK    1  A    between atoms: N1_2  and  N2_3 
REMARK    2  A    between atoms: N1_2  and  C2_7 
REMARK    3  A    between atoms: N2_3  and  N3_4 
REMARK    4  A    between atoms: C2_7  and  C3_11 
ROOT
HETATM    1  C2  UNL     1       2.590  -1.167  20.273  1.00  0.00     0.144 C 
HETATM    2  N4  UNL     1       3.056  -0.014  20.578  1.00  0.00    -0.384 N 
ATOM      3  H41 UNL     1       2.633   0.570  21.299  1.00  0.00     0.157 HD
ATOM      4  H42 UNL     1       3.878   0.331  20.082  1.00  0.00     0.157 HD
ENDROOT
BRANCH   1   5
HETATM    5  N1  UNL     1       3.183  -1.986  19.263  1.00  0.00    -0.198 N 
HETATM    6  C1  UNL     1       2.419  -2.266  18.067  1.00  0.00     0.197 C 
BRANCH   5   7
HETATM    7  N2  UNL     1       4.423  -2.499  19.397  1.00  0.00    -0.240 NA
BRANCH   7   8
HETATM    8  N3  UNL     1       5.471  -2.927  19.528  1.00  0.00    -0.260 N 
ATOM      9  H32 UNL     1       5.007  -2.021  19.459  1.00  0.00     0.193 HD
ATOM     10  H31 UNL     1       6.403  -3.325  19.645  1.00  0.00     0.193 HD
ENDBRANCH   7   8
ENDBRANCH   5   7
ENDBRANCH   1   5
BRANCH   1  11
HETATM   11  C3  UNL     1       1.399  -1.666  20.992  1.00  0.00     0.169 C 
HETATM   12  C4  UNL     1       0.142  -1.033  20.483  1.00  0.00     0.059 C 
HETATM   13 CL1  UNL     1       1.577  -1.410  22.740  1.00  0.00    -0.093 Cl
HETATM   14 CL2  UNL     1       1.285  -3.420  20.629  1.00  0.00    -0.093 Cl
ENDBRANCH   1  11
TORSDOF 4
ENDMDL
MODEL 5
REMARK VINA RESULT: -4.033209327      1.578      2.212
REMARK  4 active torsions:
REMARK  status: ('A' for Active; 'I' for Inactive)
REMARK    1  A    between atoms: N1_2  and  N2_3 
REMARK    2  A    between atoms: N1_2  and  C2_7 
REMARK    3  A    between atoms: N2_3  and  N3_4 
REMARK    4  A    between atoms: C2_7  and  C3_11 
ROOT
HETATM    1  C2  UNL     1       2.604  -1.150  20.304  1.00  0.00     0.144 C 
HETATM    2  N4  UNL     1       3.057   0.011  20.595  1.00  0.00    -0.384 N 
ATOM      3  H41 UNL     1       2.641   0.591  21.324  1.00  0.00     0.157 HD
ATOM      4  H42 UNL     1       3.863   0.367  20.080  1.00  0.00     0.157 HD
ENDROOT
BRANCH   1   5
HETATM    5  N1  UNL     1       3.187  -1.963  19.283  1.00  0.00    -0.198 N 
HETATM    6  C1  UNL     1       2.416  -2.231  18.090  1.00  0.00     0.197 C 
BRANCH   5   7
HETATM    7  N2  UNL     1       4.427  -2.480  19.405  1.00  0.00    -0.240 NA
BRANCH   7   8
HETATM    8  N3  UNL     1       5.473  -2.917  19.528  1.00  0.00    -0.260 N 
ATOM      9  H32 UNL     1       4.750  -2.468  20.090  1.00  0.00     0.193 HD
ATOM     10  H31 UNL     1       6.409  -3.311  19.620  1.00  0.00     0.193 HD
ENDBRANCH   7   8
ENDBRANCH   5   7
ENDBRANCH   1   5
BRANCH   1  11
HETATM   11  C3  UNL     1       1.436  -1.666  21.049  1.00  0.00     0.169 C 
HETATM   12  C4  UNL     1       1.549  -1.383  22.515  1.00  0.00     0.059 C 
HETATM   13 CL1  UNL     1       1.228  -3.404  20.751  1.00  0.00    -0.093 Cl
HETATM   14 CL2  UNL     1       0.009  -0.757  20.450  1.00  0.00    -0.093 Cl
ENDBRANCH   1  11
TORSDOF 4
ENDMDL
