MODEL 1
REMARK VINA RESULT: -4.233649589      0.000      0.000
REMARK  1 active torsions:
REMARK  status: ('A' for Active; 'I' for Inactive)
REMARK    1  A    between atoms: C3_3  and  C4_4 
ROOT
HETATM    1  C1  UNL     1       3.670  -0.042  21.885  1.00  0.00     0.068 C 
HETATM    2  C2  UNL     1       2.845  -0.875  20.954  1.00  0.00     0.018 A 
HETATM    3  C3  UNL     1       3.354  -1.394  19.871  1.00  0.00     0.068 A 
HETATM    4  C5  UNL     1       2.488  -2.211  18.984  1.00  0.00     0.127 A 
HETATM    5  N1  UNL     1       3.059  -2.769  17.808  1.00  0.00    -0.082 NA
HETATM    6  N2  UNL     1       1.261  -2.395  19.289  1.00  0.00    -0.352 N 
ATOM      7  H2  UNL     1       0.707  -2.964  18.648  1.00  0.00     0.163 HD
HETATM    8  C6  UNL     1       0.592  -1.880  20.443  1.00  0.00     0.097 A 
HETATM    9  C7  UNL     1       0.142  -3.074  21.272  1.00  0.00     0.062 C 
HETATM   10  C8  UNL     1      -0.598  -1.073  19.964  1.00  0.00     0.062 C 
HETATM   11  N3  UNL     1       1.457  -1.091  21.286  1.00  0.00    -0.367 N 
ATOM     12  H3  UNL     1       1.079  -0.676  22.138  1.00  0.00     0.162 HD
ENDROOT
BRANCH   3  13
HETATM   13  C4  UNL     1       4.750  -1.229  19.452  1.00  0.00     0.392 C 
HETATM   14  F1  UNL     1       5.639  -2.176  19.828  1.00  0.00    -0.209 F 
HETATM   15  F2  UNL     1       5.238  -0.010  19.949  1.00  0.00    -0.209 F 
ENDBRANCH   3  13
TORSDOF 1
ENDMDL
MODEL 2
REMARK VINA RESULT: -3.796328249      2.234      3.397
REMARK  1 active torsions:
REMARK  status: ('A' for Active; 'I' for Inactive)
REMARK    1  A    between atoms: C3_3  and  C4_4 
ROOT
HETATM    1  C1  UNL     1       0.101  -1.822  21.226  1.00  0.00     0.068 C 
HETATM    2  C2  UNL     1       1.321  -1.751  20.362  1.00  0.00     0.018 A 
HETATM    3  C3  UNL     1       2.393  -1.115  20.747  1.00  0.00     0.068 A 
HETATM    4  C5  UNL     1       3.574  -1.076  19.848  1.00  0.00     0.127 A 
HETATM    5  N1  UNL     1       4.734  -0.380  20.284  1.00  0.00    -0.082 NA
HETATM    6  N2  UNL     1       3.528  -1.662  18.714  1.00  0.00    -0.352 N 
ATOM      7  H2  UNL     1       4.364  -1.608  18.132  1.00  0.00     0.163 HD
HETATM    8  C6  UNL     1       2.414  -2.387  18.183  1.00  0.00     0.097 A 
HETATM    9  C7  UNL     1       2.861  -3.831  18.007  1.00  0.00     0.062 C 
HETATM   10  C8  UNL     1       2.053  -1.764  16.850  1.00  0.00     0.062 C 
HETATM   11  N3  UNL     1       1.283  -2.408  19.077  1.00  0.00    -0.367 N 
ATOM     12  H3  UNL     1       0.434  -2.900  18.796  1.00  0.00     0.162 HD
ENDROOT
BRANCH   3  13
HETATM   13  C4  UNL     1       2.526  -0.419  22.031  1.00  0.00     0.392 C 
HETATM   14  F1  UNL     1       2.104  -1.060  23.144  1.00  0.00    -0.209 F 
HETATM   15  F2  UNL     1       1.809   0.788  21.976  1.00  0.00    -0.209 F 
ENDBRANCH   3  13
TORSDOF 1
ENDMDL
MODEL 3
REMARK VINA RESULT: -3.763204769      2.156      3.430
REMARK  1 active torsions:
REMARK  status: ('A' for Active; 'I' for Inactive)
REMARK    1  A    between atoms: C3_3  and  C4_4 
ROOT
HETATM    1  C1  UNL     1       4.861  -0.340  20.423  1.00  0.00     0.068 C 
HETATM    2  C2  UNL     1       3.614  -1.050  19.996  1.00  0.00     0.018 A 
HETATM    3  C3  UNL     1       2.550  -1.072  20.751  1.00  0.00     0.068 A 
HETATM    4  C5  UNL     1       1.342  -1.793  20.278  1.00  0.00     0.127 A 
HETATM    5  N1  UNL     1       0.191  -1.805  21.113  1.00  0.00    -0.082 NA
HETATM    6  N2  UNL     1       1.356  -2.380  19.144  1.00  0.00    -0.352 N 
ATOM      7  H2  UNL     1       0.502  -2.861  18.863  1.00  0.00     0.163 HD
HETATM    8  C6  UNL     1       2.457  -2.428  18.232  1.00  0.00     0.097 A 
HETATM    9  C7  UNL     1       2.015  -1.723  16.958  1.00  0.00     0.062 C 
HETATM   10  C8  UNL     1       2.772  -3.885  17.965  1.00  0.00     0.062 C 
HETATM   11  N3  UNL     1       3.617  -1.719  18.717  1.00  0.00    -0.367 N 
ATOM     12  H3  UNL     1       4.459  -1.689  18.143  1.00  0.00     0.162 HD
ENDROOT
BRANCH   3  13
HETATM   13  C4  UNL     1       2.454  -0.423  22.063  1.00  0.00     0.392 C 
HETATM   14  F1  UNL     1       1.901  -1.126  23.078  1.00  0.00    -0.209 F 
HETATM   15  F2  UNL     1       1.696   0.753  21.940  1.00  0.00    -0.209 F 
ENDBRANCH   3  13
TORSDOF 1
ENDMDL
MODEL 4
REMARK VINA RESULT: -3.692098563      2.025      3.362
REMARK  1 active torsions:
REMARK  status: ('A' for Active; 'I' for Inactive)
REMARK    1  A    between atoms: C3_3  and  C4_4 
ROOT
HETATM    1  C1  UNL     1       0.185  -2.948  20.287  1.00  0.00     0.068 C 
HETATM    2  C2  UNL     1       1.402  -2.081  20.359  1.00  0.00     0.018 A 
HETATM    3  C3  UNL     1       2.320  -2.117  19.432  1.00  0.00     0.068 A 
HETATM    4  C5  UNL     1       3.508  -1.235  19.556  1.00  0.00     0.127 A 
HETATM    5  N1  UNL     1       4.498  -1.287  18.537  1.00  0.00    -0.082 NA
HETATM    6  N2  UNL     1       3.618  -0.455  20.561  1.00  0.00    -0.352 N 
ATOM      7  H2  UNL     1       4.451   0.132  20.601  1.00  0.00     0.163 HD
HETATM    8  C6  UNL     1       2.683  -0.328  21.637  1.00  0.00     0.097 A 
HETATM    9  C7  UNL     1       2.156   1.099  21.606  1.00  0.00     0.062 C 
HETATM   10  C8  UNL     1       3.425  -0.605  22.928  1.00  0.00     0.062 C 
HETATM   11  N3  UNL     1       1.540  -1.195  21.490  1.00  0.00    -0.367 N 
ATOM     12  H3  UNL     1       0.810  -1.183  22.203  1.00  0.00     0.162 HD
ENDROOT
BRANCH   3  13
HETATM   13  C4  UNL     1       2.268  -2.982  18.249  1.00  0.00     0.392 C 
HETATM   14  F1  UNL     1       3.363  -3.719  17.955  1.00  0.00    -0.209 F 
HETATM   15  F2  UNL     1       2.006  -2.196  17.115  1.00  0.00    -0.209 F 
ENDBRANCH   3  13
TORSDOF 1
ENDMDL
MODEL 5
REMARK VINA RESULT: -3.442396977      0.885      2.558
REMARK  1 active torsions:
REMARK  status: ('A' for Active; 'I' for Inactive)
REMARK    1  A    between atoms: C3_3  and  C4_4 
ROOT
HETATM    1  C1  UNL     1       2.806  -2.967  17.716  1.00  0.00     0.068 C 
HETATM    2  C2  UNL     1       2.371  -2.272  18.968  1.00  0.00     0.018 A 
HETATM    3  C3  UNL     1       3.209  -1.580  19.690  1.00  0.00     0.068 A 
HETATM    4  C5  UNL     1       2.722  -0.912  20.923  1.00  0.00     0.127 A 
HETATM    5  N1  UNL     1       3.648  -0.162  21.697  1.00  0.00    -0.082 NA
HETATM    6  N2  UNL     1       1.495  -1.022  21.262  1.00  0.00    -0.352 N 
ATOM      7  H2  UNL     1       1.208  -0.545  22.117  1.00  0.00     0.163 HD
HETATM    8  C6  UNL     1       0.487  -1.751  20.557  1.00  0.00     0.097 A 
HETATM    9  C7  UNL     1      -0.563  -0.745  20.108  1.00  0.00     0.062 C 
HETATM   10  C8  UNL     1      -0.106  -2.763  21.516  1.00  0.00     0.062 C 
HETATM   11  N3  UNL     1       0.988  -2.388  19.363  1.00  0.00    -0.367 N 
ATOM     12  H3  UNL     1       0.349  -2.934  18.784  1.00  0.00     0.162 HD
ENDROOT
BRANCH   3  13
HETATM   13  C4  UNL     1       4.629  -1.405  19.368  1.00  0.00     0.392 C 
HETATM   14  F1  UNL     1       5.503  -2.321  19.845  1.00  0.00    -0.209 F 
HETATM   15  F2  UNL     1       5.061  -0.160  19.853  1.00  0.00    -0.209 F 
ENDBRANCH   3  13
TORSDOF 1
ENDMDL
