MODEL 1
REMARK VINA RESULT: -5.064496675      0.000      0.000
REMARK  1 active torsions:
REMARK  status: ('A' for Active; 'I' for Inactive)
REMARK    1  A    between atoms: N1_8  and  O1_10 
ROOT
HETATM    1  C1  UNL     1      -0.305  -1.210  20.401  1.00  0.00     0.053 C 
HETATM    2  C2  UNL     1       1.022  -1.943  20.242  1.00  0.00     0.115 C 
HETATM    3  F1  UNL     1       0.849  -3.296  20.398  1.00  0.00    -0.242 F 
HETATM    4  C3  UNL     1       1.531  -1.677  18.870  1.00  0.00     0.045 C 
HETATM    5  C4  UNL     1       2.367  -2.838  18.357  1.00  0.00     0.011 C 
HETATM    6  C5  UNL     1       3.698  -2.887  19.093  1.00  0.00     0.078 C 
HETATM    7  C6  UNL     1       3.914  -1.544  19.692  1.00  0.00     0.097 C 
HETATM    8  N1  UNL     1       4.932  -0.857  19.283  1.00  0.00    -0.257 N 
ATOM      9  H1  UNL     1       5.535  -1.270  18.572  1.00  0.00     0.195 HD
HETATM   10  N2  UNL     1       3.119  -0.909  20.683  1.00  0.00    -0.375 N 
ATOM     11  H2  UNL     1       3.404   0.029  20.965  1.00  0.00     0.160 HD
HETATM   12  C7  UNL     1       1.941  -1.455  21.340  1.00  0.00     0.164 C 
ENDROOT
BRANCH   8  13
HETATM   13  O1  UNL     1       5.243   0.377  19.745  1.00  0.00    -0.288 OA
ATOM     14  H1  UNL     1       6.127   0.723  19.774  1.00  0.00     0.244 HD
ENDBRANCH   8  13
TORSDOF 1
ENDMDL
MODEL 2
REMARK VINA RESULT: -4.804439417      2.315      2.867
REMARK  1 active torsions:
REMARK  status: ('A' for Active; 'I' for Inactive)
REMARK    1  A    between atoms: N1_8  and  O1_10 
ROOT
HETATM    1  C1  UNL     1       1.945   1.049  21.634  1.00  0.00     0.053 C 
HETATM    2  C2  UNL     1       1.982  -0.462  21.441  1.00  0.00     0.115 C 
HETATM    3  F1  UNL     1       1.834  -1.108  22.642  1.00  0.00    -0.242 F 
HETATM    4  C3  UNL     1       0.852  -0.837  20.549  1.00  0.00     0.045 C 
HETATM    5  C4  UNL     1       0.351  -2.239  20.854  1.00  0.00     0.011 C 
HETATM    6  C5  UNL     1       1.368  -3.269  20.385  1.00  0.00     0.078 C 
HETATM    7  C6  UNL     1       2.243  -2.595  19.390  1.00  0.00     0.097 C 
HETATM    8  N1  UNL     1       2.233  -3.043  18.176  1.00  0.00    -0.257 N 
ATOM      9  H1  UNL     1       1.627  -3.835  17.961  1.00  0.00     0.195 HD
HETATM   10  N2  UNL     1       3.110  -1.493  19.617  1.00  0.00    -0.375 N 
ATOM     11  H2  UNL     1       3.624  -1.143  18.808  1.00  0.00     0.160 HD
HETATM   12  C7  UNL     1       3.343  -0.812  20.881  1.00  0.00     0.164 C 
ENDROOT
BRANCH   8  13
HETATM   13  O1  UNL     1       2.980  -2.523  17.174  1.00  0.00    -0.288 OA
ATOM     14  H1  UNL     1       3.350  -3.038  16.467  1.00  0.00     0.244 HD
ENDBRANCH   8  13
TORSDOF 1
ENDMDL
MODEL 3
REMARK VINA RESULT: -3.990392404      1.739      2.510
REMARK  1 active torsions:
REMARK  status: ('A' for Active; 'I' for Inactive)
REMARK    1  A    between atoms: N1_8  and  O1_10 
ROOT
HETATM    1  C1  UNL     1      -0.223  -2.538  20.979  1.00  0.00     0.053 C 
HETATM    2  C2  UNL     1       0.855  -1.535  20.588  1.00  0.00     0.115 C 
HETATM    3  F1  UNL     1       0.345  -0.261  20.563  1.00  0.00    -0.242 F 
HETATM    4  C3  UNL     1       1.934  -1.602  21.609  1.00  0.00     0.045 C 
HETATM    5  C4  UNL     1       2.634  -0.261  21.761  1.00  0.00     0.011 C 
HETATM    6  C5  UNL     1       3.491   0.019  20.535  1.00  0.00     0.078 C 
HETATM    7  C6  UNL     1       3.724  -1.284  19.859  1.00  0.00     0.097 C 
HETATM    8  N1  UNL     1       4.941  -1.714  19.779  1.00  0.00    -0.257 N 
ATOM      9  H1  UNL     1       5.681  -1.141  20.184  1.00  0.00     0.195 HD
HETATM   10  N2  UNL     1       2.746  -2.132  19.274  1.00  0.00    -0.375 N 
ATOM     11  H2  UNL     1       3.084  -3.005  18.868  1.00  0.00     0.160 HD
HETATM   12  C7  UNL     1       1.315  -1.887  19.190  1.00  0.00     0.164 C 
ENDROOT
BRANCH   8  13
HETATM   13  O1  UNL     1       5.291  -2.882  19.190  1.00  0.00    -0.288 OA
ATOM     14  H1  UNL     1       4.694  -3.416  18.679  1.00  0.00     0.244 HD
ENDBRANCH   8  13
TORSDOF 1
ENDMDL
MODEL 4
REMARK VINA RESULT: -3.780258504      9.977     10.744
REMARK  1 active torsions:
REMARK  status: ('A' for Active; 'I' for Inactive)
REMARK    1  A    between atoms: N1_8  and  O1_10 
ROOT
HETATM    1  C1  UNL     1      -3.590  -6.598  11.555  1.00  0.00     0.053 C 
HETATM    2  C2  UNL     1      -4.018  -6.988  12.965  1.00  0.00     0.115 C 
HETATM    3  F1  UNL     1      -5.270  -6.500  13.242  1.00  0.00    -0.242 F 
HETATM    4  C3  UNL     1      -4.052  -8.473  13.039  1.00  0.00     0.045 C 
HETATM    5  C4  UNL     1      -5.092  -8.952  14.038  1.00  0.00     0.011 C 
HETATM    6  C5  UNL     1      -4.625  -8.659  15.457  1.00  0.00     0.078 C 
HETATM    7  C6  UNL     1      -3.153  -8.458  15.397  1.00  0.00     0.097 C 
HETATM    8  N1  UNL     1      -2.403  -9.292  16.042  1.00  0.00    -0.257 N 
ATOM      9  H1  UNL     1      -2.856 -10.046  16.558  1.00  0.00     0.195 HD
HETATM   10  N2  UNL     1      -2.455  -7.434  14.703  1.00  0.00    -0.375 N 
ATOM     11  H2  UNL     1      -1.437  -7.461  14.754  1.00  0.00     0.160 HD
HETATM   12  C7  UNL     1      -3.039  -6.351  13.926  1.00  0.00     0.164 C 
ENDROOT
BRANCH   8  13
HETATM   13  O1  UNL     1      -1.051  -9.223  16.071  1.00  0.00    -0.288 OA
ATOM     14  H1  UNL     1      -0.497  -9.381  15.316  1.00  0.00     0.244 HD
ENDBRANCH   8  13
TORSDOF 1
ENDMDL
MODEL 5
REMARK VINA RESULT: -3.486461963      1.712      3.067
REMARK  1 active torsions:
REMARK  status: ('A' for Active; 'I' for Inactive)
REMARK    1  A    between atoms: N1_8  and  O1_10 
ROOT
HETATM    1  C1  UNL     1       2.812  -3.574  18.063  1.00  0.00     0.053 C 
HETATM    2  C2  UNL     1       2.174  -2.333  18.676  1.00  0.00     0.115 C 
HETATM    3  F1  UNL     1       1.232  -1.804  17.829  1.00  0.00    -0.242 F 
HETATM    4  C3  UNL     1       1.509  -2.739  19.943  1.00  0.00     0.045 C 
HETATM    5  C4  UNL     1       0.305  -1.860  20.240  1.00  0.00     0.011 C 
HETATM    6  C5  UNL     1       0.766  -0.470  20.654  1.00  0.00     0.078 C 
HETATM    7  C6  UNL     1       2.185  -0.590  21.081  1.00  0.00     0.097 C 
HETATM    8  N1  UNL     1       2.470  -0.317  22.313  1.00  0.00    -0.257 N 
ATOM      9  H1  UNL     1       1.709  -0.034  22.931  1.00  0.00     0.195 HD
HETATM   10  N2  UNL     1       3.291  -0.976  20.279  1.00  0.00    -0.375 N 
ATOM     11  H2  UNL     1       4.197  -1.026  20.745  1.00  0.00     0.160 HD
HETATM   12  C7  UNL     1       3.270  -1.307  18.862  1.00  0.00     0.164 C 
ENDROOT
BRANCH   8  13
HETATM   13  O1  UNL     1       3.719  -0.386  22.831  1.00  0.00    -0.288 OA
ATOM     14  H1  UNL     1       4.511  -0.349  22.308  1.00  0.00     0.244 HD
ENDBRANCH   8  13
TORSDOF 1
ENDMDL
