MODEL 1
REMARK VINA RESULT: -4.468841981      0.000      0.000
REMARK  2 active torsions:
REMARK  status: ('A' for Active; 'I' for Inactive)
REMARK    1  A    between atoms: C6_6  and  O1_7 
REMARK    2  A    between atoms: O1_7  and  O2_8 
ROOT
HETATM    1  C1  UNL     1       7.061  -7.170  26.685  1.00  0.00     0.018 C 
HETATM    2  C2  UNL     1       8.508  -7.272  26.965  1.00  0.00    -0.012 C 
HETATM    3  C3  UNL     1       8.953  -8.710  27.078  1.00  0.00     0.018 C 
HETATM    4  C4  UNL     1       9.048  -6.444  28.112  1.00  0.00     0.074 C 
HETATM    5  C5  UNL     1       8.400  -5.085  28.183  1.00  0.00     0.068 C 
HETATM    6  C6  UNL     1       8.319  -4.416  26.853  1.00  0.00     0.255 C 
HETATM    7  N1  UNL     1       8.773  -5.200  25.753  1.00  0.00    -0.384 N 
ATOM      8  H1  UNL     1       8.640  -4.902  24.787  1.00  0.00     0.156 HD
HETATM    9  C7  UNL     1       9.419  -6.415  26.077  1.00  0.00     0.160 C 
HETATM   10  C8  UNL     1      10.333  -6.322  27.280  1.00  0.00     0.268 C 
HETATM   11  F1  UNL     1      11.010  -5.156  27.436  1.00  0.00    -0.204 F 
HETATM   12  F2  UNL     1      11.187  -7.388  27.406  1.00  0.00    -0.204 F 
ENDROOT
BRANCH   6  13
HETATM   13  O1  UNL     1       8.959  -3.178  26.817  1.00  0.00    -0.217 OA
BRANCH  13  14
HETATM   14  O2  UNL     1       8.162  -2.174  26.678  1.00  0.00    -0.248 OA
ATOM     15  H2  UNL     1       8.148  -1.807  25.802  1.00  0.00     0.253 HD
ENDBRANCH  13  14
ENDBRANCH   6  13
TORSDOF 2
ENDMDL
MODEL 2
REMARK VINA RESULT: -4.281159969      3.263      4.097
REMARK  2 active torsions:
REMARK  status: ('A' for Active; 'I' for Inactive)
REMARK    1  A    between atoms: C6_6  and  O1_7 
REMARK    2  A    between atoms: O1_7  and  O2_8 
ROOT
HETATM    1  C1  UNL     1      10.913  -5.949  27.454  1.00  0.00     0.018 C 
HETATM    2  C2  UNL     1       9.468  -5.647  27.506  1.00  0.00    -0.012 C 
HETATM    3  C3  UNL     1       9.200  -4.309  28.151  1.00  0.00     0.018 C 
HETATM    4  C4  UNL     1       8.561  -6.717  28.076  1.00  0.00     0.074 C 
HETATM    5  C5  UNL     1       8.989  -8.101  27.663  1.00  0.00     0.068 C 
HETATM    6  C6  UNL     1       9.303  -8.195  26.208  1.00  0.00     0.255 C 
HETATM    7  N1  UNL     1       9.238  -6.963  25.494  1.00  0.00    -0.384 N 
ATOM      8  H1  UNL     1       9.563  -6.881  24.531  1.00  0.00     0.156 HD
HETATM    9  C7  UNL     1       8.697  -5.863  26.196  1.00  0.00     0.160 C 
HETATM   10  C8  UNL     1       7.513  -6.215  27.072  1.00  0.00     0.268 C 
HETATM   11  F1  UNL     1       6.672  -7.168  26.596  1.00  0.00    -0.204 F 
HETATM   12  F2  UNL     1       6.802  -5.124  27.501  1.00  0.00    -0.204 F 
ENDROOT
BRANCH   6  13
HETATM   13  O1  UNL     1       8.535  -9.146  25.536  1.00  0.00    -0.217 OA
BRANCH  13  14
HETATM   14  O2  UNL     1       8.600  -9.066  24.251  1.00  0.00    -0.248 OA
ATOM     15  H2  UNL     1       9.374  -9.466  23.874  1.00  0.00     0.253 HD
ENDBRANCH  13  14
ENDBRANCH   6  13
TORSDOF 2
ENDMDL
MODEL 3
REMARK VINA RESULT: -4.272187494     18.106     19.136
REMARK  2 active torsions:
REMARK  status: ('A' for Active; 'I' for Inactive)
REMARK    1  A    between atoms: C6_6  and  O1_7 
REMARK    2  A    between atoms: O1_7  and  O2_8 
ROOT
HETATM    1  C1  UNL     1      -6.300  -8.860  13.212  1.00  0.00     0.018 C 
HETATM    2  C2  UNL     1      -5.428  -7.769  12.733  1.00  0.00    -0.012 C 
HETATM    3  C3  UNL     1      -6.007  -7.085  11.518  1.00  0.00     0.018 C 
HETATM    4  C4  UNL     1      -3.964  -8.097  12.525  1.00  0.00     0.074 C 
HETATM    5  C5  UNL     1      -3.434  -9.020  13.592  1.00  0.00     0.068 C 
HETATM    6  C6  UNL     1      -3.840  -8.603  14.966  1.00  0.00     0.255 C 
HETATM    7  N1  UNL     1      -4.719  -7.483  15.023  1.00  0.00    -0.384 N 
ATOM      8  H1  UNL     1      -5.169  -7.195  15.892  1.00  0.00     0.156 HD
HETATM    9  C7  UNL     1      -4.931  -6.793  13.808  1.00  0.00     0.160 C 
HETATM   10  C8  UNL     1      -3.687  -6.650  12.958  1.00  0.00     0.268 C 
HETATM   11  F1  UNL     1      -2.519  -6.463  13.623  1.00  0.00    -0.204 F 
HETATM   12  F2  UNL     1      -3.813  -5.729  11.950  1.00  0.00    -0.204 F 
ENDROOT
BRANCH   6  13
HETATM   13  O1  UNL     1      -2.759  -8.371  15.815  1.00  0.00    -0.217 OA
BRANCH  13  14
HETATM   14  O2  UNL     1      -3.084  -7.885  16.964  1.00  0.00    -0.248 OA
ATOM     15  H2  UNL     1      -3.807  -8.334  17.387  1.00  0.00     0.253 HD
ENDBRANCH  13  14
ENDBRANCH   6  13
TORSDOF 2
ENDMDL
MODEL 4
REMARK VINA RESULT: -4.208652765     17.686     18.627
REMARK  2 active torsions:
REMARK  status: ('A' for Active; 'I' for Inactive)
REMARK    1  A    between atoms: C6_6  and  O1_7 
REMARK    2  A    between atoms: O1_7  and  O2_8 
ROOT
HETATM    1  C1  UNL     1      -5.976  -9.324  14.105  1.00  0.00     0.018 C 
HETATM    2  C2  UNL     1      -4.843  -8.789  14.887  1.00  0.00    -0.012 C 
HETATM    3  C3  UNL     1      -4.838  -9.324  16.298  1.00  0.00     0.018 C 
HETATM    4  C4  UNL     1      -4.645  -7.288  14.875  1.00  0.00     0.074 C 
HETATM    5  C5  UNL     1      -4.924  -6.691  13.519  1.00  0.00     0.068 C 
HETATM    6  C6  UNL     1      -4.287  -7.461  12.411  1.00  0.00     0.255 C 
HETATM    7  N1  UNL     1      -3.619  -8.655  12.809  1.00  0.00    -0.384 N 
ATOM      8  H1  UNL     1      -3.268  -9.328  12.129  1.00  0.00     0.156 HD
HETATM    9  C7  UNL     1      -3.472  -8.853  14.201  1.00  0.00     0.160 C 
HETATM   10  C8  UNL     1      -3.143  -7.590  14.969  1.00  0.00     0.268 C 
HETATM   11  F1  UNL     1      -2.336  -6.696  14.344  1.00  0.00    -0.204 F 
HETATM   12  F2  UNL     1      -2.696  -7.823  16.245  1.00  0.00    -0.204 F 
ENDROOT
BRANCH   6  13
HETATM   13  O1  UNL     1      -3.416  -6.696  11.635  1.00  0.00    -0.217 OA
BRANCH  13  14
HETATM   14  O2  UNL     1      -3.423  -5.438  11.918  1.00  0.00    -0.248 OA
ATOM     15  H2  UNL     1      -2.647  -4.970  11.634  1.00  0.00     0.253 HD
ENDBRANCH  13  14
ENDBRANCH   6  13
TORSDOF 2
ENDMDL
MODEL 5
REMARK VINA RESULT: -4.182095987      1.978      2.611
REMARK  2 active torsions:
REMARK  status: ('A' for Active; 'I' for Inactive)
REMARK    1  A    between atoms: C6_6  and  O1_7 
REMARK    2  A    between atoms: O1_7  and  O2_8 
ROOT
HETATM    1  C1  UNL     1      11.199  -6.772  27.098  1.00  0.00     0.018 C 
HETATM    2  C2  UNL     1       9.887  -7.451  27.101  1.00  0.00    -0.012 C 
HETATM    3  C3  UNL     1      10.036  -8.951  27.182  1.00  0.00     0.018 C 
HETATM    4  C4  UNL     1       8.906  -7.060  26.017  1.00  0.00     0.074 C 
HETATM    5  C5  UNL     1       8.945  -5.582  25.724  1.00  0.00     0.068 C 
HETATM    6  C6  UNL     1       8.943  -4.750  26.962  1.00  0.00     0.255 C 
HETATM    7  N1  UNL     1       8.999  -5.483  28.183  1.00  0.00    -0.384 N 
ATOM      8  H1  UNL     1       9.140  -5.023  29.082  1.00  0.00     0.156 HD
HETATM    9  C7  UNL     1       8.848  -6.884  28.078  1.00  0.00     0.160 C 
HETATM   10  C8  UNL     1       7.811  -7.315  27.063  1.00  0.00     0.268 C 
HETATM   11  F1  UNL     1       6.713  -6.526  26.949  1.00  0.00    -0.204 F 
HETATM   12  F2  UNL     1       7.441  -8.631  27.179  1.00  0.00    -0.204 F 
ENDROOT
BRANCH   6  13
HETATM   13  O1  UNL     1       7.877  -3.854  27.024  1.00  0.00    -0.217 OA
BRANCH  13  14
HETATM   14  O2  UNL     1       8.180  -2.648  26.680  1.00  0.00    -0.248 OA
ATOM     15  H2  UNL     1       8.197  -2.503  25.742  1.00  0.00     0.253 HD
ENDBRANCH  13  14
ENDBRANCH   6  13
TORSDOF 2
ENDMDL
