MODEL 1
REMARK VINA RESULT: -4.898370187      0.000      0.000
REMARK  0 active torsions:
REMARK  status: ('A' for Active; 'I' for Inactive)
ROOT
HETATM    1  C1  UNL     1       1.943   0.415  21.870  1.00  0.00     0.017 C 
HETATM    2  C2  UNL     1       2.206  -0.344  20.581  1.00  0.00     0.069 C 
HETATM    3  C3  UNL     1       3.662  -0.570  20.487  1.00  0.00     0.093 C 
HETATM    4  S1  UNL     1       4.177  -1.820  19.321  1.00  0.00    -0.094 SA
HETATM    5  C4  UNL     1       2.686  -2.554  18.647  1.00  0.00     0.137 C 
HETATM    6  N1  UNL     1       2.679  -3.155  17.505  1.00  0.00    -0.380 N 
ATOM      7  H11 UNL     1       1.830  -3.573  17.122  1.00  0.00     0.158 HD
ATOM      8  H12 UNL     1       3.516  -3.243  16.930  1.00  0.00     0.158 HD
HETATM    9  N2  UNL     1       1.530  -2.434  19.441  1.00  0.00    -0.322 N 
ATOM     10  H2  UNL     1       0.771  -3.086  19.242  1.00  0.00     0.166 HD
HETATM   11  C5  UNL     1       1.306  -1.503  20.493  1.00  0.00     0.260 C 
HETATM   12  F1  UNL     1       0.001  -1.012  20.303  1.00  0.00    -0.200 F 
HETATM   13 CL1  UNL     1       1.206  -2.445  22.006  1.00  0.00    -0.059 Cl
ENDROOT
TORSDOF 0
ENDMDL
MODEL 2
REMARK VINA RESULT: -4.425795228      2.915      4.019
REMARK  0 active torsions:
REMARK  status: ('A' for Active; 'I' for Inactive)
ROOT
HETATM    1  C1  UNL     1       2.723  -3.127  17.721  1.00  0.00     0.017 C 
HETATM    2  C2  UNL     1       2.432  -2.083  18.784  1.00  0.00     0.069 C 
HETATM    3  C3  UNL     1       1.448  -2.663  19.719  1.00  0.00     0.093 C 
HETATM    4  S1  UNL     1       1.290  -1.830  21.291  1.00  0.00    -0.094 SA
HETATM    5  C4  UNL     1       2.521  -0.526  21.319  1.00  0.00     0.137 C 
HETATM    6  N1  UNL     1       2.400   0.507  22.083  1.00  0.00    -0.380 N 
ATOM      7  H11 UNL     1       3.100   1.249  22.099  1.00  0.00     0.158 HD
ATOM      8  H12 UNL     1       1.603   0.635  22.706  1.00  0.00     0.158 HD
HETATM    9  N2  UNL     1       3.621  -0.703  20.459  1.00  0.00    -0.322 N 
ATOM     10  H2  UNL     1       4.457  -0.158  20.672  1.00  0.00     0.166 HD
HETATM   11  C5  UNL     1       3.694  -1.558  19.325  1.00  0.00     0.260 C 
HETATM   12  F1  UNL     1       4.309  -0.804  18.309  1.00  0.00    -0.200 F 
HETATM   13 CL1  UNL     1       4.886  -2.829  19.712  1.00  0.00    -0.059 Cl
ENDROOT
TORSDOF 0
ENDMDL
MODEL 3
REMARK VINA RESULT: -3.920080704      2.328      2.852
REMARK  0 active torsions:
REMARK  status: ('A' for Active; 'I' for Inactive)
ROOT
HETATM    1  C1  UNL     1       0.048  -2.429  21.058  1.00  0.00     0.017 C 
HETATM    2  C2  UNL     1       1.520  -2.201  20.763  1.00  0.00     0.069 C 
HETATM    3  C3  UNL     1       1.730  -2.459  19.325  1.00  0.00     0.093 C 
HETATM    4  S1  UNL     1       3.252  -1.824  18.640  1.00  0.00    -0.094 SA
HETATM    5  C4  UNL     1       4.075  -0.912  19.947  1.00  0.00     0.137 C 
HETATM    6  N1  UNL     1       5.349  -0.703  19.933  1.00  0.00    -0.380 N 
ATOM      7  H11 UNL     1       5.817  -0.184  20.677  1.00  0.00     0.158 HD
ATOM      8  H12 UNL     1       5.949  -1.044  19.184  1.00  0.00     0.158 HD
HETATM    9  N2  UNL     1       3.246  -0.440  20.981  1.00  0.00    -0.322 N 
ATOM     10  H2  UNL     1       3.618   0.318  21.553  1.00  0.00     0.166 HD
HETATM   11  C5  UNL     1       1.944  -0.907  21.317  1.00  0.00     0.260 C 
HETATM   12  F1  UNL     1       1.922  -1.018  22.719  1.00  0.00    -0.200 F 
HETATM   13 CL1  UNL     1       0.810   0.426  20.964  1.00  0.00    -0.059 Cl
ENDROOT
TORSDOF 0
ENDMDL
MODEL 4
REMARK VINA RESULT: -3.785000668     10.949     11.448
REMARK  0 active torsions:
REMARK  status: ('A' for Active; 'I' for Inactive)
ROOT
HETATM    1  C1  UNL     1       9.597  -9.119  26.232  1.00  0.00     0.017 C 
HETATM    2  C2  UNL     1       9.030  -7.715  26.126  1.00  0.00     0.069 C 
HETATM    3  C3  UNL     1       7.800  -7.670  26.941  1.00  0.00     0.093 C 
HETATM    4  S1  UNL     1       7.205  -6.038  27.352  1.00  0.00    -0.094 SA
HETATM    5  C4  UNL     1       8.403  -4.866  26.713  1.00  0.00     0.137 C 
HETATM    6  N1  UNL     1       8.086  -3.642  26.454  1.00  0.00    -0.380 N 
ATOM      7  H11 UNL     1       8.768  -2.975  26.091  1.00  0.00     0.158 HD
ATOM      8  H12 UNL     1       7.144  -3.280  26.599  1.00  0.00     0.158 HD
HETATM    9  N2  UNL     1       9.703  -5.365  26.515  1.00  0.00    -0.322 N 
ATOM     10  H2  UNL     1      10.451  -4.674  26.453  1.00  0.00     0.166 HD
HETATM   11  C5  UNL     1      10.088  -6.729  26.391  1.00  0.00     0.260 C 
HETATM   12  F1  UNL     1      10.993  -6.780  25.315  1.00  0.00    -0.200 F 
HETATM   13 CL1  UNL     1      11.082  -7.118  27.821  1.00  0.00    -0.059 Cl
ENDROOT
TORSDOF 0
ENDMDL
MODEL 5
REMARK VINA RESULT: -3.760421309      2.150      2.672
REMARK  0 active torsions:
REMARK  status: ('A' for Active; 'I' for Inactive)
ROOT
HETATM    1  C1  UNL     1      -0.588  -1.295  20.404  1.00  0.00     0.017 C 
HETATM    2  C2  UNL     1       0.853  -0.842  20.254  1.00  0.00     0.069 C 
HETATM    3  C3  UNL     1       1.260  -0.222  21.530  1.00  0.00     0.093 C 
HETATM    4  S1  UNL     1       3.019  -0.028  21.771  1.00  0.00    -0.094 SA
HETATM    5  C4  UNL     1       3.827  -0.787  20.361  1.00  0.00     0.137 C 
HETATM    6  N1  UNL     1       5.022  -0.456  20.002  1.00  0.00    -0.380 N 
ATOM      7  H11 UNL     1       5.482  -0.888  19.200  1.00  0.00     0.158 HD
ATOM      8  H12 UNL     1       5.566   0.249  20.500  1.00  0.00     0.158 HD
HETATM    9  N2  UNL     1       3.078  -1.760  19.674  1.00  0.00    -0.322 N 
ATOM     10  H2  UNL     1       3.603  -2.407  19.085  1.00  0.00     0.166 HD
HETATM   11  C5  UNL     1       1.667  -1.941  19.713  1.00  0.00     0.260 C 
HETATM   12  F1  UNL     1       1.266  -2.148  18.380  1.00  0.00    -0.200 F 
HETATM   13 CL1  UNL     1       1.368  -3.509  20.511  1.00  0.00    -0.059 Cl
ENDROOT
TORSDOF 0
ENDMDL
