MODEL 1
REMARK VINA RESULT: -8.166634552      0.000      0.000
REMARK  11 active torsions:
REMARK  status: ('A' for Active; 'I' for Inactive)
REMARK    1  A    between atoms: C2_2  and  C9_14 
REMARK    2  A    between atoms: C3_3  and  C4_4 
REMARK    3  A    between atoms: C4_4  and  O1_5 
REMARK    4  A    between atoms: O1_5  and  C5_6 
REMARK    5  A    between atoms: C5_6  and  C6_7 
REMARK    6  A    between atoms: C6_7  and  O2_8 
REMARK    7  A    between atoms: C6_7  and  C7_10 
REMARK    8  A    between atoms: C7_10  and  O3_12 
REMARK    9  A    between atoms: C9_14  and  C10_15 
REMARK   10  A    between atoms: C10_15  and  C11_16 
REMARK   11  A    between atoms: C14_19  and  O4_20 
ROOT
HETATM    1  C11 UNL     1       9.005  -4.342  42.172  1.00  0.00    -0.003 C 
HETATM    2  C12 UNL     1       8.618  -5.375  41.173  1.00  0.00     0.008 C 
HETATM    3  C13 UNL     1       7.084  -5.305  41.079  1.00  0.00     0.039 C 
HETATM    4  C14 UNL     1       6.732  -4.148  41.947  1.00  0.00     0.069 C 
HETATM    5  C15 UNL     1       5.369  -4.126  42.494  1.00  0.00     0.025 C 
HETATM    6  C16 UNL     1       4.475  -3.357  41.513  1.00  0.00     0.009 C 
HETATM    7  C17 UNL     1       4.168  -2.077  42.249  1.00  0.00     0.010 C 
HETATM    8  C18 UNL     1       3.994  -2.570  43.670  1.00  0.00    -0.044 C 
HETATM    9  C19 UNL     1       4.028  -1.432  44.662  1.00  0.00     0.015 C 
HETATM   10  C20 UNL     1       2.715  -3.323  43.869  1.00  0.00     0.015 C 
HETATM   11  C21 UNL     1       5.206  -3.486  43.824  1.00  0.00     0.000 C 
HETATM   12  C22 UNL     1       6.335  -2.683  44.323  1.00  0.00     0.007 C 
HETATM   13  C23 UNL     1       7.692  -3.056  43.887  1.00  0.00     0.013 C 
HETATM   14  C24 UNL     1       7.793  -4.291  43.056  1.00  0.00    -0.009 C 
HETATM   15  C25 UNL     1       7.511  -5.562  43.804  1.00  0.00     0.019 C 
ENDROOT
BRANCH   1  16
HETATM   16  C10 UNL     1      10.309  -4.458  42.805  1.00  0.00     0.010 C 
BRANCH  16  17
HETATM   17  C9  UNL     1      11.219  -3.289  42.832  1.00  0.00     0.034 C 
BRANCH  17  18
HETATM   18  C2  UNL     1      11.681  -3.141  44.272  1.00  0.00    -0.086 C 
HETATM   19  C1  UNL     1      12.866  -3.925  44.660  1.00  0.00     0.043 C 
HETATM   20  C3  UNL     1      11.041  -2.355  45.093  1.00  0.00     0.001 C 
BRANCH  20  21
HETATM   21  C4  UNL     1      11.367  -2.110  46.510  1.00  0.00     0.195 C 
BRANCH  21  22
HETATM   22  O1  UNL     1      10.269  -1.981  47.313  1.00  0.00    -0.385 OA
BRANCH  22  23
HETATM   23  C5  UNL     1       9.100  -1.572  46.770  1.00  0.00     0.202 C 
BRANCH  23  24
HETATM   24  C6  UNL     1       8.596  -0.224  47.167  1.00  0.00     0.170 C 
BRANCH  24  25
HETATM   25  O2  UNL     1       9.663   0.468  47.790  1.00  0.00    -0.391 OA
ATOM     26  H2  UNL     1       9.389   1.369  47.915  1.00  0.00     0.210 HD
ENDBRANCH  24  25
BRANCH  24  27
HETATM   27  C7  UNL     1       7.461  -0.336  48.196  1.00  0.00     0.145 C 
HETATM   28  C8  UNL     1       6.162  -0.385  47.433  1.00  0.00     0.042 C 
BRANCH  27  29
HETATM   29  O3  UNL     1       7.616  -1.497  48.911  1.00  0.00    -0.393 OA
ATOM     30  H3  UNL     1       6.868  -2.062  48.752  1.00  0.00     0.210 HD
ENDBRANCH  27  29
ENDBRANCH  24  27
ENDBRANCH  23  24
ENDBRANCH  22  23
ENDBRANCH  21  22
ENDBRANCH  20  21
ENDBRANCH  17  18
ENDBRANCH  16  17
ENDBRANCH   1  16
BRANCH   4  31
HETATM   31  O4  UNL     1       7.013  -2.958  41.262  1.00  0.00    -0.389 OA
ATOM     32  H4  UNL     1       7.357  -2.320  41.876  1.00  0.00     0.210 HD
ENDBRANCH   4  31
TORSDOF 11
ENDMDL
MODEL 2
REMARK VINA RESULT: -8.040980426      3.837      6.570
REMARK  11 active torsions:
REMARK  status: ('A' for Active; 'I' for Inactive)
REMARK    1  A    between atoms: C2_2  and  C9_14 
REMARK    2  A    between atoms: C3_3  and  C4_4 
REMARK    3  A    between atoms: C4_4  and  O1_5 
REMARK    4  A    between atoms: O1_5  and  C5_6 
REMARK    5  A    between atoms: C5_6  and  C6_7 
REMARK    6  A    between atoms: C6_7  and  O2_8 
REMARK    7  A    between atoms: C6_7  and  C7_10 
REMARK    8  A    between atoms: C7_10  and  O3_12 
REMARK    9  A    between atoms: C9_14  and  C10_15 
REMARK   10  A    between atoms: C10_15  and  C11_16 
REMARK   11  A    between atoms: C14_19  and  O4_20 
ROOT
HETATM    1  C11 UNL     1      11.473  -4.230  41.960  1.00  0.00    -0.003 C 
HETATM    2  C12 UNL     1      10.424  -5.269  41.772  1.00  0.00     0.008 C 
HETATM    3  C13 UNL     1       9.435  -5.073  42.933  1.00  0.00     0.039 C 
HETATM    4  C14 UNL     1       9.939  -3.853  43.622  1.00  0.00     0.069 C 
HETATM    5  C15 UNL     1       9.564  -3.690  45.032  1.00  0.00     0.025 C 
HETATM    6  C16 UNL     1       8.256  -2.892  45.088  1.00  0.00     0.009 C 
HETATM    7  C17 UNL     1       8.683  -1.559  45.650  1.00  0.00     0.010 C 
HETATM    8  C18 UNL     1       9.711  -1.972  46.681  1.00  0.00    -0.044 C 
HETATM    9  C19 UNL     1      10.545  -0.799  47.138  1.00  0.00     0.015 C 
HETATM   10  C20 UNL     1       9.095  -2.604  47.892  1.00  0.00     0.015 C 
HETATM   11  C21 UNL     1      10.543  -2.981  45.894  1.00  0.00     0.000 C 
HETATM   12  C22 UNL     1      11.630  -2.256  45.214  1.00  0.00     0.007 C 
HETATM   13  C23 UNL     1      12.085  -2.762  43.908  1.00  0.00     0.013 C 
HETATM   14  C24 UNL     1      11.459  -4.036  43.448  1.00  0.00    -0.009 C 
HETATM   15  C25 UNL     1      11.871  -5.245  44.239  1.00  0.00     0.019 C 
ENDROOT
BRANCH   1  16
HETATM   16  C10 UNL     1      12.758  -4.429  41.309  1.00  0.00     0.010 C 
BRANCH  16  17
HETATM   17  C9  UNL     1      13.140  -5.780  40.836  1.00  0.00     0.034 C 
BRANCH  17  18
HETATM   18  C2  UNL     1      14.608  -5.956  41.186  1.00  0.00    -0.086 C 
HETATM   19  C1  UNL     1      15.513  -6.258  40.063  1.00  0.00     0.043 C 
HETATM   20  C3  UNL     1      15.012  -5.838  42.420  1.00  0.00     0.001 C 
BRANCH  20  21
HETATM   21  C4  UNL     1      16.394  -5.981  42.910  1.00  0.00     0.195 C 
BRANCH  21  22
HETATM   22  O1  UNL     1      16.518  -6.841  43.965  1.00  0.00    -0.385 OA
BRANCH  22  23
HETATM   23  C5  UNL     1      16.980  -6.373  45.146  1.00  0.00     0.202 C 
BRANCH  23  24
HETATM   24  C6  UNL     1      15.973  -6.109  46.217  1.00  0.00     0.170 C 
BRANCH  24  25
HETATM   25  O2  UNL     1      16.538  -5.176  47.119  1.00  0.00    -0.391 OA
ATOM     26  H2  UNL     1      17.202  -5.629  47.625  1.00  0.00     0.210 HD
ENDBRANCH  24  25
BRANCH  24  27
HETATM   27  C7  UNL     1      15.663  -7.385  47.014  1.00  0.00     0.145 C 
HETATM   28  C8  UNL     1      14.164  -7.546  47.045  1.00  0.00     0.042 C 
BRANCH  27  29
HETATM   29  O3  UNL     1      16.225  -8.462  46.375  1.00  0.00    -0.393 OA
ATOM     30  H3  UNL     1      16.604  -8.172  45.553  1.00  0.00     0.210 HD
ENDBRANCH  27  29
ENDBRANCH  24  27
ENDBRANCH  23  24
ENDBRANCH  22  23
ENDBRANCH  21  22
ENDBRANCH  20  21
ENDBRANCH  17  18
ENDBRANCH  16  17
ENDBRANCH   1  16
BRANCH   4  31
HETATM   31  O4  UNL     1       9.576  -2.723  42.876  1.00  0.00    -0.389 OA
ATOM     32  H4  UNL     1       9.465  -1.985  43.464  1.00  0.00     0.210 HD
ENDBRANCH   4  31
TORSDOF 11
ENDMDL
MODEL 3
REMARK VINA RESULT: -7.913257297      3.160      5.021
REMARK  11 active torsions:
REMARK  status: ('A' for Active; 'I' for Inactive)
REMARK    1  A    between atoms: C2_2  and  C9_14 
REMARK    2  A    between atoms: C3_3  and  C4_4 
REMARK    3  A    between atoms: C4_4  and  O1_5 
REMARK    4  A    between atoms: O1_5  and  C5_6 
REMARK    5  A    between atoms: C5_6  and  C6_7 
REMARK    6  A    between atoms: C6_7  and  O2_8 
REMARK    7  A    between atoms: C6_7  and  C7_10 
REMARK    8  A    between atoms: C7_10  and  O3_12 
REMARK    9  A    between atoms: C9_14  and  C10_15 
REMARK   10  A    between atoms: C10_15  and  C11_16 
REMARK   11  A    between atoms: C14_19  and  O4_20 
ROOT
HETATM    1  C11 UNL     1       9.214  -4.101  42.645  1.00  0.00    -0.003 C 
HETATM    2  C12 UNL     1       9.028  -5.167  41.623  1.00  0.00     0.008 C 
HETATM    3  C13 UNL     1       7.516  -5.215  41.345  1.00  0.00     0.039 C 
HETATM    4  C14 UNL     1       6.976  -4.083  42.147  1.00  0.00     0.069 C 
HETATM    5  C15 UNL     1       5.560  -4.160  42.526  1.00  0.00     0.025 C 
HETATM    6  C16 UNL     1       4.735  -3.468  41.434  1.00  0.00     0.009 C 
HETATM    7  C17 UNL     1       4.248  -2.210  42.107  1.00  0.00     0.010 C 
HETATM    8  C18 UNL     1       3.941  -2.705  43.505  1.00  0.00    -0.044 C 
HETATM    9  C19 UNL     1       3.770  -1.562  44.475  1.00  0.00     0.015 C 
HETATM   10  C20 UNL     1       2.707  -3.552  43.561  1.00  0.00     0.015 C 
HETATM   11  C21 UNL     1       5.190  -3.526  43.817  1.00  0.00     0.000 C 
HETATM   12  C22 UNL     1       6.188  -2.636  44.434  1.00  0.00     0.007 C 
HETATM   13  C23 UNL     1       7.611  -2.907  44.170  1.00  0.00     0.013 C 
HETATM   14  C24 UNL     1       7.904  -4.136  43.376  1.00  0.00    -0.009 C 
HETATM   15  C25 UNL     1       7.630  -5.420  44.105  1.00  0.00     0.019 C 
ENDROOT
BRANCH   1  16
HETATM   16  C10 UNL     1      10.437  -4.113  43.431  1.00  0.00     0.010 C 
BRANCH  16  17
HETATM   17  C9  UNL     1      11.217  -5.366  43.555  1.00  0.00     0.034 C 
BRANCH  17  18
HETATM   18  C2  UNL     1      12.645  -4.951  43.869  1.00  0.00    -0.086 C 
HETATM   19  C1  UNL     1      12.804  -3.819  44.799  1.00  0.00     0.043 C 
HETATM   20  C3  UNL     1      13.651  -5.582  43.330  1.00  0.00     0.001 C 
BRANCH  20  21
HETATM   21  C4  UNL     1      15.082  -5.296  43.537  1.00  0.00     0.195 C 
BRANCH  21  22
HETATM   22  O1  UNL     1      15.808  -6.381  43.939  1.00  0.00    -0.385 OA
BRANCH  22  23
HETATM   23  C5  UNL     1      16.536  -6.303  45.075  1.00  0.00     0.202 C 
BRANCH  23  24
HETATM   24  C6  UNL     1      15.794  -6.059  46.347  1.00  0.00     0.170 C 
BRANCH  24  25
HETATM   25  O2  UNL     1      16.619  -5.268  47.182  1.00  0.00    -0.391 OA
ATOM     26  H2  UNL     1      16.838  -4.476  46.706  1.00  0.00     0.210 HD
ENDBRANCH  24  25
BRANCH  24  27
HETATM   27  C7  UNL     1      15.518  -7.374  47.090  1.00  0.00     0.145 C 
HETATM   28  C8  UNL     1      14.027  -7.593  47.083  1.00  0.00     0.042 C 
BRANCH  27  29
HETATM   29  O3  UNL     1      16.135  -8.404  46.426  1.00  0.00    -0.393 OA
ATOM     30  H3  UNL     1      16.616  -8.933  47.051  1.00  0.00     0.210 HD
ENDBRANCH  27  29
ENDBRANCH  24  27
ENDBRANCH  23  24
ENDBRANCH  22  23
ENDBRANCH  21  22
ENDBRANCH  20  21
ENDBRANCH  17  18
ENDBRANCH  16  17
ENDBRANCH   1  16
BRANCH   4  31
HETATM   31  O4  UNL     1       7.249  -2.879  41.481  1.00  0.00    -0.389 OA
ATOM     32  H4  UNL     1       6.633  -2.217  41.773  1.00  0.00     0.210 HD
ENDBRANCH   4  31
TORSDOF 11
ENDMDL
MODEL 4
REMARK VINA RESULT: -7.893342583      2.356      6.058
REMARK  11 active torsions:
REMARK  status: ('A' for Active; 'I' for Inactive)
REMARK    1  A    between atoms: C2_2  and  C9_14 
REMARK    2  A    between atoms: C3_3  and  C4_4 
REMARK    3  A    between atoms: C4_4  and  O1_5 
REMARK    4  A    between atoms: O1_5  and  C5_6 
REMARK    5  A    between atoms: C5_6  and  C6_7 
REMARK    6  A    between atoms: C6_7  and  O2_8 
REMARK    7  A    between atoms: C6_7  and  C7_10 
REMARK    8  A    between atoms: C7_10  and  O3_12 
REMARK    9  A    between atoms: C9_14  and  C10_15 
REMARK   10  A    between atoms: C10_15  and  C11_16 
REMARK   11  A    between atoms: C14_19  and  O4_20 
ROOT
HETATM    1  C11 UNL     1       9.103  -2.845  43.992  1.00  0.00    -0.003 C 
HETATM    2  C12 UNL     1      10.268  -3.353  44.766  1.00  0.00     0.008 C 
HETATM    3  C13 UNL     1      10.915  -4.430  43.879  1.00  0.00     0.039 C 
HETATM    4  C14 UNL     1      10.132  -4.361  42.615  1.00  0.00     0.069 C 
HETATM    5  C15 UNL     1      10.129  -5.566  41.775  1.00  0.00     0.025 C 
HETATM    6  C16 UNL     1      11.292  -5.457  40.781  1.00  0.00     0.009 C 
HETATM    7  C17 UNL     1      10.602  -5.237  39.458  1.00  0.00     0.010 C 
HETATM    8  C18 UNL     1       9.401  -6.150  39.579  1.00  0.00    -0.044 C 
HETATM    9  C19 UNL     1       8.363  -5.846  38.526  1.00  0.00     0.015 C 
HETATM   10  C20 UNL     1       9.762  -7.599  39.471  1.00  0.00     0.015 C 
HETATM   11  C21 UNL     1       8.899  -5.807  40.979  1.00  0.00     0.000 C 
HETATM   12  C22 UNL     1       7.943  -4.692  40.870  1.00  0.00     0.007 C 
HETATM   13  C23 UNL     1       7.880  -3.726  41.980  1.00  0.00     0.013 C 
HETATM   14  C24 UNL     1       8.729  -4.041  43.166  1.00  0.00    -0.009 C 
HETATM   15  C25 UNL     1       8.264  -5.227  43.960  1.00  0.00     0.019 C 
ENDROOT
BRANCH   1  16
HETATM   16  C10 UNL     1       8.046  -2.158  44.718  1.00  0.00     0.010 C 
BRANCH  16  17
HETATM   17  C9  UNL     1       8.142  -2.013  46.190  1.00  0.00     0.034 C 
BRANCH  17  18
HETATM   18  C2  UNL     1       6.793  -1.492  46.656  1.00  0.00    -0.086 C 
HETATM   19  C1  UNL     1       6.819  -0.502  47.748  1.00  0.00     0.043 C 
HETATM   20  C3  UNL     1       5.693  -1.916  46.100  1.00  0.00     0.001 C 
BRANCH  20  21
HETATM   21  C4  UNL     1       4.319  -1.506  46.443  1.00  0.00     0.195 C 
BRANCH  21  22
HETATM   22  O1  UNL     1       3.468  -1.484  45.374  1.00  0.00    -0.385 OA
BRANCH  22  23
HETATM   23  C5  UNL     1       3.936  -1.093  44.167  1.00  0.00     0.202 C 
BRANCH  23  24
HETATM   24  C6  UNL     1       3.397  -1.794  42.965  1.00  0.00     0.170 C 
BRANCH  24  25
HETATM   25  O2  UNL     1       2.315  -2.603  43.386  1.00  0.00    -0.391 OA
ATOM     26  H2  UNL     1       2.535  -3.506  43.191  1.00  0.00     0.210 HD
ENDBRANCH  24  25
BRANCH  24  27
HETATM   27  C7  UNL     1       4.450  -2.726  42.346  1.00  0.00     0.145 C 
HETATM   28  C8  UNL     1       4.337  -4.059  43.039  1.00  0.00     0.042 C 
BRANCH  27  29
HETATM   29  O3  UNL     1       4.183  -2.880  41.009  1.00  0.00    -0.393 OA
ATOM     30  H3  UNL     1       4.901  -3.350  40.601  1.00  0.00     0.210 HD
ENDBRANCH  27  29
ENDBRANCH  24  27
ENDBRANCH  23  24
ENDBRANCH  22  23
ENDBRANCH  21  22
ENDBRANCH  20  21
ENDBRANCH  17  18
ENDBRANCH  16  17
ENDBRANCH   1  16
BRANCH   4  31
HETATM   31  O4  UNL     1      10.548  -3.242  41.879  1.00  0.00    -0.389 OA
ATOM     32  H4  UNL     1      10.237  -3.325  40.985  1.00  0.00     0.210 HD
ENDBRANCH   4  31
TORSDOF 11
ENDMDL
MODEL 5
REMARK VINA RESULT: -7.833993761      2.453      5.754
REMARK  11 active torsions:
REMARK  status: ('A' for Active; 'I' for Inactive)
REMARK    1  A    between atoms: C2_2  and  C9_14 
REMARK    2  A    between atoms: C3_3  and  C4_4 
REMARK    3  A    between atoms: C4_4  and  O1_5 
REMARK    4  A    between atoms: O1_5  and  C5_6 
REMARK    5  A    between atoms: C5_6  and  C6_7 
REMARK    6  A    between atoms: C6_7  and  O2_8 
REMARK    7  A    between atoms: C6_7  and  C7_10 
REMARK    8  A    between atoms: C7_10  and  O3_12 
REMARK    9  A    between atoms: C9_14  and  C10_15 
REMARK   10  A    between atoms: C10_15  and  C11_16 
REMARK   11  A    between atoms: C14_19  and  O4_20 
ROOT
HETATM    1  C11 UNL     1       9.222  -2.959  43.591  1.00  0.00    -0.003 C 
HETATM    2  C12 UNL     1      10.482  -3.523  44.146  1.00  0.00     0.008 C 
HETATM    3  C13 UNL     1      10.809  -4.745  43.271  1.00  0.00     0.039 C 
HETATM    4  C14 UNL     1       9.768  -4.703  42.207  1.00  0.00     0.069 C 
HETATM    5  C15 UNL     1       9.463  -5.971  41.533  1.00  0.00     0.025 C 
HETATM    6  C16 UNL     1      10.373  -6.088  40.304  1.00  0.00     0.009 C 
HETATM    7  C17 UNL     1       9.423  -5.914  39.147  1.00  0.00     0.010 C 
HETATM    8  C18 UNL     1       8.203  -6.668  39.630  1.00  0.00    -0.044 C 
HETATM    9  C19 UNL     1       6.984  -6.346  38.800  1.00  0.00     0.015 C 
HETATM   10  C20 UNL     1       8.397  -8.153  39.615  1.00  0.00     0.015 C 
HETATM   11  C21 UNL     1       8.067  -6.143  41.057  1.00  0.00     0.000 C 
HETATM   12  C22 UNL     1       7.217  -4.941  41.030  1.00  0.00     0.007 C 
HETATM   13  C23 UNL     1       7.497  -3.876  42.009  1.00  0.00     0.013 C 
HETATM   14  C24 UNL     1       8.562  -4.175  43.010  1.00  0.00    -0.009 C 
HETATM   15  C25 UNL     1       8.185  -5.222  44.017  1.00  0.00     0.019 C 
ENDROOT
BRANCH   1  16
HETATM   16  C10 UNL     1       8.426  -2.092  44.446  1.00  0.00     0.010 C 
BRANCH  16  17
HETATM   17  C9  UNL     1       8.606  -2.145  45.916  1.00  0.00     0.034 C 
BRANCH  17  18
HETATM   18  C2  UNL     1       7.271  -1.746  46.524  1.00  0.00    -0.086 C 
HETATM   19  C1  UNL     1       7.318  -1.191  47.888  1.00  0.00     0.043 C 
HETATM   20  C3  UNL     1       6.166  -1.899  45.850  1.00  0.00     0.001 C 
BRANCH  20  21
HETATM   21  C4  UNL     1       4.805  -1.562  46.303  1.00  0.00     0.195 C 
BRANCH  21  22
HETATM   22  O1  UNL     1       3.832  -1.848  45.387  1.00  0.00    -0.385 OA
BRANCH  22  23
HETATM   23  C5  UNL     1       4.145  -2.600  44.308  1.00  0.00     0.202 C 
BRANCH  23  24
HETATM   24  C6  UNL     1       3.452  -2.276  43.026  1.00  0.00     0.170 C 
BRANCH  24  25
HETATM   25  O2  UNL     1       3.054  -0.919  43.081  1.00  0.00    -0.391 OA
ATOM     26  H2  UNL     1       2.107  -0.892  43.017  1.00  0.00     0.210 HD
ENDBRANCH  24  25
BRANCH  24  27
HETATM   27  C7  UNL     1       2.179  -3.119  42.854  1.00  0.00     0.145 C 
HETATM   28  C8  UNL     1       2.578  -4.409  42.184  1.00  0.00     0.042 C 
BRANCH  27  29
HETATM   29  O3  UNL     1       1.649  -3.389  44.090  1.00  0.00    -0.393 OA
ATOM     30  H3  UNL     1       1.709  -4.323  44.257  1.00  0.00     0.210 HD
ENDBRANCH  27  29
ENDBRANCH  24  27
ENDBRANCH  23  24
ENDBRANCH  22  23
ENDBRANCH  21  22
ENDBRANCH  20  21
ENDBRANCH  17  18
ENDBRANCH  16  17
ENDBRANCH   1  16
BRANCH   4  31
HETATM   31  O4  UNL     1      10.104  -3.711  41.275  1.00  0.00    -0.389 OA
ATOM     32  H4  UNL     1      10.966  -3.897  40.922  1.00  0.00     0.210 HD
ENDBRANCH   4  31
TORSDOF 11
ENDMDL
