MODEL 1
REMARK VINA RESULT: -8.455529131      0.000      0.000
REMARK  11 active torsions:
REMARK  status: ('A' for Active; 'I' for Inactive)
REMARK    1  A    between atoms: C2_2  and  C3_3 
REMARK    2  A    between atoms: C3_3  and  C4_4 
REMARK    3  A    between atoms: C4_4  and  O1_5 
REMARK    4  A    between atoms: C12_14  and  O2_15 
REMARK    5  A    between atoms: O2_15  and  C13_16 
REMARK    6  A    between atoms: C13_16  and  C14_17 
REMARK    7  A    between atoms: C14_17  and  O3_18 
REMARK    8  A    between atoms: C14_17  and  C15_20 
REMARK    9  A    between atoms: C15_20  and  N1_21 
REMARK   10  A    between atoms: N1_21  and  C16_24 
REMARK   11  A    between atoms: C20_28  and  O4_29 
ROOT
HETATM    1  C4  UNL     1      10.415  -3.703  43.356  1.00  0.00     0.068 C 
HETATM    2  C5  UNL     1      10.156  -5.209  43.246  1.00  0.00     0.017 C 
HETATM    3  C6  UNL     1      10.669  -5.981  44.422  1.00  0.00     0.013 C 
HETATM    4  C7  UNL     1       8.761  -5.537  42.831  1.00  0.00     0.008 C 
HETATM    5  C8  UNL     1       7.802  -4.383  43.091  1.00  0.00     0.010 C 
HETATM    6  C9  UNL     1       8.197  -3.808  44.425  1.00  0.00     0.026 C 
HETATM    7  C10 UNL     1       7.176  -2.928  45.002  1.00  0.00    -0.044 A 
HETATM    8  C11 UNL     1       5.903  -2.733  44.539  1.00  0.00     0.047 A 
HETATM    9  C12 UNL     1       5.034  -1.882  45.181  1.00  0.00     0.102 A 
HETATM   10  C20 UNL     1       5.495  -1.210  46.336  1.00  0.00     0.099 A 
HETATM   11  C21 UNL     1       6.768  -1.398  46.811  1.00  0.00     0.047 A 
HETATM   12  C22 UNL     1       7.600  -2.253  46.147  1.00  0.00    -0.049 A 
HETATM   13  C23 UNL     1       8.977  -2.481  46.663  1.00  0.00     0.040 C 
HETATM   14  C24 UNL     1       9.984  -2.554  45.549  1.00  0.00     0.013 C 
HETATM   15  C25 UNL     1       9.461  -2.994  44.232  1.00  0.00     0.029 C 
ENDROOT
BRANCH   9  16
HETATM   16  O2  UNL     1       3.768  -1.661  44.764  1.00  0.00    -0.346 OA
BRANCH  16  17
HETATM   17  C13 UNL     1       3.074  -1.932  43.618  1.00  0.00     0.209 C 
BRANCH  17  18
HETATM   18  C14 UNL     1       2.544  -3.335  43.462  1.00  0.00     0.168 C 
BRANCH  18  19
HETATM   19  O3  UNL     1       1.141  -3.288  43.348  1.00  0.00    -0.392 OA
ATOM     20  H3  UNL     1       0.819  -4.148  43.108  1.00  0.00     0.210 HD
ENDBRANCH  18  19
BRANCH  18  21
HETATM   21  C15 UNL     1       3.136  -3.961  42.204  1.00  0.00     0.267 C 
BRANCH  21  22
HETATM   22  N1  UNL     1       2.436  -5.142  41.783  1.00  0.00    -0.065 N 
ATOM     23  H12 UNL     1       2.959  -5.980  42.037  1.00  0.00     0.278 HD
ATOM     24  H11 UNL     1       1.600  -5.286  42.350  1.00  0.00     0.278 HD
BRANCH  22  25
HETATM   25  C16 UNL     1       2.111  -5.150  40.392  1.00  0.00     0.115 C 
HETATM   26  C17 UNL     1       2.352  -6.526  39.769  1.00  0.00     0.045 C 
HETATM   27  C18 UNL     1       0.710  -4.672  40.183  1.00  0.00     0.045 C 
HETATM   28  C19 UNL     1       3.035  -4.210  39.612  1.00  0.00     0.045 C 
ENDBRANCH  22  25
ENDBRANCH  21  22
ENDBRANCH  18  21
ENDBRANCH  17  18
ENDBRANCH  16  17
ENDBRANCH   9  16
BRANCH  10  29
HETATM   29  O4  UNL     1       4.583  -0.349  46.960  1.00  0.00    -0.358 OA
ATOM     30  H4  UNL     1       4.268  -0.616  47.815  1.00  0.00     0.217 HD
ENDBRANCH  10  29
BRANCH   1  31
HETATM   31  C3  UNL     1      11.867  -3.551  43.608  1.00  0.00     0.065 C 
BRANCH  31  32
HETATM   32  C2  UNL     1      12.780  -4.023  42.539  1.00  0.00    -0.034 C 
HETATM   33  C1  UNL     1      13.671  -5.012  42.797  1.00  0.00     0.007 C 
ENDBRANCH  31  32
ENDBRANCH   1  31
BRANCH   1  34
HETATM   34  O1  UNL     1      10.195  -3.260  42.023  1.00  0.00    -0.389 OA
ATOM     35  H1  UNL     1      10.997  -3.444  41.546  1.00  0.00     0.210 HD
ENDBRANCH   1  34
TORSDOF 11
ENDMDL
MODEL 2
REMARK VINA RESULT: -8.286209767      3.592      8.758
REMARK  11 active torsions:
REMARK  status: ('A' for Active; 'I' for Inactive)
REMARK    1  A    between atoms: C2_2  and  C3_3 
REMARK    2  A    between atoms: C3_3  and  C4_4 
REMARK    3  A    between atoms: C4_4  and  O1_5 
REMARK    4  A    between atoms: C12_14  and  O2_15 
REMARK    5  A    between atoms: O2_15  and  C13_16 
REMARK    6  A    between atoms: C13_16  and  C14_17 
REMARK    7  A    between atoms: C14_17  and  O3_18 
REMARK    8  A    between atoms: C14_17  and  C15_20 
REMARK    9  A    between atoms: C15_20  and  N1_21 
REMARK   10  A    between atoms: N1_21  and  C16_24 
REMARK   11  A    between atoms: C20_28  and  O4_29 
ROOT
HETATM    1  C4  UNL     1       5.385  -3.838  43.469  1.00  0.00     0.068 C 
HETATM    2  C5  UNL     1       5.591  -3.250  42.069  1.00  0.00     0.017 C 
HETATM    3  C6  UNL     1       4.985  -1.890  41.907  1.00  0.00     0.013 C 
HETATM    4  C7  UNL     1       6.992  -3.383  41.575  1.00  0.00     0.008 C 
HETATM    5  C8  UNL     1       7.981  -3.600  42.714  1.00  0.00     0.010 C 
HETATM    6  C9  UNL     1       7.537  -2.689  43.827  1.00  0.00     0.026 C 
HETATM    7  C10 UNL     1       8.558  -2.497  44.860  1.00  0.00    -0.044 A 
HETATM    8  C11 UNL     1       9.862  -2.914  44.815  1.00  0.00     0.047 A 
HETATM    9  C12 UNL     1      10.727  -2.661  45.853  1.00  0.00     0.102 A 
HETATM   10  C20 UNL     1      10.231  -1.957  46.974  1.00  0.00     0.099 A 
HETATM   11  C21 UNL     1       8.927  -1.533  47.031  1.00  0.00     0.047 A 
HETATM   12  C22 UNL     1       8.100  -1.802  45.980  1.00  0.00    -0.049 A 
HETATM   13  C23 UNL     1       6.689  -1.330  46.021  1.00  0.00     0.040 C 
HETATM   14  C24 UNL     1       5.742  -2.359  45.470  1.00  0.00     0.013 C 
HETATM   15  C25 UNL     1       6.317  -3.307  44.484  1.00  0.00     0.029 C 
ENDROOT
BRANCH   9  16
HETATM   16  O2  UNL     1      12.022  -3.047  45.851  1.00  0.00    -0.346 OA
BRANCH  16  17
HETATM   17  C13 UNL     1      12.787  -3.832  45.034  1.00  0.00     0.209 C 
BRANCH  17  18
HETATM   18  C14 UNL     1      12.544  -5.318  45.100  1.00  0.00     0.168 C 
BRANCH  18  19
HETATM   19  O3  UNL     1      11.996  -5.750  43.875  1.00  0.00    -0.392 OA
ATOM     20  H3  UNL     1      12.554  -6.425  43.506  1.00  0.00     0.210 HD
ENDBRANCH  18  19
BRANCH  18  21
HETATM   21  C15 UNL     1      13.866  -6.036  45.348  1.00  0.00     0.267 C 
BRANCH  21  22
HETATM   22  N1  UNL     1      15.010  -5.203  45.103  1.00  0.00    -0.065 N 
ATOM     23  H12 UNL     1      15.138  -5.052  44.103  1.00  0.00     0.278 HD
ATOM     24  H11 UNL     1      14.826  -4.243  45.398  1.00  0.00     0.278 HD
BRANCH  22  25
HETATM   25  C16 UNL     1      16.213  -5.693  45.699  1.00  0.00     0.115 C 
HETATM   26  C17 UNL     1      17.025  -6.531  44.712  1.00  0.00     0.045 C 
HETATM   27  C18 UNL     1      17.007  -4.562  46.269  1.00  0.00     0.045 C 
HETATM   28  C19 UNL     1      15.897  -6.654  46.850  1.00  0.00     0.045 C 
ENDBRANCH  22  25
ENDBRANCH  21  22
ENDBRANCH  18  21
ENDBRANCH  17  18
ENDBRANCH  16  17
ENDBRANCH   9  16
BRANCH  10  29
HETATM   29  O4  UNL     1      11.141  -1.722  48.013  1.00  0.00    -0.358 OA
ATOM     30  H4  UNL     1      10.772  -1.439  48.841  1.00  0.00     0.217 HD
ENDBRANCH  10  29
BRANCH   1  31
HETATM   31  C3  UNL     1       3.929  -3.775  43.733  1.00  0.00     0.065 C 
BRANCH  31  32
HETATM   32  C2  UNL     1       3.042  -4.383  42.712  1.00  0.00    -0.034 C 
HETATM   33  C1  UNL     1       1.736  -4.023  42.648  1.00  0.00     0.007 C 
ENDBRANCH  31  32
ENDBRANCH   1  31
BRANCH   1  34
HETATM   34  O1  UNL     1       5.694  -5.211  43.269  1.00  0.00    -0.389 OA
ATOM     35  H1  UNL     1       5.237  -5.688  43.953  1.00  0.00     0.210 HD
ENDBRANCH   1  34
TORSDOF 11
ENDMDL
MODEL 3
REMARK VINA RESULT: -8.032211200      2.040      2.953
REMARK  11 active torsions:
REMARK  status: ('A' for Active; 'I' for Inactive)
REMARK    1  A    between atoms: C2_2  and  C3_3 
REMARK    2  A    between atoms: C3_3  and  C4_4 
REMARK    3  A    between atoms: C4_4  and  O1_5 
REMARK    4  A    between atoms: C12_14  and  O2_15 
REMARK    5  A    between atoms: O2_15  and  C13_16 
REMARK    6  A    between atoms: C13_16  and  C14_17 
REMARK    7  A    between atoms: C14_17  and  O3_18 
REMARK    8  A    between atoms: C14_17  and  C15_20 
REMARK    9  A    between atoms: C15_20  and  N1_21 
REMARK   10  A    between atoms: N1_21  and  C16_24 
REMARK   11  A    between atoms: C20_28  and  O4_29 
ROOT
HETATM    1  C4  UNL     1      10.152  -3.626  43.200  1.00  0.00     0.068 C 
HETATM    2  C5  UNL     1      10.310  -5.139  43.016  1.00  0.00     0.017 C 
HETATM    3  C6  UNL     1      10.400  -5.882  44.313  1.00  0.00     0.013 C 
HETATM    4  C7  UNL     1       9.359  -5.712  42.020  1.00  0.00     0.008 C 
HETATM    5  C8  UNL     1       8.156  -4.806  41.791  1.00  0.00     0.010 C 
HETATM    6  C9  UNL     1       7.775  -4.274  43.147  1.00  0.00     0.026 C 
HETATM    7  C10 UNL     1       6.437  -3.675  43.179  1.00  0.00    -0.044 A 
HETATM    8  C11 UNL     1       5.498  -3.709  42.183  1.00  0.00     0.047 A 
HETATM    9  C12 UNL     1       4.269  -3.112  42.342  1.00  0.00     0.102 A 
HETATM   10  C20 UNL     1       4.003  -2.457  43.567  1.00  0.00     0.099 A 
HETATM   11  C21 UNL     1       4.936  -2.416  44.572  1.00  0.00     0.047 A 
HETATM   12  C22 UNL     1       6.143  -3.023  44.376  1.00  0.00    -0.049 A 
HETATM   13  C23 UNL     1       7.156  -3.003  45.466  1.00  0.00     0.040 C 
HETATM   14  C24 UNL     1       8.543  -2.775  44.933  1.00  0.00     0.013 C 
HETATM   15  C25 UNL     1       8.776  -3.203  43.532  1.00  0.00     0.029 C 
ENDROOT
BRANCH   9  16
HETATM   16  O2  UNL     1       3.309  -3.124  41.391  1.00  0.00    -0.346 OA
BRANCH  16  17
HETATM   17  C13 UNL     1       2.363  -4.027  40.996  1.00  0.00     0.209 C 
BRANCH  17  18
HETATM   18  C14 UNL     1       2.456  -4.529  39.577  1.00  0.00     0.168 C 
BRANCH  18  19
HETATM   19  O3  UNL     1       3.164  -3.590  38.801  1.00  0.00    -0.392 OA
ATOM     20  H3  UNL     1       3.355  -3.969  37.952  1.00  0.00     0.210 HD
ENDBRANCH  18  19
BRANCH  18  21
HETATM   21  C15 UNL     1       3.193  -5.863  39.561  1.00  0.00     0.267 C 
BRANCH  21  22
HETATM   22  N1  UNL     1       4.622  -5.713  39.571  1.00  0.00    -0.065 N 
ATOM     23  H12 UNL     1       4.883  -4.742  39.402  1.00  0.00     0.278 HD
ATOM     24  H11 UNL     1       4.989  -5.827  40.516  1.00  0.00     0.278 HD
BRANCH  22  25
HETATM   25  C16 UNL     1       5.295  -6.583  38.659  1.00  0.00     0.115 C 
HETATM   26  C17 UNL     1       5.063  -6.162  37.208  1.00  0.00     0.045 C 
HETATM   27  C18 UNL     1       6.748  -6.667  38.999  1.00  0.00     0.045 C 
HETATM   28  C19 UNL     1       4.725  -8.004  38.741  1.00  0.00     0.045 C 
ENDBRANCH  22  25
ENDBRANCH  21  22
ENDBRANCH  18  21
ENDBRANCH  17  18
ENDBRANCH  16  17
ENDBRANCH   9  16
BRANCH  10  29
HETATM   29  O4  UNL     1       2.744  -1.857  43.689  1.00  0.00    -0.358 OA
ATOM     30  H4  UNL     1       2.322  -1.930  44.537  1.00  0.00     0.217 HD
ENDBRANCH  10  29
BRANCH   1  31
HETATM   31  C3  UNL     1      11.263  -3.198  44.081  1.00  0.00     0.065 C 
BRANCH  31  32
HETATM   32  C2  UNL     1      12.614  -3.709  43.741  1.00  0.00    -0.034 C 
HETATM   33  C1  UNL     1      13.431  -4.168  44.722  1.00  0.00     0.007 C 
ENDBRANCH  31  32
ENDBRANCH   1  31
BRANCH   1  34
HETATM   34  O1  UNL     1      10.459  -3.129  41.903  1.00  0.00    -0.389 OA
ATOM     35  H1  UNL     1       9.726  -2.581  41.648  1.00  0.00     0.210 HD
ENDBRANCH   1  34
TORSDOF 11
ENDMDL
MODEL 4
REMARK VINA RESULT: -7.916172473      1.186      1.484
REMARK  11 active torsions:
REMARK  status: ('A' for Active; 'I' for Inactive)
REMARK    1  A    between atoms: C2_2  and  C3_3 
REMARK    2  A    between atoms: C3_3  and  C4_4 
REMARK    3  A    between atoms: C4_4  and  O1_5 
REMARK    4  A    between atoms: C12_14  and  O2_15 
REMARK    5  A    between atoms: O2_15  and  C13_16 
REMARK    6  A    between atoms: C13_16  and  C14_17 
REMARK    7  A    between atoms: C14_17  and  O3_18 
REMARK    8  A    between atoms: C14_17  and  C15_20 
REMARK    9  A    between atoms: C15_20  and  N1_21 
REMARK   10  A    between atoms: N1_21  and  C16_24 
REMARK   11  A    between atoms: C20_28  and  O4_29 
ROOT
HETATM    1  C4  UNL     1      10.802  -3.764  43.286  1.00  0.00     0.068 C 
HETATM    2  C5  UNL     1      10.484  -5.261  43.354  1.00  0.00     0.017 C 
HETATM    3  C6  UNL     1      11.251  -5.977  44.422  1.00  0.00     0.013 C 
HETATM    4  C7  UNL     1       9.022  -5.554  43.318  1.00  0.00     0.008 C 
HETATM    5  C8  UNL     1       8.187  -4.344  43.719  1.00  0.00     0.010 C 
HETATM    6  C9  UNL     1       8.914  -3.702  44.870  1.00  0.00     0.026 C 
HETATM    7  C10 UNL     1       8.092  -2.743  45.613  1.00  0.00    -0.044 A 
HETATM    8  C11 UNL     1       6.749  -2.522  45.461  1.00  0.00     0.047 A 
HETATM    9  C12 UNL     1       6.088  -1.595  46.232  1.00  0.00     0.102 A 
HETATM   10  C20 UNL     1       6.837  -0.870  47.187  1.00  0.00     0.099 A 
HETATM   11  C21 UNL     1       8.183  -1.082  47.348  1.00  0.00     0.047 A 
HETATM   12  C22 UNL     1       8.802  -2.014  46.566  1.00  0.00    -0.049 A 
HETATM   13  C23 UNL     1      10.258  -2.268  46.745  1.00  0.00     0.040 C 
HETATM   14  C24 UNL     1      10.956  -2.457  45.428  1.00  0.00     0.013 C 
HETATM   15  C25 UNL     1      10.113  -2.958  44.314  1.00  0.00     0.029 C 
ENDROOT
BRANCH   9  16
HETATM   16  O2  UNL     1       4.764  -1.346  46.122  1.00  0.00    -0.346 OA
BRANCH  16  17
HETATM   17  C13 UNL     1       3.892  -1.236  45.076  1.00  0.00     0.209 C 
BRANCH  17  18
HETATM   18  C14 UNL     1       3.577  -2.502  44.320  1.00  0.00     0.168 C 
BRANCH  18  19
HETATM   19  O3  UNL     1       2.214  -2.815  44.493  1.00  0.00    -0.392 OA
ATOM     20  H3  UNL     1       1.690  -2.056  44.266  1.00  0.00     0.210 HD
ENDBRANCH  18  19
BRANCH  18  21
HETATM   21  C15 UNL     1       3.867  -2.291  42.838  1.00  0.00     0.267 C 
BRANCH  21  22
HETATM   22  N1  UNL     1       2.857  -2.851  41.985  1.00  0.00    -0.065 N 
ATOM     23  H12 UNL     1       1.984  -2.983  42.497  1.00  0.00     0.278 HD
ATOM     24  H11 UNL     1       2.547  -2.165  41.296  1.00  0.00     0.278 HD
BRANCH  22  25
HETATM   25  C16 UNL     1       3.256  -4.065  41.345  1.00  0.00     0.115 C 
HETATM   26  C17 UNL     1       4.742  -4.349  41.562  1.00  0.00     0.045 C 
HETATM   27  C18 UNL     1       2.391  -5.197  41.797  1.00  0.00     0.045 C 
HETATM   28  C19 UNL     1       3.105  -3.954  39.824  1.00  0.00     0.045 C 
ENDBRANCH  22  25
ENDBRANCH  21  22
ENDBRANCH  18  21
ENDBRANCH  17  18
ENDBRANCH  16  17
ENDBRANCH   9  16
BRANCH  10  29
HETATM   29  O4  UNL     1       6.131   0.069  47.949  1.00  0.00    -0.358 OA
ATOM     30  H4  UNL     1       6.365   0.128  48.868  1.00  0.00     0.217 HD
ENDBRANCH  10  29
BRANCH   1  31
HETATM   31  C3  UNL     1      12.274  -3.660  43.164  1.00  0.00     0.065 C 
BRANCH  31  32
HETATM   32  C2  UNL     1      12.865  -4.077  41.869  1.00  0.00    -0.034 C 
HETATM   33  C1  UNL     1      13.660  -5.173  41.809  1.00  0.00     0.007 C 
ENDBRANCH  31  32
ENDBRANCH   1  31
BRANCH   1  34
HETATM   34  O1  UNL     1      10.272  -3.398  42.018  1.00  0.00    -0.389 OA
ATOM     35  H1  UNL     1      11.010  -3.366  41.421  1.00  0.00     0.210 HD
ENDBRANCH   1  34
TORSDOF 11
ENDMDL
MODEL 5
REMARK VINA RESULT: -7.899081316      2.031      2.706
REMARK  11 active torsions:
REMARK  status: ('A' for Active; 'I' for Inactive)
REMARK    1  A    between atoms: C2_2  and  C3_3 
REMARK    2  A    between atoms: C3_3  and  C4_4 
REMARK    3  A    between atoms: C4_4  and  O1_5 
REMARK    4  A    between atoms: C12_14  and  O2_15 
REMARK    5  A    between atoms: O2_15  and  C13_16 
REMARK    6  A    between atoms: C13_16  and  C14_17 
REMARK    7  A    between atoms: C14_17  and  O3_18 
REMARK    8  A    between atoms: C14_17  and  C15_20 
REMARK    9  A    between atoms: C15_20  and  N1_21 
REMARK   10  A    between atoms: N1_21  and  C16_24 
REMARK   11  A    between atoms: C20_28  and  O4_29 
ROOT
HETATM    1  C4  UNL     1       9.899  -3.737  42.860  1.00  0.00     0.068 C 
HETATM    2  C5  UNL     1       9.895  -5.269  42.859  1.00  0.00     0.017 C 
HETATM    3  C6  UNL     1      10.491  -5.860  44.099  1.00  0.00     0.013 C 
HETATM    4  C7  UNL     1       8.587  -5.854  42.444  1.00  0.00     0.008 C 
HETATM    5  C8  UNL     1       7.443  -4.860  42.598  1.00  0.00     0.010 C 
HETATM    6  C9  UNL     1       7.696  -4.134  43.892  1.00  0.00     0.026 C 
HETATM    7  C10 UNL     1       6.527  -3.398  44.382  1.00  0.00    -0.044 A 
HETATM    8  C11 UNL     1       5.253  -3.451  43.881  1.00  0.00     0.047 A 
HETATM    9  C12 UNL     1       4.237  -2.714  44.441  1.00  0.00     0.102 A 
HETATM   10  C20 UNL     1       4.544  -1.894  45.551  1.00  0.00     0.099 A 
HETATM   11  C21 UNL     1       5.816  -1.833  46.062  1.00  0.00     0.047 A 
HETATM   12  C22 UNL     1       6.797  -2.582  45.480  1.00  0.00    -0.049 A 
HETATM   13  C23 UNL     1       8.176  -2.540  46.039  1.00  0.00     0.040 C 
HETATM   14  C24 UNL     1       9.216  -2.523  44.953  1.00  0.00     0.013 C 
HETATM   15  C25 UNL     1       8.814  -3.136  43.663  1.00  0.00     0.029 C 
ENDROOT
BRANCH   9  16
HETATM   16  O2  UNL     1       2.965  -2.737  43.985  1.00  0.00    -0.346 OA
BRANCH  16  17
HETATM   17  C13 UNL     1       2.391  -2.745  42.744  1.00  0.00     0.209 C 
BRANCH  17  18
HETATM   18  C14 UNL     1       1.707  -4.020  42.322  1.00  0.00     0.168 C 
BRANCH  18  19
HETATM   19  O3  UNL     1       2.681  -5.012  42.092  1.00  0.00    -0.392 OA
ATOM     20  H3  UNL     1       3.008  -5.326  42.926  1.00  0.00     0.210 HD
ENDBRANCH  18  19
BRANCH  18  21
HETATM   21  C15 UNL     1       0.765  -4.479  43.430  1.00  0.00     0.267 C 
BRANCH  21  22
HETATM   22  N1  UNL     1       0.032  -3.396  44.025  1.00  0.00    -0.065 N 
ATOM     23  H12 UNL     1       0.569  -2.968  44.779  1.00  0.00     0.278 HD
ATOM     24  H11 UNL     1      -0.024  -2.604  43.384  1.00  0.00     0.278 HD
BRANCH  22  25
HETATM   25  C16 UNL     1      -1.270  -3.770  44.480  1.00  0.00     0.115 C 
HETATM   26  C17 UNL     1      -2.121  -2.543  44.810  1.00  0.00     0.045 C 
HETATM   27  C18 UNL     1      -1.932  -4.665  43.483  1.00  0.00     0.045 C 
HETATM   28  C19 UNL     1      -1.184  -4.543  45.800  1.00  0.00     0.045 C 
ENDBRANCH  22  25
ENDBRANCH  21  22
ENDBRANCH  18  21
ENDBRANCH  17  18
ENDBRANCH  16  17
ENDBRANCH   9  16
BRANCH  10  29
HETATM   29  O4  UNL     1       3.484  -1.155  46.090  1.00  0.00    -0.358 OA
ATOM     30  H4  UNL     1       3.662  -0.691  46.899  1.00  0.00     0.217 HD
ENDBRANCH  10  29
BRANCH   1  31
HETATM   31  C3  UNL     1      11.297  -3.328  43.128  1.00  0.00     0.065 C 
BRANCH  31  32
HETATM   32  C2  UNL     1      12.290  -3.620  42.066  1.00  0.00    -0.034 C 
HETATM   33  C1  UNL     1      13.276  -4.523  42.290  1.00  0.00     0.007 C 
ENDBRANCH  31  32
ENDBRANCH   1  31
BRANCH   1  34
HETATM   34  O1  UNL     1       9.651  -3.432  41.494  1.00  0.00    -0.389 OA
ATOM     35  H1  UNL     1      10.482  -3.535  41.044  1.00  0.00     0.210 HD
ENDBRANCH   1  34
TORSDOF 11
ENDMDL
