MODEL 1
REMARK VINA RESULT: -8.671787750      0.000      0.000
REMARK  11 active torsions:
REMARK  status: ('A' for Active; 'I' for Inactive)
REMARK    1  A    between atoms: C2_2  and  C3_3 
REMARK    2  A    between atoms: C2_2  and  C14_21 
REMARK    3  A    between atoms: C3_3  and  C4_4 
REMARK    4  A    between atoms: C4_4  and  C5_5 
REMARK    5  A    between atoms: C5_5  and  C6_6 
REMARK    6  A    between atoms: C6_6  and  C7_7 
REMARK    7  A    between atoms: C7_7  and  N1_8 
REMARK       I    between atoms: N1_8  and  C8_10 
REMARK    8  A    between atoms: C8_10  and  O2_12 
REMARK    9  A    between atoms: O2_12  and  C9_13 
REMARK   10  A    between atoms: C12_16  and  O3_17 
REMARK   11  A    between atoms: C18_25  and  O5_27 
ROOT
HETATM    1  C4  UNL     1      11.670  -5.365  44.498  1.00  0.00     0.005 C 
ENDROOT
BRANCH   1   2
HETATM    2  C3  UNL     1      11.063  -4.062  44.949  1.00  0.00     0.034 C 
BRANCH   2   3
HETATM    3  C2  UNL     1      10.501  -3.268  43.801  1.00  0.00    -0.081 C 
HETATM    4  C1  UNL     1      11.312  -3.130  42.767  1.00  0.00     0.015 C 
BRANCH   3   5
HETATM    5  C14 UNL     1       9.167  -2.775  43.970  1.00  0.00     0.045 C 
HETATM    6  C15 UNL     1       8.696  -2.557  45.371  1.00  0.00    -0.020 C 
HETATM    7  C16 UNL     1       7.373  -2.428  45.331  1.00  0.00    -0.022 C 
HETATM    8  C17 UNL     1       6.915  -2.557  43.897  1.00  0.00     0.051 C 
HETATM    9  C18 UNL     1       5.538  -3.029  43.729  1.00  0.00     0.062 C 
HETATM   10  C23 UNL     1       8.014  -3.478  43.354  1.00  0.00    -0.024 C 
HETATM   11  C19 UNL     1       4.577  -2.510  44.788  1.00  0.00     0.046 C 
HETATM   12  C20 UNL     1       5.356  -4.508  43.628  1.00  0.00     0.038 C 
HETATM   13  C21 UNL     1       6.471  -5.204  44.371  1.00  0.00     0.004 C 
HETATM   14  C22 UNL     1       7.825  -4.891  43.790  1.00  0.00     0.011 C 
HETATM   15  C24 UNL     1       8.116  -3.368  41.854  1.00  0.00     0.017 C 
BRANCH   9  16
HETATM   16  O5  UNL     1       5.049  -2.490  42.510  1.00  0.00    -0.390 OA
ATOM     17  H5  UNL     1       5.146  -3.161  41.844  1.00  0.00     0.210 HD
ENDBRANCH   9  16
ENDBRANCH   3   5
ENDBRANCH   2   3
ENDBRANCH   1   2
BRANCH   1  18
HETATM   18  C5  UNL     1      12.485  -5.994  45.625  1.00  0.00     0.005 C 
BRANCH  18  19
HETATM   19  C6  UNL     1      13.930  -6.035  45.376  1.00  0.00     0.044 C 
BRANCH  19  20
HETATM   20  C7  UNL     1      14.589  -4.804  44.930  1.00  0.00     0.066 C 
BRANCH  20  21
HETATM   21  N1  UNL     1      15.961  -4.561  45.049  1.00  0.00    -0.316 N 
HETATM   22  C8  UNL     1      16.850  -4.702  46.089  1.00  0.00     0.366 C 
HETATM   23  O1  UNL     1      16.694  -5.111  47.258  1.00  0.00    -0.238 OA
ATOM     24  H1  UNL     1      16.388  -4.207  44.194  1.00  0.00     0.170 HD
BRANCH  22  25
HETATM   25  O2  UNL     1      18.200  -4.327  45.827  1.00  0.00    -0.272 OA
BRANCH  25  26
HETATM   26  C9  UNL     1      18.941  -4.889  44.756  1.00  0.00     0.271 C 
HETATM   27  C10 UNL     1      19.061  -3.830  43.696  1.00  0.00     0.064 C 
HETATM   28  C11 UNL     1      19.346  -4.358  42.332  1.00  0.00     0.038 C 
HETATM   29  C12 UNL     1      18.379  -5.513  42.064  1.00  0.00     0.142 C 
HETATM   30  C13 UNL     1      18.701  -6.544  43.153  1.00  0.00     0.202 C 
HETATM   31  O4  UNL     1      18.245  -6.011  44.335  1.00  0.00    -0.358 OA
BRANCH  29  32
HETATM   32  O3  UNL     1      17.097  -5.014  42.270  1.00  0.00    -0.393 OA
ATOM     33  H3  UNL     1      17.064  -4.712  43.170  1.00  0.00     0.210 HD
ENDBRANCH  29  32
ENDBRANCH  25  26
ENDBRANCH  22  25
ENDBRANCH  20  21
ENDBRANCH  19  20
ENDBRANCH  18  19
ENDBRANCH   1  18
TORSDOF 11
ENDMDL
MODEL 2
REMARK VINA RESULT: -8.656477578      1.085      1.678
REMARK  11 active torsions:
REMARK  status: ('A' for Active; 'I' for Inactive)
REMARK    1  A    between atoms: C2_2  and  C3_3 
REMARK    2  A    between atoms: C2_2  and  C14_21 
REMARK    3  A    between atoms: C3_3  and  C4_4 
REMARK    4  A    between atoms: C4_4  and  C5_5 
REMARK    5  A    between atoms: C5_5  and  C6_6 
REMARK    6  A    between atoms: C6_6  and  C7_7 
REMARK    7  A    between atoms: C7_7  and  N1_8 
REMARK       I    between atoms: N1_8  and  C8_10 
REMARK    8  A    between atoms: C8_10  and  O2_12 
REMARK    9  A    between atoms: O2_12  and  C9_13 
REMARK   10  A    between atoms: C12_16  and  O3_17 
REMARK   11  A    between atoms: C18_25  and  O5_27 
ROOT
HETATM    1  C4  UNL     1      11.358  -2.847  45.743  1.00  0.00     0.005 C 
ENDROOT
BRANCH   1   2
HETATM    2  C3  UNL     1       9.961  -3.056  46.267  1.00  0.00     0.034 C 
BRANCH   2   3
HETATM    3  C2  UNL     1       9.095  -1.839  46.079  1.00  0.00    -0.081 C 
HETATM    4  C1  UNL     1       9.538  -0.742  46.667  1.00  0.00     0.015 C 
BRANCH   3   5
HETATM    5  C14 UNL     1       7.917  -2.021  45.285  1.00  0.00     0.045 C 
HETATM    6  C15 UNL     1       6.684  -2.480  45.994  1.00  0.00    -0.020 C 
HETATM    7  C16 UNL     1       5.826  -2.902  45.070  1.00  0.00    -0.022 C 
HETATM    8  C17 UNL     1       6.459  -2.739  43.708  1.00  0.00     0.051 C 
HETATM    9  C18 UNL     1       5.956  -3.653  42.680  1.00  0.00     0.062 C 
HETATM   10  C23 UNL     1       7.936  -2.897  44.087  1.00  0.00    -0.024 C 
HETATM   11  C19 UNL     1       4.468  -3.947  42.794  1.00  0.00     0.046 C 
HETATM   12  C20 UNL     1       6.674  -4.957  42.550  1.00  0.00     0.038 C 
HETATM   13  C21 UNL     1       7.283  -5.331  43.880  1.00  0.00     0.004 C 
HETATM   14  C22 UNL     1       8.298  -4.320  44.346  1.00  0.00     0.011 C 
HETATM   15  C24 UNL     1       8.830  -2.279  43.042  1.00  0.00     0.017 C 
BRANCH   9  16
HETATM   16  O5  UNL     1       6.096  -3.003  41.427  1.00  0.00    -0.390 OA
ATOM     17  H5  UNL     1       5.785  -3.602  40.759  1.00  0.00     0.210 HD
ENDBRANCH   9  16
ENDBRANCH   3   5
ENDBRANCH   2   3
ENDBRANCH   1   2
BRANCH   1  18
HETATM   18  C5  UNL     1      11.983  -4.181  45.343  1.00  0.00     0.005 C 
BRANCH  18  19
HETATM   19  C6  UNL     1      13.282  -4.063  44.670  1.00  0.00     0.044 C 
BRANCH  19  20
HETATM   20  C7  UNL     1      14.344  -4.995  45.055  1.00  0.00     0.066 C 
BRANCH  20  21
HETATM   21  N1  UNL     1      15.702  -4.658  45.113  1.00  0.00    -0.316 N 
HETATM   22  C8  UNL     1      16.652  -4.772  46.099  1.00  0.00     0.366 C 
HETATM   23  O1  UNL     1      16.587  -5.230  47.259  1.00  0.00    -0.238 OA
ATOM     24  H1  UNL     1      16.057  -4.247  44.250  1.00  0.00     0.170 HD
BRANCH  22  25
HETATM   25  O2  UNL     1      17.957  -4.293  45.784  1.00  0.00    -0.272 OA
BRANCH  25  26
HETATM   26  C9  UNL     1      18.744  -4.879  44.759  1.00  0.00     0.271 C 
HETATM   27  C10 UNL     1      18.948  -3.831  43.701  1.00  0.00     0.064 C 
HETATM   28  C11 UNL     1      19.298  -4.374  42.359  1.00  0.00     0.038 C 
HETATM   29  C12 UNL     1      18.321  -5.509  42.043  1.00  0.00     0.142 C 
HETATM   30  C13 UNL     1      18.557  -6.540  43.155  1.00  0.00     0.202 C 
HETATM   31  O4  UNL     1      18.047  -5.988  44.306  1.00  0.00    -0.358 OA
BRANCH  29  32
HETATM   32  O3  UNL     1      17.041  -4.980  42.173  1.00  0.00    -0.393 OA
ATOM     33  H3  UNL     1      16.589  -5.156  41.356  1.00  0.00     0.210 HD
ENDBRANCH  29  32
ENDBRANCH  25  26
ENDBRANCH  22  25
ENDBRANCH  20  21
ENDBRANCH  19  20
ENDBRANCH  18  19
ENDBRANCH   1  18
TORSDOF 11
ENDMDL
MODEL 3
REMARK VINA RESULT: -8.444777492      1.369      2.186
REMARK  11 active torsions:
REMARK  status: ('A' for Active; 'I' for Inactive)
REMARK    1  A    between atoms: C2_2  and  C3_3 
REMARK    2  A    between atoms: C2_2  and  C14_21 
REMARK    3  A    between atoms: C3_3  and  C4_4 
REMARK    4  A    between atoms: C4_4  and  C5_5 
REMARK    5  A    between atoms: C5_5  and  C6_6 
REMARK    6  A    between atoms: C6_6  and  C7_7 
REMARK    7  A    between atoms: C7_7  and  N1_8 
REMARK       I    between atoms: N1_8  and  C8_10 
REMARK    8  A    between atoms: C8_10  and  O2_12 
REMARK    9  A    between atoms: O2_12  and  C9_13 
REMARK   10  A    between atoms: C12_16  and  O3_17 
REMARK   11  A    between atoms: C18_25  and  O5_27 
ROOT
HETATM    1  C4  UNL     1      11.094  -2.539  46.388  1.00  0.00     0.005 C 
ENDROOT
BRANCH   1   2
HETATM    2  C3  UNL     1       9.626  -2.871  46.456  1.00  0.00     0.034 C 
BRANCH   2   3
HETATM    3  C2  UNL     1       8.759  -1.674  46.167  1.00  0.00    -0.081 C 
HETATM    4  C1  UNL     1       9.166  -0.544  46.716  1.00  0.00     0.015 C 
BRANCH   3   5
HETATM    5  C14 UNL     1       7.618  -1.910  45.334  1.00  0.00     0.045 C 
HETATM    6  C15 UNL     1       6.370  -2.380  46.007  1.00  0.00    -0.020 C 
HETATM    7  C16 UNL     1       5.560  -2.851  45.063  1.00  0.00    -0.022 C 
HETATM    8  C17 UNL     1       6.243  -2.710  43.723  1.00  0.00     0.051 C 
HETATM    9  C18 UNL     1       5.804  -3.667  42.703  1.00  0.00     0.062 C 
HETATM   10  C23 UNL     1       7.707  -2.820  44.164  1.00  0.00    -0.024 C 
HETATM   11  C19 UNL     1       4.321  -3.996  42.768  1.00  0.00     0.046 C 
HETATM   12  C20 UNL     1       6.558  -4.955  42.641  1.00  0.00     0.038 C 
HETATM   13  C21 UNL     1       7.123  -5.275  44.005  1.00  0.00     0.004 C 
HETATM   14  C22 UNL     1       8.093  -4.224  44.480  1.00  0.00     0.011 C 
HETATM   15  C24 UNL     1       8.627  -2.209  43.136  1.00  0.00     0.017 C 
BRANCH   9  16
HETATM   16  O5  UNL     1       5.978  -3.050  41.438  1.00  0.00    -0.390 OA
ATOM     17  H5  UNL     1       6.688  -3.502  40.996  1.00  0.00     0.210 HD
ENDBRANCH   9  16
ENDBRANCH   3   5
ENDBRANCH   2   3
ENDBRANCH   1   2
BRANCH   1  18
HETATM   18  C5  UNL     1      11.690  -3.016  45.067  1.00  0.00     0.005 C 
BRANCH  18  19
HETATM   19  C6  UNL     1      11.828  -4.473  44.957  1.00  0.00     0.044 C 
BRANCH  19  20
HETATM   20  C7  UNL     1      12.975  -5.002  44.214  1.00  0.00     0.066 C 
BRANCH  20  21
HETATM   21  N1  UNL     1      14.310  -4.721  44.525  1.00  0.00    -0.316 N 
HETATM   22  C8  UNL     1      15.217  -5.310  45.374  1.00  0.00     0.366 C 
HETATM   23  O1  UNL     1      15.118  -6.300  46.128  1.00  0.00    -0.238 OA
ATOM     24  H1  UNL     1      14.686  -3.918  44.021  1.00  0.00     0.170 HD
BRANCH  22  25
HETATM   25  O2  UNL     1      16.510  -4.715  45.435  1.00  0.00    -0.272 OA
BRANCH  25  26
HETATM   26  C9  UNL     1      17.600  -5.209  44.671  1.00  0.00     0.271 C 
HETATM   27  C10 UNL     1      18.770  -4.303  44.931  1.00  0.00     0.064 C 
HETATM   28  C11 UNL     1      19.821  -4.340  43.876  1.00  0.00     0.038 C 
HETATM   29  C12 UNL     1      19.127  -4.217  42.518  1.00  0.00     0.142 C 
HETATM   30  C13 UNL     1      18.203  -5.440  42.446  1.00  0.00     0.202 C 
HETATM   31  O4  UNL     1      17.190  -5.210  43.347  1.00  0.00    -0.358 OA
BRANCH  29  32
HETATM   32  O3  UNL     1      18.355  -3.061  42.570  1.00  0.00    -0.393 OA
ATOM     33  H3  UNL     1      17.507  -3.283  42.201  1.00  0.00     0.210 HD
ENDBRANCH  29  32
ENDBRANCH  25  26
ENDBRANCH  22  25
ENDBRANCH  20  21
ENDBRANCH  19  20
ENDBRANCH  18  19
ENDBRANCH   1  18
TORSDOF 11
ENDMDL
MODEL 4
REMARK VINA RESULT: -8.359305339      0.998      1.750
REMARK  11 active torsions:
REMARK  status: ('A' for Active; 'I' for Inactive)
REMARK    1  A    between atoms: C2_2  and  C3_3 
REMARK    2  A    between atoms: C2_2  and  C14_21 
REMARK    3  A    between atoms: C3_3  and  C4_4 
REMARK    4  A    between atoms: C4_4  and  C5_5 
REMARK    5  A    between atoms: C5_5  and  C6_6 
REMARK    6  A    between atoms: C6_6  and  C7_7 
REMARK    7  A    between atoms: C7_7  and  N1_8 
REMARK       I    between atoms: N1_8  and  C8_10 
REMARK    8  A    between atoms: C8_10  and  O2_12 
REMARK    9  A    between atoms: O2_12  and  C9_13 
REMARK   10  A    between atoms: C12_16  and  O3_17 
REMARK   11  A    between atoms: C18_25  and  O5_27 
ROOT
HETATM    1  C4  UNL     1      11.839  -5.204  44.061  1.00  0.00     0.005 C 
ENDROOT
BRANCH   1   2
HETATM    2  C3  UNL     1      10.362  -5.433  43.873  1.00  0.00     0.034 C 
BRANCH   2   3
HETATM    3  C2  UNL     1       9.562  -4.173  44.071  1.00  0.00    -0.081 C 
HETATM    4  C1  UNL     1      10.035  -3.349  44.989  1.00  0.00     0.015 C 
BRANCH   3   5
HETATM    5  C14 UNL     1       8.404  -4.025  43.240  1.00  0.00     0.045 C 
HETATM    6  C15 UNL     1       8.347  -2.817  42.363  1.00  0.00    -0.020 C 
HETATM    7  C16 UNL     1       7.092  -2.691  41.940  1.00  0.00    -0.022 C 
HETATM    8  C17 UNL     1       6.267  -3.814  42.524  1.00  0.00     0.051 C 
HETATM    9  C18 UNL     1       4.839  -3.520  42.668  1.00  0.00     0.062 C 
HETATM   10  C23 UNL     1       7.041  -4.056  43.825  1.00  0.00    -0.024 C 
HETATM   11  C19 UNL     1       4.271  -2.666  41.545  1.00  0.00     0.046 C 
HETATM   12  C20 UNL     1       4.420  -2.911  43.966  1.00  0.00     0.038 C 
HETATM   13  C21 UNL     1       5.573  -2.130  44.551  1.00  0.00     0.004 C 
HETATM   14  C22 UNL     1       6.763  -3.005  44.844  1.00  0.00     0.011 C 
HETATM   15  C24 UNL     1       6.769  -5.438  44.363  1.00  0.00     0.017 C 
BRANCH   9  16
HETATM   16  O5  UNL     1       4.139  -4.750  42.569  1.00  0.00    -0.390 OA
ATOM     17  H5  UNL     1       3.278  -4.619  42.949  1.00  0.00     0.210 HD
ENDBRANCH   9  16
ENDBRANCH   3   5
ENDBRANCH   2   3
ENDBRANCH   1   2
BRANCH   1  18
HETATM   18  C5  UNL     1      12.371  -6.064  45.204  1.00  0.00     0.005 C 
BRANCH  18  19
HETATM   19  C6  UNL     1      13.822  -5.975  45.403  1.00  0.00     0.044 C 
BRANCH  19  20
HETATM   20  C7  UNL     1      14.516  -4.788  44.898  1.00  0.00     0.066 C 
BRANCH  20  21
HETATM   21  N1  UNL     1      15.890  -4.563  45.037  1.00  0.00    -0.316 N 
HETATM   22  C8  UNL     1      16.769  -4.753  46.077  1.00  0.00     0.366 C 
HETATM   23  O1  UNL     1      16.599  -5.204  47.228  1.00  0.00    -0.238 OA
ATOM     24  H1  UNL     1      16.328  -4.181  44.198  1.00  0.00     0.170 HD
BRANCH  22  25
HETATM   25  O2  UNL     1      18.125  -4.381  45.840  1.00  0.00    -0.272 OA
BRANCH  25  26
HETATM   26  C9  UNL     1      18.884  -4.946  44.782  1.00  0.00     0.271 C 
HETATM   27  C10 UNL     1      19.083  -3.867  43.755  1.00  0.00     0.064 C 
HETATM   28  C11 UNL     1      19.399  -4.371  42.390  1.00  0.00     0.038 C 
HETATM   29  C12 UNL     1      18.400  -5.481  42.056  1.00  0.00     0.142 C 
HETATM   30  C13 UNL     1      18.642  -6.551  43.129  1.00  0.00     0.202 C 
HETATM   31  O4  UNL     1      18.161  -6.029  44.307  1.00  0.00    -0.358 OA
BRANCH  29  32
HETATM   32  O3  UNL     1      17.131  -4.938  42.228  1.00  0.00    -0.393 OA
ATOM     33  H3  UNL     1      17.151  -4.453  43.045  1.00  0.00     0.210 HD
ENDBRANCH  29  32
ENDBRANCH  25  26
ENDBRANCH  22  25
ENDBRANCH  20  21
ENDBRANCH  19  20
ENDBRANCH  18  19
ENDBRANCH   1  18
TORSDOF 11
ENDMDL
MODEL 5
REMARK VINA RESULT: -8.310316473      5.521     10.116
REMARK  11 active torsions:
REMARK  status: ('A' for Active; 'I' for Inactive)
REMARK    1  A    between atoms: C2_2  and  C3_3 
REMARK    2  A    between atoms: C2_2  and  C14_21 
REMARK    3  A    between atoms: C3_3  and  C4_4 
REMARK    4  A    between atoms: C4_4  and  C5_5 
REMARK    5  A    between atoms: C5_5  and  C6_6 
REMARK    6  A    between atoms: C6_6  and  C7_7 
REMARK    7  A    between atoms: C7_7  and  N1_8 
REMARK       I    between atoms: N1_8  and  C8_10 
REMARK    8  A    between atoms: C8_10  and  O2_12 
REMARK    9  A    between atoms: O2_12  and  C9_13 
REMARK   10  A    between atoms: C12_16  and  O3_17 
REMARK   11  A    between atoms: C18_25  and  O5_27 
ROOT
HETATM    1  C4  UNL     1       3.510  -2.212  44.517  1.00  0.00     0.005 C 
ENDROOT
BRANCH   1   2
HETATM    2  C3  UNL     1       4.938  -2.442  44.094  1.00  0.00     0.034 C 
BRANCH   2   3
HETATM    3  C2  UNL     1       5.889  -2.407  45.260  1.00  0.00    -0.081 C 
HETATM    4  C1  UNL     1       5.407  -1.854  46.358  1.00  0.00     0.015 C 
BRANCH   3   5
HETATM    5  C14 UNL     1       7.181  -2.983  45.035  1.00  0.00     0.045 C 
HETATM    6  C15 UNL     1       8.326  -2.038  44.869  1.00  0.00    -0.020 C 
HETATM    7  C16 UNL     1       9.339  -2.726  44.351  1.00  0.00    -0.022 C 
HETATM    8  C17 UNL     1       8.902  -4.159  44.152  1.00  0.00     0.051 C 
HETATM    9  C18 UNL     1       9.617  -4.881  43.096  1.00  0.00     0.062 C 
HETATM   10  C23 UNL     1       7.402  -3.944  43.926  1.00  0.00    -0.024 C 
HETATM   11  C19 UNL     1      11.089  -4.516  42.990  1.00  0.00     0.046 C 
HETATM   12  C20 UNL     1       9.023  -4.803  41.728  1.00  0.00     0.038 C 
HETATM   13  C21 UNL     1       8.254  -3.511  41.586  1.00  0.00     0.004 C 
HETATM   14  C22 UNL     1       7.111  -3.418  42.562  1.00  0.00     0.011 C 
HETATM   15  C24 UNL     1       6.628  -5.207  44.211  1.00  0.00     0.017 C 
BRANCH   9  16
HETATM   16  O5  UNL     1       9.615  -6.256  43.445  1.00  0.00    -0.390 OA
ATOM     17  H5  UNL     1      10.434  -6.628  43.140  1.00  0.00     0.210 HD
ENDBRANCH   9  16
ENDBRANCH   3   5
ENDBRANCH   2   3
ENDBRANCH   1   2
BRANCH   1  18
HETATM   18  C5  UNL     1       2.564  -3.095  43.708  1.00  0.00     0.005 C 
BRANCH  18  19
HETATM   19  C6  UNL     1       3.236  -3.991  42.759  1.00  0.00     0.044 C 
BRANCH  19  20
HETATM   20  C7  UNL     1       2.404  -4.845  41.909  1.00  0.00     0.066 C 
BRANCH  20  21
HETATM   21  N1  UNL     1       2.829  -5.400  40.697  1.00  0.00    -0.316 N 
HETATM   22  C8  UNL     1       3.072  -4.862  39.456  1.00  0.00     0.366 C 
HETATM   23  O1  UNL     1       2.994  -3.689  39.036  1.00  0.00    -0.238 OA
ATOM     24  H1  UNL     1       2.992  -6.406  40.744  1.00  0.00     0.170 HD
BRANCH  22  25
HETATM   25  O2  UNL     1       3.488  -5.769  38.439  1.00  0.00    -0.272 OA
BRANCH  25  26
HETATM   26  C9  UNL     1       4.854  -6.096  38.238  1.00  0.00     0.271 C 
HETATM   27  C10 UNL     1       4.894  -7.410  37.509  1.00  0.00     0.064 C 
HETATM   28  C11 UNL     1       6.178  -8.151  37.649  1.00  0.00     0.038 C 
HETATM   29  C12 UNL     1       6.555  -8.160  39.132  1.00  0.00     0.142 C 
HETATM   30  C13 UNL     1       6.709  -6.677  39.498  1.00  0.00     0.202 C 
HETATM   31  O4  UNL     1       5.441  -6.147  39.493  1.00  0.00    -0.358 OA
BRANCH  29  32
HETATM   32  O3  UNL     1       5.467  -8.690  39.816  1.00  0.00    -0.393 OA
ATOM     33  H3  UNL     1       5.817  -9.143  40.575  1.00  0.00     0.210 HD
ENDBRANCH  29  32
ENDBRANCH  25  26
ENDBRANCH  22  25
ENDBRANCH  20  21
ENDBRANCH  19  20
ENDBRANCH  18  19
ENDBRANCH   1  18
TORSDOF 11
ENDMDL
