MODEL 1
REMARK VINA RESULT: -8.684281802      0.000      0.000
REMARK  8 active torsions:
REMARK  status: ('A' for Active; 'I' for Inactive)
REMARK    1  A    between atoms: C2_2  and  C3_3 
REMARK    2  A    between atoms: C3_3  and  C4_4 
REMARK    3  A    between atoms: C4_4  and  C5_5 
REMARK    4  A    between atoms: C5_5  and  C6_6 
REMARK    5  A    between atoms: C6_6  and  N1_7 
REMARK    6  A    between atoms: N1_7  and  C7_10 
REMARK    7  A    between atoms: C18_21  and  O1_22 
REMARK    8  A    between atoms: O1_22  and  C19_23 
ROOT
HETATM    1  C7  UNL     1       3.779  -3.527  43.341  1.00  0.00     0.186 C 
HETATM    2  C8  UNL     1       4.968  -3.759  42.429  1.00  0.00     0.034 C 
HETATM    3  C9  UNL     1       6.132  -2.917  42.787  1.00  0.00     0.012 C 
HETATM    4  C10 UNL     1       6.610  -3.202  44.233  1.00  0.00    -0.036 C 
HETATM    5  C11 UNL     1       6.988  -4.694  44.118  1.00  0.00     0.016 C 
HETATM    6  C12 UNL     1       5.407  -3.120  45.086  1.00  0.00    -0.004 C 
HETATM    7  C13 UNL     1       5.563  -2.364  46.376  1.00  0.00     0.006 C 
HETATM    8  C14 UNL     1       7.042  -2.417  46.797  1.00  0.00     0.006 C 
HETATM    9  C15 UNL     1       7.726  -1.546  45.816  1.00  0.00    -0.002 C 
HETATM   10  C16 UNL     1       7.755  -2.316  44.483  1.00  0.00     0.001 C 
HETATM   11  C17 UNL     1       9.101  -2.913  44.214  1.00  0.00     0.040 C 
HETATM   12  C18 UNL     1       9.934  -3.272  45.416  1.00  0.00     0.158 C 
HETATM   13  C21 UNL     1      10.052  -2.236  46.439  1.00  0.00     0.075 C 
HETATM   14  C22 UNL     1       9.882  -2.685  47.856  1.00  0.00     0.038 C 
HETATM   15  N2  UNL     1      11.246  -1.419  46.405  1.00  0.00    -0.135 NA
HETATM   16  N3  UNL     1      10.870  -0.362  47.264  1.00  0.00    -0.147 NA
HETATM   17  C23 UNL     1       9.444  -0.099  47.015  1.00  0.00     0.137 C 
HETATM   18  C24 UNL     1       9.090  -1.118  46.044  1.00  0.00     0.034 C 
HETATM   19  C25 UNL     1       4.177  -2.563  44.394  1.00  0.00     0.038 C 
ENDROOT
BRANCH   1  20
HETATM   20  N1  UNL     1       2.617  -3.105  42.541  1.00  0.00    -0.071 N 
ATOM     21  H12 UNL     1       2.896  -2.832  41.600  1.00  0.00     0.277 HD
ATOM     22  H11 UNL     1       2.249  -2.212  42.867  1.00  0.00     0.277 HD
BRANCH  20  23
HETATM   23  C6  UNL     1       1.607  -4.095  42.509  1.00  0.00     0.232 C 
BRANCH  23  24
HETATM   24  C5  UNL     1       1.693  -5.032  41.371  1.00  0.00     0.027 C 
BRANCH  24  25
HETATM   25  C4  UNL     1       1.740  -4.548  39.993  1.00  0.00     0.002 C 
BRANCH  25  26
HETATM   26  C3  UNL     1       3.039  -4.463  39.284  1.00  0.00    -0.000 C 
BRANCH  26  27
HETATM   27  C2  UNL     1       3.781  -5.782  39.207  1.00  0.00    -0.005 C 
HETATM   28  C1  UNL     1       4.425  -6.032  37.875  1.00  0.00     0.005 C 
ENDBRANCH  26  27
ENDBRANCH  25  26
ENDBRANCH  24  25
ENDBRANCH  23  24
ENDBRANCH  20  23
ENDBRANCH   1  20
BRANCH  12  29
HETATM   29  O1  UNL     1      11.239  -3.550  44.894  1.00  0.00    -0.314 OA
BRANCH  29  30
HETATM   30  C19 UNL     1      11.643  -4.827  44.530  1.00  0.00     0.255 C 
HETATM   31  C20 UNL     1      12.428  -5.641  45.478  1.00  0.00     0.126 C 
HETATM   32  O2  UNL     1      11.331  -5.250  43.407  1.00  0.00    -0.266 OA
ENDBRANCH  29  30
ENDBRANCH  12  29
TORSDOF 8
ENDMDL
MODEL 2
REMARK VINA RESULT: -8.622108443      0.977      1.253
REMARK  8 active torsions:
REMARK  status: ('A' for Active; 'I' for Inactive)
REMARK    1  A    between atoms: C2_2  and  C3_3 
REMARK    2  A    between atoms: C3_3  and  C4_4 
REMARK    3  A    between atoms: C4_4  and  C5_5 
REMARK    4  A    between atoms: C5_5  and  C6_6 
REMARK    5  A    between atoms: C6_6  and  N1_7 
REMARK    6  A    between atoms: N1_7  and  C7_10 
REMARK    7  A    between atoms: C18_21  and  O1_22 
REMARK    8  A    between atoms: O1_22  and  C19_23 
ROOT
HETATM    1  C7  UNL     1       4.311  -3.997  42.774  1.00  0.00     0.186 C 
HETATM    2  C8  UNL     1       5.591  -4.053  41.965  1.00  0.00     0.034 C 
HETATM    3  C9  UNL     1       6.611  -3.093  42.447  1.00  0.00     0.012 C 
HETATM    4  C10 UNL     1       6.995  -3.373  43.921  1.00  0.00    -0.036 C 
HETATM    5  C11 UNL     1       7.560  -4.804  43.800  1.00  0.00     0.016 C 
HETATM    6  C12 UNL     1       5.724  -3.466  44.667  1.00  0.00    -0.004 C 
HETATM    7  C13 UNL     1       5.677  -2.746  45.986  1.00  0.00     0.006 C 
HETATM    8  C14 UNL     1       7.110  -2.639  46.534  1.00  0.00     0.006 C 
HETATM    9  C15 UNL     1       7.764  -1.657  45.641  1.00  0.00    -0.002 C 
HETATM   10  C16 UNL     1       7.999  -2.367  44.296  1.00  0.00     0.001 C 
HETATM   11  C17 UNL     1       9.425  -2.790  44.131  1.00  0.00     0.040 C 
HETATM   12  C18 UNL     1      10.191  -3.093  45.391  1.00  0.00     0.158 C 
HETATM   13  C21 UNL     1      10.096  -2.089  46.449  1.00  0.00     0.075 C 
HETATM   14  C22 UNL     1       9.862  -2.607  47.833  1.00  0.00     0.038 C 
HETATM   15  N2  UNL     1      11.180  -1.136  46.543  1.00  0.00    -0.135 NA
HETATM   16  N3  UNL     1      10.607  -0.164  47.393  1.00  0.00    -0.147 NA
HETATM   17  C23 UNL     1       9.187  -0.062  47.026  1.00  0.00     0.137 C 
HETATM   18  C24 UNL     1       9.042  -1.079  46.000  1.00  0.00     0.034 C 
HETATM   19  C25 UNL     1       4.498  -3.033  43.883  1.00  0.00     0.038 C 
ENDROOT
BRANCH   1  20
HETATM   20  N1  UNL     1       3.178  -3.687  41.886  1.00  0.00    -0.071 N 
ATOM     21  H12 UNL     1       2.763  -2.784  42.118  1.00  0.00     0.277 HD
ATOM     22  H11 UNL     1       2.378  -4.288  42.083  1.00  0.00     0.277 HD
BRANCH  20  23
HETATM   23  C6  UNL     1       3.541  -3.748  40.520  1.00  0.00     0.232 C 
BRANCH  23  24
HETATM   24  C5  UNL     1       2.691  -4.627  39.692  1.00  0.00     0.027 C 
BRANCH  24  25
HETATM   25  C4  UNL     1       3.135  -5.966  39.308  1.00  0.00     0.002 C 
BRANCH  25  26
HETATM   26  C3  UNL     1       4.547  -6.192  38.918  1.00  0.00    -0.000 C 
BRANCH  26  27
HETATM   27  C2  UNL     1       4.769  -6.242  37.421  1.00  0.00    -0.005 C 
HETATM   28  C1  UNL     1       5.929  -7.102  37.013  1.00  0.00     0.005 C 
ENDBRANCH  26  27
ENDBRANCH  25  26
ENDBRANCH  24  25
ENDBRANCH  23  24
ENDBRANCH  20  23
ENDBRANCH   1  20
BRANCH  12  29
HETATM   29  O1  UNL     1      11.559  -3.195  44.981  1.00  0.00    -0.314 OA
BRANCH  29  30
HETATM   30  C19 UNL     1      12.238  -4.405  44.931  1.00  0.00     0.255 C 
HETATM   31  C20 UNL     1      11.520  -5.627  44.524  1.00  0.00     0.126 C 
HETATM   32  O2  UNL     1      13.441  -4.423  45.235  1.00  0.00    -0.266 OA
ENDBRANCH  29  30
ENDBRANCH  12  29
TORSDOF 8
ENDMDL
MODEL 3
REMARK VINA RESULT: -8.544214247      3.277      8.713
REMARK  8 active torsions:
REMARK  status: ('A' for Active; 'I' for Inactive)
REMARK    1  A    between atoms: C2_2  and  C3_3 
REMARK    2  A    between atoms: C3_3  and  C4_4 
REMARK    3  A    between atoms: C4_4  and  C5_5 
REMARK    4  A    between atoms: C5_5  and  C6_6 
REMARK    5  A    between atoms: C6_6  and  N1_7 
REMARK    6  A    between atoms: N1_7  and  C7_10 
REMARK    7  A    between atoms: C18_21  and  O1_22 
REMARK    8  A    between atoms: O1_22  and  C19_23 
ROOT
HETATM    1  C7  UNL     1      13.375  -4.518  44.923  1.00  0.00     0.186 C 
HETATM    2  C8  UNL     1      12.900  -3.114  45.241  1.00  0.00     0.034 C 
HETATM    3  C9  UNL     1      11.735  -2.709  44.421  1.00  0.00     0.012 C 
HETATM    4  C10 UNL     1      10.530  -3.656  44.648  1.00  0.00    -0.036 C 
HETATM    5  C11 UNL     1      10.279  -3.441  46.155  1.00  0.00     0.016 C 
HETATM    6  C12 UNL     1      11.050  -5.029  44.482  1.00  0.00    -0.004 C 
HETATM    7  C13 UNL     1      10.200  -5.963  43.666  1.00  0.00     0.006 C 
HETATM    8  C14 UNL     1       8.739  -5.489  43.747  1.00  0.00     0.006 C 
HETATM    9  C15 UNL     1       8.721  -4.242  42.951  1.00  0.00    -0.002 C 
HETATM   10  C16 UNL     1       9.441  -3.170  43.788  1.00  0.00     0.001 C 
HETATM   11  C17 UNL     1       8.476  -2.232  44.443  1.00  0.00     0.040 C 
HETATM   12  C18 UNL     1       7.113  -2.784  44.768  1.00  0.00     0.158 C 
HETATM   13  C21 UNL     1       6.443  -3.501  43.685  1.00  0.00     0.075 C 
HETATM   14  C22 UNL     1       5.791  -4.796  44.055  1.00  0.00     0.038 C 
HETATM   15  N2  UNL     1       5.473  -2.757  42.911  1.00  0.00    -0.135 NA
HETATM   16  N3  UNL     1       5.306  -3.613  41.800  1.00  0.00    -0.147 NA
HETATM   17  C23 UNL     1       6.627  -4.187  41.502  1.00  0.00     0.137 C 
HETATM   18  C24 UNL     1       7.463  -3.643  42.557  1.00  0.00     0.034 C 
HETATM   19  C25 UNL     1      12.458  -5.108  43.920  1.00  0.00     0.038 C 
ENDROOT
BRANCH   1  20
HETATM   20  N1  UNL     1      14.786  -4.479  44.504  1.00  0.00    -0.071 N 
ATOM     21  H12 UNL     1      15.318  -3.811  45.061  1.00  0.00     0.277 HD
ATOM     22  H11 UNL     1      14.887  -4.043  43.588  1.00  0.00     0.277 HD
BRANCH  20  23
HETATM   23  C6  UNL     1      15.384  -5.760  44.531  1.00  0.00     0.232 C 
BRANCH  23  24
HETATM   24  C5  UNL     1      16.359  -5.967  45.621  1.00  0.00     0.027 C 
BRANCH  24  25
HETATM   25  C4  UNL     1      15.966  -6.597  46.880  1.00  0.00     0.002 C 
BRANCH  25  26
HETATM   26  C3  UNL     1      15.033  -7.749  46.869  1.00  0.00    -0.000 C 
BRANCH  26  27
HETATM   27  C2  UNL     1      13.733  -7.493  47.603  1.00  0.00    -0.005 C 
HETATM   28  C1  UNL     1      12.522  -7.543  46.718  1.00  0.00     0.005 C 
ENDBRANCH  26  27
ENDBRANCH  25  26
ENDBRANCH  24  25
ENDBRANCH  23  24
ENDBRANCH  20  23
ENDBRANCH   1  20
BRANCH  12  29
HETATM   29  O1  UNL     1       6.322  -1.641  45.115  1.00  0.00    -0.314 OA
BRANCH  29  30
HETATM   30  C19 UNL     1       5.695  -1.511  46.347  1.00  0.00     0.255 C 
HETATM   31  C20 UNL     1       4.222  -1.520  46.420  1.00  0.00     0.126 C 
HETATM   32  O2  UNL     1       6.400  -1.389  47.361  1.00  0.00    -0.266 OA
ENDBRANCH  29  30
ENDBRANCH  12  29
TORSDOF 8
ENDMDL
MODEL 4
REMARK VINA RESULT: -8.492559264      1.450      2.529
REMARK  8 active torsions:
REMARK  status: ('A' for Active; 'I' for Inactive)
REMARK    1  A    between atoms: C2_2  and  C3_3 
REMARK    2  A    between atoms: C3_3  and  C4_4 
REMARK    3  A    between atoms: C4_4  and  C5_5 
REMARK    4  A    between atoms: C5_5  and  C6_6 
REMARK    5  A    between atoms: C6_6  and  N1_7 
REMARK    6  A    between atoms: N1_7  and  C7_10 
REMARK    7  A    between atoms: C18_21  and  O1_22 
REMARK    8  A    between atoms: O1_22  and  C19_23 
ROOT
HETATM    1  C7  UNL     1       5.420  -4.470  41.832  1.00  0.00     0.186 C 
HETATM    2  C8  UNL     1       6.867  -4.552  41.389  1.00  0.00     0.034 C 
HETATM    3  C9  UNL     1       7.720  -3.532  42.043  1.00  0.00     0.012 C 
HETATM    4  C10 UNL     1       7.709  -3.693  43.584  1.00  0.00    -0.036 C 
HETATM    5  C11 UNL     1       8.294  -5.113  43.725  1.00  0.00     0.016 C 
HETATM    6  C12 UNL     1       6.287  -3.764  43.979  1.00  0.00    -0.004 C 
HETATM    7  C13 UNL     1       5.894  -2.950  45.180  1.00  0.00     0.006 C 
HETATM    8  C14 UNL     1       7.134  -2.765  46.072  1.00  0.00     0.006 C 
HETATM    9  C15 UNL     1       7.992  -1.835  45.305  1.00  0.00    -0.002 C 
HETATM   10  C16 UNL     1       8.574  -2.636  44.127  1.00  0.00     0.001 C 
HETATM   11  C17 UNL     1       9.996  -3.033  44.371  1.00  0.00     0.040 C 
HETATM   12  C18 UNL     1      10.408  -3.221  45.806  1.00  0.00     0.158 C 
HETATM   13  C21 UNL     1      10.035  -2.145  46.721  1.00  0.00     0.075 C 
HETATM   14  C22 UNL     1       9.452  -2.566  48.033  1.00  0.00     0.038 C 
HETATM   15  N2  UNL     1      11.052  -1.159  47.019  1.00  0.00    -0.135 NA
HETATM   16  N3  UNL     1      10.271  -0.143  47.613  1.00  0.00    -0.147 NA
HETATM   17  C23 UNL     1       8.994  -0.106  46.883  1.00  0.00     0.137 C 
HETATM   18  C24 UNL     1       9.129  -1.199  45.937  1.00  0.00     0.034 C 
HETATM   19  C25 UNL     1       5.306  -3.422  42.873  1.00  0.00     0.038 C 
ENDROOT
BRANCH   1  20
HETATM   20  N1  UNL     1       4.556  -4.256  40.659  1.00  0.00    -0.071 N 
ATOM     21  H12 UNL     1       4.401  -5.125  40.150  1.00  0.00     0.277 HD
ATOM     22  H11 UNL     1       5.042  -3.728  39.934  1.00  0.00     0.277 HD
BRANCH  20  23
HETATM   23  C6  UNL     1       3.331  -3.639  41.007  1.00  0.00     0.232 C 
BRANCH  23  24
HETATM   24  C5  UNL     1       2.182  -4.561  41.116  1.00  0.00     0.027 C 
BRANCH  24  25
HETATM   25  C4  UNL     1       1.285  -4.518  42.269  1.00  0.00     0.002 C 
BRANCH  25  26
HETATM   26  C3  UNL     1       1.611  -3.653  43.427  1.00  0.00    -0.000 C 
BRANCH  26  27
HETATM   27  C2  UNL     1       0.580  -3.698  44.536  1.00  0.00    -0.005 C 
HETATM   28  C1  UNL     1      -0.782  -4.128  44.074  1.00  0.00     0.005 C 
ENDBRANCH  26  27
ENDBRANCH  25  26
ENDBRANCH  24  25
ENDBRANCH  23  24
ENDBRANCH  20  23
ENDBRANCH   1  20
BRANCH  12  29
HETATM   29  O1  UNL     1      11.838  -3.317  45.774  1.00  0.00    -0.314 OA
BRANCH  29  30
HETATM   30  C19 UNL     1      12.505  -4.314  45.076  1.00  0.00     0.255 C 
HETATM   31  C20 UNL     1      12.386  -5.717  45.516  1.00  0.00     0.126 C 
HETATM   32  O2  UNL     1      13.191  -3.992  44.093  1.00  0.00    -0.266 OA
ENDBRANCH  29  30
ENDBRANCH  12  29
TORSDOF 8
ENDMDL
MODEL 5
REMARK VINA RESULT: -8.482807241      1.107      1.635
REMARK  8 active torsions:
REMARK  status: ('A' for Active; 'I' for Inactive)
REMARK    1  A    between atoms: C2_2  and  C3_3 
REMARK    2  A    between atoms: C3_3  and  C4_4 
REMARK    3  A    between atoms: C4_4  and  C5_5 
REMARK    4  A    between atoms: C5_5  and  C6_6 
REMARK    5  A    between atoms: C6_6  and  N1_7 
REMARK    6  A    between atoms: N1_7  and  C7_10 
REMARK    7  A    between atoms: C18_21  and  O1_22 
REMARK    8  A    between atoms: O1_22  and  C19_23 
ROOT
HETATM    1  C7  UNL     1       4.289  -3.948  42.772  1.00  0.00     0.186 C 
HETATM    2  C8  UNL     1       5.564  -4.013  41.956  1.00  0.00     0.034 C 
HETATM    3  C9  UNL     1       6.597  -3.067  42.437  1.00  0.00     0.012 C 
HETATM    4  C10 UNL     1       6.986  -3.358  43.908  1.00  0.00    -0.036 C 
HETATM    5  C11 UNL     1       7.534  -4.795  43.777  1.00  0.00     0.016 C 
HETATM    6  C12 UNL     1       5.718  -3.441  44.660  1.00  0.00    -0.004 C 
HETATM    7  C13 UNL     1       5.686  -2.726  45.982  1.00  0.00     0.006 C 
HETATM    8  C14 UNL     1       7.123  -2.638  46.524  1.00  0.00     0.006 C 
HETATM    9  C15 UNL     1       7.783  -1.659  45.632  1.00  0.00    -0.002 C 
HETATM   10  C16 UNL     1       8.003  -2.365  44.282  1.00  0.00     0.001 C 
HETATM   11  C17 UNL     1       9.423  -2.803  44.107  1.00  0.00     0.040 C 
HETATM   12  C18 UNL     1      10.192  -3.120  45.362  1.00  0.00     0.158 C 
HETATM   13  C21 UNL     1      10.114  -2.120  46.425  1.00  0.00     0.075 C 
HETATM   14  C22 UNL     1       9.882  -2.643  47.808  1.00  0.00     0.038 C 
HETATM   15  N2  UNL     1      11.209  -1.179  46.518  1.00  0.00    -0.135 NA
HETATM   16  N3  UNL     1      10.652  -0.205  47.375  1.00  0.00    -0.147 NA
HETATM   17  C23 UNL     1       9.230  -0.086  47.017  1.00  0.00     0.137 C 
HETATM   18  C24 UNL     1       9.069  -1.097  45.986  1.00  0.00     0.034 C 
HETATM   19  C25 UNL     1       4.492  -2.991  43.885  1.00  0.00     0.038 C 
ENDROOT
BRANCH   1  20
HETATM   20  N1  UNL     1       3.155  -3.620  41.892  1.00  0.00    -0.071 N 
ATOM     21  H12 UNL     1       2.819  -2.672  42.060  1.00  0.00     0.277 HD
ATOM     22  H11 UNL     1       2.318  -4.138  42.159  1.00  0.00     0.277 HD
BRANCH  20  23
HETATM   23  C6  UNL     1       3.467  -3.819  40.527  1.00  0.00     0.232 C 
BRANCH  23  24
HETATM   24  C5  UNL     1       2.435  -4.539  39.753  1.00  0.00     0.027 C 
BRANCH  24  25
HETATM   25  C4  UNL     1       1.037  -4.545  40.179  1.00  0.00     0.002 C 
BRANCH  25  26
HETATM   26  C3  UNL     1       0.405  -5.812  40.619  1.00  0.00    -0.000 C 
BRANCH  26  27
HETATM   27  C2  UNL     1       1.392  -6.852  41.107  1.00  0.00    -0.005 C 
HETATM   28  C1  UNL     1       0.748  -8.134  41.546  1.00  0.00     0.005 C 
ENDBRANCH  26  27
ENDBRANCH  25  26
ENDBRANCH  24  25
ENDBRANCH  23  24
ENDBRANCH  20  23
ENDBRANCH   1  20
BRANCH  12  29
HETATM   29  O1  UNL     1      11.558  -3.235  44.944  1.00  0.00    -0.314 OA
BRANCH  29  30
HETATM   30  C19 UNL     1      12.246  -4.441  44.957  1.00  0.00     0.255 C 
HETATM   31  C20 UNL     1      11.530  -5.691  44.643  1.00  0.00     0.126 C 
HETATM   32  O2  UNL     1      13.455  -4.430  45.236  1.00  0.00    -0.266 OA
ENDBRANCH  29  30
ENDBRANCH  12  29
TORSDOF 8
ENDMDL
