MODEL 1
REMARK VINA RESULT: -7.298276601      0.000      0.000
REMARK  9 active torsions:
REMARK  status: ('A' for Active; 'I' for Inactive)
REMARK    1  A    between atoms: C2_2  and  C3_3 
REMARK    2  A    between atoms: C3_3  and  C4_4 
REMARK    3  A    between atoms: C4_4  and  C5_5 
REMARK    4  A    between atoms: C5_5  and  C6_6 
REMARK    5  A    between atoms: C8_8  and  C9_9 
REMARK    6  A    between atoms: C14_16  and  O1_17 
REMARK    7  A    between atoms: C17_23  and  C18_24 
REMARK    8  A    between atoms: C18_24  and  C21_27 
REMARK    9  A    between atoms: C22_29  and  O3_30 
ROOT
HETATM    1  C6  UNL     1      16.411  -5.976  44.704  1.00  0.00    -0.024 A 
HETATM    2  C7  UNL     1      15.601  -6.523  43.731  1.00  0.00     0.023 A 
HETATM    3  C8  UNL     1      15.845  -6.300  42.397  1.00  0.00    -0.003 A 
HETATM    4  C16 UNL     1      16.915  -5.520  42.027  1.00  0.00     0.032 A 
HETATM    5 BR1  UNL     1      17.227  -5.241  40.163  1.00  0.00    -0.049 Br
HETATM    6  C17 UNL     1      17.752  -4.952  42.989  1.00  0.00     0.008 A 
HETATM    7  C22 UNL     1      17.501  -5.182  44.323  1.00  0.00     0.080 A 
ENDROOT
BRANCH   3   8
HETATM    8  C9  UNL     1      14.969  -6.895  41.361  1.00  0.00     0.025 A 
HETATM    9  C10 UNL     1      13.732  -6.329  41.143  1.00  0.00     0.018 A 
HETATM   10  C11 UNL     1      13.264  -5.151  41.912  1.00  0.00     0.069 C 
HETATM   11  N1  UNL     1      12.933  -6.880  40.192  1.00  0.00    -0.360 N 
HETATM   12  C12 UNL     1      13.304  -7.947  39.464  1.00  0.00     0.041 A 
ATOM     13  H1  UNL     1      12.016  -6.467  40.024  1.00  0.00     0.165 HD
HETATM   14  C13 UNL     1      12.449  -8.567  38.420  1.00  0.00     0.071 C 
HETATM   15  C14 UNL     1      14.548  -8.505  39.693  1.00  0.00     0.113 A 
HETATM   16  C15 UNL     1      15.417  -7.982  40.660  1.00  0.00     0.094 A 
HETATM   17  N2  UNL     1      16.684  -8.523  40.918  1.00  0.00    -0.098 NA
BRANCH  15  18
HETATM   18  O1  UNL     1      14.967  -9.595  38.974  1.00  0.00    -0.357 OA
ATOM     19  H1  UNL     1      15.429  -9.483  38.151  1.00  0.00     0.218 HD
ENDBRANCH  15  18
ENDBRANCH   3   8
BRANCH   1  20
HETATM   20  C5  UNL     1      16.112  -6.211  46.136  1.00  0.00     0.041 C 
BRANCH  20  21
HETATM   21  C4  UNL     1      15.770  -7.671  46.359  1.00  0.00     0.005 C 
BRANCH  21  22
HETATM   22  C3  UNL     1      14.462  -7.835  47.080  1.00  0.00    -0.000 C 
BRANCH  22  23
HETATM   23  C2  UNL     1      13.316  -7.171  46.357  1.00  0.00    -0.005 C 
HETATM   24  C1  UNL     1      12.049  -7.527  47.086  1.00  0.00     0.005 C 
ENDBRANCH  22  23
ENDBRANCH  21  22
ENDBRANCH  20  21
ENDBRANCH   1  20
BRANCH   6  25
HETATM   25  C18 UNL     1      18.878  -4.139  42.482  1.00  0.00     0.037 C 
HETATM   26  C19 UNL     1      19.930  -3.935  43.583  1.00  0.00     0.027 C 
HETATM   27  C20 UNL     1      18.399  -2.775  41.994  1.00  0.00     0.027 C 
BRANCH  25  28
HETATM   28  C21 UNL     1      19.545  -4.810  41.354  1.00  0.00     0.244 C 
HETATM   29  O2  UNL     1      20.701  -5.176  41.454  1.00  0.00    -0.306 OA
ENDBRANCH  25  28
ENDBRANCH   6  25
BRANCH   7  30
HETATM   30  O3  UNL     1      18.323  -4.635  45.299  1.00  0.00    -0.360 OA
ATOM     31  H3  UNL     1      18.218  -4.904  46.204  1.00  0.00     0.217 HD
ENDBRANCH   7  30
TORSDOF 9
ENDMDL
MODEL 2
REMARK VINA RESULT: -7.117890895      7.138      9.301
REMARK  9 active torsions:
REMARK  status: ('A' for Active; 'I' for Inactive)
REMARK    1  A    between atoms: C2_2  and  C3_3 
REMARK    2  A    between atoms: C3_3  and  C4_4 
REMARK    3  A    between atoms: C4_4  and  C5_5 
REMARK    4  A    between atoms: C5_5  and  C6_6 
REMARK    5  A    between atoms: C8_8  and  C9_9 
REMARK    6  A    between atoms: C14_16  and  O1_17 
REMARK    7  A    between atoms: C17_23  and  C18_24 
REMARK    8  A    between atoms: C18_24  and  C21_27 
REMARK    9  A    between atoms: C22_29  and  O3_30 
ROOT
HETATM    1  C6  UNL     1       6.467  -3.035  45.184  1.00  0.00    -0.024 A 
HETATM    2  C7  UNL     1       6.634  -3.691  43.981  1.00  0.00     0.023 A 
HETATM    3  C8  UNL     1       7.885  -3.870  43.439  1.00  0.00    -0.003 A 
HETATM    4  C16 UNL     1       8.986  -3.389  44.106  1.00  0.00     0.032 A 
HETATM    5 BR1  UNL     1      10.707  -3.666  43.324  1.00  0.00    -0.049 Br
HETATM    6  C17 UNL     1       8.848  -2.721  45.324  1.00  0.00     0.008 A 
HETATM    7  C22 UNL     1       7.593  -2.546  45.861  1.00  0.00     0.080 A 
ENDROOT
BRANCH   3   8
HETATM    8  C9  UNL     1       8.051  -4.578  42.148  1.00  0.00     0.025 A 
HETATM    9  C10 UNL     1       7.775  -3.894  40.985  1.00  0.00     0.018 A 
HETATM   10  C11 UNL     1       7.322  -2.483  40.993  1.00  0.00     0.069 C 
HETATM   11  N1  UNL     1       7.930  -4.550  39.804  1.00  0.00    -0.360 N 
HETATM   12  C12 UNL     1       8.338  -5.828  39.734  1.00  0.00     0.041 A 
ATOM     13  H1  UNL     1       7.728  -4.051  38.937  1.00  0.00     0.165 HD
HETATM   14  C13 UNL     1       8.514  -6.566  38.456  1.00  0.00     0.071 C 
HETATM   15  C14 UNL     1       8.611  -6.502  40.910  1.00  0.00     0.113 A 
HETATM   16  C15 UNL     1       8.471  -5.881  42.157  1.00  0.00     0.094 A 
HETATM   17  N2  UNL     1       8.740  -6.534  43.368  1.00  0.00    -0.098 NA
BRANCH  15  18
HETATM   18  O1  UNL     1       9.030  -7.808  40.885  1.00  0.00    -0.357 OA
ATOM     19  H1  UNL     1       9.488  -8.184  41.627  1.00  0.00     0.218 HD
ENDBRANCH  15  18
ENDBRANCH   3   8
BRANCH   1  20
HETATM   20  C5  UNL     1       5.108  -2.833  45.735  1.00  0.00     0.041 C 
BRANCH  20  21
HETATM   21  C4  UNL     1       4.437  -1.664  45.039  1.00  0.00     0.005 C 
BRANCH  21  22
HETATM   22  C3  UNL     1       3.204  -2.088  44.295  1.00  0.00    -0.000 C 
BRANCH  22  23
HETATM   23  C2  UNL     1       3.184  -1.585  42.873  1.00  0.00    -0.005 C 
HETATM   24  C1  UNL     1       3.721  -2.681  41.993  1.00  0.00     0.005 C 
ENDBRANCH  22  23
ENDBRANCH  21  22
ENDBRANCH  20  21
ENDBRANCH   1  20
BRANCH   6  25
HETATM   25  C18 UNL     1      10.098  -2.253  45.961  1.00  0.00     0.037 C 
HETATM   26  C19 UNL     1      11.277  -2.378  44.984  1.00  0.00     0.027 C 
HETATM   27  C20 UNL     1      10.410  -3.056  47.221  1.00  0.00     0.027 C 
BRANCH  25  28
HETATM   28  C21 UNL     1       9.994  -0.836  46.347  1.00  0.00     0.244 C 
HETATM   29  O2  UNL     1      10.971  -0.238  46.756  1.00  0.00    -0.306 OA
ENDBRANCH  25  28
ENDBRANCH   6  25
BRANCH   7  30
HETATM   30  O3  UNL     1       7.430  -1.892  47.074  1.00  0.00    -0.360 OA
ATOM     31  H3  UNL     1       8.123  -1.329  47.399  1.00  0.00     0.217 HD
ENDBRANCH   7  30
TORSDOF 9
ENDMDL
MODEL 3
REMARK VINA RESULT: -6.980084107      1.165      1.825
REMARK  9 active torsions:
REMARK  status: ('A' for Active; 'I' for Inactive)
REMARK    1  A    between atoms: C2_2  and  C3_3 
REMARK    2  A    between atoms: C3_3  and  C4_4 
REMARK    3  A    between atoms: C4_4  and  C5_5 
REMARK    4  A    between atoms: C5_5  and  C6_6 
REMARK    5  A    between atoms: C8_8  and  C9_9 
REMARK    6  A    between atoms: C14_16  and  O1_17 
REMARK    7  A    between atoms: C17_23  and  C18_24 
REMARK    8  A    between atoms: C18_24  and  C21_27 
REMARK    9  A    between atoms: C22_29  and  O3_30 
ROOT
HETATM    1  C6  UNL     1      16.350  -5.929  44.611  1.00  0.00    -0.024 A 
HETATM    2  C7  UNL     1      15.557  -6.455  43.613  1.00  0.00     0.023 A 
HETATM    3  C8  UNL     1      15.839  -6.225  42.287  1.00  0.00    -0.003 A 
HETATM    4  C16 UNL     1      16.929  -5.458  41.951  1.00  0.00     0.032 A 
HETATM    5 BR1  UNL     1      17.293  -5.167  40.099  1.00  0.00    -0.049 Br
HETATM    6  C17 UNL     1      17.750  -4.911  42.940  1.00  0.00     0.008 A 
HETATM    7  C22 UNL     1      17.461  -5.148  44.265  1.00  0.00     0.080 A 
ENDROOT
BRANCH   3   8
HETATM    8  C9  UNL     1      14.981  -6.797  41.224  1.00  0.00     0.025 A 
HETATM    9  C10 UNL     1      15.453  -7.875  40.508  1.00  0.00     0.018 A 
HETATM   10  C11 UNL     1      16.785  -8.469  40.774  1.00  0.00     0.069 C 
HETATM   11  N1  UNL     1      14.660  -8.395  39.535  1.00  0.00    -0.360 N 
HETATM   12  C12 UNL     1      13.444  -7.899  39.249  1.00  0.00     0.041 A 
ATOM     13  H1  UNL     1      15.002  -9.194  39.000  1.00  0.00     0.165 HD
HETATM   14  C13 UNL     1      12.560  -8.450  38.190  1.00  0.00     0.071 C 
HETATM   15  C14 UNL     1      12.983  -6.817  39.975  1.00  0.00     0.113 A 
HETATM   16  C15 UNL     1      13.753  -6.237  40.991  1.00  0.00     0.094 A 
HETATM   17  N2  UNL     1      13.316  -5.140  41.747  1.00  0.00    -0.098 NA
BRANCH  15  18
HETATM   18  O1  UNL     1      11.748  -6.279  39.717  1.00  0.00    -0.357 OA
ATOM     19  H1  UNL     1      11.562  -5.371  39.928  1.00  0.00     0.218 HD
ENDBRANCH  15  18
ENDBRANCH   3   8
BRANCH   1  20
HETATM   20  C5  UNL     1      16.011  -6.172  46.032  1.00  0.00     0.041 C 
BRANCH  20  21
HETATM   21  C4  UNL     1      15.814  -7.657  46.270  1.00  0.00     0.005 C 
BRANCH  21  22
HETATM   22  C3  UNL     1      14.493  -7.947  46.924  1.00  0.00    -0.000 C 
BRANCH  22  23
HETATM   23  C2  UNL     1      13.373  -7.104  46.366  1.00  0.00    -0.005 C 
HETATM   24  C1  UNL     1      12.100  -7.526  47.048  1.00  0.00     0.005 C 
ENDBRANCH  22  23
ENDBRANCH  21  22
ENDBRANCH  20  21
ENDBRANCH   1  20
BRANCH   6  25
HETATM   25  C18 UNL     1      18.901  -4.111  42.469  1.00  0.00     0.037 C 
HETATM   26  C19 UNL     1      19.942  -3.961  43.588  1.00  0.00     0.027 C 
HETATM   27  C20 UNL     1      18.458  -2.723  42.013  1.00  0.00     0.027 C 
BRANCH  25  28
HETATM   28  C21 UNL     1      19.566  -4.766  41.331  1.00  0.00     0.244 C 
HETATM   29  O2  UNL     1      20.702  -5.187  41.444  1.00  0.00    -0.306 OA
ENDBRANCH  25  28
ENDBRANCH   6  25
BRANCH   7  30
HETATM   30  O3  UNL     1      18.266  -4.622  45.266  1.00  0.00    -0.360 OA
ATOM     31  H3  UNL     1      19.120  -4.269  45.044  1.00  0.00     0.217 HD
ENDBRANCH   7  30
TORSDOF 9
ENDMDL
MODEL 4
REMARK VINA RESULT: -6.886374111      8.083     10.672
REMARK  9 active torsions:
REMARK  status: ('A' for Active; 'I' for Inactive)
REMARK    1  A    between atoms: C2_2  and  C3_3 
REMARK    2  A    between atoms: C3_3  and  C4_4 
REMARK    3  A    between atoms: C4_4  and  C5_5 
REMARK    4  A    between atoms: C5_5  and  C6_6 
REMARK    5  A    between atoms: C8_8  and  C9_9 
REMARK    6  A    between atoms: C14_16  and  O1_17 
REMARK    7  A    between atoms: C17_23  and  C18_24 
REMARK    8  A    between atoms: C18_24  and  C21_27 
REMARK    9  A    between atoms: C22_29  and  O3_30 
ROOT
HETATM    1  C6  UNL     1       7.097  -2.641  45.384  1.00  0.00    -0.024 A 
HETATM    2  C7  UNL     1       7.697  -3.293  44.327  1.00  0.00     0.023 A 
HETATM    3  C8  UNL     1       6.966  -3.701  43.237  1.00  0.00    -0.003 A 
HETATM    4  C16 UNL     1       5.614  -3.454  43.200  1.00  0.00     0.032 A 
HETATM    5 BR1  UNL     1       4.633  -4.027  41.665  1.00  0.00    -0.049 Br
HETATM    6  C17 UNL     1       4.978  -2.797  44.255  1.00  0.00     0.008 A 
HETATM    7  C22 UNL     1       5.719  -2.391  45.342  1.00  0.00     0.080 A 
ENDROOT
BRANCH   3   8
HETATM    8  C9  UNL     1       7.622  -4.398  42.107  1.00  0.00     0.025 A 
HETATM    9  C10 UNL     1       7.970  -3.663  40.995  1.00  0.00     0.018 A 
HETATM   10  C11 UNL     1       7.706  -2.208  40.904  1.00  0.00     0.069 C 
HETATM   11  N1  UNL     1       8.572  -4.310  39.962  1.00  0.00    -0.360 N 
HETATM   12  C12 UNL     1       8.837  -5.627  39.988  1.00  0.00     0.041 A 
ATOM     13  H1  UNL     1       8.834  -3.773  39.135  1.00  0.00     0.165 HD
HETATM   14  C13 UNL     1       9.494  -6.355  38.872  1.00  0.00     0.071 C 
HETATM   15  C14 UNL     1       8.483  -6.352  41.111  1.00  0.00     0.113 A 
HETATM   16  C15 UNL     1       7.860  -5.743  42.207  1.00  0.00     0.094 A 
HETATM   17  N2  UNL     1       7.488  -6.447  43.361  1.00  0.00    -0.098 NA
BRANCH  15  18
HETATM   18  O1  UNL     1       8.734  -7.698  41.180  1.00  0.00    -0.357 OA
ATOM     19  H1  UNL     1       8.124  -8.283  41.613  1.00  0.00     0.218 HD
ENDBRANCH  15  18
ENDBRANCH   3   8
BRANCH   1  20
HETATM   20  C5  UNL     1       7.903  -2.234  46.558  1.00  0.00     0.041 C 
BRANCH  20  21
HETATM   21  C4  UNL     1       9.239  -2.952  46.541  1.00  0.00     0.005 C 
BRANCH  21  22
HETATM   22  C3  UNL     1      10.386  -1.996  46.372  1.00  0.00    -0.000 C 
BRANCH  22  23
HETATM   23  C2  UNL     1      11.379  -2.463  45.336  1.00  0.00    -0.005 C 
HETATM   24  C1  UNL     1      11.260  -3.959  45.231  1.00  0.00     0.005 C 
ENDBRANCH  22  23
ENDBRANCH  21  22
ENDBRANCH  20  21
ENDBRANCH   1  20
BRANCH   6  25
HETATM   25  C18 UNL     1       3.524  -2.574  44.109  1.00  0.00     0.037 C 
HETATM   26  C19 UNL     1       3.251  -1.511  43.034  1.00  0.00     0.027 C 
HETATM   27  C20 UNL     1       2.900  -2.120  45.425  1.00  0.00     0.027 C 
BRANCH  25  28
HETATM   28  C21 UNL     1       2.841  -3.810  43.692  1.00  0.00     0.244 C 
HETATM   29  O2  UNL     1       1.635  -3.915  43.811  1.00  0.00    -0.306 OA
ENDBRANCH  25  28
ENDBRANCH   6  25
BRANCH   7  30
HETATM   30  O3  UNL     1       5.112  -1.729  46.401  1.00  0.00    -0.360 OA
ATOM     31  H3  UNL     1       4.923  -2.203  47.203  1.00  0.00     0.217 HD
ENDBRANCH   7  30
TORSDOF 9
ENDMDL
MODEL 5
REMARK VINA RESULT: -6.886223245      7.990     10.423
REMARK  9 active torsions:
REMARK  status: ('A' for Active; 'I' for Inactive)
REMARK    1  A    between atoms: C2_2  and  C3_3 
REMARK    2  A    between atoms: C3_3  and  C4_4 
REMARK    3  A    between atoms: C4_4  and  C5_5 
REMARK    4  A    between atoms: C5_5  and  C6_6 
REMARK    5  A    between atoms: C8_8  and  C9_9 
REMARK    6  A    between atoms: C14_16  and  O1_17 
REMARK    7  A    between atoms: C17_23  and  C18_24 
REMARK    8  A    between atoms: C18_24  and  C21_27 
REMARK    9  A    between atoms: C22_29  and  O3_30 
ROOT
HETATM    1  C6  UNL     1       5.056  -2.918  44.557  1.00  0.00    -0.024 A 
HETATM    2  C7  UNL     1       5.628  -3.535  43.464  1.00  0.00     0.023 A 
HETATM    3  C8  UNL     1       6.988  -3.715  43.381  1.00  0.00    -0.003 A 
HETATM    4  C16 UNL     1       7.791  -3.274  44.405  1.00  0.00     0.032 A 
HETATM    5 BR1  UNL     1       9.676  -3.551  44.259  1.00  0.00    -0.049 Br
HETATM    6  C17 UNL     1       7.242  -2.644  45.524  1.00  0.00     0.008 A 
HETATM    7  C22 UNL     1       5.879  -2.469  45.599  1.00  0.00     0.080 A 
ENDROOT
BRANCH   3   8
HETATM    8  C9  UNL     1       7.589  -4.382  42.203  1.00  0.00     0.025 A 
HETATM    9  C10 UNL     1       7.779  -3.643  41.056  1.00  0.00     0.018 A 
HETATM   10  C11 UNL     1       7.400  -2.212  40.975  1.00  0.00     0.069 C 
HETATM   11  N1  UNL     1       8.331  -4.261  39.979  1.00  0.00    -0.360 N 
HETATM   12  C12 UNL     1       8.694  -5.555  39.994  1.00  0.00     0.041 A 
ATOM     13  H1  UNL     1       8.475  -3.721  39.126  1.00  0.00     0.165 HD
HETATM   14  C13 UNL     1       9.298  -6.252  38.830  1.00  0.00     0.071 C 
HETATM   15  C14 UNL     1       8.498  -6.285  41.151  1.00  0.00     0.113 A 
HETATM   16  C15 UNL     1       7.934  -5.704  42.295  1.00  0.00     0.094 A 
HETATM   17  N2  UNL     1       7.721  -6.414  43.484  1.00  0.00    -0.098 NA
BRANCH  15  18
HETATM   18  O1  UNL     1       8.853  -7.608  41.211  1.00  0.00    -0.357 OA
ATOM     19  H1  UNL     1       8.190  -8.285  41.267  1.00  0.00     0.218 HD
ENDBRANCH  15  18
ENDBRANCH   3   8
BRANCH   1  20
HETATM   20  C5  UNL     1       3.591  -2.713  44.610  1.00  0.00     0.041 C 
BRANCH  20  21
HETATM   21  C4  UNL     1       3.045  -2.516  43.209  1.00  0.00     0.005 C 
BRANCH  21  22
HETATM   22  C3  UNL     1       1.950  -3.495  42.892  1.00  0.00    -0.000 C 
BRANCH  22  23
HETATM   23  C2  UNL     1       2.374  -4.527  41.876  1.00  0.00    -0.005 C 
HETATM   24  C1  UNL     1       3.195  -3.826  40.829  1.00  0.00     0.005 C 
ENDBRANCH  22  23
ENDBRANCH  21  22
ENDBRANCH  20  21
ENDBRANCH   1  20
BRANCH   6  25
HETATM   25  C18 UNL     1       8.195  -2.218  46.571  1.00  0.00     0.037 C 
HETATM   26  C19 UNL     1       9.479  -3.057  46.501  1.00  0.00     0.027 C 
HETATM   27  C20 UNL     1       7.585  -2.359  47.963  1.00  0.00     0.027 C 
BRANCH  25  28
HETATM   28  C21 UNL     1       8.579  -0.808  46.390  1.00  0.00     0.244 C 
HETATM   29  O2  UNL     1       7.929   0.077  46.915  1.00  0.00    -0.306 OA
ENDBRANCH  25  28
ENDBRANCH   6  25
BRANCH   7  30
HETATM   30  O3  UNL     1       5.307  -1.853  46.705  1.00  0.00    -0.360 OA
ATOM     31  H3  UNL     1       5.642  -2.045  47.573  1.00  0.00     0.217 HD
ENDBRANCH   7  30
TORSDOF 9
ENDMDL
