MODEL 1
REMARK VINA RESULT: -6.990627813      0.000      0.000
REMARK  12 active torsions:
REMARK  status: ('A' for Active; 'I' for Inactive)
REMARK    1  A    between atoms: C2_2  and  C3_3 
REMARK    2  A    between atoms: C3_3  and  C4_4 
REMARK    3  A    between atoms: C4_4  and  C5_5 
REMARK    4  A    between atoms: C5_5  and  C6_6 
REMARK    5  A    between atoms: C6_6  and  C7_7 
REMARK    6  A    between atoms: C7_7  and  C8_8 
REMARK    7  A    between atoms: C8_8  and  O1_9 
REMARK    8  A    between atoms: C8_8  and  O2_11 
REMARK    9  A    between atoms: O2_11  and  C9_12 
REMARK   10  A    between atoms: C10_13  and  O3_14 
REMARK   11  A    between atoms: C16_21  and  O4_22 
REMARK   12  A    between atoms: C19_27  and  O5_28 
ROOT
HETATM    1  C9  UNL     1       8.419  -4.016  42.554  1.00  0.00     0.161 C 
HETATM    2  C10 UNL     1       9.656  -4.663  42.026  1.00  0.00     0.148 C 
HETATM    3  C11 UNL     1       9.473  -5.922  41.260  1.00  0.00     0.044 C 
HETATM    4  C12 UNL     1       8.263  -5.805  40.375  1.00  0.00    -0.027 C 
HETATM    5  C13 UNL     1       8.338  -4.644  39.444  1.00  0.00     0.016 C 
HETATM    6  C14 UNL     1       7.082  -5.774  41.304  1.00  0.00     0.007 C 
HETATM    7  C15 UNL     1       5.834  -5.645  40.469  1.00  0.00     0.041 C 
HETATM    8  C16 UNL     1       5.752  -6.504  39.277  1.00  0.00     0.159 C 
HETATM    9  C17 UNL     1       6.883  -7.400  38.988  1.00  0.00     0.139 C 
HETATM   10  F1  UNL     1       6.976  -7.567  37.595  1.00  0.00    -0.239 F 
HETATM   11  C18 UNL     1       6.543  -8.813  39.492  1.00  0.00     0.078 C 
HETATM   12  C19 UNL     1       7.958  -9.407  39.525  1.00  0.00     0.122 C 
HETATM   13  C20 UNL     1       8.674  -8.292  40.302  1.00  0.00     0.045 C 
HETATM   14  C21 UNL     1       8.198  -7.067  39.543  1.00  0.00     0.005 C 
HETATM   15  C22 UNL     1       9.211  -6.879  38.405  1.00  0.00     0.019 C 
HETATM   16  C23 UNL     1       7.146  -4.736  42.360  1.00  0.00    -0.015 C 
HETATM   17  C24 UNL     1       6.751  -5.434  43.677  1.00  0.00     0.018 C 
HETATM   18  C25 UNL     1       6.035  -3.685  42.190  1.00  0.00     0.018 C 
ENDROOT
BRANCH   1  19
HETATM   19  O2  UNL     1       8.611  -3.794  43.904  1.00  0.00    -0.353 OA
BRANCH  19  20
HETATM   20  C8  UNL     1       8.931  -2.584  44.338  1.00  0.00     0.257 C 
BRANCH  20  21
HETATM   21  C7  UNL     1       7.964  -1.754  45.074  1.00  0.00     0.060 C 
BRANCH  21  22
HETATM   22  C6  UNL     1       7.271  -2.632  46.111  1.00  0.00     0.005 C 
BRANCH  22  23
HETATM   23  C5  UNL     1       5.796  -2.732  45.884  1.00  0.00     0.000 C 
BRANCH  23  24
HETATM   24  C4  UNL     1       5.191  -1.386  46.226  1.00  0.00     0.000 C 
BRANCH  24  25
HETATM   25  C3  UNL     1       4.231  -0.894  45.177  1.00  0.00    -0.000 C 
BRANCH  25  26
HETATM   26  C2  UNL     1       3.538  -2.006  44.450  1.00  0.00    -0.005 C 
HETATM   27  C1  UNL     1       3.110  -1.644  43.066  1.00  0.00     0.005 C 
ENDBRANCH  25  26
ENDBRANCH  24  25
ENDBRANCH  23  24
ENDBRANCH  22  23
ENDBRANCH  21  22
ENDBRANCH  20  21
BRANCH  20  28
HETATM   28  O1  UNL     1      10.079  -2.700  45.165  1.00  0.00    -0.371 OA
ATOM     29  H1  UNL     1      10.783  -3.013  44.609  1.00  0.00     0.212 HD
ENDBRANCH  20  28
ENDBRANCH  19  20
ENDBRANCH   1  19
BRANCH   2  30
HETATM   30  O3  UNL     1      10.415  -3.799  41.201  1.00  0.00    -0.393 OA
ATOM     31  H3  UNL     1      10.322  -2.885  41.443  1.00  0.00     0.210 HD
ENDBRANCH   2  30
BRANCH   8  32
HETATM   32  O4  UNL     1       4.579  -7.305  39.283  1.00  0.00    -0.392 OA
ATOM     33  H4  UNL     1       3.889  -6.925  38.752  1.00  0.00     0.210 HD
ENDBRANCH   8  32
BRANCH  12  34
HETATM   34  O5  UNL     1       7.985 -10.607  40.207  1.00  0.00    -0.395 OA
ATOM     35  H5  UNL     1       8.090 -11.342  39.612  1.00  0.00     0.210 HD
ENDBRANCH  12  34
TORSDOF 12
ENDMDL
MODEL 2
REMARK VINA RESULT: -6.956116489      1.777      2.548
REMARK  12 active torsions:
REMARK  status: ('A' for Active; 'I' for Inactive)
REMARK    1  A    between atoms: C2_2  and  C3_3 
REMARK    2  A    between atoms: C3_3  and  C4_4 
REMARK    3  A    between atoms: C4_4  and  C5_5 
REMARK    4  A    between atoms: C5_5  and  C6_6 
REMARK    5  A    between atoms: C6_6  and  C7_7 
REMARK    6  A    between atoms: C7_7  and  C8_8 
REMARK    7  A    between atoms: C8_8  and  O1_9 
REMARK    8  A    between atoms: C8_8  and  O2_11 
REMARK    9  A    between atoms: O2_11  and  C9_12 
REMARK   10  A    between atoms: C10_13  and  O3_14 
REMARK   11  A    between atoms: C16_21  and  O4_22 
REMARK   12  A    between atoms: C19_27  and  O5_28 
ROOT
HETATM    1  C9  UNL     1       9.817  -5.272  40.892  1.00  0.00     0.161 C 
HETATM    2  C10 UNL     1      10.460  -6.264  39.981  1.00  0.00     0.148 C 
HETATM    3  C11 UNL     1       9.608  -7.386  39.511  1.00  0.00     0.044 C 
HETATM    4  C12 UNL     1       8.229  -6.876  39.195  1.00  0.00    -0.027 C 
HETATM    5  C13 UNL     1       8.235  -5.779  38.187  1.00  0.00     0.016 C 
HETATM    6  C14 UNL     1       7.625  -6.494  40.518  1.00  0.00     0.007 C 
HETATM    7  C15 UNL     1       6.238  -5.963  40.261  1.00  0.00     0.041 C 
HETATM    8  C16 UNL     1       5.407  -6.728  39.318  1.00  0.00     0.159 C 
HETATM    9  C17 UNL     1       5.989  -7.928  38.696  1.00  0.00     0.139 C 
HETATM   10  F1  UNL     1       5.425  -8.087  37.419  1.00  0.00    -0.239 F 
HETATM   11  C18 UNL     1       5.500  -9.172  39.457  1.00  0.00     0.078 C 
HETATM   12  C19 UNL     1       6.551 -10.181  38.974  1.00  0.00     0.122 C 
HETATM   13  C20 UNL     1       7.822  -9.364  39.252  1.00  0.00     0.045 C 
HETATM   14  C21 UNL     1       7.449  -8.037  38.618  1.00  0.00     0.005 C 
HETATM   15  C22 UNL     1       7.884  -8.153  37.150  1.00  0.00     0.019 C 
HETATM   16  C23 UNL     1       8.435  -5.551  41.324  1.00  0.00    -0.015 C 
HETATM   17  C24 UNL     1       8.455  -6.116  42.759  1.00  0.00     0.018 C 
HETATM   18  C25 UNL     1       7.719  -4.201  41.505  1.00  0.00     0.018 C 
ENDROOT
BRANCH   1  19
HETATM   19  O2  UNL     1      10.623  -5.148  42.007  1.00  0.00    -0.353 OA
BRANCH  19  20
HETATM   20  C8  UNL     1      11.169  -3.979  42.303  1.00  0.00     0.257 C 
BRANCH  20  21
HETATM   21  C7  UNL     1      11.309  -3.531  43.698  1.00  0.00     0.060 C 
BRANCH  21  22
HETATM   22  C6  UNL     1       9.932  -3.121  44.210  1.00  0.00     0.005 C 
BRANCH  22  23
HETATM   23  C5  UNL     1       9.850  -3.126  45.703  1.00  0.00     0.000 C 
BRANCH  23  24
HETATM   24  C4  UNL     1       8.441  -2.722  46.084  1.00  0.00     0.000 C 
BRANCH  24  25
HETATM   25  C3  UNL     1       7.548  -2.524  44.890  1.00  0.00    -0.000 C 
BRANCH  25  26
HETATM   26  C2  UNL     1       6.125  -2.915  45.152  1.00  0.00    -0.005 C 
HETATM   27  C1  UNL     1       5.707  -4.167  44.454  1.00  0.00     0.005 C 
ENDBRANCH  25  26
ENDBRANCH  24  25
ENDBRANCH  23  24
ENDBRANCH  22  23
ENDBRANCH  21  22
ENDBRANCH  20  21
BRANCH  20  28
HETATM   28  O1  UNL     1      12.469  -3.942  41.733  1.00  0.00    -0.371 OA
ATOM     29  H1  UNL     1      12.460  -3.250  41.082  1.00  0.00     0.212 HD
ENDBRANCH  20  28
ENDBRANCH  19  20
ENDBRANCH   1  19
BRANCH   2  30
HETATM   30  O3  UNL     1      11.010  -5.666  38.822  1.00  0.00    -0.393 OA
ATOM     31  H3  UNL     1      11.898  -5.355  38.955  1.00  0.00     0.210 HD
ENDBRANCH   2  30
BRANCH   8  32
HETATM   32  O4  UNL     1       4.172  -7.120  39.900  1.00  0.00    -0.392 OA
ATOM     33  H4  UNL     1       3.432  -6.704  39.472  1.00  0.00     0.210 HD
ENDBRANCH   8  32
BRANCH  12  34
HETATM   34  O5  UNL     1       6.515 -11.343  39.720  1.00  0.00    -0.395 OA
ATOM     35  H5  UNL     1       7.031 -12.031  39.316  1.00  0.00     0.210 HD
ENDBRANCH  12  34
TORSDOF 12
ENDMDL
MODEL 3
REMARK VINA RESULT: -6.719590203      3.241      5.030
REMARK  12 active torsions:
REMARK  status: ('A' for Active; 'I' for Inactive)
REMARK    1  A    between atoms: C2_2  and  C3_3 
REMARK    2  A    between atoms: C3_3  and  C4_4 
REMARK    3  A    between atoms: C4_4  and  C5_5 
REMARK    4  A    between atoms: C5_5  and  C6_6 
REMARK    5  A    between atoms: C6_6  and  C7_7 
REMARK    6  A    between atoms: C7_7  and  C8_8 
REMARK    7  A    between atoms: C8_8  and  O1_9 
REMARK    8  A    between atoms: C8_8  and  O2_11 
REMARK    9  A    between atoms: O2_11  and  C9_12 
REMARK   10  A    between atoms: C10_13  and  O3_14 
REMARK   11  A    between atoms: C16_21  and  O4_22 
REMARK   12  A    between atoms: C19_27  and  O5_28 
ROOT
HETATM    1  C9  UNL     1       6.722  -3.455  42.994  1.00  0.00     0.161 C 
HETATM    2  C10 UNL     1       6.691  -3.998  41.604  1.00  0.00     0.148 C 
HETATM    3  C11 UNL     1       5.432  -4.657  41.175  1.00  0.00     0.044 C 
HETATM    4  C12 UNL     1       4.252  -3.881  41.692  1.00  0.00    -0.027 C 
HETATM    5  C13 UNL     1       4.262  -2.457  41.254  1.00  0.00     0.016 C 
HETATM    6  C14 UNL     1       4.266  -4.067  43.183  1.00  0.00     0.007 C 
HETATM    7  C15 UNL     1       3.106  -3.298  43.760  1.00  0.00     0.041 C 
HETATM    8  C16 UNL     1       1.819  -3.430  43.060  1.00  0.00     0.159 C 
HETATM    9  C17 UNL     1       1.765  -4.281  41.860  1.00  0.00     0.139 C 
HETATM   10  F1  UNL     1       0.792  -3.763  40.988  1.00  0.00    -0.239 F 
HETATM   11  C18 UNL     1       1.199  -5.657  42.247  1.00  0.00     0.078 C 
HETATM   12  C19 UNL     1       1.669  -6.465  41.029  1.00  0.00     0.122 C 
HETATM   13  C20 UNL     1       3.146  -6.042  41.009  1.00  0.00     0.045 C 
HETATM   14  C21 UNL     1       3.011  -4.535  41.128  1.00  0.00     0.005 C 
HETATM   15  C22 UNL     1       2.879  -4.026  39.685  1.00  0.00     0.019 C 
HETATM   16  C23 UNL     1       5.544  -3.713  43.844  1.00  0.00    -0.015 C 
HETATM   17  C24 UNL     1       5.863  -4.867  44.817  1.00  0.00     0.018 C 
HETATM   18  C25 UNL     1       5.378  -2.512  44.792  1.00  0.00     0.018 C 
ENDROOT
BRANCH   1  19
HETATM   19  O2  UNL     1       7.847  -3.962  43.615  1.00  0.00    -0.353 OA
BRANCH  19  20
HETATM   20  C8  UNL     1       8.953  -4.168  42.916  1.00  0.00     0.257 C 
BRANCH  20  21
HETATM   21  C7  UNL     1      10.145  -3.326  43.104  1.00  0.00     0.060 C 
BRANCH  21  22
HETATM   22  C6  UNL     1      10.708  -3.596  44.496  1.00  0.00     0.005 C 
BRANCH  22  23
HETATM   23  C5  UNL     1      10.424  -2.484  45.455  1.00  0.00     0.000 C 
BRANCH  23  24
HETATM   24  C4  UNL     1       9.692  -3.080  46.639  1.00  0.00     0.000 C 
BRANCH  24  25
HETATM   25  C3  UNL     1       8.341  -2.458  46.864  1.00  0.00    -0.000 C 
BRANCH  25  26
HETATM   26  C2  UNL     1       8.276  -1.025  46.428  1.00  0.00    -0.005 C 
HETATM   27  C1  UNL     1       7.295  -0.206  47.200  1.00  0.00     0.005 C 
ENDBRANCH  25  26
ENDBRANCH  24  25
ENDBRANCH  23  24
ENDBRANCH  22  23
ENDBRANCH  21  22
ENDBRANCH  20  21
BRANCH  20  28
HETATM   28  O1  UNL     1       9.366  -5.510  43.129  1.00  0.00    -0.371 OA
ATOM     29  H1  UNL     1       8.694  -5.920  43.660  1.00  0.00     0.212 HD
ENDBRANCH  20  28
ENDBRANCH  19  20
ENDBRANCH   1  19
BRANCH   2  30
HETATM   30  O3  UNL     1       6.983  -3.016  40.627  1.00  0.00    -0.393 OA
ATOM     31  H3  UNL     1       7.485  -2.289  40.976  1.00  0.00     0.210 HD
ENDBRANCH   2  30
BRANCH   8  32
HETATM   32  O4  UNL     1       0.788  -3.876  43.929  1.00  0.00    -0.392 OA
ATOM     33  H4  UNL     1       1.060  -4.625  44.446  1.00  0.00     0.210 HD
ENDBRANCH   8  32
BRANCH  12  34
HETATM   34  O5  UNL     1       1.527  -7.822  41.239  1.00  0.00    -0.395 OA
ATOM     35  H5  UNL     1       1.836  -8.323  40.493  1.00  0.00     0.210 HD
ENDBRANCH  12  34
TORSDOF 12
ENDMDL
MODEL 4
REMARK VINA RESULT: -6.652662536      3.626      5.576
REMARK  12 active torsions:
REMARK  status: ('A' for Active; 'I' for Inactive)
REMARK    1  A    between atoms: C2_2  and  C3_3 
REMARK    2  A    between atoms: C3_3  and  C4_4 
REMARK    3  A    between atoms: C4_4  and  C5_5 
REMARK    4  A    between atoms: C5_5  and  C6_6 
REMARK    5  A    between atoms: C6_6  and  C7_7 
REMARK    6  A    between atoms: C7_7  and  C8_8 
REMARK    7  A    between atoms: C8_8  and  O1_9 
REMARK    8  A    between atoms: C8_8  and  O2_11 
REMARK    9  A    between atoms: O2_11  and  C9_12 
REMARK   10  A    between atoms: C10_13  and  O3_14 
REMARK   11  A    between atoms: C16_21  and  O4_22 
REMARK   12  A    between atoms: C19_27  and  O5_28 
ROOT
HETATM    1  C9  UNL     1       6.905  -2.667  44.643  1.00  0.00     0.161 C 
HETATM    2  C10 UNL     1       7.789  -2.385  45.812  1.00  0.00     0.148 C 
HETATM    3  C11 UNL     1       9.050  -3.165  45.896  1.00  0.00     0.044 C 
HETATM    4  C12 UNL     1       9.655  -3.298  44.525  1.00  0.00    -0.027 C 
HETATM    5  C13 UNL     1       9.908  -1.981  43.875  1.00  0.00     0.016 C 
HETATM    6  C14 UNL     1       8.726  -4.196  43.757  1.00  0.00     0.007 C 
HETATM    7  C15 UNL     1       9.279  -4.357  42.364  1.00  0.00     0.041 C 
HETATM    8  C16 UNL     1      10.725  -4.606  42.258  1.00  0.00     0.159 C 
HETATM    9  C17 UNL     1      11.513  -4.666  43.500  1.00  0.00     0.139 C 
HETATM   10  F1  UNL     1      12.813  -4.207  43.226  1.00  0.00    -0.239 F 
HETATM   11  C18 UNL     1      11.730  -6.138  43.885  1.00  0.00     0.078 C 
HETATM   12  C19 UNL     1      12.116  -5.951  45.359  1.00  0.00     0.122 C 
HETATM   13  C20 UNL     1      10.962  -5.037  45.800  1.00  0.00     0.045 C 
HETATM   14  C21 UNL     1      10.985  -3.998  44.695  1.00  0.00     0.005 C 
HETATM   15  C22 UNL     1      11.974  -2.924  45.170  1.00  0.00     0.019 C 
HETATM   16  C23 UNL     1       7.310  -3.760  43.740  1.00  0.00    -0.015 C 
HETATM   17  C24 UNL     1       6.468  -5.015  44.051  1.00  0.00     0.018 C 
HETATM   18  C25 UNL     1       6.848  -3.391  42.320  1.00  0.00     0.018 C 
ENDROOT
BRANCH   1  19
HETATM   19  O2  UNL     1       5.640  -2.930  45.132  1.00  0.00    -0.353 OA
BRANCH  19  20
HETATM   20  C8  UNL     1       4.687  -2.015  45.033  1.00  0.00     0.257 C 
BRANCH  20  21
HETATM   21  C7  UNL     1       3.355  -2.352  44.507  1.00  0.00     0.060 C 
BRANCH  21  22
HETATM   22  C6  UNL     1       3.292  -1.917  43.046  1.00  0.00     0.005 C 
BRANCH  22  23
HETATM   23  C5  UNL     1       3.168  -3.076  42.108  1.00  0.00     0.000 C 
BRANCH  23  24
HETATM   24  C4  UNL     1       2.664  -4.258  42.909  1.00  0.00     0.000 C 
BRANCH  24  25
HETATM   25  C3  UNL     1       1.645  -5.077  42.163  1.00  0.00    -0.000 C 
BRANCH  25  26
HETATM   26  C2  UNL     1       0.281  -5.017  42.781  1.00  0.00    -0.005 C 
HETATM   27  C1  UNL     1       0.238  -4.269  44.072  1.00  0.00     0.005 C 
ENDBRANCH  25  26
ENDBRANCH  24  25
ENDBRANCH  23  24
ENDBRANCH  22  23
ENDBRANCH  21  22
ENDBRANCH  20  21
BRANCH  20  28
HETATM   28  O1  UNL     1       4.485  -1.446  46.318  1.00  0.00    -0.371 OA
ATOM     29  H1  UNL     1       5.212  -1.732  46.859  1.00  0.00     0.212 HD
ENDBRANCH  20  28
ENDBRANCH  19  20
ENDBRANCH   1  19
BRANCH   2  30
HETATM   30  O3  UNL     1       8.155  -1.021  45.905  1.00  0.00    -0.393 OA
ATOM     31  H3  UNL     1       7.787  -0.494  45.205  1.00  0.00     0.210 HD
ENDBRANCH   2  30
BRANCH   8  32
HETATM   32  O4  UNL     1      11.004  -5.796  41.533  1.00  0.00    -0.392 OA
ATOM     33  H4  UNL     1      10.964  -6.566  42.089  1.00  0.00     0.210 HD
ENDBRANCH   8  32
BRANCH  12  34
HETATM   34  O5  UNL     1      12.108  -7.152  46.039  1.00  0.00    -0.395 OA
ATOM     35  H5  UNL     1      12.461  -7.855  45.505  1.00  0.00     0.210 HD
ENDBRANCH  12  34
TORSDOF 12
ENDMDL
MODEL 5
REMARK VINA RESULT: -6.573244527      3.014      5.175
REMARK  12 active torsions:
REMARK  status: ('A' for Active; 'I' for Inactive)
REMARK    1  A    between atoms: C2_2  and  C3_3 
REMARK    2  A    between atoms: C3_3  and  C4_4 
REMARK    3  A    between atoms: C4_4  and  C5_5 
REMARK    4  A    between atoms: C5_5  and  C6_6 
REMARK    5  A    between atoms: C6_6  and  C7_7 
REMARK    6  A    between atoms: C7_7  and  C8_8 
REMARK    7  A    between atoms: C8_8  and  O1_9 
REMARK    8  A    between atoms: C8_8  and  O2_11 
REMARK    9  A    between atoms: O2_11  and  C9_12 
REMARK   10  A    between atoms: C10_13  and  O3_14 
REMARK   11  A    between atoms: C16_21  and  O4_22 
REMARK   12  A    between atoms: C19_27  and  O5_28 
ROOT
HETATM    1  C9  UNL     1       9.908  -5.363  40.872  1.00  0.00     0.161 C 
HETATM    2  C10 UNL     1      10.490  -6.362  39.929  1.00  0.00     0.148 C 
HETATM    3  C11 UNL     1       9.588  -7.449  39.471  1.00  0.00     0.044 C 
HETATM    4  C12 UNL     1       8.218  -6.891  39.204  1.00  0.00    -0.027 C 
HETATM    5  C13 UNL     1       8.230  -5.781  38.210  1.00  0.00     0.016 C 
HETATM    6  C14 UNL     1       7.667  -6.508  40.548  1.00  0.00     0.007 C 
HETATM    7  C15 UNL     1       6.290  -5.929  40.341  1.00  0.00     0.041 C 
HETATM    8  C16 UNL     1       5.408  -6.654  39.414  1.00  0.00     0.159 C 
HETATM    9  C17 UNL     1       5.931  -7.864  38.759  1.00  0.00     0.139 C 
HETATM   10  F1  UNL     1       5.324  -7.986  37.497  1.00  0.00    -0.239 F 
HETATM   11  C18 UNL     1       5.425  -9.102  39.518  1.00  0.00     0.078 C 
HETATM   12  C19 UNL     1       6.428 -10.137  38.990  1.00  0.00     0.122 C 
HETATM   13  C20 UNL     1       7.733  -9.365  39.240  1.00  0.00     0.045 C 
HETATM   14  C21 UNL     1       7.384  -8.018  38.635  1.00  0.00     0.005 C 
HETATM   15  C22 UNL     1       7.771  -8.128  37.153  1.00  0.00     0.019 C 
HETATM   16  C23 UNL     1       8.531  -5.603  41.342  1.00  0.00    -0.015 C 
HETATM   17  C24 UNL     1       8.576  -6.188  42.769  1.00  0.00     0.018 C 
HETATM   18  C25 UNL     1       7.865  -4.234  41.563  1.00  0.00     0.018 C 
ENDROOT
BRANCH   1  19
HETATM   19  O2  UNL     1      10.751  -5.281  41.964  1.00  0.00    -0.353 OA
BRANCH  19  20
HETATM   20  C8  UNL     1      11.377  -4.146  42.233  1.00  0.00     0.257 C 
BRANCH  20  21
HETATM   21  C7  UNL     1      11.687  -3.752  43.617  1.00  0.00     0.060 C 
BRANCH  21  22
HETATM   22  C6  UNL     1      12.723  -4.725  44.171  1.00  0.00     0.005 C 
BRANCH  22  23
HETATM   23  C5  UNL     1      12.135  -5.696  45.145  1.00  0.00     0.000 C 
BRANCH  23  24
HETATM   24  C4  UNL     1      13.277  -6.495  45.737  1.00  0.00     0.000 C 
BRANCH  24  25
HETATM   25  C3  UNL     1      14.622  -6.064  45.219  1.00  0.00    -0.000 C 
BRANCH  25  26
HETATM   26  C2  UNL     1      15.762  -6.603  46.030  1.00  0.00    -0.005 C 
HETATM   27  C1  UNL     1      15.447  -7.882  46.732  1.00  0.00     0.005 C 
ENDBRANCH  25  26
ENDBRANCH  24  25
ENDBRANCH  23  24
ENDBRANCH  22  23
ENDBRANCH  21  22
ENDBRANCH  20  21
BRANCH  20  28
HETATM   28  O1  UNL     1      12.608  -4.141  41.524  1.00  0.00    -0.371 OA
ATOM     29  H1  UNL     1      12.748  -3.249  41.229  1.00  0.00     0.212 HD
ENDBRANCH  20  28
ENDBRANCH  19  20
ENDBRANCH   1  19
BRANCH   2  30
HETATM   30  O3  UNL     1      11.024  -5.766  38.761  1.00  0.00    -0.393 OA
ATOM     31  H3  UNL     1      11.963  -5.893  38.680  1.00  0.00     0.210 HD
ENDBRANCH   2  30
BRANCH   8  32
HETATM   32  O4  UNL     1       4.178  -7.014  40.028  1.00  0.00    -0.392 OA
ATOM     33  H4  UNL     1       3.431  -6.742  39.508  1.00  0.00     0.210 HD
ENDBRANCH   8  32
BRANCH  12  34
HETATM   34  O5  UNL     1       6.376 -11.308  39.721  1.00  0.00    -0.395 OA
ATOM     35  H5  UNL     1       7.141 -11.404  40.277  1.00  0.00     0.210 HD
ENDBRANCH  12  34
TORSDOF 12
ENDMDL
