MODEL 1
REMARK VINA RESULT: -6.629382024      0.000      0.000
REMARK  11 active torsions:
REMARK  status: ('A' for Active; 'I' for Inactive)
REMARK    1  A    between atoms: C6_6  and  C7_7 
REMARK    2  A    between atoms: C10_11  and  O1_12 
REMARK    3  A    between atoms: C12_15  and  O2_16 
REMARK    4  A    between atoms: C15_21  and  C16_22 
REMARK    5  A    between atoms: C16_22  and  C17_23 
REMARK    6  A    between atoms: C17_23  and  C18_24 
REMARK    7  A    between atoms: C18_24  and  C19_25 
REMARK    8  A    between atoms: C19_25  and  C20_26 
REMARK    9  A    between atoms: C22_28  and  O4_29 
REMARK   10  A    between atoms: C24_32  and  C25_33 
REMARK   11  A    between atoms: C25_33  and  O5_34 
ROOT
HETATM    1  C1  UNL     1       7.615  -2.634  41.940  1.00  0.00     0.012 C 
HETATM    2  C2  UNL     1       8.760  -2.994  42.066  1.00  0.00    -0.109 C 
HETATM    3  C3  UNL     1      10.169  -3.434  42.246  1.00  0.00     0.103 C 
HETATM    4  C4  UNL     1      10.657  -3.783  40.885  1.00  0.00     0.025 C 
HETATM    5  C5  UNL     1       9.794  -4.794  40.234  1.00  0.00     0.040 C 
HETATM    6  C6  UNL     1       9.248  -5.811  41.133  1.00  0.00    -0.046 C 
HETATM    7  C13 UNL     1       9.416  -5.693  42.433  1.00  0.00     0.020 C 
HETATM    8  C14 UNL     1      10.118  -4.619  43.166  1.00  0.00     0.100 C 
HETATM    9  O3  UNL     1       9.224  -4.217  44.194  1.00  0.00    -0.366 OA
HETATM   10  C15 UNL     1       9.665  -3.174  44.933  1.00  0.00     0.151 C 
HETATM   11  C22 UNL     1      11.090  -3.140  45.322  1.00  0.00     0.147 C 
HETATM   12  C23 UNL     1      12.049  -3.778  44.359  1.00  0.00     0.044 C 
HETATM   13  C24 UNL     1      11.356  -5.020  43.844  1.00  0.00     0.051 C 
ENDROOT
BRANCH  13  14
HETATM   14  C25 UNL     1      12.310  -5.893  43.151  1.00  0.00     0.172 C 
BRANCH  14  15
HETATM   15  O5  UNL     1      13.422  -5.168  42.665  1.00  0.00    -0.400 OA
ATOM     16  H5  UNL     1      14.243  -5.586  42.901  1.00  0.00     0.209 HD
ENDBRANCH  14  15
ENDBRANCH  13  14
BRANCH   6  17
HETATM   17  C7  UNL     1       8.523  -6.998  40.586  1.00  0.00     0.005 A 
HETATM   18  C8  UNL     1       9.190  -8.092  40.100  1.00  0.00     0.041 A 
HETATM   19  C9  UNL     1       8.505  -9.225  39.621  1.00  0.00     0.068 A 
HETATM   20 CL1  UNL     1       9.410 -10.591  39.014  1.00  0.00    -0.081 Cl
HETATM   21  C10 UNL     1       7.140  -9.282  39.620  1.00  0.00     0.090 A 
HETATM   22  C11 UNL     1       6.461  -8.190  40.106  1.00  0.00     0.075 A 
HETATM   23  C12 UNL     1       7.153  -7.075  40.577  1.00  0.00     0.079 A 
BRANCH  21  24
HETATM   24  O1  UNL     1       6.450 -10.415  39.141  1.00  0.00    -0.359 OA
ATOM     25  H1  UNL     1       6.055 -10.428  38.277  1.00  0.00     0.217 HD
ENDBRANCH  21  24
BRANCH  23  26
HETATM   26  O2  UNL     1       6.346  -6.054  41.037  1.00  0.00    -0.360 OA
ATOM     27  H2  UNL     1       5.482  -5.882  40.680  1.00  0.00     0.217 HD
ENDBRANCH  23  26
ENDBRANCH   6  17
BRANCH  10  28
HETATM   28  C16 UNL     1       8.854  -3.223  46.266  1.00  0.00     0.034 C 
BRANCH  28  29
HETATM   29  C17 UNL     1       8.036  -1.987  46.400  1.00  0.00     0.002 C 
BRANCH  29  30
HETATM   30  C18 UNL     1       6.897  -1.860  45.492  1.00  0.00     0.000 C 
BRANCH  30  31
HETATM   31  C19 UNL     1       5.665  -2.627  45.628  1.00  0.00    -0.000 C 
BRANCH  31  32
HETATM   32  C20 UNL     1       5.115  -3.416  44.509  1.00  0.00    -0.005 C 
HETATM   33  C21 UNL     1       5.803  -4.737  44.256  1.00  0.00     0.005 C 
ENDBRANCH  31  32
ENDBRANCH  30  31
ENDBRANCH  29  30
ENDBRANCH  28  29
ENDBRANCH  10  28
BRANCH  11  34
HETATM   34  O4  UNL     1      11.536  -1.807  45.490  1.00  0.00    -0.393 OA
ATOM     35  H4  UNL     1      12.104  -1.732  46.248  1.00  0.00     0.210 HD
ENDBRANCH  11  34
TORSDOF 11
ENDMDL
MODEL 2
REMARK VINA RESULT: -6.553148697      1.279      1.555
REMARK  11 active torsions:
REMARK  status: ('A' for Active; 'I' for Inactive)
REMARK    1  A    between atoms: C6_6  and  C7_7 
REMARK    2  A    between atoms: C10_11  and  O1_12 
REMARK    3  A    between atoms: C12_15  and  O2_16 
REMARK    4  A    between atoms: C15_21  and  C16_22 
REMARK    5  A    between atoms: C16_22  and  C17_23 
REMARK    6  A    between atoms: C17_23  and  C18_24 
REMARK    7  A    between atoms: C18_24  and  C19_25 
REMARK    8  A    between atoms: C19_25  and  C20_26 
REMARK    9  A    between atoms: C22_28  and  O4_29 
REMARK   10  A    between atoms: C24_32  and  C25_33 
REMARK   11  A    between atoms: C25_33  and  O5_34 
ROOT
HETATM    1  C1  UNL     1       7.707  -2.707  41.774  1.00  0.00     0.012 C 
HETATM    2  C2  UNL     1       8.855  -3.040  41.937  1.00  0.00    -0.109 C 
HETATM    3  C3  UNL     1      10.267  -3.446  42.162  1.00  0.00     0.103 C 
HETATM    4  C4  UNL     1      10.807  -3.786  40.819  1.00  0.00     0.025 C 
HETATM    5  C5  UNL     1       9.988  -4.818  40.144  1.00  0.00     0.040 C 
HETATM    6  C6  UNL     1       9.438  -5.846  41.027  1.00  0.00    -0.046 C 
HETATM    7  C13 UNL     1       9.562  -5.722  42.331  1.00  0.00     0.020 C 
HETATM    8  C14 UNL     1      10.215  -4.631  43.084  1.00  0.00     0.100 C 
HETATM    9  O3  UNL     1       9.280  -4.248  44.082  1.00  0.00    -0.366 OA
HETATM   10  C15 UNL     1       9.674  -3.193  44.831  1.00  0.00     0.151 C 
HETATM   11  C22 UNL     1      11.084  -3.126  45.266  1.00  0.00     0.147 C 
HETATM   12  C23 UNL     1      12.088  -3.742  44.335  1.00  0.00     0.044 C 
HETATM   13  C24 UNL     1      11.440  -5.002  43.801  1.00  0.00     0.051 C 
ENDROOT
BRANCH  13  14
HETATM   14  C25 UNL     1      12.436  -5.853  43.141  1.00  0.00     0.172 C 
BRANCH  14  15
HETATM   15  O5  UNL     1      13.697  -5.219  43.065  1.00  0.00    -0.400 OA
ATOM     16  H5  UNL     1      14.191  -5.510  42.307  1.00  0.00     0.209 HD
ENDBRANCH  14  15
ENDBRANCH  13  14
BRANCH   6  17
HETATM   17  C7  UNL     1       8.759  -7.050  40.460  1.00  0.00     0.005 A 
HETATM   18  C8  UNL     1       7.394  -7.172  40.444  1.00  0.00     0.041 A 
HETATM   19  C9  UNL     1       6.756  -8.290  39.875  1.00  0.00     0.068 A 
HETATM   20 CL1  UNL     1       5.011  -8.389  39.885  1.00  0.00    -0.081 Cl
HETATM   21  C10 UNL     1       7.473  -9.307  39.310  1.00  0.00     0.090 A 
HETATM   22  C11 UNL     1       8.844  -9.194  39.320  1.00  0.00     0.075 A 
HETATM   23  C12 UNL     1       9.462  -8.080  39.887  1.00  0.00     0.079 A 
BRANCH  21  24
HETATM   24  O1  UNL     1       6.839 -10.428  38.738  1.00  0.00    -0.359 OA
ATOM     25  H1  UNL     1       6.621 -10.460  37.814  1.00  0.00     0.217 HD
ENDBRANCH  21  24
BRANCH  23  26
HETATM   26  O2  UNL     1      10.840  -8.099  39.824  1.00  0.00    -0.360 OA
ATOM     27  H2  UNL     1      11.340  -7.473  39.312  1.00  0.00     0.217 HD
ENDBRANCH  23  26
ENDBRANCH   6  17
BRANCH  10  28
HETATM   28  C16 UNL     1       8.822  -3.259  46.139  1.00  0.00     0.034 C 
BRANCH  28  29
HETATM   29  C17 UNL     1       7.921  -2.076  46.209  1.00  0.00     0.002 C 
BRANCH  29  30
HETATM   30  C18 UNL     1       6.797  -2.059  45.274  1.00  0.00     0.000 C 
BRANCH  30  31
HETATM   31  C19 UNL     1       5.630  -2.924  45.397  1.00  0.00    -0.000 C 
BRANCH  31  32
HETATM   32  C20 UNL     1       5.187  -3.792  44.289  1.00  0.00    -0.005 C 
HETATM   33  C21 UNL     1       6.051  -5.005  44.038  1.00  0.00     0.005 C 
ENDBRANCH  31  32
ENDBRANCH  30  31
ENDBRANCH  29  30
ENDBRANCH  28  29
ENDBRANCH  10  28
BRANCH  11  34
HETATM   34  O4  UNL     1      11.494  -1.782  45.444  1.00  0.00    -0.393 OA
ATOM     35  H4  UNL     1      10.885  -1.184  45.026  1.00  0.00     0.210 HD
ENDBRANCH  11  34
TORSDOF 11
ENDMDL
MODEL 3
REMARK VINA RESULT: -6.538705272      2.112      2.750
REMARK  11 active torsions:
REMARK  status: ('A' for Active; 'I' for Inactive)
REMARK    1  A    between atoms: C6_6  and  C7_7 
REMARK    2  A    between atoms: C10_11  and  O1_12 
REMARK    3  A    between atoms: C12_15  and  O2_16 
REMARK    4  A    between atoms: C15_21  and  C16_22 
REMARK    5  A    between atoms: C16_22  and  C17_23 
REMARK    6  A    between atoms: C17_23  and  C18_24 
REMARK    7  A    between atoms: C18_24  and  C19_25 
REMARK    8  A    between atoms: C19_25  and  C20_26 
REMARK    9  A    between atoms: C22_28  and  O4_29 
REMARK   10  A    between atoms: C24_32  and  C25_33 
REMARK   11  A    between atoms: C25_33  and  O5_34 
ROOT
HETATM    1  C1  UNL     1       5.101  -3.453  41.261  1.00  0.00     0.012 C 
HETATM    2  C2  UNL     1       6.280  -3.504  41.511  1.00  0.00    -0.109 C 
HETATM    3  C3  UNL     1       7.727  -3.562  41.846  1.00  0.00     0.103 C 
HETATM    4  C4  UNL     1       8.425  -3.830  40.561  1.00  0.00     0.025 C 
HETATM    5  C5  UNL     1       7.914  -5.054  39.903  1.00  0.00     0.040 C 
HETATM    6  C6  UNL     1       7.549  -6.139  40.814  1.00  0.00    -0.046 C 
HETATM    7  C13 UNL     1       7.548  -5.929  42.113  1.00  0.00     0.020 C 
HETATM    8  C14 UNL     1       7.879  -4.683  42.834  1.00  0.00     0.100 C 
HETATM    9  O3  UNL     1       6.812  -4.479  43.749  1.00  0.00    -0.366 OA
HETATM   10  C15 UNL     1       6.900  -3.329  44.454  1.00  0.00     0.151 C 
HETATM   11  C22 UNL     1       8.223  -2.917  44.966  1.00  0.00     0.147 C 
HETATM   12  C23 UNL     1       9.405  -3.328  44.137  1.00  0.00     0.044 C 
HETATM   13  C24 UNL     1       9.101  -4.726  43.645  1.00  0.00     0.051 C 
ENDROOT
BRANCH  13  14
HETATM   14  C25 UNL     1      10.310  -5.355  43.100  1.00  0.00     0.172 C 
BRANCH  14  15
HETATM   15  O5  UNL     1      11.014  -6.077  44.090  1.00  0.00    -0.400 OA
ATOM     16  H5  UNL     1      11.953  -5.956  44.010  1.00  0.00     0.209 HD
ENDBRANCH  14  15
ENDBRANCH  13  14
BRANCH   6  17
HETATM   17  C7  UNL     1       7.205  -7.493  40.283  1.00  0.00     0.005 A 
HETATM   18  C8  UNL     1       5.926  -7.823  39.918  1.00  0.00     0.041 A 
HETATM   19  C9  UNL     1       5.612  -9.087  39.382  1.00  0.00     0.068 A 
HETATM   20 CL1  UNL     1       3.962  -9.451  38.936  1.00  0.00    -0.081 Cl
HETATM   21  C10 UNL     1       6.572 -10.042  39.202  1.00  0.00     0.090 A 
HETATM   22  C11 UNL     1       7.859  -9.720  39.564  1.00  0.00     0.075 A 
HETATM   23  C12 UNL     1       8.156  -8.464  40.093  1.00  0.00     0.079 A 
BRANCH  21  24
HETATM   24  O1  UNL     1       6.262 -11.308  38.666  1.00  0.00    -0.359 OA
ATOM     25  H1  UNL     1       6.216 -11.453  37.728  1.00  0.00     0.217 HD
ENDBRANCH  21  24
BRANCH  23  26
HETATM   26  O2  UNL     1       9.486  -8.278  40.409  1.00  0.00    -0.360 OA
ATOM     27  H2  UNL     1      10.140  -8.958  40.301  1.00  0.00     0.217 HD
ENDBRANCH  23  26
ENDBRANCH   6  17
BRANCH  10  28
HETATM   28  C16 UNL     1       5.993  -3.528  45.710  1.00  0.00     0.034 C 
BRANCH  28  29
HETATM   29  C17 UNL     1       5.124  -2.334  45.893  1.00  0.00     0.002 C 
BRANCH  29  30
HETATM   30  C18 UNL     1       4.675  -1.663  44.675  1.00  0.00     0.000 C 
BRANCH  30  31
HETATM   31  C19 UNL     1       3.357  -1.853  44.085  1.00  0.00    -0.000 C 
BRANCH  31  32
HETATM   32  C20 UNL     1       2.721  -3.183  44.016  1.00  0.00    -0.005 C 
HETATM   33  C21 UNL     1       1.755  -3.374  42.871  1.00  0.00     0.005 C 
ENDBRANCH  31  32
ENDBRANCH  30  31
ENDBRANCH  29  30
ENDBRANCH  28  29
ENDBRANCH  10  28
BRANCH  11  34
HETATM   34  O4  UNL     1       8.302  -1.509  45.085  1.00  0.00    -0.393 OA
ATOM     35  H4  UNL     1       8.859  -1.260  45.813  1.00  0.00     0.210 HD
ENDBRANCH  11  34
TORSDOF 11
ENDMDL
MODEL 4
REMARK VINA RESULT: -6.424835467      1.680      2.241
REMARK  11 active torsions:
REMARK  status: ('A' for Active; 'I' for Inactive)
REMARK    1  A    between atoms: C6_6  and  C7_7 
REMARK    2  A    between atoms: C10_11  and  O1_12 
REMARK    3  A    between atoms: C12_15  and  O2_16 
REMARK    4  A    between atoms: C15_21  and  C16_22 
REMARK    5  A    between atoms: C16_22  and  C17_23 
REMARK    6  A    between atoms: C17_23  and  C18_24 
REMARK    7  A    between atoms: C18_24  and  C19_25 
REMARK    8  A    between atoms: C19_25  and  C20_26 
REMARK    9  A    between atoms: C22_28  and  O4_29 
REMARK   10  A    between atoms: C24_32  and  C25_33 
REMARK   11  A    between atoms: C25_33  and  O5_34 
ROOT
HETATM    1  C1  UNL     1       5.198  -3.294  41.391  1.00  0.00     0.012 C 
HETATM    2  C2  UNL     1       6.377  -3.344  41.640  1.00  0.00    -0.109 C 
HETATM    3  C3  UNL     1       7.825  -3.403  41.972  1.00  0.00     0.103 C 
HETATM    4  C4  UNL     1       8.524  -3.620  40.678  1.00  0.00     0.025 C 
HETATM    5  C5  UNL     1       8.023  -4.824  39.978  1.00  0.00     0.040 C 
HETATM    6  C6  UNL     1       7.667  -5.943  40.850  1.00  0.00    -0.046 C 
HETATM    7  C13 UNL     1       7.664  -5.778  42.156  1.00  0.00     0.020 C 
HETATM    8  C14 UNL     1       7.986  -4.556  42.920  1.00  0.00     0.100 C 
HETATM    9  O3  UNL     1       6.917  -4.393  43.842  1.00  0.00    -0.366 OA
HETATM   10  C15 UNL     1       6.997  -3.268  44.586  1.00  0.00     0.151 C 
HETATM   11  C22 UNL     1       8.317  -2.864  45.113  1.00  0.00     0.147 C 
HETATM   12  C23 UNL     1       9.502  -3.236  44.270  1.00  0.00     0.044 C 
HETATM   13  C24 UNL     1       9.209  -4.619  43.729  1.00  0.00     0.051 C 
ENDROOT
BRANCH  13  14
HETATM   14  C25 UNL     1      10.422  -5.218  43.161  1.00  0.00     0.172 C 
BRANCH  14  15
HETATM   15  O5  UNL     1      11.012  -6.144  44.052  1.00  0.00    -0.400 OA
ATOM     16  H5  UNL     1      11.249  -5.734  44.876  1.00  0.00     0.209 HD
ENDBRANCH  14  15
ENDBRANCH  13  14
BRANCH   6  17
HETATM   17  C7  UNL     1       7.333  -7.280  40.272  1.00  0.00     0.005 A 
HETATM   18  C8  UNL     1       8.300  -8.208  39.989  1.00  0.00     0.041 A 
HETATM   19  C9  UNL     1       7.980  -9.482  39.481  1.00  0.00     0.068 A 
HETATM   20 CL1  UNL     1       9.257 -10.623  39.138  1.00  0.00    -0.081 Cl
HETATM   21  C10 UNL     1       6.684  -9.849  39.248  1.00  0.00     0.090 A 
HETATM   22  C11 UNL     1       5.705  -8.925  39.530  1.00  0.00     0.075 A 
HETATM   23  C12 UNL     1       6.038  -7.667  40.033  1.00  0.00     0.079 A 
BRANCH  21  24
HETATM   24  O1  UNL     1       6.358 -11.123  38.740  1.00  0.00    -0.359 OA
ATOM     25  H1  UNL     1       6.295 -11.883  39.306  1.00  0.00     0.217 HD
ENDBRANCH  21  24
BRANCH  23  26
HETATM   26  O2  UNL     1       4.957  -6.844  40.272  1.00  0.00    -0.360 OA
ATOM     27  H2  UNL     1       4.939  -5.930  40.011  1.00  0.00     0.217 HD
ENDBRANCH  23  26
ENDBRANCH   6  17
BRANCH  10  28
HETATM   28  C16 UNL     1       6.092  -3.518  45.835  1.00  0.00     0.034 C 
BRANCH  28  29
HETATM   29  C17 UNL     1       5.162  -2.371  46.017  1.00  0.00     0.002 C 
BRANCH  29  30
HETATM   30  C18 UNL     1       4.750  -1.669  44.802  1.00  0.00     0.000 C 
BRANCH  30  31
HETATM   31  C19 UNL     1       3.444  -1.835  44.177  1.00  0.00    -0.000 C 
BRANCH  31  32
HETATM   32  C20 UNL     1       2.759  -3.141  44.143  1.00  0.00    -0.005 C 
HETATM   33  C21 UNL     1       1.898  -3.383  42.926  1.00  0.00     0.005 C 
ENDBRANCH  31  32
ENDBRANCH  30  31
ENDBRANCH  29  30
ENDBRANCH  28  29
ENDBRANCH  10  28
BRANCH  11  34
HETATM   34  O4  UNL     1       8.385  -1.460  45.281  1.00  0.00    -0.393 OA
ATOM     35  H4  UNL     1       7.530  -1.062  45.167  1.00  0.00     0.210 HD
ENDBRANCH  11  34
TORSDOF 11
ENDMDL
MODEL 5
REMARK VINA RESULT: -6.308679993      3.151      5.899
REMARK  11 active torsions:
REMARK  status: ('A' for Active; 'I' for Inactive)
REMARK    1  A    between atoms: C6_6  and  C7_7 
REMARK    2  A    between atoms: C10_11  and  O1_12 
REMARK    3  A    between atoms: C12_15  and  O2_16 
REMARK    4  A    between atoms: C15_21  and  C16_22 
REMARK    5  A    between atoms: C16_22  and  C17_23 
REMARK    6  A    between atoms: C17_23  and  C18_24 
REMARK    7  A    between atoms: C18_24  and  C19_25 
REMARK    8  A    between atoms: C19_25  and  C20_26 
REMARK    9  A    between atoms: C22_28  and  O4_29 
REMARK   10  A    between atoms: C24_32  and  C25_33 
REMARK   11  A    between atoms: C25_33  and  O5_34 
ROOT
HETATM    1  C1  UNL     1      10.114  -2.886  45.923  1.00  0.00     0.012 C 
HETATM    2  C2  UNL     1      10.431  -3.088  44.777  1.00  0.00    -0.109 C 
HETATM    3  C3  UNL     1      10.837  -3.358  43.373  1.00  0.00     0.103 C 
HETATM    4  C4  UNL     1      10.183  -2.301  42.556  1.00  0.00     0.025 C 
HETATM    5  C5  UNL     1       8.717  -2.277  42.761  1.00  0.00     0.040 C 
HETATM    6  C6  UNL     1       8.098  -3.588  42.948  1.00  0.00    -0.046 C 
HETATM    7  C13 UNL     1       8.855  -4.657  43.074  1.00  0.00     0.020 C 
HETATM    8  C14 UNL     1      10.330  -4.735  43.053  1.00  0.00     0.100 C 
HETATM    9  O3  UNL     1      10.685  -5.504  44.193  1.00  0.00    -0.366 OA
HETATM   10  C15 UNL     1      12.018  -5.619  44.389  1.00  0.00     0.151 C 
HETATM   11  C22 UNL     1      12.885  -5.844  43.214  1.00  0.00     0.147 C 
HETATM   12  C23 UNL     1      12.412  -5.240  41.924  1.00  0.00     0.044 C 
HETATM   13  C24 UNL     1      10.911  -5.434  41.901  1.00  0.00     0.051 C 
ENDROOT
BRANCH  13  14
HETATM   14  C25 UNL     1      10.379  -5.179  40.557  1.00  0.00     0.172 C 
BRANCH  14  15
HETATM   15  O5  UNL     1      11.107  -4.166  39.892  1.00  0.00    -0.400 OA
ATOM     16  H5  UNL     1      11.612  -3.640  40.501  1.00  0.00     0.209 HD
ENDBRANCH  14  15
ENDBRANCH  13  14
BRANCH   6  17
HETATM   17  C7  UNL     1       6.610  -3.729  42.971  1.00  0.00     0.005 A 
HETATM   18  C8  UNL     1       5.900  -4.090  41.856  1.00  0.00     0.041 A 
HETATM   19  C9  UNL     1       4.503  -4.260  41.890  1.00  0.00     0.068 A 
HETATM   20 CL1  UNL     1       3.651  -4.720  40.435  1.00  0.00    -0.081 Cl
HETATM   21  C10 UNL     1       3.791  -4.073  43.042  1.00  0.00     0.090 A 
HETATM   22  C11 UNL     1       4.495  -3.712  44.167  1.00  0.00     0.075 A 
HETATM   23  C12 UNL     1       5.879  -3.547  44.118  1.00  0.00     0.079 A 
BRANCH  21  24
HETATM   24  O1  UNL     1       2.392  -4.242  43.081  1.00  0.00    -0.359 OA
ATOM     25  H1  UNL     1       1.881  -3.984  43.838  1.00  0.00     0.217 HD
ENDBRANCH  21  24
BRANCH  23  26
HETATM   26  O2  UNL     1       6.453  -3.187  45.320  1.00  0.00    -0.360 OA
ATOM     27  H2  UNL     1       6.701  -2.292  45.523  1.00  0.00     0.217 HD
ENDBRANCH  23  26
ENDBRANCH   6  17
BRANCH  10  28
HETATM   28  C16 UNL     1      12.207  -6.866  45.311  1.00  0.00     0.034 C 
BRANCH  28  29
HETATM   29  C17 UNL     1      13.231  -6.570  46.349  1.00  0.00     0.002 C 
BRANCH  29  30
HETATM   30  C18 UNL     1      14.070  -7.689  46.772  1.00  0.00     0.000 C 
BRANCH  30  31
HETATM   31  C19 UNL     1      15.527  -7.670  46.728  1.00  0.00    -0.000 C 
BRANCH  31  32
HETATM   32  C20 UNL     1      16.262  -7.093  45.587  1.00  0.00    -0.005 C 
HETATM   33  C21 UNL     1      16.627  -5.634  45.729  1.00  0.00     0.005 C 
ENDBRANCH  31  32
ENDBRANCH  30  31
ENDBRANCH  29  30
ENDBRANCH  28  29
ENDBRANCH  10  28
BRANCH  11  34
HETATM   34  O4  UNL     1      14.181  -5.320  43.436  1.00  0.00    -0.393 OA
ATOM     35  H4  UNL     1      14.323  -4.536  42.917  1.00  0.00     0.210 HD
ENDBRANCH  11  34
TORSDOF 11
ENDMDL
