MODEL 1
REMARK VINA RESULT: -9.066030446      0.000      0.000
REMARK  11 active torsions:
REMARK  status: ('A' for Active; 'I' for Inactive)
REMARK    1  A    between atoms: C2_2  and  O1_3 
REMARK    2  A    between atoms: C10_13  and  N1_14 
REMARK       I    between atoms: N1_14  and  C11_16 
REMARK    3  A    between atoms: C11_16  and  C12_18 
REMARK    4  A    between atoms: C12_18  and  C13_19 
REMARK    5  A    between atoms: C12_18  and  C22_29 
REMARK    6  A    between atoms: C13_19  and  C14_20 
REMARK    7  A    between atoms: C14_20  and  C15_21 
REMARK    8  A    between atoms: C15_21  and  C16_22 
REMARK    9  A    between atoms: C22_29  and  C23_30 
REMARK   10  A    between atoms: C23_30  and  O3_31 
REMARK   11  A    between atoms: N2_33  and  O4_35 
ROOT
HETATM    1  C12 UNL     1       6.799  -2.316  45.687  1.00  0.00     0.085 C 
ENDROOT
BRANCH   1   2
HETATM    2  C11 UNL     1       7.946  -3.020  45.141  1.00  0.00     0.222 C 
HETATM    3  N1  UNL     1       7.957  -3.491  43.780  1.00  0.00    -0.352 N 
ATOM      4  H1  UNL     1       7.144  -3.316  43.189  1.00  0.00     0.163 HD
HETATM    5  O2  UNL     1       8.935  -3.203  45.904  1.00  0.00    -0.273 OA
BRANCH   3   6
HETATM    6  C10 UNL     1       9.094  -4.212  43.220  1.00  0.00     0.129 C 
HETATM    7  C2  UNL     1       8.598  -5.318  42.333  1.00  0.00     0.122 C 
HETATM    8  C1  UNL     1       7.091  -5.581  42.603  1.00  0.00     0.060 C 
HETATM    9  S1  UNL     1       8.689  -5.006  40.588  1.00  0.00    -0.130 SA
HETATM   10  C3  UNL     1      10.189  -5.126  39.710  1.00  0.00     0.077 C 
HETATM   11  C4  UNL     1      11.291  -5.975  40.261  1.00  0.00     0.010 C 
HETATM   12  C5  UNL     1      12.375  -5.136  40.929  1.00  0.00     0.001 C 
HETATM   13  C6  UNL     1      12.580  -5.506  42.366  1.00  0.00     0.000 C 
HETATM   14  C7  UNL     1      12.158  -4.561  43.392  1.00  0.00     0.000 C 
HETATM   15  C8  UNL     1      11.474  -3.320  43.052  1.00  0.00     0.002 C 
HETATM   16  C9  UNL     1      10.072  -3.254  42.629  1.00  0.00     0.029 C 
BRANCH   7  17
HETATM   17  O1  UNL     1       9.137  -6.576  42.671  1.00  0.00    -0.378 OA
ATOM     18  H1  UNL     1      10.000  -6.315  42.974  1.00  0.00     0.211 HD
ENDBRANCH   7  17
ENDBRANCH   3   6
ENDBRANCH   1   2
BRANCH   1  19
HETATM   19  C13 UNL     1       5.472  -3.011  45.441  1.00  0.00     0.015 C 
BRANCH  19  20
HETATM   20  C14 UNL     1       4.296  -2.096  45.596  1.00  0.00     0.005 C 
BRANCH  20  21
HETATM   21  C15 UNL     1       3.815  -1.529  44.283  1.00  0.00     0.038 C 
BRANCH  21  22
HETATM   22  C16 UNL     1       3.395  -2.526  43.296  1.00  0.00    -0.058 A 
HETATM   23  C17 UNL     1       2.397  -3.421  43.670  1.00  0.00     0.010 A 
HETATM   24  C18 UNL     1       1.929  -4.416  42.820  1.00  0.00     0.043 A 
HETATM   25  C19 UNL     1       2.445  -4.547  41.569  1.00  0.00     0.116 A 
HETATM   26  F1  UNL     1       2.028  -5.498  40.693  1.00  0.00    -0.206 F 
HETATM   27  C20 UNL     1       3.446  -3.663  41.166  1.00  0.00     0.043 A 
HETATM   28  C21 UNL     1       3.904  -2.670  42.032  1.00  0.00     0.010 A 
ENDBRANCH  21  22
ENDBRANCH  20  21
ENDBRANCH  19  20
ENDBRANCH   1  19
BRANCH   1  29
HETATM   29  C22 UNL     1       6.916  -1.901  47.125  1.00  0.00     0.100 C 
BRANCH  29  30
HETATM   30  C23 UNL     1       6.960  -0.440  47.269  1.00  0.00     0.136 C 
HETATM   31  N2  UNL     1       8.096   0.214  47.167  1.00  0.00    -0.251 N 
ATOM     32  H2  UNL     1       8.128   1.229  47.266  1.00  0.00     0.196 HD
BRANCH  30  33
HETATM   33  O3  UNL     1       5.858   0.373  47.517  1.00  0.00    -0.348 OA
ATOM     34  H3  UNL     1       5.253   0.691  46.857  1.00  0.00     0.219 HD
ENDBRANCH  30  33
BRANCH  31  35
HETATM   35  O4  UNL     1       9.229  -0.503  46.925  1.00  0.00    -0.288 OA
ATOM     36  H4  UNL     1       9.481  -0.648  46.021  1.00  0.00     0.244 HD
ENDBRANCH  31  35
ENDBRANCH  29  30
ENDBRANCH   1  29
TORSDOF 11
ENDMDL
MODEL 2
REMARK VINA RESULT: -9.008891437      3.781      7.641
REMARK  11 active torsions:
REMARK  status: ('A' for Active; 'I' for Inactive)
REMARK    1  A    between atoms: C2_2  and  O1_3 
REMARK    2  A    between atoms: C10_13  and  N1_14 
REMARK       I    between atoms: N1_14  and  C11_16 
REMARK    3  A    between atoms: C11_16  and  C12_18 
REMARK    4  A    between atoms: C12_18  and  C13_19 
REMARK    5  A    between atoms: C12_18  and  C22_29 
REMARK    6  A    between atoms: C13_19  and  C14_20 
REMARK    7  A    between atoms: C14_20  and  C15_21 
REMARK    8  A    between atoms: C15_21  and  C16_22 
REMARK    9  A    between atoms: C22_29  and  C23_30 
REMARK   10  A    between atoms: C23_30  and  O3_31 
REMARK   11  A    between atoms: N2_33  and  O4_35 
ROOT
HETATM    1  C12 UNL     1      10.173  -3.304  45.376  1.00  0.00     0.085 C 
ENDROOT
BRANCH   1   2
HETATM    2  C11 UNL     1       8.930  -3.081  44.657  1.00  0.00     0.222 C 
HETATM    3  N1  UNL     1       8.416  -4.056  43.731  1.00  0.00    -0.352 N 
ATOM      4  H1  UNL     1       8.933  -4.923  43.588  1.00  0.00     0.163 HD
HETATM    5  O2  UNL     1       8.318  -1.998  44.875  1.00  0.00    -0.273 OA
BRANCH   3   6
HETATM    6  C10 UNL     1       7.179  -3.841  42.990  1.00  0.00     0.129 C 
HETATM    7  C2  UNL     1       7.416  -4.106  41.530  1.00  0.00     0.122 C 
HETATM    8  C1  UNL     1       8.941  -4.134  41.237  1.00  0.00     0.060 C 
HETATM    9  S1  UNL     1       6.818  -5.663  40.924  1.00  0.00    -0.130 SA
HETATM   10  C3  UNL     1       5.131  -5.929  40.583  1.00  0.00     0.077 C 
HETATM   11  C4  UNL     1       4.251  -4.755  40.292  1.00  0.00     0.010 C 
HETATM   12  C5  UNL     1       3.392  -4.377  41.493  1.00  0.00     0.001 C 
HETATM   13  C6  UNL     1       3.619  -2.964  41.936  1.00  0.00     0.000 C 
HETATM   14  C7  UNL     1       4.302  -2.735  43.202  1.00  0.00     0.000 C 
HETATM   15  C8  UNL     1       4.836  -3.838  43.992  1.00  0.00     0.002 C 
HETATM   16  C9  UNL     1       6.054  -4.574  43.639  1.00  0.00     0.029 C 
BRANCH   7  17
HETATM   17  O1  UNL     1       7.020  -3.033  40.706  1.00  0.00    -0.378 OA
ATOM     18  H1  UNL     1       7.530  -2.328  41.090  1.00  0.00     0.211 HD
ENDBRANCH   7  17
ENDBRANCH   3   6
ENDBRANCH   1   2
BRANCH   1  19
HETATM   19  C13 UNL     1      11.418  -2.936  44.590  1.00  0.00     0.015 C 
BRANCH  19  20
HETATM   20  C14 UNL     1      12.093  -4.124  43.976  1.00  0.00     0.005 C 
BRANCH  20  21
HETATM   21  C15 UNL     1      11.635  -5.433  44.570  1.00  0.00     0.038 C 
BRANCH  21  22
HETATM   22  C16 UNL     1      12.654  -6.155  45.336  1.00  0.00    -0.058 A 
HETATM   23  C17 UNL     1      13.988  -5.914  45.020  1.00  0.00     0.010 A 
HETATM   24  C18 UNL     1      15.037  -6.551  45.672  1.00  0.00     0.043 A 
HETATM   25  C19 UNL     1      14.784  -7.450  46.660  1.00  0.00     0.116 A 
HETATM   26  F1  UNL     1      15.767  -8.103  47.334  1.00  0.00    -0.206 F 
HETATM   27  C20 UNL     1      13.456  -7.712  46.999  1.00  0.00     0.043 A 
HETATM   28  C21 UNL     1      12.415  -7.063  46.334  1.00  0.00     0.010 A 
ENDBRANCH  21  22
ENDBRANCH  20  21
ENDBRANCH  19  20
ENDBRANCH   1  19
BRANCH   1  29
HETATM   29  C22 UNL     1      10.236  -2.726  46.760  1.00  0.00     0.100 C 
BRANCH  29  30
HETATM   30  C23 UNL     1      10.967  -1.453  46.786  1.00  0.00     0.136 C 
HETATM   31  N2  UNL     1      10.326  -0.307  46.861  1.00  0.00    -0.251 N 
ATOM     32  H2  UNL     1      10.833   0.577  46.879  1.00  0.00     0.196 HD
BRANCH  30  33
HETATM   33  O3  UNL     1      12.353  -1.325  46.737  1.00  0.00    -0.348 OA
ATOM     34  H3  UNL     1      12.911  -1.126  47.480  1.00  0.00     0.219 HD
ENDBRANCH  30  33
BRANCH  31  35
HETATM   35  O4  UNL     1       8.965  -0.337  46.912  1.00  0.00    -0.288 OA
ATOM     36  H4  UNL     1       8.510   0.455  47.171  1.00  0.00     0.244 HD
ENDBRANCH  31  35
ENDBRANCH  29  30
ENDBRANCH   1  29
TORSDOF 11
ENDMDL
MODEL 3
REMARK VINA RESULT: -8.743506208      0.880      1.283
REMARK  11 active torsions:
REMARK  status: ('A' for Active; 'I' for Inactive)
REMARK    1  A    between atoms: C2_2  and  O1_3 
REMARK    2  A    between atoms: C10_13  and  N1_14 
REMARK       I    between atoms: N1_14  and  C11_16 
REMARK    3  A    between atoms: C11_16  and  C12_18 
REMARK    4  A    between atoms: C12_18  and  C13_19 
REMARK    5  A    between atoms: C12_18  and  C22_29 
REMARK    6  A    between atoms: C13_19  and  C14_20 
REMARK    7  A    between atoms: C14_20  and  C15_21 
REMARK    8  A    between atoms: C15_21  and  C16_22 
REMARK    9  A    between atoms: C22_29  and  C23_30 
REMARK   10  A    between atoms: C23_30  and  O3_31 
REMARK   11  A    between atoms: N2_33  and  O4_35 
ROOT
HETATM    1  C12 UNL     1       6.316  -2.317  45.113  1.00  0.00     0.085 C 
ENDROOT
BRANCH   1   2
HETATM    2  C11 UNL     1       7.547  -3.002  44.756  1.00  0.00     0.222 C 
HETATM    3  N1  UNL     1       7.766  -3.500  43.422  1.00  0.00    -0.352 N 
ATOM      4  H1  UNL     1       7.044  -3.358  42.716  1.00  0.00     0.163 HD
HETATM    5  O2  UNL     1       8.418  -3.144  45.659  1.00  0.00    -0.273 OA
BRANCH   3   6
HETATM    6  C10 UNL     1       8.989  -4.202  43.051  1.00  0.00     0.129 C 
HETATM    7  C2  UNL     1       8.655  -5.331  42.117  1.00  0.00     0.122 C 
HETATM    8  C1  UNL     1       7.130  -5.624  42.163  1.00  0.00     0.060 C 
HETATM    9  S1  UNL     1       8.999  -5.039  40.401  1.00  0.00    -0.130 SA
HETATM   10  C3  UNL     1      10.617  -5.137  39.760  1.00  0.00     0.077 C 
HETATM   11  C4  UNL     1      11.640  -5.953  40.483  1.00  0.00     0.010 C 
HETATM   12  C5  UNL     1      12.595  -5.081  41.291  1.00  0.00     0.001 C 
HETATM   13  C6  UNL     1      12.589  -5.428  42.749  1.00  0.00     0.000 C 
HETATM   14  C7  UNL     1      11.999  -4.480  43.686  1.00  0.00     0.000 C 
HETATM   15  C8  UNL     1      11.349  -3.259  43.227  1.00  0.00     0.002 C 
HETATM   16  C9  UNL     1      10.025  -3.231  42.597  1.00  0.00     0.029 C 
BRANCH   7  17
HETATM   17  O1  UNL     1       9.163  -6.572  42.553  1.00  0.00    -0.378 OA
ATOM     18  H1  UNL     1       9.853  -6.706  41.914  1.00  0.00     0.211 HD
ENDBRANCH   7  17
ENDBRANCH   3   6
ENDBRANCH   1   2
BRANCH   1  19
HETATM   19  C13 UNL     1       5.079  -2.874  44.433  1.00  0.00     0.015 C 
BRANCH  19  20
HETATM   20  C14 UNL     1       3.919  -1.926  44.465  1.00  0.00     0.005 C 
BRANCH  20  21
HETATM   21  C15 UNL     1       3.298  -1.709  43.107  1.00  0.00     0.038 C 
BRANCH  21  22
HETATM   22  C16 UNL     1       2.881  -2.930  42.415  1.00  0.00    -0.058 A 
HETATM   23  C17 UNL     1       1.809  -3.639  42.951  1.00  0.00     0.010 A 
HETATM   24  C18 UNL     1       1.336  -4.817  42.385  1.00  0.00     0.043 A 
HETATM   25  C19 UNL     1       1.920  -5.324  41.267  1.00  0.00     0.116 A 
HETATM   26  F1  UNL     1       1.502  -6.470  40.669  1.00  0.00    -0.206 F 
HETATM   27  C20 UNL     1       2.997  -4.635  40.708  1.00  0.00     0.043 A 
HETATM   28  C21 UNL     1       3.459  -3.453  41.288  1.00  0.00     0.010 A 
ENDBRANCH  21  22
ENDBRANCH  20  21
ENDBRANCH  19  20
ENDBRANCH   1  19
BRANCH   1  29
HETATM   29  C22 UNL     1       6.073  -2.143  46.584  1.00  0.00     0.100 C 
BRANCH  29  30
HETATM   30  C23 UNL     1       6.500  -0.820  47.054  1.00  0.00     0.136 C 
HETATM   31  N2  UNL     1       5.629   0.153  47.213  1.00  0.00    -0.251 N 
ATOM     32  H2  UNL     1       5.924   1.073  47.540  1.00  0.00     0.196 HD
BRANCH  30  33
HETATM   33  O3  UNL     1       7.809  -0.465  47.367  1.00  0.00    -0.348 OA
ATOM     34  H3  UNL     1       8.440  -0.105  46.754  1.00  0.00     0.219 HD
ENDBRANCH  30  33
BRANCH  31  35
HETATM   35  O4  UNL     1       4.322  -0.105  46.929  1.00  0.00    -0.288 OA
ATOM     36  H4  UNL     1       3.907   0.398  46.239  1.00  0.00     0.244 HD
ENDBRANCH  31  35
ENDBRANCH  29  30
ENDBRANCH   1  29
TORSDOF 11
ENDMDL
MODEL 4
REMARK VINA RESULT: -8.711624467      0.781      1.233
REMARK  11 active torsions:
REMARK  status: ('A' for Active; 'I' for Inactive)
REMARK    1  A    between atoms: C2_2  and  O1_3 
REMARK    2  A    between atoms: C10_13  and  N1_14 
REMARK       I    between atoms: N1_14  and  C11_16 
REMARK    3  A    between atoms: C11_16  and  C12_18 
REMARK    4  A    between atoms: C12_18  and  C13_19 
REMARK    5  A    between atoms: C12_18  and  C22_29 
REMARK    6  A    between atoms: C13_19  and  C14_20 
REMARK    7  A    between atoms: C14_20  and  C15_21 
REMARK    8  A    between atoms: C15_21  and  C16_22 
REMARK    9  A    between atoms: C22_29  and  C23_30 
REMARK   10  A    between atoms: C23_30  and  O3_31 
REMARK   11  A    between atoms: N2_33  and  O4_35 
ROOT
HETATM    1  C12 UNL     1       6.857  -2.337  45.711  1.00  0.00     0.085 C 
ENDROOT
BRANCH   1   2
HETATM    2  C11 UNL     1       8.002  -3.040  45.158  1.00  0.00     0.222 C 
HETATM    3  N1  UNL     1       8.001  -3.517  43.799  1.00  0.00    -0.352 N 
ATOM      4  H1  UNL     1       7.183  -3.346  43.215  1.00  0.00     0.163 HD
HETATM    5  O2  UNL     1       8.997  -3.217  45.914  1.00  0.00    -0.273 OA
BRANCH   3   6
HETATM    6  C10 UNL     1       9.136  -4.237  43.233  1.00  0.00     0.129 C 
HETATM    7  C2  UNL     1       8.636  -5.333  42.335  1.00  0.00     0.122 C 
HETATM    8  C1  UNL     1       7.128  -5.592  42.602  1.00  0.00     0.060 C 
HETATM    9  S1  UNL     1       8.728  -5.005  40.593  1.00  0.00    -0.130 SA
HETATM   10  C3  UNL     1      10.228  -5.123  39.715  1.00  0.00     0.077 C 
HETATM   11  C4  UNL     1      11.326  -5.981  40.258  1.00  0.00     0.010 C 
HETATM   12  C5  UNL     1      12.414  -5.153  40.933  1.00  0.00     0.001 C 
HETATM   13  C6  UNL     1      12.616  -5.537  42.366  1.00  0.00     0.000 C 
HETATM   14  C7  UNL     1      12.199  -4.600  43.402  1.00  0.00     0.000 C 
HETATM   15  C8  UNL     1      11.520  -3.353  43.074  1.00  0.00     0.002 C 
HETATM   16  C9  UNL     1      10.118  -3.278  42.651  1.00  0.00     0.029 C 
BRANCH   7  17
HETATM   17  O1  UNL     1       9.170  -6.596  42.662  1.00  0.00    -0.378 OA
ATOM     18  H1  UNL     1       9.240  -6.980  41.795  1.00  0.00     0.211 HD
ENDBRANCH   7  17
ENDBRANCH   3   6
ENDBRANCH   1   2
BRANCH   1  19
HETATM   19  C13 UNL     1       5.532  -3.044  45.494  1.00  0.00     0.015 C 
BRANCH  19  20
HETATM   20  C14 UNL     1       4.568  -2.241  44.675  1.00  0.00     0.005 C 
BRANCH  20  21
HETATM   21  C15 UNL     1       4.312  -2.838  43.313  1.00  0.00     0.038 C 
BRANCH  21  22
HETATM   22  C16 UNL     1       3.042  -3.556  43.181  1.00  0.00    -0.058 A 
HETATM   23  C17 UNL     1       2.918  -4.457  42.128  1.00  0.00     0.010 A 
HETATM   24  C18 UNL     1       1.755  -5.184  41.900  1.00  0.00     0.043 A 
HETATM   25  C19 UNL     1       0.679  -5.030  42.717  1.00  0.00     0.116 A 
HETATM   26  F1  UNL     1      -0.483  -5.711  42.545  1.00  0.00    -0.206 F 
HETATM   27  C20 UNL     1       0.775  -4.133  43.781  1.00  0.00     0.043 A 
HETATM   28  C21 UNL     1       1.950  -3.412  43.997  1.00  0.00     0.010 A 
ENDBRANCH  21  22
ENDBRANCH  20  21
ENDBRANCH  19  20
ENDBRANCH   1  19
BRANCH   1  29
HETATM   29  C22 UNL     1       6.991  -1.901  47.142  1.00  0.00     0.100 C 
BRANCH  29  30
HETATM   30  C23 UNL     1       7.006  -0.439  47.267  1.00  0.00     0.136 C 
HETATM   31  N2  UNL     1       8.128   0.237  47.154  1.00  0.00    -0.251 N 
ATOM     32  H2  UNL     1       8.139   1.254  47.240  1.00  0.00     0.196 HD
BRANCH  30  33
HETATM   33  O3  UNL     1       5.888   0.355  47.508  1.00  0.00    -0.348 OA
ATOM     34  H3  UNL     1       5.893   1.304  47.566  1.00  0.00     0.219 HD
ENDBRANCH  30  33
BRANCH  31  35
HETATM   35  O4  UNL     1       9.275  -0.460  46.918  1.00  0.00    -0.288 OA
ATOM     36  H4  UNL     1       9.222  -1.233  46.369  1.00  0.00     0.244 HD
ENDBRANCH  31  35
ENDBRANCH  29  30
ENDBRANCH   1  29
TORSDOF 11
ENDMDL
MODEL 5
REMARK VINA RESULT: -8.664954961      3.983      6.131
REMARK  11 active torsions:
REMARK  status: ('A' for Active; 'I' for Inactive)
REMARK    1  A    between atoms: C2_2  and  O1_3 
REMARK    2  A    between atoms: C10_13  and  N1_14 
REMARK       I    between atoms: N1_14  and  C11_16 
REMARK    3  A    between atoms: C11_16  and  C12_18 
REMARK    4  A    between atoms: C12_18  and  C13_19 
REMARK    5  A    between atoms: C12_18  and  C22_29 
REMARK    6  A    between atoms: C13_19  and  C14_20 
REMARK    7  A    between atoms: C14_20  and  C15_21 
REMARK    8  A    between atoms: C15_21  and  C16_22 
REMARK    9  A    between atoms: C22_29  and  C23_30 
REMARK   10  A    between atoms: C23_30  and  O3_31 
REMARK   11  A    between atoms: N2_33  and  O4_35 
ROOT
HETATM    1  C12 UNL     1       3.430  -3.588  42.808  1.00  0.00     0.085 C 
ENDROOT
BRANCH   1   2
HETATM    2  C11 UNL     1       4.178  -4.022  41.641  1.00  0.00     0.222 C 
HETATM    3  N1  UNL     1       5.294  -4.925  41.761  1.00  0.00    -0.352 N 
ATOM      4  H1  UNL     1       5.553  -5.271  42.684  1.00  0.00     0.163 HD
HETATM    5  O2  UNL     1       3.814  -3.577  40.517  1.00  0.00    -0.273 OA
BRANCH   3   6
HETATM    6  C10 UNL     1       6.064  -5.359  40.602  1.00  0.00     0.129 C 
HETATM    7  C2  UNL     1       7.508  -4.986  40.792  1.00  0.00     0.122 C 
HETATM    8  C1  UNL     1       7.641  -3.944  41.936  1.00  0.00     0.060 C 
HETATM    9  S1  UNL     1       8.589  -6.310  41.269  1.00  0.00    -0.130 SA
HETATM   10  C3  UNL     1       9.161  -7.489  40.120  1.00  0.00     0.077 C 
HETATM   11  C4  UNL     1       9.194  -7.135  38.667  1.00  0.00     0.010 C 
HETATM   12  C5  UNL     1       8.029  -7.754  37.904  1.00  0.00     0.001 C 
HETATM   13  C6  UNL     1       7.183  -6.725  37.220  1.00  0.00     0.000 C 
HETATM   14  C7  UNL     1       5.841  -6.478  37.731  1.00  0.00     0.000 C 
HETATM   15  C8  UNL     1       5.347  -7.143  38.930  1.00  0.00     0.002 C 
HETATM   16  C9  UNL     1       5.768  -6.786  40.289  1.00  0.00     0.029 C 
BRANCH   7  17
HETATM   17  O1  UNL     1       8.029  -4.244  39.712  1.00  0.00    -0.378 OA
ATOM     18  H1  UNL     1       8.845  -4.709  39.565  1.00  0.00     0.211 HD
ENDBRANCH   7  17
ENDBRANCH   3   6
ENDBRANCH   1   2
BRANCH   1  19
HETATM   19  C13 UNL     1       2.928  -2.158  42.724  1.00  0.00     0.015 C 
BRANCH  19  20
HETATM   20  C14 UNL     1       3.672  -1.223  43.629  1.00  0.00     0.005 C 
BRANCH  20  21
HETATM   21  C15 UNL     1       3.765  -1.729  45.048  1.00  0.00     0.038 C 
BRANCH  21  22
HETATM   22  C16 UNL     1       5.117  -1.754  45.608  1.00  0.00    -0.058 A 
HETATM   23  C17 UNL     1       6.029  -2.646  45.050  1.00  0.00     0.010 A 
HETATM   24  C18 UNL     1       7.336  -2.764  45.509  1.00  0.00     0.043 A 
HETATM   25  C19 UNL     1       7.771  -1.994  46.542  1.00  0.00     0.116 A 
HETATM   26  F1  UNL     1       9.035  -2.064  47.033  1.00  0.00    -0.206 F 
HETATM   27  C20 UNL     1       6.879  -1.091  47.121  1.00  0.00     0.043 A 
HETATM   28  C21 UNL     1       5.571  -0.985  46.647  1.00  0.00     0.010 A 
ENDBRANCH  21  22
ENDBRANCH  20  21
ENDBRANCH  19  20
ENDBRANCH   1  19
BRANCH   1  29
HETATM   29  C22 UNL     1       2.329  -4.506  43.252  1.00  0.00     0.100 C 
BRANCH  29  30
HETATM   30  C23 UNL     1       1.049  -4.169  42.619  1.00  0.00     0.136 C 
HETATM   31  N2  UNL     1       0.022  -3.775  43.339  1.00  0.00    -0.251 N 
ATOM     32  H2  UNL     1      -0.868  -3.540  42.900  1.00  0.00     0.196 HD
BRANCH  30  33
HETATM   33  O3  UNL     1       0.793  -4.226  41.251  1.00  0.00    -0.348 OA
ATOM     34  H3  UNL     1       1.072  -3.578  40.615  1.00  0.00     0.219 HD
ENDBRANCH  30  33
BRANCH  31  35
HETATM   35  O4  UNL     1       0.182  -3.691  44.690  1.00  0.00    -0.288 OA
ATOM     36  H4  UNL     1      -0.594  -3.573  45.225  1.00  0.00     0.244 HD
ENDBRANCH  31  35
ENDBRANCH  29  30
ENDBRANCH   1  29
TORSDOF 11
ENDMDL
