MODEL 1
REMARK VINA RESULT: -8.738612853      0.000      0.000
REMARK  9 active torsions:
REMARK  status: ('A' for Active; 'I' for Inactive)
REMARK    1  A    between atoms: N1_2  and  C3_4 
REMARK    2  A    between atoms: C3_4  and  C4_5 
REMARK       I    between atoms: C4_5  and  N2_7 
REMARK    3  A    between atoms: C12_17  and  N3_18 
REMARK       I    between atoms: N3_18  and  C13_20 
REMARK    4  A    between atoms: C13_20  and  C14_22 
REMARK    5  A    between atoms: C19_29  and  C20_30 
REMARK    6  A    between atoms: C20_30  and  N4_31 
REMARK    7  A    between atoms: N4_31  and  C22_33 
REMARK    8  A    between atoms: C22_33  and  C23_34 
REMARK    9  A    between atoms: C29_40  and  C30_41 
ROOT
HETATM    1  C4  UNL     1      23.322 -15.597  -6.940  1.00  0.00     0.255 C 
HETATM    2  O1  UNL     1      22.750 -15.314  -8.025  1.00  0.00    -0.271 OA
HETATM    3  N2  UNL     1      22.693 -16.412  -5.969  1.00  0.00    -0.282 N 
HETATM    4  C5  UNL     1      23.443 -16.672  -4.762  1.00  0.00     0.138 C 
HETATM    5  C6  UNL     1      22.485 -16.445  -3.616  1.00  0.00     0.058 C 
HETATM    6  C7  UNL     1      21.994 -17.674  -2.940  1.00  0.00     0.062 C 
HETATM    7  C8  UNL     1      21.646 -17.218  -1.503  1.00  0.00     0.046 C 
HETATM    8  C9  UNL     1      23.099 -18.715  -2.719  1.00  0.00     0.046 C 
HETATM    9  O2  UNL     1      20.856 -18.275  -3.457  1.00  0.00    -0.338 OA
HETATM   10  C10 UNL     1      20.130 -18.426  -4.672  1.00  0.00     0.112 A 
HETATM   11  C11 UNL     1      20.402 -17.803  -5.857  1.00  0.00     0.109 A 
HETATM   12  S1  UNL     1      19.202 -18.382  -6.905  1.00  0.00    -0.063 SA
HETATM   13  C12 UNL     1      18.366 -19.421  -5.799  1.00  0.00     0.097 A 
HETATM   14  C29 UNL     1      19.066 -19.271  -4.643  1.00  0.00     0.109 A 
HETATM   15  C31 UNL     1      21.405 -16.841  -6.369  1.00  0.00     0.270 C 
HETATM   16  O8  UNL     1      20.938 -16.308  -7.424  1.00  0.00    -0.266 OA
ENDROOT
BRANCH  13  17
HETATM   17  N3  UNL     1      17.199 -20.210  -6.129  1.00  0.00    -0.318 N 
HETATM   18  C13 UNL     1      15.923 -19.780  -5.675  1.00  0.00     0.252 C 
HETATM   19  O3  UNL     1      15.853 -18.725  -5.005  1.00  0.00    -0.270 OA
ATOM     20  H3  UNL     1      17.292 -21.063  -6.680  1.00  0.00     0.169 HD
BRANCH  18  21
HETATM   21  C14 UNL     1      14.682 -20.509  -5.947  1.00  0.00     0.229 C 
HETATM   22  O4  UNL     1      13.887 -19.842  -6.936  1.00  0.00    -0.305 OA
HETATM   23  C15 UNL     1      14.222 -20.347  -8.187  1.00  0.00     0.268 C 
HETATM   24  O5  UNL     1      14.357 -19.653  -9.218  1.00  0.00    -0.264 OA
HETATM   25  C16 UNL     1      14.360 -21.808  -7.972  1.00  0.00     0.051 C 
HETATM   26  C17 UNL     1      15.265 -22.368  -9.014  1.00  0.00     0.026 C 
HETATM   27  C18 UNL     1      13.008 -22.430  -7.906  1.00  0.00     0.026 C 
HETATM   28  C28 UNL     1      14.932 -21.861  -6.571  1.00  0.00     0.043 C 
HETATM   29  C19 UNL     1      12.854 -23.140  -6.591  1.00  0.00     0.015 C 
HETATM   30  C27 UNL     1      14.182 -22.959  -5.899  1.00  0.00     0.015 C 
BRANCH  29  31
HETATM   31  C20 UNL     1      12.680 -24.611  -6.845  1.00  0.00     0.276 C 
BRANCH  31  32
HETATM   32  N4  UNL     1      11.889 -25.279  -5.791  1.00  0.00     0.085 N 
HETATM   33  C21 UNL     1      11.045 -26.215  -6.532  1.00  0.00     0.309 C 
BRANCH  32  34
HETATM   34  C22 UNL     1      12.751 -26.000  -4.908  1.00  0.00     0.280 C 
BRANCH  34  35
HETATM   35  C23 UNL     1      12.758 -25.618  -3.480  1.00  0.00    -0.025 C 
HETATM   36  C24 UNL     1      14.233 -25.306  -3.121  1.00  0.00     0.016 C 
HETATM   37  C25 UNL     1      12.031 -24.305  -3.218  1.00  0.00     0.016 C 
HETATM   38  C26 UNL     1      12.273 -26.603  -2.481  1.00  0.00     0.016 C 
ENDBRANCH  34  35
ENDBRANCH  32  34
ENDBRANCH  31  32
ENDBRANCH  29  31
ENDBRANCH  18  21
ENDBRANCH  13  17
BRANCH  14  39
HETATM   39  C30 UNL     1      18.677 -20.016  -3.399  1.00  0.00     0.215 C 
HETATM   40  O6  UNL     1      18.732 -21.258  -3.406  1.00  0.00    -0.644 OA
HETATM   41  O7  UNL     1      18.264 -19.395  -2.252  1.00  0.00    -0.644 OA
ENDBRANCH  14  39
BRANCH   1  42
HETATM   42  C3  UNL     1      24.676 -15.057  -6.696  1.00  0.00     0.374 C 
BRANCH  42  43
HETATM   43  N1  UNL     1      25.701 -15.683  -7.502  1.00  0.00     0.088 N 
HETATM   44  C1  UNL     1      26.326 -16.798  -6.864  1.00  0.00     0.310 C 
HETATM   45  C2  UNL     1      26.603 -14.690  -7.994  1.00  0.00     0.310 C 
ENDBRANCH  42  43
ENDBRANCH   1  42
TORSDOF 9
ENDMDL
MODEL 2
REMARK VINA RESULT: -8.731325833      3.836     12.599
REMARK  9 active torsions:
REMARK  status: ('A' for Active; 'I' for Inactive)
REMARK    1  A    between atoms: N1_2  and  C3_4 
REMARK    2  A    between atoms: C3_4  and  C4_5 
REMARK       I    between atoms: C4_5  and  N2_7 
REMARK    3  A    between atoms: C12_17  and  N3_18 
REMARK       I    between atoms: N3_18  and  C13_20 
REMARK    4  A    between atoms: C13_20  and  C14_22 
REMARK    5  A    between atoms: C19_29  and  C20_30 
REMARK    6  A    between atoms: C20_30  and  N4_31 
REMARK    7  A    between atoms: N4_31  and  C22_33 
REMARK    8  A    between atoms: C22_33  and  C23_34 
REMARK    9  A    between atoms: C29_40  and  C30_41 
ROOT
HETATM    1  C4  UNL     1      10.846 -29.177  -6.634  1.00  0.00     0.255 C 
HETATM    2  O1  UNL     1      10.835 -29.092  -5.379  1.00  0.00    -0.271 OA
HETATM    3  N2  UNL     1      11.075 -28.040  -7.446  1.00  0.00    -0.282 N 
HETATM    4  C5  UNL     1      11.066 -28.256  -8.875  1.00  0.00     0.138 C 
HETATM    5  C6  UNL     1      10.213 -27.154  -9.460  1.00  0.00     0.058 C 
HETATM    6  C7  UNL     1      10.954 -26.077 -10.163  1.00  0.00     0.062 C 
HETATM    7  C8  UNL     1       9.944 -25.514 -11.190  1.00  0.00     0.046 C 
HETATM    8  C9  UNL     1      12.090 -26.612 -11.046  1.00  0.00     0.046 C 
HETATM    9  O2  UNL     1      11.395 -25.004  -9.403  1.00  0.00    -0.338 OA
HETATM   10  C10 UNL     1      11.782 -24.663  -8.076  1.00  0.00     0.112 A 
HETATM   11  C11 UNL     1      11.713 -25.477  -6.982  1.00  0.00     0.109 A 
HETATM   12  S1  UNL     1      12.307 -24.512  -5.721  1.00  0.00    -0.063 SA
HETATM   13  C12 UNL     1      12.638 -23.072  -6.624  1.00  0.00     0.097 A 
HETATM   14  C29 UNL     1      12.266 -23.407  -7.888  1.00  0.00     0.109 A 
HETATM   15  C31 UNL     1      11.281 -26.863  -6.688  1.00  0.00     0.270 C 
HETATM   16  O8  UNL     1      11.061 -26.952  -5.440  1.00  0.00    -0.266 OA
ENDROOT
BRANCH  13  17
HETATM   17  N3  UNL     1      13.173 -21.850  -6.064  1.00  0.00    -0.318 N 
HETATM   18  C13 UNL     1      14.520 -21.493  -6.346  1.00  0.00     0.252 C 
HETATM   19  O3  UNL     1      15.197 -22.251  -7.077  1.00  0.00    -0.270 OA
ATOM     20  H3  UNL     1      12.592 -21.254  -5.475  1.00  0.00     0.169 HD
BRANCH  18  21
HETATM   21  C14 UNL     1      15.161 -20.284  -5.823  1.00  0.00     0.229 C 
HETATM   22  O4  UNL     1      14.992 -20.172  -4.403  1.00  0.00    -0.305 OA
HETATM   23  C15 UNL     1      16.077 -20.776  -3.779  1.00  0.00     0.268 C 
HETATM   24  O5  UNL     1      15.997 -21.499  -2.763  1.00  0.00    -0.264 OA
HETATM   25  C16 UNL     1      17.249 -20.357  -4.587  1.00  0.00     0.051 C 
HETATM   26  C17 UNL     1      18.335 -21.363  -4.420  1.00  0.00     0.026 C 
HETATM   27  C18 UNL     1      17.620 -18.959  -4.234  1.00  0.00     0.026 C 
HETATM   28  C28 UNL     1      16.662 -20.314  -5.982  1.00  0.00     0.043 C 
HETATM   29  C19 UNL     1      17.573 -18.109  -5.471  1.00  0.00     0.015 C 
HETATM   30  C27 UNL     1      17.208 -19.063  -6.581  1.00  0.00     0.015 C 
BRANCH  29  31
HETATM   31  C20 UNL     1      18.953 -17.591  -5.764  1.00  0.00     0.276 C 
BRANCH  31  32
HETATM   32  N4  UNL     1      20.013 -18.533  -5.346  1.00  0.00     0.085 N 
HETATM   33  C21 UNL     1      20.689 -18.870  -6.598  1.00  0.00     0.309 C 
BRANCH  32  34
HETATM   34  C22 UNL     1      20.929 -17.885  -4.461  1.00  0.00     0.280 C 
BRANCH  34  35
HETATM   35  C23 UNL     1      21.322 -18.597  -3.227  1.00  0.00    -0.025 C 
HETATM   36  C24 UNL     1      22.686 -18.000  -2.797  1.00  0.00     0.016 C 
HETATM   37  C25 UNL     1      20.402 -18.291  -2.052  1.00  0.00     0.016 C 
HETATM   38  C26 UNL     1      21.498 -20.070  -3.284  1.00  0.00     0.016 C 
ENDBRANCH  34  35
ENDBRANCH  32  34
ENDBRANCH  31  32
ENDBRANCH  29  31
ENDBRANCH  18  21
ENDBRANCH  13  17
BRANCH  14  39
HETATM   39  C30 UNL     1      12.394 -22.428  -9.020  1.00  0.00     0.215 C 
HETATM   40  O6  UNL     1      11.635 -21.443  -9.045  1.00  0.00    -0.644 OA
HETATM   41  O7  UNL     1      13.308 -22.564 -10.028  1.00  0.00    -0.644 OA
ENDBRANCH  14  39
BRANCH   1  42
HETATM   42  C3  UNL     1      10.612 -30.500  -7.252  1.00  0.00     0.374 C 
BRANCH  42  43
HETATM   43  N1  UNL     1       9.349 -31.097  -6.877  1.00  0.00     0.088 N 
HETATM   44  C1  UNL     1       9.350 -32.525  -6.948  1.00  0.00     0.310 C 
HETATM   45  C2  UNL     1       8.284 -30.461  -7.586  1.00  0.00     0.310 C 
ENDBRANCH  42  43
ENDBRANCH   1  42
TORSDOF 9
ENDMDL
MODEL 3
REMARK VINA RESULT: -8.596572096      0.878      1.084
REMARK  9 active torsions:
REMARK  status: ('A' for Active; 'I' for Inactive)
REMARK    1  A    between atoms: N1_2  and  C3_4 
REMARK    2  A    between atoms: C3_4  and  C4_5 
REMARK       I    between atoms: C4_5  and  N2_7 
REMARK    3  A    between atoms: C12_17  and  N3_18 
REMARK       I    between atoms: N3_18  and  C13_20 
REMARK    4  A    between atoms: C13_20  and  C14_22 
REMARK    5  A    between atoms: C19_29  and  C20_30 
REMARK    6  A    between atoms: C20_30  and  N4_31 
REMARK    7  A    between atoms: N4_31  and  C22_33 
REMARK    8  A    between atoms: C22_33  and  C23_34 
REMARK    9  A    between atoms: C29_40  and  C30_41 
ROOT
HETATM    1  C4  UNL     1      23.345 -16.284  -7.319  1.00  0.00     0.255 C 
HETATM    2  O1  UNL     1      22.763 -15.834  -8.340  1.00  0.00    -0.271 OA
HETATM    3  N2  UNL     1      22.621 -16.905  -6.273  1.00  0.00    -0.282 N 
HETATM    4  C5  UNL     1      23.394 -17.385  -5.151  1.00  0.00     0.138 C 
HETATM    5  C6  UNL     1      22.668 -16.916  -3.911  1.00  0.00     0.058 C 
HETATM    6  C7  UNL     1      21.927 -17.968  -3.168  1.00  0.00     0.062 C 
HETATM    7  C8  UNL     1      21.879 -17.456  -1.709  1.00  0.00     0.046 C 
HETATM    8  C9  UNL     1      22.712 -19.281  -3.053  1.00  0.00     0.046 C 
HETATM    9  O2  UNL     1      20.617 -18.216  -3.550  1.00  0.00    -0.338 OA
HETATM   10  C10 UNL     1      19.751 -18.136  -4.677  1.00  0.00     0.112 A 
HETATM   11  C11 UNL     1      20.058 -17.597  -5.893  1.00  0.00     0.109 A 
HETATM   12  S1  UNL     1      18.637 -17.797  -6.796  1.00  0.00    -0.063 SA
HETATM   13  C12 UNL     1      17.667 -18.576  -5.591  1.00  0.00     0.097 A 
HETATM   14  C29 UNL     1      18.502 -18.648  -4.520  1.00  0.00     0.109 A 
HETATM   15  C31 UNL     1      21.229 -16.947  -6.526  1.00  0.00     0.270 C 
HETATM   16  O8  UNL     1      20.820 -16.287  -7.531  1.00  0.00    -0.266 OA
ENDROOT
BRANCH  13  17
HETATM   17  N3  UNL     1      16.297 -19.000  -5.781  1.00  0.00    -0.318 N 
HETATM   18  C13 UNL     1      16.039 -20.313  -6.261  1.00  0.00     0.252 C 
HETATM   19  O3  UNL     1      17.014 -21.061  -6.499  1.00  0.00    -0.270 OA
ATOM     20  H3  UNL     1      15.526 -18.365  -5.573  1.00  0.00     0.169 HD
BRANCH  18  21
HETATM   21  C14 UNL     1      14.692 -20.837  -6.495  1.00  0.00     0.229 C 
HETATM   22  O4  UNL     1      13.985 -20.054  -7.466  1.00  0.00    -0.305 OA
HETATM   23  C15 UNL     1      14.202 -20.606  -8.723  1.00  0.00     0.268 C 
HETATM   24  O5  UNL     1      14.416 -19.942  -9.761  1.00  0.00    -0.264 OA
HETATM   25  C16 UNL     1      14.114 -22.070  -8.505  1.00  0.00     0.051 C 
HETATM   26  C17 UNL     1      14.891 -22.765  -9.569  1.00  0.00     0.026 C 
HETATM   27  C18 UNL     1      12.684 -22.472  -8.399  1.00  0.00     0.026 C 
HETATM   28  C28 UNL     1      14.709 -22.212  -7.120  1.00  0.00     0.043 C 
HETATM   29  C19 UNL     1      12.457 -23.149  -7.078  1.00  0.00     0.015 C 
HETATM   30  C27 UNL     1      13.815 -23.179  -6.422  1.00  0.00     0.015 C 
BRANCH  29  31
HETATM   31  C20 UNL     1      12.046 -24.574  -7.320  1.00  0.00     0.276 C 
BRANCH  31  32
HETATM   32  N4  UNL     1      11.558 -25.239  -6.095  1.00  0.00     0.085 N 
HETATM   33  C21 UNL     1      10.733 -26.335  -6.601  1.00  0.00     0.309 C 
BRANCH  32  34
HETATM   34  C22 UNL     1      12.656 -25.767  -5.348  1.00  0.00     0.280 C 
BRANCH  34  35
HETATM   35  C23 UNL     1      12.662 -25.560  -3.884  1.00  0.00    -0.025 C 
HETATM   36  C24 UNL     1      14.149 -25.590  -3.448  1.00  0.00     0.016 C 
HETATM   37  C25 UNL     1      12.191 -24.168  -3.484  1.00  0.00     0.016 C 
HETATM   38  C26 UNL     1      11.945 -26.537  -3.027  1.00  0.00     0.016 C 
ENDBRANCH  34  35
ENDBRANCH  32  34
ENDBRANCH  31  32
ENDBRANCH  29  31
ENDBRANCH  18  21
ENDBRANCH  13  17
BRANCH  14  39
HETATM   39  C30 UNL     1      18.056 -19.274  -3.230  1.00  0.00     0.215 C 
HETATM   40  O6  UNL     1      18.230 -18.645  -2.171  1.00  0.00    -0.644 OA
HETATM   41  O7  UNL     1      17.464 -20.505  -3.159  1.00  0.00    -0.644 OA
ENDBRANCH  14  39
BRANCH   1  42
HETATM   42  C3  UNL     1      24.815 -16.151  -7.231  1.00  0.00     0.374 C 
BRANCH  42  43
HETATM   43  N1  UNL     1      25.275 -14.780  -7.287  1.00  0.00     0.088 N 
HETATM   44  C1  UNL     1      26.531 -14.626  -7.951  1.00  0.00     0.310 C 
HETATM   45  C2  UNL     1      25.208 -14.196  -5.985  1.00  0.00     0.310 C 
ENDBRANCH  42  43
ENDBRANCH   1  42
TORSDOF 9
ENDMDL
MODEL 4
REMARK VINA RESULT: -8.468589552      3.535     12.764
REMARK  9 active torsions:
REMARK  status: ('A' for Active; 'I' for Inactive)
REMARK    1  A    between atoms: N1_2  and  C3_4 
REMARK    2  A    between atoms: C3_4  and  C4_5 
REMARK       I    between atoms: C4_5  and  N2_7 
REMARK    3  A    between atoms: C12_17  and  N3_18 
REMARK       I    between atoms: N3_18  and  C13_20 
REMARK    4  A    between atoms: C13_20  and  C14_22 
REMARK    5  A    between atoms: C19_29  and  C20_30 
REMARK    6  A    between atoms: C20_30  and  N4_31 
REMARK    7  A    between atoms: N4_31  and  C22_33 
REMARK    8  A    between atoms: C22_33  and  C23_34 
REMARK    9  A    between atoms: C29_40  and  C30_41 
ROOT
HETATM    1  C4  UNL     1      10.683 -28.685  -6.522  1.00  0.00     0.255 C 
HETATM    2  O1  UNL     1      10.694 -28.551  -5.270  1.00  0.00    -0.271 OA
HETATM    3  N2  UNL     1      11.029 -27.612  -7.378  1.00  0.00    -0.282 N 
HETATM    4  C5  UNL     1      10.983 -27.880  -8.797  1.00  0.00     0.138 C 
HETATM    5  C6  UNL     1      10.252 -26.713  -9.420  1.00  0.00     0.058 C 
HETATM    6  C7  UNL     1      11.101 -25.752 -10.169  1.00  0.00     0.062 C 
HETATM    7  C8  UNL     1      10.149 -25.120 -11.212  1.00  0.00     0.046 C 
HETATM    8  C9  UNL     1      12.162 -26.443 -11.036  1.00  0.00     0.046 C 
HETATM    9  O2  UNL     1      11.664 -24.706  -9.453  1.00  0.00    -0.338 OA
HETATM   10  C10 UNL     1      12.099 -24.360  -8.143  1.00  0.00     0.112 A 
HETATM   11  C11 UNL     1      11.951 -25.119  -7.017  1.00  0.00     0.109 A 
HETATM   12  S1  UNL     1      12.659 -24.179  -5.797  1.00  0.00    -0.063 SA
HETATM   13  C12 UNL     1      13.139 -22.819  -6.758  1.00  0.00     0.097 A 
HETATM   14  C29 UNL     1      12.720 -23.159  -8.006  1.00  0.00     0.109 A 
HETATM   15  C31 UNL     1      11.371 -26.437  -6.668  1.00  0.00     0.270 C 
HETATM   16  O8  UNL     1      11.154 -26.453  -5.416  1.00  0.00    -0.266 OA
ENDROOT
BRANCH  13  17
HETATM   17  N3  UNL     1      13.811 -21.644  -6.248  1.00  0.00    -0.318 N 
HETATM   18  C13 UNL     1      15.203 -21.486  -6.488  1.00  0.00     0.252 C 
HETATM   19  O3  UNL     1      15.800 -22.373  -7.139  1.00  0.00    -0.270 OA
ATOM     20  H3  UNL     1      13.293 -20.939  -5.725  1.00  0.00     0.169 HD
BRANCH  18  21
HETATM   21  C14 UNL     1      15.980 -20.340  -6.009  1.00  0.00     0.229 C 
HETATM   22  O4  UNL     1      15.512 -19.884  -4.733  1.00  0.00    -0.305 OA
HETATM   23  C15 UNL     1      16.235 -20.534  -3.739  1.00  0.00     0.268 C 
HETATM   24  O5  UNL     1      15.740 -20.983  -2.682  1.00  0.00    -0.264 OA
HETATM   25  C16 UNL     1      17.630 -20.542  -4.241  1.00  0.00     0.051 C 
HETATM   26  C17 UNL     1      18.364 -21.677  -3.614  1.00  0.00     0.026 C 
HETATM   27  C18 UNL     1      18.241 -19.200  -4.031  1.00  0.00     0.026 C 
HETATM   28  C28 UNL     1      17.421 -20.696  -5.733  1.00  0.00     0.043 C 
HETATM   29  C19 UNL     1      18.700 -18.653  -5.352  1.00  0.00     0.015 C 
HETATM   30  C27 UNL     1      18.384 -19.740  -6.349  1.00  0.00     0.015 C 
BRANCH  29  31
HETATM   31  C20 UNL     1      20.194 -18.493  -5.325  1.00  0.00     0.276 C 
BRANCH  31  32
HETATM   32  N4  UNL     1      20.616 -17.087  -5.496  1.00  0.00     0.085 N 
HETATM   33  C21 UNL     1      21.033 -16.685  -4.153  1.00  0.00     0.309 C 
BRANCH  32  34
HETATM   34  C22 UNL     1      21.728 -17.010  -6.391  1.00  0.00     0.280 C 
BRANCH  34  35
HETATM   35  C23 UNL     1      21.449 -16.954  -7.841  1.00  0.00    -0.025 C 
HETATM   36  C24 UNL     1      22.403 -15.881  -8.425  1.00  0.00     0.016 C 
HETATM   37  C25 UNL     1      21.846 -18.232  -8.568  1.00  0.00     0.016 C 
HETATM   38  C26 UNL     1      20.079 -16.596  -8.286  1.00  0.00     0.016 C 
ENDBRANCH  34  35
ENDBRANCH  32  34
ENDBRANCH  31  32
ENDBRANCH  29  31
ENDBRANCH  18  21
ENDBRANCH  13  17
BRANCH  14  39
HETATM   39  C30 UNL     1      12.945 -22.244  -9.175  1.00  0.00     0.215 C 
HETATM   40  O6  UNL     1      12.349 -21.153  -9.202  1.00  0.00    -0.644 OA
HETATM   41  O7  UNL     1      13.777 -22.551 -10.217  1.00  0.00    -0.644 OA
ENDBRANCH  14  39
BRANCH   1  42
HETATM   42  C3  UNL     1      10.299 -29.996  -7.087  1.00  0.00     0.374 C 
BRANCH  42  43
HETATM   43  N1  UNL     1       8.990 -30.445  -6.665  1.00  0.00     0.088 N 
HETATM   44  C1  UNL     1       8.812 -31.859  -6.765  1.00  0.00     0.310 C 
HETATM   45  C2  UNL     1       7.982 -29.666  -7.313  1.00  0.00     0.310 C 
ENDBRANCH  42  43
ENDBRANCH   1  42
TORSDOF 9
ENDMDL
MODEL 5
REMARK VINA RESULT: -8.402392366      2.241      3.705
REMARK  9 active torsions:
REMARK  status: ('A' for Active; 'I' for Inactive)
REMARK    1  A    between atoms: N1_2  and  C3_4 
REMARK    2  A    between atoms: C3_4  and  C4_5 
REMARK       I    between atoms: C4_5  and  N2_7 
REMARK    3  A    between atoms: C12_17  and  N3_18 
REMARK       I    between atoms: N3_18  and  C13_20 
REMARK    4  A    between atoms: C13_20  and  C14_22 
REMARK    5  A    between atoms: C19_29  and  C20_30 
REMARK    6  A    between atoms: C20_30  and  N4_31 
REMARK    7  A    between atoms: N4_31  and  C22_33 
REMARK    8  A    between atoms: C22_33  and  C23_34 
REMARK    9  A    between atoms: C29_40  and  C30_41 
ROOT
HETATM    1  C4  UNL     1      25.109 -17.977  -2.921  1.00  0.00     0.255 C 
HETATM    2  O1  UNL     1      25.102 -18.928  -2.097  1.00  0.00    -0.271 OA
HETATM    3  N2  UNL     1      23.982 -17.700  -3.732  1.00  0.00    -0.282 N 
HETATM    4  C5  UNL     1      24.101 -16.583  -4.641  1.00  0.00     0.138 C 
HETATM    5  C6  UNL     1      23.580 -17.070  -5.973  1.00  0.00     0.058 C 
HETATM    6  C7  UNL     1      22.242 -16.558  -6.363  1.00  0.00     0.062 C 
HETATM    7  C8  UNL     1      22.241 -16.603  -7.909  1.00  0.00     0.046 C 
HETATM    8  C9  UNL     1      22.061 -15.065  -6.055  1.00  0.00     0.046 C 
HETATM    9  O2  UNL     1      21.135 -17.278  -5.939  1.00  0.00    -0.338 OA
HETATM   10  C10 UNL     1      20.707 -18.156  -4.903  1.00  0.00     0.112 A 
HETATM   11  C11 UNL     1      21.489 -18.673  -3.910  1.00  0.00     0.109 A 
HETATM   12  S1  UNL     1      20.419 -19.629  -3.007  1.00  0.00    -0.063 SA
HETATM   13  C12 UNL     1      18.976 -19.346  -3.923  1.00  0.00     0.097 A 
HETATM   14  C29 UNL     1      19.394 -18.507  -4.909  1.00  0.00     0.109 A 
HETATM   15  C31 UNL     1      22.909 -18.592  -3.496  1.00  0.00     0.270 C 
HETATM   16  O8  UNL     1      23.160 -19.589  -2.750  1.00  0.00    -0.266 OA
ENDROOT
BRANCH  13  17
HETATM   17  N3  UNL     1      17.683 -19.925  -3.628  1.00  0.00    -0.318 N 
HETATM   18  C13 UNL     1      17.345 -21.183  -4.195  1.00  0.00     0.252 C 
HETATM   19  O3  UNL     1      18.184 -21.751  -4.930  1.00  0.00    -0.270 OA
ATOM     20  H3  UNL     1      17.025 -19.436  -3.021  1.00  0.00     0.169 HD
BRANCH  18  21
HETATM   21  C14 UNL     1      16.062 -21.852  -3.966  1.00  0.00     0.229 C 
HETATM   22  O4  UNL     1      14.958 -20.980  -4.243  1.00  0.00    -0.305 OA
HETATM   23  C15 UNL     1      14.582 -21.150  -5.571  1.00  0.00     0.268 C 
HETATM   24  O5  UNL     1      14.266 -20.218  -6.342  1.00  0.00    -0.264 OA
HETATM   25  C16 UNL     1      14.656 -22.614  -5.793  1.00  0.00     0.051 C 
HETATM   26  C17 UNL     1      14.870 -22.874  -7.244  1.00  0.00     0.026 C 
HETATM   27  C18 UNL     1      13.454 -23.267  -5.203  1.00  0.00     0.026 C 
HETATM   28  C28 UNL     1      15.832 -23.000  -4.921  1.00  0.00     0.043 C 
HETATM   29  C19 UNL     1      13.892 -24.285  -4.190  1.00  0.00     0.015 C 
HETATM   30  C27 UNL     1      15.399 -24.250  -4.235  1.00  0.00     0.015 C 
BRANCH  29  31
HETATM   31  C20 UNL     1      13.464 -25.650  -4.650  1.00  0.00     0.276 C 
BRANCH  31  32
HETATM   32  N4  UNL     1      12.354 -26.199  -3.842  1.00  0.00     0.085 N 
HETATM   33  C21 UNL     1      12.336 -25.346  -2.655  1.00  0.00     0.309 C 
BRANCH  32  34
HETATM   34  C22 UNL     1      11.119 -26.071  -4.549  1.00  0.00     0.280 C 
BRANCH  34  35
HETATM   35  C23 UNL     1      10.516 -27.295  -5.118  1.00  0.00    -0.025 C 
HETATM   36  C24 UNL     1      10.139 -28.194  -3.913  1.00  0.00     0.016 C 
HETATM   37  C25 UNL     1       9.183 -27.029  -5.808  1.00  0.00     0.016 C 
HETATM   38  C26 UNL     1      11.334 -28.128  -6.035  1.00  0.00     0.016 C 
ENDBRANCH  34  35
ENDBRANCH  32  34
ENDBRANCH  31  32
ENDBRANCH  29  31
ENDBRANCH  18  21
ENDBRANCH  13  17
BRANCH  14  39
HETATM   39  C30 UNL     1      18.439 -17.993  -5.947  1.00  0.00     0.215 C 
HETATM   40  O6  UNL     1      17.314 -17.608  -5.583  1.00  0.00    -0.644 OA
HETATM   41  O7  UNL     1      18.744 -17.927  -7.278  1.00  0.00    -0.644 OA
ENDBRANCH  14  39
BRANCH   1  42
HETATM   42  C3  UNL     1      26.326 -17.146  -3.028  1.00  0.00     0.374 C 
BRANCH  42  43
HETATM   43  N1  UNL     1      27.392 -17.776  -3.776  1.00  0.00     0.088 N 
HETATM   44  C1  UNL     1      28.433 -18.304  -2.953  1.00  0.00     0.310 C 
HETATM   45  C2  UNL     1      27.834 -16.901  -4.816  1.00  0.00     0.310 C 
ENDBRANCH  42  43
ENDBRANCH   1  42
TORSDOF 9
ENDMDL
