MODEL 1
REMARK VINA RESULT: -9.484872268      0.000      0.000
REMARK  11 active torsions:
REMARK  status: ('A' for Active; 'I' for Inactive)
REMARK    1  A    between atoms: C9_9  and  C10_10 
REMARK    2  A    between atoms: C10_10  and  C11_11 
REMARK    3  A    between atoms: C11_11  and  C12_12 
REMARK    4  A    between atoms: C12_12  and  C13_13 
REMARK    5  A    between atoms: C20_21  and  O2_22 
REMARK    6  A    between atoms: O2_22  and  C21_23 
REMARK    7  A    between atoms: C24_27  and  O4_28 
REMARK    8  A    between atoms: C25_30  and  O5_31 
REMARK    9  A    between atoms: C27_33  and  O6_34 
REMARK   10  A    between atoms: C29_37  and  C30_38 
REMARK   11  A    between atoms: C30_38  and  O8_40 
ROOT
HETATM    1  C1  UNL     1      11.360 -23.984  -7.433  1.00  0.00     0.012 C 
HETATM    2  C2  UNL     1      11.983 -23.763  -6.413  1.00  0.00    -0.111 C 
HETATM    3  C3  UNL     1      12.712 -23.482  -5.181  1.00  0.00     0.082 A 
HETATM    4  C4  UNL     1      14.131 -23.023  -5.438  1.00  0.00     0.014 A 
HETATM    5  C5  UNL     1      15.038 -23.871  -4.566  1.00  0.00     0.009 A 
HETATM    6  C6  UNL     1      14.191 -24.919  -3.926  1.00  0.00     0.009 A 
HETATM    7  C7  UNL     1      14.128 -26.164  -4.811  1.00  0.00     0.041 C 
HETATM    8  C8  UNL     1      12.662 -25.997  -4.989  1.00  0.00    -0.073 C 
HETATM    9  C9  UNL     1      11.696 -26.726  -5.512  1.00  0.00    -0.023 C 
HETATM   10  C15 UNL     1      12.763 -24.688  -4.310  1.00  0.00    -0.002 A 
HETATM   11  C16 UNL     1      11.771 -24.690  -3.138  1.00  0.00     0.021 C 
HETATM   12  C17 UNL     1      15.398 -22.672  -3.729  1.00  0.00    -0.015 A 
HETATM   13  C18 UNL     1      14.906 -22.713  -2.284  1.00  0.00     0.020 C 
HETATM   14  C19 UNL     1      16.829 -22.291  -3.752  1.00  0.00     0.016 C 
HETATM   15  C20 UNL     1      17.397 -21.601  -4.707  1.00  0.00     0.053 C 
HETATM   16  C28 UNL     1      16.508 -21.194  -5.832  1.00  0.00     0.075 C 
HETATM   17  C29 UNL     1      17.184 -20.449  -6.916  1.00  0.00     0.170 C 
HETATM   18  C32 UNL     1      16.200 -20.236  -8.011  1.00  0.00     0.163 C 
HETATM   19  O9  UNL     1      16.615 -20.228  -9.187  1.00  0.00    -0.292 OA
HETATM   20  C33 UNL     1      14.812 -20.050  -7.653  1.00  0.00     0.048 C 
HETATM   21  C34 UNL     1      14.353 -20.256  -6.425  1.00  0.00    -0.013 C 
HETATM   22  C35 UNL     1      15.216 -20.698  -5.304  1.00  0.00    -0.010 C 
HETATM   23  C36 UNL     1      15.323 -19.607  -4.259  1.00  0.00     0.021 C 
HETATM   24  C37 UNL     1      14.511 -21.849  -4.607  1.00  0.00     0.016 A 
ENDROOT
BRANCH   9  25
HETATM   25  C10 UNL     1      11.877 -28.072  -6.130  1.00  0.00     0.028 C 
BRANCH  25  26
HETATM   26  C11 UNL     1      10.657 -28.872  -5.732  1.00  0.00     0.011 C 
BRANCH  26  27
HETATM   27  C12 UNL     1      10.069 -28.461  -4.402  1.00  0.00     0.078 C 
BRANCH  27  28
HETATM   28  C13 UNL     1       8.589 -28.491  -4.535  1.00  0.00     0.123 C 
HETATM   29  C14 UNL     1       7.924 -27.363  -5.237  1.00  0.00     0.091 C 
HETATM   30  O1  UNL     1       7.913 -29.401  -4.097  1.00  0.00    -0.298 OA
ENDBRANCH  27  28
ENDBRANCH  26  27
ENDBRANCH  25  26
ENDBRANCH   9  25
BRANCH  15  31
HETATM   31  O2  UNL     1      18.696 -21.267  -4.702  1.00  0.00    -0.322 OA
BRANCH  31  32
HETATM   32  C21 UNL     1      19.500 -20.784  -3.693  1.00  0.00     0.297 C 
HETATM   33  O3  UNL     1      20.793 -20.450  -4.068  1.00  0.00    -0.351 OA
HETATM   34  C22 UNL     1      21.615 -20.667  -2.980  1.00  0.00     0.152 C 
HETATM   35  C23 UNL     1      22.976 -20.113  -3.354  1.00  0.00     0.042 C 
HETATM   36  C24 UNL     1      21.108 -20.101  -1.706  1.00  0.00     0.178 C 
HETATM   37  C25 UNL     1      19.886 -19.235  -1.838  1.00  0.00     0.185 C 
HETATM   38  C27 UNL     1      18.931 -19.637  -2.921  1.00  0.00     0.205 C 
BRANCH  36  39
HETATM   39  O4  UNL     1      20.838 -21.150  -0.827  1.00  0.00    -0.390 OA
ATOM     40  H4  UNL     1      21.393 -21.056  -0.061  1.00  0.00     0.210 HD
ENDBRANCH  36  39
BRANCH  37  41
HETATM   41  O5  UNL     1      20.229 -17.885  -1.910  1.00  0.00    -0.385 OA
HETATM   42  C26 UNL     1      21.445 -17.604  -1.317  1.00  0.00     0.202 C 
ENDBRANCH  37  41
BRANCH  38  43
HETATM   43  O6  UNL     1      18.532 -18.565  -3.715  1.00  0.00    -0.388 OA
ATOM     44  H6  UNL     1      18.337 -17.775  -3.225  1.00  0.00     0.210 HD
ENDBRANCH  38  43
ENDBRANCH  31  32
ENDBRANCH  15  31
BRANCH  17  45
HETATM   45  C30 UNL     1      17.886 -19.221  -6.578  1.00  0.00     0.271 C 
HETATM   46  O7  UNL     1      17.269 -18.202  -6.153  1.00  0.00    -0.264 OA
BRANCH  45  47
HETATM   47  O8  UNL     1      19.251 -19.092  -6.698  1.00  0.00    -0.326 OA
HETATM   48  C31 UNL     1      19.856 -17.808  -6.818  1.00  0.00     0.213 C 
ENDBRANCH  45  47
ENDBRANCH  17  45
TORSDOF 11
ENDMDL
MODEL 2
REMARK VINA RESULT: -9.410696079      1.290      1.745
REMARK  11 active torsions:
REMARK  status: ('A' for Active; 'I' for Inactive)
REMARK    1  A    between atoms: C9_9  and  C10_10 
REMARK    2  A    between atoms: C10_10  and  C11_11 
REMARK    3  A    between atoms: C11_11  and  C12_12 
REMARK    4  A    between atoms: C12_12  and  C13_13 
REMARK    5  A    between atoms: C20_21  and  O2_22 
REMARK    6  A    between atoms: O2_22  and  C21_23 
REMARK    7  A    between atoms: C24_27  and  O4_28 
REMARK    8  A    between atoms: C25_30  and  O5_31 
REMARK    9  A    between atoms: C27_33  and  O6_34 
REMARK   10  A    between atoms: C29_37  and  C30_38 
REMARK   11  A    between atoms: C30_38  and  O8_40 
ROOT
HETATM    1  C1  UNL     1      11.367 -23.962  -7.474  1.00  0.00     0.012 C 
HETATM    2  C2  UNL     1      11.985 -23.755  -6.448  1.00  0.00    -0.111 C 
HETATM    3  C3  UNL     1      12.708 -23.489  -5.209  1.00  0.00     0.082 A 
HETATM    4  C4  UNL     1      14.127 -23.028  -5.453  1.00  0.00     0.014 A 
HETATM    5  C5  UNL     1      15.030 -23.886  -4.586  1.00  0.00     0.009 A 
HETATM    6  C6  UNL     1      14.180 -24.942  -3.963  1.00  0.00     0.009 A 
HETATM    7  C7  UNL     1      14.120 -26.176  -4.865  1.00  0.00     0.041 C 
HETATM    8  C8  UNL     1      12.656 -26.006  -5.048  1.00  0.00    -0.073 C 
HETATM    9  C9  UNL     1      11.692 -26.728  -5.585  1.00  0.00    -0.023 C 
HETATM   10  C15 UNL     1      12.753 -24.706  -4.353  1.00  0.00    -0.002 A 
HETATM   11  C16 UNL     1      11.756 -24.722  -3.185  1.00  0.00     0.021 C 
HETATM   12  C17 UNL     1      15.386 -22.698  -3.732  1.00  0.00    -0.015 A 
HETATM   13  C18 UNL     1      14.886 -22.758  -2.290  1.00  0.00     0.020 C 
HETATM   14  C19 UNL     1      16.818 -22.317  -3.743  1.00  0.00     0.016 C 
HETATM   15  C20 UNL     1      17.390 -21.616  -4.686  1.00  0.00     0.053 C 
HETATM   16  C28 UNL     1      16.508 -21.194  -5.811  1.00  0.00     0.075 C 
HETATM   17  C29 UNL     1      17.190 -20.436  -6.881  1.00  0.00     0.170 C 
HETATM   18  C32 UNL     1      16.211 -20.209  -7.979  1.00  0.00     0.163 C 
HETATM   19  O9  UNL     1      16.632 -20.187  -9.153  1.00  0.00    -0.292 OA
HETATM   20  C33 UNL     1      14.821 -20.027  -7.626  1.00  0.00     0.048 C 
HETATM   21  C34 UNL     1      14.356 -20.249  -6.403  1.00  0.00    -0.013 C 
HETATM   22  C35 UNL     1      15.213 -20.704  -5.283  1.00  0.00    -0.010 C 
HETATM   23  C36 UNL     1      15.314 -19.627  -4.225  1.00  0.00     0.021 C 
HETATM   24  C37 UNL     1      14.504 -21.864  -4.604  1.00  0.00     0.016 A 
ENDROOT
BRANCH   9  25
HETATM   25  C10 UNL     1      11.876 -28.067  -6.219  1.00  0.00     0.028 C 
BRANCH  25  26
HETATM   26  C11 UNL     1      10.881 -28.122  -7.356  1.00  0.00     0.011 C 
BRANCH  26  27
HETATM   27  C12 UNL     1      11.524 -28.128  -8.725  1.00  0.00     0.078 C 
BRANCH  27  28
HETATM   28  C13 UNL     1      10.990 -26.963  -9.478  1.00  0.00     0.123 C 
HETATM   29  C14 UNL     1      11.892 -26.275 -10.437  1.00  0.00     0.091 C 
HETATM   30  O1  UNL     1       9.852 -26.562  -9.338  1.00  0.00    -0.298 OA
ENDBRANCH  27  28
ENDBRANCH  26  27
ENDBRANCH  25  26
ENDBRANCH   9  25
BRANCH  15  31
HETATM   31  O2  UNL     1      18.690 -21.282  -4.671  1.00  0.00    -0.322 OA
BRANCH  31  32
HETATM   32  C21 UNL     1      19.484 -20.795  -3.656  1.00  0.00     0.297 C 
HETATM   33  O3  UNL     1      20.771 -20.433  -4.026  1.00  0.00    -0.351 OA
HETATM   34  C22 UNL     1      21.596 -20.645  -2.940  1.00  0.00     0.152 C 
HETATM   35  C23 UNL     1      22.947 -20.063  -3.308  1.00  0.00     0.042 C 
HETATM   36  C24 UNL     1      21.078 -20.101  -1.661  1.00  0.00     0.178 C 
HETATM   37  C25 UNL     1      19.839 -19.256  -1.787  1.00  0.00     0.185 C 
HETATM   38  C27 UNL     1      18.893 -19.665  -2.874  1.00  0.00     0.205 C 
BRANCH  36  39
HETATM   39  O4  UNL     1      20.826 -21.163  -0.793  1.00  0.00    -0.390 OA
ATOM     40  H4  UNL     1      20.636 -20.812   0.070  1.00  0.00     0.210 HD
ENDBRANCH  36  39
BRANCH  37  41
HETATM   41  O5  UNL     1      20.158 -17.900  -1.845  1.00  0.00    -0.385 OA
HETATM   42  C26 UNL     1      21.371 -17.603  -1.253  1.00  0.00     0.202 C 
ENDBRANCH  37  41
BRANCH  38  43
HETATM   43  O6  UNL     1      18.475 -18.594  -3.658  1.00  0.00    -0.388 OA
ATOM     44  H6  UNL     1      19.147 -17.938  -3.802  1.00  0.00     0.210 HD
ENDBRANCH  38  43
ENDBRANCH  31  32
ENDBRANCH  15  31
BRANCH  17  45
HETATM   45  C30 UNL     1      17.889 -19.212  -6.525  1.00  0.00     0.271 C 
HETATM   46  O7  UNL     1      17.273 -18.203  -6.078  1.00  0.00    -0.264 OA
BRANCH  45  47
HETATM   47  O8  UNL     1      19.253 -19.078  -6.650  1.00  0.00    -0.326 OA
HETATM   48  C31 UNL     1      19.851 -17.793  -6.797  1.00  0.00     0.213 C 
ENDBRANCH  45  47
ENDBRANCH  17  45
TORSDOF 11
ENDMDL
MODEL 3
REMARK VINA RESULT: -9.322457396      1.226      1.575
REMARK  11 active torsions:
REMARK  status: ('A' for Active; 'I' for Inactive)
REMARK    1  A    between atoms: C9_9  and  C10_10 
REMARK    2  A    between atoms: C10_10  and  C11_11 
REMARK    3  A    between atoms: C11_11  and  C12_12 
REMARK    4  A    between atoms: C12_12  and  C13_13 
REMARK    5  A    between atoms: C20_21  and  O2_22 
REMARK    6  A    between atoms: O2_22  and  C21_23 
REMARK    7  A    between atoms: C24_27  and  O4_28 
REMARK    8  A    between atoms: C25_30  and  O5_31 
REMARK    9  A    between atoms: C27_33  and  O6_34 
REMARK   10  A    between atoms: C29_37  and  C30_38 
REMARK   11  A    between atoms: C30_38  and  O8_40 
ROOT
HETATM    1  C1  UNL     1      11.369 -23.996  -7.450  1.00  0.00     0.012 C 
HETATM    2  C2  UNL     1      11.987 -23.786  -6.424  1.00  0.00    -0.111 C 
HETATM    3  C3  UNL     1      12.710 -23.519  -5.186  1.00  0.00     0.082 A 
HETATM    4  C4  UNL     1      14.128 -23.053  -5.430  1.00  0.00     0.014 A 
HETATM    5  C5  UNL     1      15.034 -23.909  -4.564  1.00  0.00     0.009 A 
HETATM    6  C6  UNL     1      14.187 -24.967  -3.941  1.00  0.00     0.009 A 
HETATM    7  C7  UNL     1      14.131 -26.201  -4.842  1.00  0.00     0.041 C 
HETATM    8  C8  UNL     1      12.666 -26.036  -5.024  1.00  0.00    -0.073 C 
HETATM    9  C9  UNL     1      11.704 -26.760  -5.561  1.00  0.00    -0.023 C 
HETATM   10  C15 UNL     1      12.759 -24.735  -4.330  1.00  0.00    -0.002 A 
HETATM   11  C16 UNL     1      11.762 -24.754  -3.162  1.00  0.00     0.021 C 
HETATM   12  C17 UNL     1      15.386 -22.719  -3.711  1.00  0.00    -0.015 A 
HETATM   13  C18 UNL     1      14.887 -22.780  -2.268  1.00  0.00     0.020 C 
HETATM   14  C19 UNL     1      16.817 -22.334  -3.722  1.00  0.00     0.016 C 
HETATM   15  C20 UNL     1      17.387 -21.631  -4.666  1.00  0.00     0.053 C 
HETATM   16  C28 UNL     1      16.503 -21.213  -5.790  1.00  0.00     0.075 C 
HETATM   17  C29 UNL     1      17.182 -20.453  -6.861  1.00  0.00     0.170 C 
HETATM   18  C32 UNL     1      16.202 -20.229  -7.959  1.00  0.00     0.163 C 
HETATM   19  O9  UNL     1      16.623 -20.206  -9.133  1.00  0.00    -0.292 OA
HETATM   20  C33 UNL     1      14.812 -20.051  -7.605  1.00  0.00     0.048 C 
HETATM   21  C34 UNL     1      14.348 -20.273  -6.382  1.00  0.00    -0.013 C 
HETATM   22  C35 UNL     1      15.206 -20.726  -5.262  1.00  0.00    -0.010 C 
HETATM   23  C36 UNL     1      15.305 -19.649  -4.204  1.00  0.00     0.021 C 
HETATM   24  C37 UNL     1      14.502 -21.888  -4.583  1.00  0.00     0.016 A 
ENDROOT
BRANCH   9  25
HETATM   25  C10 UNL     1      11.891 -28.099  -6.194  1.00  0.00     0.028 C 
BRANCH  25  26
HETATM   26  C11 UNL     1      10.676 -28.312  -7.069  1.00  0.00     0.011 C 
BRANCH  26  27
HETATM   27  C12 UNL     1      10.414 -29.764  -7.399  1.00  0.00     0.078 C 
BRANCH  27  28
HETATM   28  C13 UNL     1      11.475 -30.211  -8.339  1.00  0.00     0.123 C 
HETATM   29  C14 UNL     1      11.559 -29.551  -9.668  1.00  0.00     0.091 C 
HETATM   30  O1  UNL     1      12.269 -31.085  -8.057  1.00  0.00    -0.298 OA
ENDBRANCH  27  28
ENDBRANCH  26  27
ENDBRANCH  25  26
ENDBRANCH   9  25
BRANCH  15  31
HETATM   31  O2  UNL     1      18.685 -21.294  -4.651  1.00  0.00    -0.322 OA
BRANCH  31  32
HETATM   32  C21 UNL     1      19.479 -20.804  -3.637  1.00  0.00     0.297 C 
HETATM   33  O3  UNL     1      20.776 -20.474  -4.000  1.00  0.00    -0.351 OA
HETATM   34  C22 UNL     1      21.585 -20.683  -2.901  1.00  0.00     0.152 C 
HETATM   35  C23 UNL     1      22.952 -20.134  -3.265  1.00  0.00     0.042 C 
HETATM   36  C24 UNL     1      21.065 -20.105  -1.638  1.00  0.00     0.178 C 
HETATM   37  C25 UNL     1      19.845 -19.238  -1.792  1.00  0.00     0.185 C 
HETATM   38  C27 UNL     1      18.902 -19.648  -2.882  1.00  0.00     0.205 C 
BRANCH  36  39
HETATM   39  O4  UNL     1      20.783 -21.145  -0.753  1.00  0.00    -0.390 OA
ATOM     40  H4  UNL     1      21.533 -21.271  -0.183  1.00  0.00     0.210 HD
ENDBRANCH  36  39
BRANCH  37  41
HETATM   41  O5  UNL     1      20.191 -17.890  -1.871  1.00  0.00    -0.385 OA
HETATM   42  C26 UNL     1      21.406 -17.606  -1.277  1.00  0.00     0.202 C 
ENDBRANCH  37  41
BRANCH  38  43
HETATM   43  O6  UNL     1      18.514 -18.584  -3.690  1.00  0.00    -0.388 OA
ATOM     44  H6  UNL     1      19.158 -17.887  -3.744  1.00  0.00     0.210 HD
ENDBRANCH  38  43
ENDBRANCH  31  32
ENDBRANCH  15  31
BRANCH  17  45
HETATM   45  C30 UNL     1      17.878 -19.227  -6.505  1.00  0.00     0.271 C 
HETATM   46  O7  UNL     1      17.255 -18.208  -6.091  1.00  0.00    -0.264 OA
BRANCH  45  47
HETATM   47  O8  UNL     1      19.246 -19.101  -6.596  1.00  0.00    -0.326 OA
HETATM   48  C31 UNL     1      19.836 -17.934  -7.159  1.00  0.00     0.213 C 
ENDBRANCH  45  47
ENDBRANCH  17  45
TORSDOF 11
ENDMDL
MODEL 4
REMARK VINA RESULT: -8.815507638      3.753     11.259
REMARK  11 active torsions:
REMARK  status: ('A' for Active; 'I' for Inactive)
REMARK    1  A    between atoms: C9_9  and  C10_10 
REMARK    2  A    between atoms: C10_10  and  C11_11 
REMARK    3  A    between atoms: C11_11  and  C12_12 
REMARK    4  A    between atoms: C12_12  and  C13_13 
REMARK    5  A    between atoms: C20_21  and  O2_22 
REMARK    6  A    between atoms: O2_22  and  C21_23 
REMARK    7  A    between atoms: C24_27  and  O4_28 
REMARK    8  A    between atoms: C25_30  and  O5_31 
REMARK    9  A    between atoms: C27_33  and  O6_34 
REMARK   10  A    between atoms: C29_37  and  C30_38 
REMARK   11  A    between atoms: C30_38  and  O8_40 
ROOT
HETATM    1  C1  UNL     1      23.582 -16.945  -3.681  1.00  0.00     0.012 C 
HETATM    2  C2  UNL     1      22.695 -16.805  -4.499  1.00  0.00    -0.111 C 
HETATM    3  C3  UNL     1      21.620 -16.618  -5.467  1.00  0.00     0.082 A 
HETATM    4  C4  UNL     1      20.834 -17.887  -5.715  1.00  0.00     0.014 A 
HETATM    5  C5  UNL     1      20.761 -18.079  -7.218  1.00  0.00     0.009 A 
HETATM    6  C6  UNL     1      21.622 -17.035  -7.846  1.00  0.00     0.009 A 
HETATM    7  C7  UNL     1      23.054 -17.549  -7.999  1.00  0.00     0.041 C 
HETATM    8  C8  UNL     1      23.559 -16.501  -7.076  1.00  0.00    -0.073 C 
HETATM    9  C9  UNL     1      24.752 -16.073  -6.712  1.00  0.00    -0.023 C 
HETATM   10  C15 UNL     1      22.160 -16.142  -6.770  1.00  0.00    -0.002 A 
HETATM   11  C16 UNL     1      21.991 -14.639  -7.038  1.00  0.00     0.021 C 
HETATM   12  C17 UNL     1      19.277 -17.828  -7.206  1.00  0.00    -0.015 A 
HETATM   13  C18 UNL     1      18.823 -16.553  -7.912  1.00  0.00     0.020 C 
HETATM   14  C19 UNL     1      18.438 -18.965  -7.655  1.00  0.00     0.016 C 
HETATM   15  C20 UNL     1      18.116 -19.988  -6.908  1.00  0.00     0.053 C 
HETATM   16  C28 UNL     1      18.652 -19.974  -5.518  1.00  0.00     0.075 C 
HETATM   17  C29 UNL     1      18.305 -21.161  -4.708  1.00  0.00     0.170 C 
HETATM   18  C32 UNL     1      19.018 -21.056  -3.407  1.00  0.00     0.163 C 
HETATM   19  O9  UNL     1      19.402 -22.106  -2.855  1.00  0.00    -0.292 OA
HETATM   20  C33 UNL     1      19.229 -19.738  -2.851  1.00  0.00     0.048 C 
HETATM   21  C34 UNL     1      18.997 -18.624  -3.534  1.00  0.00    -0.013 C 
HETATM   22  C35 UNL     1      18.500 -18.622  -4.930  1.00  0.00    -0.010 C 
HETATM   23  C36 UNL     1      17.102 -18.046  -4.991  1.00  0.00     0.021 C 
HETATM   24  C37 UNL     1      19.363 -17.656  -5.723  1.00  0.00     0.016 A 
ENDROOT
BRANCH   9  25
HETATM   25  C10 UNL     1      26.048 -16.617  -7.215  1.00  0.00     0.028 C 
BRANCH  25  26
HETATM   26  C11 UNL     1      26.953 -16.704  -6.007  1.00  0.00     0.011 C 
BRANCH  26  27
HETATM   27  C12 UNL     1      27.371 -18.115  -5.663  1.00  0.00     0.078 C 
BRANCH  27  28
HETATM   28  C13 UNL     1      27.072 -18.335  -4.224  1.00  0.00     0.123 C 
HETATM   29  C14 UNL     1      26.692 -19.704  -3.787  1.00  0.00     0.091 C 
HETATM   30  O1  UNL     1      27.130 -17.443  -3.402  1.00  0.00    -0.298 OA
ENDBRANCH  27  28
ENDBRANCH  26  27
ENDBRANCH  25  26
ENDBRANCH   9  25
BRANCH  15  31
HETATM   31  O2  UNL     1      17.354 -21.005  -7.340  1.00  0.00    -0.322 OA
BRANCH  31  32
HETATM   32  C21 UNL     1      16.232 -21.015  -8.139  1.00  0.00     0.297 C 
HETATM   33  O3  UNL     1      15.678 -22.264  -8.375  1.00  0.00    -0.351 OA
HETATM   34  C22 UNL     1      15.094 -22.236  -9.625  1.00  0.00     0.152 C 
HETATM   35  C23 UNL     1      14.334 -23.540  -9.773  1.00  0.00     0.042 C 
HETATM   36  C24 UNL     1      14.235 -21.052  -9.875  1.00  0.00     0.178 C 
HETATM   37  C25 UNL     1      13.995 -20.178  -8.674  1.00  0.00     0.185 C 
HETATM   38  C27 UNL     1      15.134 -20.096  -7.705  1.00  0.00     0.205 C 
BRANCH  36  39
HETATM   39  O4  UNL     1      14.808 -20.291 -10.893  1.00  0.00    -0.390 OA
ATOM     40  H4  UNL     1      14.292 -19.501 -11.010  1.00  0.00     0.210 HD
ENDBRANCH  36  39
BRANCH  37  41
HETATM   41  O5  UNL     1      12.791 -20.499  -8.049  1.00  0.00    -0.385 OA
HETATM   42  C26 UNL     1      11.958 -21.268  -8.841  1.00  0.00     0.202 C 
ENDBRANCH  37  41
BRANCH  38  43
HETATM   43  O6  UNL     1      14.735 -20.279  -6.384  1.00  0.00    -0.388 OA
ATOM     44  H6  UNL     1      13.944 -20.797  -6.290  1.00  0.00     0.210 HD
ENDBRANCH  38  43
ENDBRANCH  31  32
ENDBRANCH  15  31
BRANCH  17  45
HETATM   45  C30 UNL     1      16.899 -21.486  -4.525  1.00  0.00     0.271 C 
HETATM   46  O7  UNL     1      16.125 -20.732  -3.870  1.00  0.00    -0.264 OA
BRANCH  45  47
HETATM   47  O8  UNL     1      16.330 -22.625  -5.049  1.00  0.00    -0.326 OA
HETATM   48  C31 UNL     1      15.409 -23.399  -4.286  1.00  0.00     0.213 C 
ENDBRANCH  45  47
ENDBRANCH  17  45
TORSDOF 11
ENDMDL
MODEL 5
REMARK VINA RESULT: -8.789911643      3.769     11.805
REMARK  11 active torsions:
REMARK  status: ('A' for Active; 'I' for Inactive)
REMARK    1  A    between atoms: C9_9  and  C10_10 
REMARK    2  A    between atoms: C10_10  and  C11_11 
REMARK    3  A    between atoms: C11_11  and  C12_12 
REMARK    4  A    between atoms: C12_12  and  C13_13 
REMARK    5  A    between atoms: C20_21  and  O2_22 
REMARK    6  A    between atoms: O2_22  and  C21_23 
REMARK    7  A    between atoms: C24_27  and  O4_28 
REMARK    8  A    between atoms: C25_30  and  O5_31 
REMARK    9  A    between atoms: C27_33  and  O6_34 
REMARK   10  A    between atoms: C29_37  and  C30_38 
REMARK   11  A    between atoms: C30_38  and  O8_40 
ROOT
HETATM    1  C1  UNL     1      23.453 -16.925  -3.700  1.00  0.00     0.012 C 
HETATM    2  C2  UNL     1      22.562 -16.798  -4.518  1.00  0.00    -0.111 C 
HETATM    3  C3  UNL     1      21.484 -16.626  -5.485  1.00  0.00     0.082 A 
HETATM    4  C4  UNL     1      20.713 -17.904  -5.729  1.00  0.00     0.014 A 
HETATM    5  C5  UNL     1      20.641 -18.101  -7.232  1.00  0.00     0.009 A 
HETATM    6  C6  UNL     1      21.489 -17.048  -7.862  1.00  0.00     0.009 A 
HETATM    7  C7  UNL     1      22.927 -17.545  -8.017  1.00  0.00     0.041 C 
HETATM    8  C8  UNL     1      23.420 -16.488  -7.096  1.00  0.00    -0.073 C 
HETATM    9  C9  UNL     1      24.608 -16.045  -6.735  1.00  0.00    -0.023 C 
HETATM   10  C15 UNL     1      22.016 -16.146  -6.790  1.00  0.00    -0.002 A 
HETATM   11  C16 UNL     1      21.830 -14.645  -7.060  1.00  0.00     0.021 C 
HETATM   12  C17 UNL     1      19.154 -17.868  -7.218  1.00  0.00    -0.015 A 
HETATM   13  C18 UNL     1      18.684 -16.599  -7.927  1.00  0.00     0.020 C 
HETATM   14  C19 UNL     1      18.329 -19.015  -7.664  1.00  0.00     0.016 C 
HETATM   15  C20 UNL     1      18.020 -20.041  -6.915  1.00  0.00     0.053 C 
HETATM   16  C28 UNL     1      18.557 -20.017  -5.525  1.00  0.00     0.075 C 
HETATM   17  C29 UNL     1      18.225 -21.207  -4.713  1.00  0.00     0.170 C 
HETATM   18  C32 UNL     1      18.938 -21.090  -3.412  1.00  0.00     0.163 C 
HETATM   19  O9  UNL     1      19.335 -22.135  -2.858  1.00  0.00    -0.292 OA
HETATM   20  C33 UNL     1      19.134 -19.769  -2.859  1.00  0.00     0.048 C 
HETATM   21  C34 UNL     1      18.887 -18.659  -3.544  1.00  0.00    -0.013 C 
HETATM   22  C35 UNL     1      18.389 -18.666  -4.940  1.00  0.00    -0.010 C 
HETATM   23  C36 UNL     1      16.984 -18.108  -5.001  1.00  0.00     0.021 C 
HETATM   24  C37 UNL     1      19.240 -17.692  -5.736  1.00  0.00     0.016 A 
ENDROOT
BRANCH   9  25
HETATM   25  C10 UNL     1      25.910 -16.575  -7.238  1.00  0.00     0.028 C 
BRANCH  25  26
HETATM   26  C11 UNL     1      26.912 -15.461  -7.035  1.00  0.00     0.011 C 
BRANCH  26  27
HETATM   27  C12 UNL     1      27.004 -14.507  -8.204  1.00  0.00     0.078 C 
BRANCH  27  28
HETATM   28  C13 UNL     1      27.147 -13.133  -7.654  1.00  0.00     0.123 C 
HETATM   29  C14 UNL     1      26.251 -12.725  -6.542  1.00  0.00     0.091 C 
HETATM   30  O1  UNL     1      27.968 -12.344  -8.078  1.00  0.00    -0.298 OA
ENDBRANCH  27  28
ENDBRANCH  26  27
ENDBRANCH  25  26
ENDBRANCH   9  25
BRANCH  15  31
HETATM   31  O2  UNL     1      17.269 -21.068  -7.343  1.00  0.00    -0.322 OA
BRANCH  31  32
HETATM   32  C21 UNL     1      16.150 -21.093  -8.146  1.00  0.00     0.297 C 
HETATM   33  O3  UNL     1      15.605 -22.349  -8.371  1.00  0.00    -0.351 OA
HETATM   34  C22 UNL     1      15.026 -22.338  -9.623  1.00  0.00     0.152 C 
HETATM   35  C23 UNL     1      14.275 -23.648  -9.760  1.00  0.00     0.042 C 
HETATM   36  C24 UNL     1      14.160 -21.163  -9.889  1.00  0.00     0.178 C 
HETATM   37  C25 UNL     1      13.910 -20.277  -8.699  1.00  0.00     0.185 C 
HETATM   38  C27 UNL     1      15.045 -20.177  -7.726  1.00  0.00     0.205 C 
BRANCH  36  39
HETATM   39  O4  UNL     1      14.732 -20.409 -10.913  1.00  0.00    -0.390 OA
ATOM     40  H4  UNL     1      15.005 -20.996 -11.608  1.00  0.00     0.210 HD
ENDBRANCH  36  39
BRANCH  37  41
HETATM   41  O5  UNL     1      12.706 -20.599  -8.075  1.00  0.00    -0.385 OA
HETATM   42  C26 UNL     1      11.885 -21.390  -8.857  1.00  0.00     0.202 C 
ENDBRANCH  37  41
BRANCH  38  43
HETATM   43  O6  UNL     1      14.642 -20.349  -6.405  1.00  0.00    -0.388 OA
ATOM     44  H6  UNL     1      14.480 -19.534  -5.944  1.00  0.00     0.210 HD
ENDBRANCH  38  43
ENDBRANCH  31  32
ENDBRANCH  15  31
BRANCH  17  45
HETATM   45  C30 UNL     1      16.823 -21.549  -4.527  1.00  0.00     0.271 C 
HETATM   46  O7  UNL     1      16.038 -20.796  -3.884  1.00  0.00    -0.264 OA
BRANCH  45  47
HETATM   47  O8  UNL     1      16.271 -22.702  -5.035  1.00  0.00    -0.326 OA
HETATM   48  C31 UNL     1      15.282 -23.422  -4.305  1.00  0.00     0.213 C 
ENDBRANCH  45  47
ENDBRANCH  17  45
TORSDOF 11
ENDMDL
