MODEL 1
REMARK VINA RESULT: -9.654662489      0.000      0.000
REMARK  13 active torsions:
REMARK  status: ('A' for Active; 'I' for Inactive)
REMARK    1  A    between atoms: C3_3  and  N1_4 
REMARK    2  A    between atoms: N1_4  and  C5_6 
REMARK    3  A    between atoms: C5_6  and  C7_8 
REMARK       I    between atoms: C7_8  and  N2_10 
REMARK    4  A    between atoms: C8_12  and  C9_13 
REMARK    5  A    between atoms: C8_12  and  C14_19 
REMARK    6  A    between atoms: C9_13  and  C10_15 
REMARK    7  A    between atoms: C20_26  and  N3_27 
REMARK       I    between atoms: N3_27  and  C21_29 
REMARK    8  A    between atoms: C21_29  and  O5_31 
REMARK    9  A    between atoms: O5_31  and  C22_32 
REMARK   10  A    between atoms: C26_36  and  O6_37 
REMARK   11  A    between atoms: O6_37  and  C27_38 
REMARK       I    between atoms: C27_38  and  N4_40 
REMARK   12  A    between atoms: N4_40  and  C28_42 
REMARK   13  A    between atoms: C28_42  and  C29_43 
ROOT
HETATM    1  C1  UNL     1      10.291 -27.839  -4.542  1.00  0.00     0.014 C 
HETATM    2  C2  UNL     1      10.759 -26.919  -3.941  1.00  0.00    -0.098 C 
HETATM    3  C3  UNL     1      11.306 -25.806  -3.184  1.00  0.00     0.211 C 
ENDROOT
BRANCH   3   4
HETATM    4  N1  UNL     1      12.701 -25.597  -3.275  1.00  0.00    -0.395 N 
HETATM    5  C4  UNL     1      13.402 -25.108  -2.163  1.00  0.00     0.144 C 
BRANCH   4   6
HETATM    6  C5  UNL     1      13.235 -25.418  -4.575  1.00  0.00     0.168 C 
HETATM    7  C6  UNL     1      14.742 -25.464  -4.522  1.00  0.00     0.042 C 
BRANCH   6   8
HETATM    8  C7  UNL     1      12.700 -24.302  -5.359  1.00  0.00     0.244 C 
HETATM    9  O1  UNL     1      12.828 -23.141  -4.821  1.00  0.00    -0.271 OA
HETATM   10  N2  UNL     1      12.075 -24.329  -6.603  1.00  0.00    -0.323 N 
HETATM   11  C8  UNL     1      12.483 -23.786  -7.702  1.00  0.00     0.088 C 
ATOM     12  H2  UNL     1      11.191 -24.837  -6.652  1.00  0.00     0.169 HD
BRANCH  11  13
HETATM   13  C9  UNL     1      11.607 -23.978  -8.882  1.00  0.00     0.182 C 
HETATM   14  O2  UNL     1      10.875 -23.015  -9.215  1.00  0.00    -0.290 OA
BRANCH  13  15
HETATM   15  C10 UNL     1      11.591 -25.250  -9.654  1.00  0.00     0.016 C 
HETATM   16  C11 UNL     1      10.584 -25.093 -10.777  1.00  0.00     0.023 C 
HETATM   17  C12 UNL     1      11.234 -26.455  -8.850  1.00  0.00     0.023 C 
HETATM   18  C13 UNL     1      12.949 -25.381 -10.361  1.00  0.00     0.023 C 
ENDBRANCH  13  15
ENDBRANCH  11  13
BRANCH  11  19
HETATM   19  C14 UNL     1      13.704 -23.032  -7.905  1.00  0.00     0.176 C 
HETATM   20  C15 UNL     1      13.524 -22.069  -9.075  1.00  0.00     0.043 C 
HETATM   21  C16 UNL     1      14.932 -21.827  -9.582  1.00  0.00    -0.002 C 
HETATM   22  C17 UNL     1      14.972 -20.804 -10.678  1.00  0.00     0.011 C 
HETATM   23  C18 UNL     1      15.841 -21.445  -8.473  1.00  0.00     0.093 C 
HETATM   24  C19 UNL     1      15.784 -19.993  -8.138  1.00  0.00     0.159 C 
HETATM   25  C33 UNL     1      15.556 -22.076  -7.133  1.00  0.00     0.166 C 
HETATM   26  O3  UNL     1      15.225 -19.079  -8.676  1.00  0.00    -0.295 OA
HETATM   27  C20 UNL     1      16.621 -19.891  -6.912  1.00  0.00     0.189 C 
HETATM   28  C26 UNL     1      16.234 -21.166  -6.177  1.00  0.00     0.193 C 
HETATM   29  O8  UNL     1      14.213 -22.305  -6.870  1.00  0.00    -0.371 OA
BRANCH  27  30
HETATM   30  N3  UNL     1      18.007 -19.876  -7.319  1.00  0.00    -0.323 N 
HETATM   31  C21 UNL     1      18.957 -18.975  -6.754  1.00  0.00     0.362 C 
HETATM   32  O4  UNL     1      18.642 -18.135  -5.859  1.00  0.00    -0.238 OA
ATOM     33  H3  UNL     1      18.316 -20.532  -8.035  1.00  0.00     0.165 HD
BRANCH  31  34
HETATM   34  O5  UNL     1      20.266 -18.987  -7.166  1.00  0.00    -0.294 OA
BRANCH  34  35
HETATM   35  C22 UNL     1      20.977 -17.805  -7.505  1.00  0.00     0.061 C 
HETATM   36  C23 UNL     1      20.071 -16.833  -8.214  1.00  0.00     0.046 C 
HETATM   37  C24 UNL     1      21.571 -17.155  -6.302  1.00  0.00     0.046 C 
HETATM   38  C25 UNL     1      22.077 -18.244  -8.470  1.00  0.00     0.046 C 
ENDBRANCH  34  35
ENDBRANCH  31  34
ENDBRANCH  27  30
BRANCH  28  39
HETATM   39  O6  UNL     1      15.602 -20.911  -4.969  1.00  0.00    -0.293 OA
BRANCH  39  40
HETATM   40  C27 UNL     1      16.301 -20.733  -3.792  1.00  0.00     0.361 C 
HETATM   41  O7  UNL     1      15.930 -21.455  -2.827  1.00  0.00    -0.239 OA
HETATM   42  N4  UNL     1      17.371 -19.801  -3.663  1.00  0.00    -0.336 N 
ATOM     43  H4  UNL     1      17.633 -19.241  -4.474  1.00  0.00     0.164 HD
BRANCH  42  44
HETATM   44  C28 UNL     1      18.097 -19.619  -2.432  1.00  0.00     0.133 C 
BRANCH  44  45
HETATM   45  C29 UNL     1      19.583 -19.778  -2.609  1.00  0.00    -0.035 C 
HETATM   46  C30 UNL     1      20.244 -18.446  -2.939  1.00  0.00     0.016 C 
HETATM   47  C31 UNL     1      19.967 -20.752  -3.696  1.00  0.00     0.016 C 
HETATM   48  C32 UNL     1      20.217 -20.283  -1.321  1.00  0.00     0.016 C 
ENDBRANCH  44  45
ENDBRANCH  42  44
ENDBRANCH  39  40
ENDBRANCH  28  39
ENDBRANCH  11  19
ENDBRANCH   6   8
ENDBRANCH   4   6
ENDBRANCH   3   4
TORSDOF 13
ENDMDL
MODEL 2
REMARK VINA RESULT: -9.259476001      3.041     11.180
REMARK  13 active torsions:
REMARK  status: ('A' for Active; 'I' for Inactive)
REMARK    1  A    between atoms: C3_3  and  N1_4 
REMARK    2  A    between atoms: N1_4  and  C5_6 
REMARK    3  A    between atoms: C5_6  and  C7_8 
REMARK       I    between atoms: C7_8  and  N2_10 
REMARK    4  A    between atoms: C8_12  and  C9_13 
REMARK    5  A    between atoms: C8_12  and  C14_19 
REMARK    6  A    between atoms: C9_13  and  C10_15 
REMARK    7  A    between atoms: C20_26  and  N3_27 
REMARK       I    between atoms: N3_27  and  C21_29 
REMARK    8  A    between atoms: C21_29  and  O5_31 
REMARK    9  A    between atoms: O5_31  and  C22_32 
REMARK   10  A    between atoms: C26_36  and  O6_37 
REMARK   11  A    between atoms: O6_37  and  C27_38 
REMARK       I    between atoms: C27_38  and  N4_40 
REMARK   12  A    between atoms: N4_40  and  C28_42 
REMARK   13  A    between atoms: C28_42  and  C29_43 
ROOT
HETATM    1  C1  UNL     1      26.166 -16.078  -7.264  1.00  0.00     0.014 C 
HETATM    2  C2  UNL     1      25.054 -15.650  -7.357  1.00  0.00    -0.098 C 
HETATM    3  C3  UNL     1      23.715 -15.099  -7.481  1.00  0.00     0.211 C 
ENDROOT
BRANCH   3   4
HETATM    4  N1  UNL     1      22.703 -15.978  -7.927  1.00  0.00    -0.395 N 
HETATM    5  C4  UNL     1      21.722 -15.513  -8.814  1.00  0.00     0.144 C 
BRANCH   4   6
HETATM    6  C5  UNL     1      22.432 -17.105  -7.110  1.00  0.00     0.168 C 
HETATM    7  C6  UNL     1      21.326 -17.929  -7.722  1.00  0.00     0.042 C 
BRANCH   6   8
HETATM    8  C7  UNL     1      22.266 -16.854  -5.676  1.00  0.00     0.244 C 
HETATM    9  O1  UNL     1      21.148 -16.317  -5.339  1.00  0.00    -0.271 OA
HETATM   10  N2  UNL     1      23.151 -17.118  -4.635  1.00  0.00    -0.323 N 
HETATM   11  C8  UNL     1      22.982 -17.927  -3.643  1.00  0.00     0.088 C 
ATOM     12  H2  UNL     1      24.039 -16.614  -4.659  1.00  0.00     0.169 HD
BRANCH  11  13
HETATM   13  C9  UNL     1      24.102 -18.008  -2.675  1.00  0.00     0.182 C 
HETATM   14  O2  UNL     1      23.917 -17.508  -1.540  1.00  0.00    -0.290 OA
BRANCH  13  15
HETATM   15  C10 UNL     1      25.396 -18.659  -3.019  1.00  0.00     0.016 C 
HETATM   16  C11 UNL     1      26.199 -18.787  -1.739  1.00  0.00     0.023 C 
HETATM   17  C12 UNL     1      26.208 -17.921  -4.029  1.00  0.00     0.023 C 
HETATM   18  C13 UNL     1      25.090 -20.106  -3.436  1.00  0.00     0.023 C 
ENDBRANCH  13  15
ENDBRANCH  11  13
BRANCH  11  19
HETATM   19  C14 UNL     1      21.830 -18.770  -3.386  1.00  0.00     0.176 C 
HETATM   20  C15 UNL     1      21.006 -18.180  -2.245  1.00  0.00     0.043 C 
HETATM   21  C16 UNL     1      20.262 -19.368  -1.666  1.00  0.00    -0.002 C 
HETATM   22  C17 UNL     1      19.301 -18.965  -0.589  1.00  0.00     0.011 C 
HETATM   23  C18 UNL     1      19.568 -20.133  -2.732  1.00  0.00     0.093 C 
HETATM   24  C19 UNL     1      18.239 -19.564  -3.095  1.00  0.00     0.159 C 
HETATM   25  C33 UNL     1      20.254 -20.179  -4.073  1.00  0.00     0.166 C 
HETATM   26  O3  UNL     1      17.598 -18.677  -2.604  1.00  0.00    -0.295 OA
HETATM   27  C20 UNL     1      17.830 -20.373  -4.275  1.00  0.00     0.189 C 
HETATM   28  C26 UNL     1      19.155 -20.527  -5.007  1.00  0.00     0.193 C 
HETATM   29  O8  UNL     1      20.963 -19.033  -4.405  1.00  0.00    -0.371 OA
BRANCH  27  30
HETATM   30  N3  UNL     1      17.305 -21.629  -3.793  1.00  0.00    -0.323 N 
HETATM   31  C21 UNL     1      16.562 -22.515  -4.628  1.00  0.00     0.362 C 
HETATM   32  O4  UNL     1      16.319 -22.253  -5.844  1.00  0.00    -0.238 OA
ATOM     33  H3  UNL     1      17.472 -21.892  -2.822  1.00  0.00     0.165 HD
BRANCH  31  34
HETATM   34  O5  UNL     1      16.076 -23.700  -4.136  1.00  0.00    -0.294 OA
BRANCH  34  35
HETATM   35  C22 UNL     1      14.784 -23.822  -3.558  1.00  0.00     0.061 C 
HETATM   36  C23 UNL     1      14.830 -23.482  -2.091  1.00  0.00     0.046 C 
HETATM   37  C24 UNL     1      13.788 -22.951  -4.246  1.00  0.00     0.046 C 
HETATM   38  C25 UNL     1      14.399 -25.293  -3.708  1.00  0.00     0.046 C 
ENDBRANCH  34  35
ENDBRANCH  31  34
ENDBRANCH  27  30
BRANCH  28  39
HETATM   39  O6  UNL     1      19.147 -19.916  -6.252  1.00  0.00    -0.293 OA
BRANCH  39  40
HETATM   40  C27 UNL     1      18.015 -19.330  -6.780  1.00  0.00     0.361 C 
HETATM   41  O7  UNL     1      17.893 -18.093  -6.567  1.00  0.00    -0.239 OA
HETATM   42  N4  UNL     1      17.042 -20.061  -7.521  1.00  0.00    -0.336 N 
ATOM     43  H4  UNL     1      17.187 -21.060  -7.667  1.00  0.00     0.164 HD
BRANCH  42  44
HETATM   44  C28 UNL     1      15.861 -19.445  -8.071  1.00  0.00     0.133 C 
BRANCH  44  45
HETATM   45  C29 UNL     1      15.067 -20.386  -8.936  1.00  0.00    -0.035 C 
HETATM   46  C30 UNL     1      13.644 -20.543  -8.417  1.00  0.00     0.016 C 
HETATM   47  C31 UNL     1      15.663 -21.769  -9.038  1.00  0.00     0.016 C 
HETATM   48  C32 UNL     1      14.968 -19.844 -10.354  1.00  0.00     0.016 C 
ENDBRANCH  44  45
ENDBRANCH  42  44
ENDBRANCH  39  40
ENDBRANCH  28  39
ENDBRANCH  11  19
ENDBRANCH   6   8
ENDBRANCH   4   6
ENDBRANCH   3   4
TORSDOF 13
ENDMDL
MODEL 3
REMARK VINA RESULT: -9.054508326      3.613     11.342
REMARK  13 active torsions:
REMARK  status: ('A' for Active; 'I' for Inactive)
REMARK    1  A    between atoms: C3_3  and  N1_4 
REMARK    2  A    between atoms: N1_4  and  C5_6 
REMARK    3  A    between atoms: C5_6  and  C7_8 
REMARK       I    between atoms: C7_8  and  N2_10 
REMARK    4  A    between atoms: C8_12  and  C9_13 
REMARK    5  A    between atoms: C8_12  and  C14_19 
REMARK    6  A    between atoms: C9_13  and  C10_15 
REMARK    7  A    between atoms: C20_26  and  N3_27 
REMARK       I    between atoms: N3_27  and  C21_29 
REMARK    8  A    between atoms: C21_29  and  O5_31 
REMARK    9  A    between atoms: O5_31  and  C22_32 
REMARK   10  A    between atoms: C26_36  and  O6_37 
REMARK   11  A    between atoms: O6_37  and  C27_38 
REMARK       I    between atoms: C27_38  and  N4_40 
REMARK   12  A    between atoms: N4_40  and  C28_42 
REMARK   13  A    between atoms: C28_42  and  C29_43 
ROOT
HETATM    1  C1  UNL     1      27.888 -15.741  -4.735  1.00  0.00     0.014 C 
HETATM    2  C2  UNL     1      27.772 -16.535  -3.850  1.00  0.00    -0.098 C 
HETATM    3  C3  UNL     1      27.666 -17.504  -2.772  1.00  0.00     0.211 C 
ENDROOT
BRANCH   3   4
HETATM    4  N1  UNL     1      26.651 -17.283  -1.814  1.00  0.00    -0.395 N 
HETATM    5  C4  UNL     1      26.971 -16.671  -0.593  1.00  0.00     0.144 C 
BRANCH   4   6
HETATM    6  C5  UNL     1      25.498 -18.102  -1.906  1.00  0.00     0.168 C 
HETATM    7  C6  UNL     1      25.758 -19.433  -1.243  1.00  0.00     0.042 C 
BRANCH   6   8
HETATM    8  C7  UNL     1      24.868 -18.207  -3.226  1.00  0.00     0.244 C 
HETATM    9  O1  UNL     1      24.934 -19.367  -3.775  1.00  0.00    -0.271 OA
HETATM   10  N2  UNL     1      24.211 -17.223  -3.959  1.00  0.00    -0.323 N 
HETATM   11  C8  UNL     1      22.970 -17.203  -4.315  1.00  0.00     0.088 C 
ATOM     12  H2  UNL     1      24.776 -16.425  -4.250  1.00  0.00     0.169 HD
BRANCH  11  13
HETATM   13  C9  UNL     1      22.540 -16.021  -5.099  1.00  0.00     0.182 C 
HETATM   14  O2  UNL     1      21.772 -15.207  -4.535  1.00  0.00    -0.290 OA
BRANCH  13  15
HETATM   15  C10 UNL     1      23.000 -15.792  -6.496  1.00  0.00     0.016 C 
HETATM   16  C11 UNL     1      21.966 -14.919  -7.182  1.00  0.00     0.023 C 
HETATM   17  C12 UNL     1      23.188 -17.038  -7.295  1.00  0.00     0.023 C 
HETATM   18  C13 UNL     1      24.265 -14.923  -6.432  1.00  0.00     0.023 C 
ENDBRANCH  13  15
ENDBRANCH  11  13
BRANCH  11  19
HETATM   19  C14 UNL     1      21.957 -18.197  -4.017  1.00  0.00     0.176 C 
HETATM   20  C15 UNL     1      21.310 -17.884  -2.671  1.00  0.00     0.043 C 
HETATM   21  C16 UNL     1      20.784 -19.221  -2.187  1.00  0.00    -0.002 C 
HETATM   22  C17 UNL     1      20.007 -19.097  -0.911  1.00  0.00     0.011 C 
HETATM   23  C18 UNL     1      19.972 -19.886  -3.236  1.00  0.00     0.093 C 
HETATM   24  C19 UNL     1      18.556 -19.417  -3.269  1.00  0.00     0.159 C 
HETATM   25  C33 UNL     1      20.402 -19.649  -4.661  1.00  0.00     0.166 C 
HETATM   26  O3  UNL     1      17.946 -18.693  -2.534  1.00  0.00    -0.295 OA
HETATM   27  C20 UNL     1      18.006 -20.075  -4.484  1.00  0.00     0.189 C 
HETATM   28  C26 UNL     1      19.182 -19.968  -5.443  1.00  0.00     0.193 C 
HETATM   29  O8  UNL     1      20.942 -18.395  -4.906  1.00  0.00    -0.371 OA
BRANCH  27  30
HETATM   30  N3  UNL     1      17.682 -21.441  -4.143  1.00  0.00    -0.323 N 
HETATM   31  C21 UNL     1      16.499 -22.084  -4.613  1.00  0.00     0.362 C 
HETATM   32  O4  UNL     1      15.662 -21.495  -5.361  1.00  0.00    -0.238 OA
ATOM     33  H3  UNL     1      18.321 -21.964  -3.546  1.00  0.00     0.165 HD
BRANCH  31  34
HETATM   34  O5  UNL     1      16.223 -23.383  -4.268  1.00  0.00    -0.294 OA
BRANCH  34  35
HETATM   35  C22 UNL     1      14.981 -23.781  -3.702  1.00  0.00     0.061 C 
HETATM   36  C23 UNL     1      14.960 -23.488  -2.225  1.00  0.00     0.046 C 
HETATM   37  C24 UNL     1      13.830 -23.106  -4.367  1.00  0.00     0.046 C 
HETATM   38  C25 UNL     1      14.899 -25.294  -3.903  1.00  0.00     0.046 C 
ENDBRANCH  34  35
ENDBRANCH  31  34
ENDBRANCH  27  30
BRANCH  28  39
HETATM   39  O6  UNL     1      18.897 -19.178  -6.546  1.00  0.00    -0.293 OA
BRANCH  39  40
HETATM   40  C27 UNL     1      17.605 -18.873  -6.923  1.00  0.00     0.361 C 
HETATM   41  O7  UNL     1      17.189 -17.738  -6.568  1.00  0.00    -0.239 OA
HETATM   42  N4  UNL     1      16.786 -19.772  -7.666  1.00  0.00    -0.336 N 
ATOM     43  H4  UNL     1      17.170 -20.679  -7.931  1.00  0.00     0.164 HD
BRANCH  42  44
HETATM   44  C28 UNL     1      15.437 -19.450  -8.057  1.00  0.00     0.133 C 
BRANCH  44  45
HETATM   45  C29 UNL     1      14.840 -20.481  -8.977  1.00  0.00    -0.035 C 
HETATM   46  C30 UNL     1      14.997 -20.074 -10.436  1.00  0.00     0.016 C 
HETATM   47  C31 UNL     1      13.372 -20.734  -8.736  1.00  0.00     0.016 C 
HETATM   48  C32 UNL     1      15.551 -21.815  -8.807  1.00  0.00     0.016 C 
ENDBRANCH  44  45
ENDBRANCH  42  44
ENDBRANCH  39  40
ENDBRANCH  28  39
ENDBRANCH  11  19
ENDBRANCH   6   8
ENDBRANCH   4   6
ENDBRANCH   3   4
TORSDOF 13
ENDMDL
MODEL 4
REMARK VINA RESULT: -8.947443822      0.674      1.544
REMARK  13 active torsions:
REMARK  status: ('A' for Active; 'I' for Inactive)
REMARK    1  A    between atoms: C3_3  and  N1_4 
REMARK    2  A    between atoms: N1_4  and  C5_6 
REMARK    3  A    between atoms: C5_6  and  C7_8 
REMARK       I    between atoms: C7_8  and  N2_10 
REMARK    4  A    between atoms: C8_12  and  C9_13 
REMARK    5  A    between atoms: C8_12  and  C14_19 
REMARK    6  A    between atoms: C9_13  and  C10_15 
REMARK    7  A    between atoms: C20_26  and  N3_27 
REMARK       I    between atoms: N3_27  and  C21_29 
REMARK    8  A    between atoms: C21_29  and  O5_31 
REMARK    9  A    between atoms: O5_31  and  C22_32 
REMARK   10  A    between atoms: C26_36  and  O6_37 
REMARK   11  A    between atoms: O6_37  and  C27_38 
REMARK       I    between atoms: C27_38  and  N4_40 
REMARK   12  A    between atoms: N4_40  and  C28_42 
REMARK   13  A    between atoms: C28_42  and  C29_43 
ROOT
HETATM    1  C1  UNL     1      14.966 -23.129  -1.958  1.00  0.00     0.014 C 
HETATM    2  C2  UNL     1      14.430 -24.172  -2.187  1.00  0.00    -0.098 C 
HETATM    3  C3  UNL     1      13.781 -25.449  -2.431  1.00  0.00     0.211 C 
ENDROOT
BRANCH   3   4
HETATM    4  N1  UNL     1      12.732 -25.461  -3.377  1.00  0.00    -0.395 N 
HETATM    5  C4  UNL     1      11.470 -25.950  -3.008  1.00  0.00     0.144 C 
BRANCH   4   6
HETATM    6  C5  UNL     1      13.106 -25.448  -4.744  1.00  0.00     0.168 C 
HETATM    7  C6  UNL     1      14.596 -25.649  -4.871  1.00  0.00     0.042 C 
BRANCH   6   8
HETATM    8  C7  UNL     1      12.581 -24.350  -5.560  1.00  0.00     0.244 C 
HETATM    9  O1  UNL     1      12.694 -23.179  -5.043  1.00  0.00    -0.271 OA
HETATM   10  N2  UNL     1      11.980 -24.405  -6.814  1.00  0.00    -0.323 N 
HETATM   11  C8  UNL     1      12.406 -23.882  -7.916  1.00  0.00     0.088 C 
ATOM     12  H2  UNL     1      11.099 -24.918  -6.870  1.00  0.00     0.169 HD
BRANCH  11  13
HETATM   13  C9  UNL     1      11.553 -24.101  -9.109  1.00  0.00     0.182 C 
HETATM   14  O2  UNL     1      10.864 -23.132  -9.506  1.00  0.00    -0.290 OA
BRANCH  13  15
HETATM   15  C10 UNL     1      11.511 -25.408  -9.819  1.00  0.00     0.016 C 
HETATM   16  C11 UNL     1      10.416 -25.327 -10.865  1.00  0.00     0.023 C 
HETATM   17  C12 UNL     1      11.252 -26.582  -8.937  1.00  0.00     0.023 C 
HETATM   18  C13 UNL     1      12.813 -25.539 -10.625  1.00  0.00     0.023 C 
ENDBRANCH  13  15
ENDBRANCH  11  13
BRANCH  11  19
HETATM   19  C14 UNL     1      13.627 -23.127  -8.112  1.00  0.00     0.176 C 
HETATM   20  C15 UNL     1      13.383 -22.007  -9.119  1.00  0.00     0.043 C 
HETATM   21  C16 UNL     1      14.753 -21.719  -9.701  1.00  0.00    -0.002 C 
HETATM   22  C17 UNL     1      14.736 -20.554 -10.644  1.00  0.00     0.011 C 
HETATM   23  C18 UNL     1      15.756 -21.511  -8.626  1.00  0.00     0.093 C 
HETATM   24  C19 UNL     1      15.766 -20.120  -8.090  1.00  0.00     0.159 C 
HETATM   25  C33 UNL     1      15.560 -22.318  -7.368  1.00  0.00     0.166 C 
HETATM   26  O3  UNL     1      15.192 -19.131  -8.450  1.00  0.00    -0.295 OA
HETATM   27  C20 UNL     1      16.698 -20.204  -6.935  1.00  0.00     0.189 C 
HETATM   28  C26 UNL     1      16.335 -21.563  -6.354  1.00  0.00     0.193 C 
HETATM   29  O8  UNL     1      14.236 -22.560  -7.031  1.00  0.00    -0.371 OA
BRANCH  27  30
HETATM   30  N3  UNL     1      18.048 -20.154  -7.447  1.00  0.00    -0.323 N 
HETATM   31  C21 UNL     1      19.036 -19.279  -6.908  1.00  0.00     0.362 C 
HETATM   32  O4  UNL     1      18.789 -18.493  -5.944  1.00  0.00    -0.238 OA
ATOM     33  H3  UNL     1      18.303 -20.766  -8.221  1.00  0.00     0.165 HD
BRANCH  31  34
HETATM   34  O5  UNL     1      20.309 -19.258  -7.420  1.00  0.00    -0.294 OA
BRANCH  34  35
HETATM   35  C22 UNL     1      21.027 -18.052  -7.647  1.00  0.00     0.061 C 
HETATM   36  C23 UNL     1      20.151 -17.043  -8.342  1.00  0.00     0.046 C 
HETATM   37  C24 UNL     1      21.551 -17.475  -6.377  1.00  0.00     0.046 C 
HETATM   38  C25 UNL     1      22.180 -18.425  -8.579  1.00  0.00     0.046 C 
ENDBRANCH  34  35
ENDBRANCH  31  34
ENDBRANCH  27  30
BRANCH  28  39
HETATM   39  O6  UNL     1      15.807 -21.469  -5.075  1.00  0.00    -0.293 OA
BRANCH  39  40
HETATM   40  C27 UNL     1      16.258 -20.544  -4.155  1.00  0.00     0.361 C 
HETATM   41  O7  UNL     1      15.414 -19.677  -3.800  1.00  0.00    -0.239 OA
HETATM   42  N4  UNL     1      17.583 -20.557  -3.633  1.00  0.00    -0.336 N 
ATOM     43  H4  UNL     1      18.228 -21.280  -3.952  1.00  0.00     0.164 HD
BRANCH  42  44
HETATM   44  C28 UNL     1      18.048 -19.589  -2.673  1.00  0.00     0.133 C 
BRANCH  44  45
HETATM   45  C29 UNL     1      19.535 -19.665  -2.449  1.00  0.00    -0.035 C 
HETATM   46  C30 UNL     1      19.886 -19.405  -0.990  1.00  0.00     0.016 C 
HETATM   47  C31 UNL     1      20.327 -18.689  -3.283  1.00  0.00     0.016 C 
HETATM   48  C32 UNL     1      20.050 -21.056  -2.791  1.00  0.00     0.016 C 
ENDBRANCH  44  45
ENDBRANCH  42  44
ENDBRANCH  39  40
ENDBRANCH  28  39
ENDBRANCH  11  19
ENDBRANCH   6   8
ENDBRANCH   4   6
ENDBRANCH   3   4
TORSDOF 13
ENDMDL
MODEL 5
REMARK VINA RESULT: -8.825314726      3.167     10.973
REMARK  13 active torsions:
REMARK  status: ('A' for Active; 'I' for Inactive)
REMARK    1  A    between atoms: C3_3  and  N1_4 
REMARK    2  A    between atoms: N1_4  and  C5_6 
REMARK    3  A    between atoms: C5_6  and  C7_8 
REMARK       I    between atoms: C7_8  and  N2_10 
REMARK    4  A    between atoms: C8_12  and  C9_13 
REMARK    5  A    between atoms: C8_12  and  C14_19 
REMARK    6  A    between atoms: C9_13  and  C10_15 
REMARK    7  A    between atoms: C20_26  and  N3_27 
REMARK       I    between atoms: N3_27  and  C21_29 
REMARK    8  A    between atoms: C21_29  and  O5_31 
REMARK    9  A    between atoms: O5_31  and  C22_32 
REMARK   10  A    between atoms: C26_36  and  O6_37 
REMARK   11  A    between atoms: O6_37  and  C27_38 
REMARK       I    between atoms: C27_38  and  N4_40 
REMARK   12  A    between atoms: N4_40  and  C28_42 
REMARK   13  A    between atoms: C28_42  and  C29_43 
ROOT
HETATM    1  C1  UNL     1      21.821 -19.224  -8.924  1.00  0.00     0.014 C 
HETATM    2  C2  UNL     1      22.125 -18.255  -8.295  1.00  0.00    -0.098 C 
HETATM    3  C3  UNL     1      22.524 -17.072  -7.551  1.00  0.00     0.211 C 
ENDROOT
BRANCH   3   4
HETATM    4  N1  UNL     1      21.487 -16.235  -7.081  1.00  0.00    -0.395 N 
HETATM    5  C4  UNL     1      20.319 -16.083  -7.842  1.00  0.00     0.144 C 
BRANCH   4   6
HETATM    6  C5  UNL     1      21.851 -15.232  -6.148  1.00  0.00     0.168 C 
HETATM    7  C6  UNL     1      22.938 -14.361  -6.729  1.00  0.00     0.042 C 
BRANCH   6   8
HETATM    8  C7  UNL     1      22.110 -15.673  -4.775  1.00  0.00     0.244 C 
HETATM    9  O1  UNL     1      21.166 -15.436  -3.935  1.00  0.00    -0.271 OA
HETATM   10  N2  UNL     1      23.235 -16.310  -4.260  1.00  0.00    -0.323 N 
HETATM   11  C8  UNL     1      23.304 -17.492  -3.742  1.00  0.00     0.088 C 
ATOM     12  H2  UNL     1      24.108 -15.783  -4.296  1.00  0.00     0.169 HD
BRANCH  11  13
HETATM   13  C9  UNL     1      24.644 -17.915  -3.270  1.00  0.00     0.182 C 
HETATM   14  O2  UNL     1      24.699 -18.543  -2.187  1.00  0.00    -0.290 OA
BRANCH  13  15
HETATM   15  C10 UNL     1      25.882 -17.619  -4.043  1.00  0.00     0.016 C 
HETATM   16  C11 UNL     1      26.722 -16.665  -3.216  1.00  0.00     0.023 C 
HETATM   17  C12 UNL     1      25.641 -17.013  -5.385  1.00  0.00     0.023 C 
HETATM   18  C13 UNL     1      26.707 -18.913  -4.109  1.00  0.00     0.023 C 
ENDBRANCH  13  15
ENDBRANCH  11  13
BRANCH  11  19
HETATM   19  C14 UNL     1      22.223 -18.446  -3.591  1.00  0.00     0.176 C 
HETATM   20  C15 UNL     1      21.519 -18.218  -2.257  1.00  0.00     0.043 C 
HETATM   21  C16 UNL     1      20.894 -19.560  -1.928  1.00  0.00    -0.002 C 
HETATM   22  C17 UNL     1      20.054 -19.505  -0.688  1.00  0.00     0.011 C 
HETATM   23  C18 UNL     1      20.107 -20.077  -3.074  1.00  0.00     0.093 C 
HETATM   24  C19 UNL     1      18.724 -19.524  -3.137  1.00  0.00     0.159 C 
HETATM   25  C33 UNL     1      20.630 -19.739  -4.447  1.00  0.00     0.166 C 
HETATM   26  O3  UNL     1      18.114 -18.834  -2.370  1.00  0.00    -0.295 OA
HETATM   27  C20 UNL     1      18.208 -20.036  -4.435  1.00  0.00     0.189 C 
HETATM   28  C26 UNL     1      19.441 -19.913  -5.318  1.00  0.00     0.193 C 
HETATM   29  O8  UNL     1      21.251 -18.502  -4.546  1.00  0.00    -0.371 OA
BRANCH  27  30
HETATM   30  N3  UNL     1      17.791 -21.405  -4.240  1.00  0.00    -0.323 N 
HETATM   31  C21 UNL     1      16.526 -21.888  -4.686  1.00  0.00     0.362 C 
HETATM   32  O4  UNL     1      15.691 -21.143  -5.283  1.00  0.00    -0.238 OA
ATOM     33  H3  UNL     1      18.424 -22.049  -3.767  1.00  0.00     0.165 HD
BRANCH  31  34
HETATM   34  O5  UNL     1      16.162 -23.195  -4.483  1.00  0.00    -0.294 OA
BRANCH  34  35
HETATM   35  C22 UNL     1      14.969 -23.565  -3.805  1.00  0.00     0.061 C 
HETATM   36  C23 UNL     1      15.051 -23.181  -2.351  1.00  0.00     0.046 C 
HETATM   37  C24 UNL     1      13.766 -22.939  -4.424  1.00  0.00     0.046 C 
HETATM   38  C25 UNL     1      14.890 -25.088  -3.906  1.00  0.00     0.046 C 
ENDBRANCH  34  35
ENDBRANCH  31  34
ENDBRANCH  27  30
BRANCH  28  39
HETATM   39  O6  UNL     1      19.263 -19.011  -6.355  1.00  0.00    -0.293 OA
BRANCH  39  40
HETATM   40  C27 UNL     1      18.012 -18.660  -6.824  1.00  0.00     0.361 C 
HETATM   41  O7  UNL     1      17.615 -17.508  -6.501  1.00  0.00    -0.239 OA
HETATM   42  N4  UNL     1      17.215 -19.531  -7.620  1.00  0.00    -0.336 N 
ATOM     43  H4  UNL     1      17.582 -20.453  -7.855  1.00  0.00     0.164 HD
BRANCH  42  44
HETATM   44  C28 UNL     1      15.910 -19.161  -8.106  1.00  0.00     0.133 C 
BRANCH  44  45
HETATM   45  C29 UNL     1      15.214 -20.293  -8.814  1.00  0.00    -0.035 C 
HETATM   46  C30 UNL     1      15.931 -21.615  -8.574  1.00  0.00     0.016 C 
HETATM   47  C31 UNL     1      15.107 -20.104 -10.307  1.00  0.00     0.016 C 
HETATM   48  C32 UNL     1      13.796 -20.452  -8.287  1.00  0.00     0.016 C 
ENDBRANCH  44  45
ENDBRANCH  42  44
ENDBRANCH  39  40
ENDBRANCH  28  39
ENDBRANCH  11  19
ENDBRANCH   6   8
ENDBRANCH   4   6
ENDBRANCH   3   4
TORSDOF 13
ENDMDL
