MODEL 1
REMARK VINA RESULT: -6.993030886      0.000      0.000
REMARK  10 active torsions:
REMARK  status: ('A' for Active; 'I' for Inactive)
REMARK    1  A    between atoms: C2_2  and  O1_3 
REMARK    2  A    between atoms: C2_2  and  C12_36 
REMARK    3  A    between atoms: O1_3  and  N1_4 
REMARK       I    between atoms: N1_4  and  C3_6 
REMARK    4  A    between atoms: C3_6  and  C4_8 
REMARK    5  A    between atoms: C5_10  and  N2_11 
REMARK    6  A    between atoms: N4_17  and  C7_19 
REMARK    7  A    between atoms: C7_19  and  N5_20 
REMARK    8  A    between atoms: C9_27  and  O3_28 
REMARK    9  A    between atoms: O3_28  and  C10_29 
REMARK       I    between atoms: C12_36  and  N12_38 
REMARK   10  A    between atoms: N12_38  and  N13_40 
ROOT
HETATM    1  C4  UNL     1     -37.362   4.076   0.116  1.00  0.00     0.116 A 
HETATM    2  S1  UNL     1     -37.155   2.336   0.127  1.00  0.00    -0.046 SA
HETATM    3  C5  UNL     1     -35.892   1.804  -0.862  1.00  0.00     0.144 A 
HETATM    4  N3  UNL     1     -35.233   2.758  -1.506  1.00  0.00    -0.321 N 
ATOM      5  H3  UNL     1     -34.467   2.456  -2.108  1.00  0.00     0.169 HD
HETATM    6  C6  UNL     1     -35.461   4.050  -1.449  1.00  0.00     0.144 A 
HETATM    7  N4  UNL     1     -34.733   4.849  -2.136  1.00  0.00    -0.333 N 
ATOM      8  H4  UNL     1     -34.983   5.833  -2.030  1.00  0.00     0.168 HD
HETATM    9  C9  UNL     1     -36.458   4.686  -0.690  1.00  0.00     0.146 A 
ENDROOT
BRANCH   1  10
HETATM   10  C3  UNL     1     -38.416   4.673   0.898  1.00  0.00     0.285 C 
HETATM   11  N1  UNL     1     -39.300   5.690   0.592  1.00  0.00    -0.229 N 
ATOM     12  H1  UNL     1     -39.245   6.125  -0.329  1.00  0.00     0.198 HD
HETATM   13  O2  UNL     1     -38.552   4.162   2.076  1.00  0.00    -0.265 OA
BRANCH  11  14
HETATM   14  O1  UNL     1     -40.254   6.141   1.486  1.00  0.00    -0.263 OA
BRANCH  14  15
HETATM   15  C2  UNL     1     -40.923   7.251   1.031  1.00  0.00     0.241 C 
HETATM   16  C1  UNL     1     -42.208   6.876   0.301  1.00  0.00     0.052 C 
BRANCH  15  17
HETATM   17  C12 UNL     1     -40.106   7.992   0.054  1.00  0.00     0.266 C 
HETATM   18  O4  UNL     1     -40.409   7.787  -1.174  1.00  0.00    -0.269 OA
HETATM   19  N12 UNL     1     -39.054   8.874   0.335  1.00  0.00    -0.274 N 
ATOM     20  H12 UNL     1     -38.792   9.055   1.304  1.00  0.00     0.189 HD
BRANCH  19  21
HETATM   21  N13 UNL     1     -38.367   9.503  -0.691  1.00  0.00    -0.343 N 
ATOM     22 2H13 UNL     1     -38.888   9.809  -1.514  1.00  0.00     0.176 HD
ATOM     23 1H13 UNL     1     -37.361   9.656  -0.625  1.00  0.00     0.176 HD
ENDBRANCH  19  21
ENDBRANCH  15  17
ENDBRANCH  14  15
ENDBRANCH  11  14
ENDBRANCH   1  10
BRANCH   9  24
HETATM   24  O3  UNL     1     -36.496   6.104  -0.780  1.00  0.00    -0.273 OA
BRANCH  24  25
HETATM   25  C10 UNL     1     -36.993   6.579  -2.023  1.00  0.00     0.237 C 
HETATM   26  N9  UNL     1     -38.105   6.211  -2.543  1.00  0.00    -0.340 N 
HETATM   27  C11 UNL     1     -38.340   6.869  -3.817  1.00  0.00     0.259 C 
ATOM     28  H9  UNL     1     -38.744   5.541  -2.116  1.00  0.00     0.164 HD
HETATM   29  N10 UNL     1     -37.086   7.500  -4.146  1.00  0.00    -0.118 NA
HETATM   30  N11 UNL     1     -36.407   7.504  -2.906  1.00  0.00    -0.267 N 
ATOM     31  H11 UNL     1     -35.606   8.095  -2.684  1.00  0.00     0.186 HD
ENDBRANCH  24  25
ENDBRANCH   9  24
BRANCH   3  32
HETATM   32  N2  UNL     1     -35.535   0.554  -1.026  1.00  0.00    -0.380 N 
ATOM     33  H22 UNL     1     -36.141  -0.189  -0.678  1.00  0.00     0.158 HD
ATOM     34  H21 UNL     1     -34.679   0.241  -1.485  1.00  0.00     0.158 HD
ENDBRANCH   3  32
BRANCH   7  35
HETATM   35  C7  UNL     1     -33.652   4.622  -3.011  1.00  0.00     0.232 C 
BRANCH  35  36
HETATM   36  N5  UNL     1     -33.689   5.370  -4.246  1.00  0.00    -0.159 N 
HETATM   37  N6  UNL     1     -32.929   6.331  -4.719  1.00  0.00    -0.203 N 
HETATM   38  N7  UNL     1     -33.643   6.385  -5.808  1.00  0.00    -0.208 N 
ATOM     39  H6  UNL     1     -32.111   6.833  -4.374  1.00  0.00     0.212 HD
HETATM   40  N8  UNL     1     -34.409   5.421  -5.338  1.00  0.00    -0.200 N 
ATOM     41  H7  UNL     1     -33.620   6.939  -6.664  1.00  0.00     0.211 HD
HETATM   42  C8  UNL     1     -35.592   4.704  -5.857  1.00  0.00     0.204 C 
ENDBRANCH  35  36
ENDBRANCH   7  35
TORSDOF 10
ENDMDL
MODEL 2
REMARK VINA RESULT: -6.965186476      2.364      5.200
REMARK  10 active torsions:
REMARK  status: ('A' for Active; 'I' for Inactive)
REMARK    1  A    between atoms: C2_2  and  O1_3 
REMARK    2  A    between atoms: C2_2  and  C12_36 
REMARK    3  A    between atoms: O1_3  and  N1_4 
REMARK       I    between atoms: N1_4  and  C3_6 
REMARK    4  A    between atoms: C3_6  and  C4_8 
REMARK    5  A    between atoms: C5_10  and  N2_11 
REMARK    6  A    between atoms: N4_17  and  C7_19 
REMARK    7  A    between atoms: C7_19  and  N5_20 
REMARK    8  A    between atoms: C9_27  and  O3_28 
REMARK    9  A    between atoms: O3_28  and  C10_29 
REMARK       I    between atoms: C12_36  and  N12_38 
REMARK   10  A    between atoms: N12_38  and  N13_40 
ROOT
HETATM    1  C4  UNL     1     -38.906   6.851  -0.221  1.00  0.00     0.116 A 
HETATM    2  S1  UNL     1     -38.968   8.557   0.174  1.00  0.00    -0.046 SA
HETATM    3  C5  UNL     1     -38.758   9.564  -1.166  1.00  0.00     0.144 A 
HETATM    4  N3  UNL     1     -38.577   8.942  -2.323  1.00  0.00    -0.321 N 
ATOM      5  H3  UNL     1     -38.448   9.533  -3.143  1.00  0.00     0.169 HD
HETATM    6  C6  UNL     1     -38.548   7.645  -2.524  1.00  0.00     0.144 A 
HETATM    7  N4  UNL     1     -38.361   7.194  -3.708  1.00  0.00    -0.333 N 
ATOM      8  H4  UNL     1     -38.353   6.176  -3.769  1.00  0.00     0.168 HD
HETATM    9  C9  UNL     1     -38.702   6.647  -1.546  1.00  0.00     0.146 A 
ENDROOT
BRANCH   1  10
HETATM   10  C3  UNL     1     -39.049   5.871   0.828  1.00  0.00     0.285 C 
HETATM   11  N1  UNL     1     -38.197   4.867   1.245  1.00  0.00    -0.229 N 
ATOM     12  H1  UNL     1     -37.301   4.757   0.770  1.00  0.00     0.198 HD
HETATM   13  O2  UNL     1     -40.158   5.959   1.483  1.00  0.00    -0.265 OA
BRANCH  11  14
HETATM   14  O1  UNL     1     -38.512   4.005   2.280  1.00  0.00    -0.263 OA
BRANCH  14  15
HETATM   15  C2  UNL     1     -37.487   3.141   2.581  1.00  0.00     0.241 C 
HETATM   16  C1  UNL     1     -36.263   3.881   3.109  1.00  0.00     0.052 C 
BRANCH  15  17
HETATM   17  C12 UNL     1     -37.037   2.423   1.376  1.00  0.00     0.266 C 
HETATM   18  O4  UNL     1     -37.965   1.847   0.708  1.00  0.00    -0.269 OA
HETATM   19  N12 UNL     1     -35.721   2.313   0.906  1.00  0.00    -0.274 N 
ATOM     20  H12 UNL     1     -34.962   2.763   1.419  1.00  0.00     0.189 HD
BRANCH  19  21
HETATM   21  N13 UNL     1     -35.441   1.600  -0.248  1.00  0.00    -0.343 N 
ATOM     22 2H13 UNL     1     -36.124   1.608  -1.007  1.00  0.00     0.176 HD
ATOM     23 1H13 UNL     1     -34.571   1.076  -0.337  1.00  0.00     0.176 HD
ENDBRANCH  19  21
ENDBRANCH  15  17
ENDBRANCH  14  15
ENDBRANCH  11  14
ENDBRANCH   1  10
BRANCH   9  24
HETATM   24  O3  UNL     1     -38.650   5.307  -2.013  1.00  0.00    -0.273 OA
BRANCH  24  25
HETATM   25  C10 UNL     1     -37.327   4.826  -2.205  1.00  0.00     0.237 C 
HETATM   26  N9  UNL     1     -36.971   4.058  -3.167  1.00  0.00    -0.340 N 
HETATM   27  C11 UNL     1     -35.555   3.737  -3.096  1.00  0.00     0.259 C 
ATOM     28  H9  UNL     1     -37.601   3.716  -3.891  1.00  0.00     0.164 HD
HETATM   29  N10 UNL     1     -35.134   4.200  -1.797  1.00  0.00    -0.118 NA
HETATM   30  N11 UNL     1     -36.182   5.073  -1.425  1.00  0.00    -0.267 N 
ATOM     31  H11 UNL     1     -36.117   5.782  -0.695  1.00  0.00     0.186 HD
ENDBRANCH  24  25
ENDBRANCH   9  24
BRANCH   3  32
HETATM   32  N2  UNL     1     -38.763  10.875  -1.135  1.00  0.00    -0.380 N 
ATOM     33  H22 UNL     1     -37.997  11.367  -0.676  1.00  0.00     0.158 HD
ATOM     34  H21 UNL     1     -39.486  11.469  -1.540  1.00  0.00     0.158 HD
ENDBRANCH   3  32
BRANCH   7  35
HETATM   35  C7  UNL     1     -38.164   7.845  -4.943  1.00  0.00     0.232 C 
BRANCH  35  36
HETATM   36  N5  UNL     1     -37.046   7.365  -5.722  1.00  0.00    -0.159 N 
HETATM   37  N6  UNL     1     -36.927   7.046  -6.991  1.00  0.00    -0.203 N 
HETATM   38  N7  UNL     1     -35.669   6.752  -6.818  1.00  0.00    -0.208 N 
ATOM     39  H6  UNL     1     -37.561   7.034  -7.789  1.00  0.00     0.212 HD
HETATM   40  N8  UNL     1     -35.783   7.070  -5.544  1.00  0.00    -0.200 N 
ATOM     41  H7  UNL     1     -34.914   6.417  -7.416  1.00  0.00     0.211 HD
HETATM   42  C8  UNL     1     -34.848   7.084  -4.401  1.00  0.00     0.204 C 
ENDBRANCH  35  36
ENDBRANCH   7  35
TORSDOF 10
ENDMDL
MODEL 3
REMARK VINA RESULT: -6.745637086      2.562      5.635
REMARK  10 active torsions:
REMARK  status: ('A' for Active; 'I' for Inactive)
REMARK    1  A    between atoms: C2_2  and  O1_3 
REMARK    2  A    between atoms: C2_2  and  C12_36 
REMARK    3  A    between atoms: O1_3  and  N1_4 
REMARK       I    between atoms: N1_4  and  C3_6 
REMARK    4  A    between atoms: C3_6  and  C4_8 
REMARK    5  A    between atoms: C5_10  and  N2_11 
REMARK    6  A    between atoms: N4_17  and  C7_19 
REMARK    7  A    between atoms: C7_19  and  N5_20 
REMARK    8  A    between atoms: C9_27  and  O3_28 
REMARK    9  A    between atoms: O3_28  and  C10_29 
REMARK       I    between atoms: C12_36  and  N12_38 
REMARK   10  A    between atoms: N12_38  and  N13_40 
ROOT
HETATM    1  C4  UNL     1     -38.889   6.946  -0.226  1.00  0.00     0.116 A 
HETATM    2  S1  UNL     1     -38.987   8.650   0.171  1.00  0.00    -0.046 SA
HETATM    3  C5  UNL     1     -38.784   9.663  -1.166  1.00  0.00     0.144 A 
HETATM    4  N3  UNL     1     -38.581   9.046  -2.322  1.00  0.00    -0.321 N 
ATOM      5  H3  UNL     1     -38.455   9.641  -3.140  1.00  0.00     0.169 HD
HETATM    6  C6  UNL     1     -38.525   7.750  -2.524  1.00  0.00     0.144 A 
HETATM    7  N4  UNL     1     -38.318   7.305  -3.707  1.00  0.00    -0.333 N 
ATOM      8  H4  UNL     1     -38.290   6.287  -3.769  1.00  0.00     0.168 HD
HETATM    9  C9  UNL     1     -38.669   6.748  -1.549  1.00  0.00     0.146 A 
ENDROOT
BRANCH   1  10
HETATM   10  C3  UNL     1     -39.023   5.962   0.820  1.00  0.00     0.285 C 
HETATM   11  N1  UNL     1     -38.181   4.936   1.205  1.00  0.00    -0.229 N 
ATOM     12  H1  UNL     1     -37.302   4.809   0.702  1.00  0.00     0.198 HD
HETATM   13  O2  UNL     1     -40.109   6.069   1.509  1.00  0.00    -0.265 OA
BRANCH  11  14
HETATM   14  O1  UNL     1     -38.484   4.074   2.243  1.00  0.00    -0.263 OA
BRANCH  14  15
HETATM   15  C2  UNL     1     -37.484   3.164   2.486  1.00  0.00     0.241 C 
HETATM   16  C1  UNL     1     -36.256   3.827   3.101  1.00  0.00     0.052 C 
BRANCH  15  17
HETATM   17  C12 UNL     1     -37.022   2.545   1.231  1.00  0.00     0.266 C 
HETATM   18  O4  UNL     1     -37.953   2.121   0.460  1.00  0.00    -0.269 OA
HETATM   19  N12 UNL     1     -35.695   2.381   0.815  1.00  0.00    -0.274 N 
ATOM     20  H12 UNL     1     -34.934   2.710   1.409  1.00  0.00     0.189 HD
BRANCH  19  21
HETATM   21  N13 UNL     1     -35.406   1.775  -0.398  1.00  0.00    -0.343 N 
ATOM     22 2H13 UNL     1     -35.366   0.756  -0.440  1.00  0.00     0.176 HD
ATOM     23 1H13 UNL     1     -35.236   2.337  -1.232  1.00  0.00     0.176 HD
ENDBRANCH  19  21
ENDBRANCH  15  17
ENDBRANCH  14  15
ENDBRANCH  11  14
ENDBRANCH   1  10
BRANCH   9  24
HETATM   24  O3  UNL     1     -38.586   5.410  -2.018  1.00  0.00    -0.273 OA
BRANCH  24  25
HETATM   25  C10 UNL     1     -37.253   4.965  -2.227  1.00  0.00     0.237 C 
HETATM   26  N9  UNL     1     -36.883   4.236  -3.213  1.00  0.00    -0.340 N 
HETATM   27  C11 UNL     1     -35.460   3.944  -3.155  1.00  0.00     0.259 C 
ATOM     28  H9  UNL     1     -37.507   3.902  -3.947  1.00  0.00     0.164 HD
HETATM   29  N10 UNL     1     -35.047   4.375  -1.842  1.00  0.00    -0.118 NA
HETATM   30  N11 UNL     1     -36.112   5.213  -1.441  1.00  0.00    -0.267 N 
ATOM     31  H11 UNL     1     -36.061   5.901  -0.690  1.00  0.00     0.186 HD
ENDBRANCH  24  25
ENDBRANCH   9  24
BRANCH   3  32
HETATM   32  N2  UNL     1     -38.815  10.973  -1.133  1.00  0.00    -0.380 N 
ATOM     33  H22 UNL     1     -39.668  11.461  -1.408  1.00  0.00     0.158 HD
ATOM     34  H21 UNL     1     -38.040  11.572  -0.848  1.00  0.00     0.158 HD
ENDBRANCH   3  32
BRANCH   7  35
HETATM   35  C7  UNL     1     -38.122   7.961  -4.940  1.00  0.00     0.232 C 
BRANCH  35  36
HETATM   36  N5  UNL     1     -39.209   7.841  -5.883  1.00  0.00    -0.159 N 
HETATM   37  N6  UNL     1     -39.880   8.735  -6.575  1.00  0.00    -0.203 N 
HETATM   38  N7  UNL     1     -40.605   7.797  -7.117  1.00  0.00    -0.208 N 
ATOM     39  H6  UNL     1     -39.847   9.750  -6.655  1.00  0.00     0.212 HD
HETATM   40  N8  UNL     1     -39.936   6.897  -6.424  1.00  0.00    -0.200 N 
ATOM     41  H7  UNL     1     -41.369   7.770  -7.792  1.00  0.00     0.211 HD
HETATM   42  C8  UNL     1     -39.998   5.424  -6.324  1.00  0.00     0.204 C 
ENDBRANCH  35  36
ENDBRANCH   7  35
TORSDOF 10
ENDMDL
MODEL 4
REMARK VINA RESULT: -6.618855580      2.741      5.167
REMARK  10 active torsions:
REMARK  status: ('A' for Active; 'I' for Inactive)
REMARK    1  A    between atoms: C2_2  and  O1_3 
REMARK    2  A    between atoms: C2_2  and  C12_36 
REMARK    3  A    between atoms: O1_3  and  N1_4 
REMARK       I    between atoms: N1_4  and  C3_6 
REMARK    4  A    between atoms: C3_6  and  C4_8 
REMARK    5  A    between atoms: C5_10  and  N2_11 
REMARK    6  A    between atoms: N4_17  and  C7_19 
REMARK    7  A    between atoms: C7_19  and  N5_20 
REMARK    8  A    between atoms: C9_27  and  O3_28 
REMARK    9  A    between atoms: O3_28  and  C10_29 
REMARK       I    between atoms: C12_36  and  N12_38 
REMARK   10  A    between atoms: N12_38  and  N13_40 
ROOT
HETATM    1  C4  UNL     1     -38.890   6.745  -0.286  1.00  0.00     0.116 A 
HETATM    2  S1  UNL     1     -38.957   8.449   0.117  1.00  0.00    -0.046 SA
HETATM    3  C5  UNL     1     -38.717   9.463  -1.213  1.00  0.00     0.144 A 
HETATM    4  N3  UNL     1     -38.513   8.846  -2.370  1.00  0.00    -0.321 N 
ATOM      5  H3  UNL     1     -38.365   9.442  -3.184  1.00  0.00     0.169 HD
HETATM    6  C6  UNL     1     -38.482   7.551  -2.577  1.00  0.00     0.144 A 
HETATM    7  N4  UNL     1     -38.271   7.106  -3.759  1.00  0.00    -0.333 N 
ATOM      8  H4  UNL     1     -38.264   6.087  -3.825  1.00  0.00     0.168 HD
HETATM    9  C9  UNL     1     -38.659   6.548  -1.608  1.00  0.00     0.146 A 
ENDROOT
BRANCH   1  10
HETATM   10  C3  UNL     1     -39.057   5.760   0.755  1.00  0.00     0.285 C 
HETATM   11  N1  UNL     1     -38.289   4.662   1.086  1.00  0.00    -0.229 N 
ATOM     12  H1  UNL     1     -37.448   4.469   0.541  1.00  0.00     0.198 HD
HETATM   13  O2  UNL     1     -40.098   5.948   1.496  1.00  0.00    -0.265 OA
BRANCH  11  14
HETATM   14  O1  UNL     1     -38.614   3.812   2.129  1.00  0.00    -0.263 OA
BRANCH  14  15
HETATM   15  C2  UNL     1     -37.533   3.105   2.594  1.00  0.00     0.241 C 
HETATM   16  C1  UNL     1     -37.949   1.765   3.190  1.00  0.00     0.052 C 
BRANCH  15  17
HETATM   17  C12 UNL     1     -36.857   3.837   3.681  1.00  0.00     0.266 C 
HETATM   18  O4  UNL     1     -35.881   4.580   3.310  1.00  0.00    -0.269 OA
HETATM   19  N12 UNL     1     -37.172   3.794   5.045  1.00  0.00    -0.274 N 
ATOM     20  H12 UNL     1     -37.945   3.210   5.367  1.00  0.00     0.189 HD
BRANCH  19  21
HETATM   21  N13 UNL     1     -36.445   4.538   5.961  1.00  0.00    -0.343 N 
ATOM     22 2H13 UNL     1     -36.112   4.080   6.810  1.00  0.00     0.176 HD
ATOM     23 1H13 UNL     1     -36.246   5.523   5.789  1.00  0.00     0.176 HD
ENDBRANCH  19  21
ENDBRANCH  15  17
ENDBRANCH  14  15
ENDBRANCH  11  14
ENDBRANCH   1  10
BRANCH   9  24
HETATM   24  O3  UNL     1     -38.599   5.210  -2.081  1.00  0.00    -0.273 OA
BRANCH  24  25
HETATM   25  C10 UNL     1     -37.275   4.748  -2.305  1.00  0.00     0.237 C 
HETATM   26  N9  UNL     1     -36.930   3.991  -3.280  1.00  0.00    -0.340 N 
HETATM   27  C11 UNL     1     -35.509   3.689  -3.243  1.00  0.00     0.259 C 
ATOM     28  H9  UNL     1     -37.572   3.645  -3.993  1.00  0.00     0.164 HD
HETATM   29  N10 UNL     1     -35.066   4.147  -1.950  1.00  0.00    -0.118 NA
HETATM   30  N11 UNL     1     -36.116   5.004  -1.548  1.00  0.00    -0.267 N 
ATOM     31  H11 UNL     1     -36.044   5.710  -0.815  1.00  0.00     0.186 HD
ENDBRANCH  24  25
ENDBRANCH   9  24
BRANCH   3  32
HETATM   32  N2  UNL     1     -38.721  10.773  -1.175  1.00  0.00    -0.380 N 
ATOM     33  H22 UNL     1     -39.468  11.286  -1.644  1.00  0.00     0.158 HD
ATOM     34  H21 UNL     1     -38.022  11.350  -0.705  1.00  0.00     0.158 HD
ENDBRANCH   3  32
BRANCH   7  35
HETATM   35  C7  UNL     1     -38.047   7.762  -4.986  1.00  0.00     0.232 C 
BRANCH  35  36
HETATM   36  N5  UNL     1     -36.872   7.335  -5.709  1.00  0.00    -0.159 N 
HETATM   37  N6  UNL     1     -36.676   7.027  -6.971  1.00  0.00    -0.203 N 
HETATM   38  N7  UNL     1     -35.417   6.787  -6.736  1.00  0.00    -0.208 N 
ATOM     39  H6  UNL     1     -37.268   6.990  -7.800  1.00  0.00     0.212 HD
HETATM   40  N8  UNL     1     -35.608   7.094  -5.469  1.00  0.00    -0.200 N 
ATOM     41  H7  UNL     1     -34.619   6.488  -7.296  1.00  0.00     0.211 HD
HETATM   42  C8  UNL     1     -34.732   7.144  -4.281  1.00  0.00     0.204 C 
ENDBRANCH  35  36
ENDBRANCH   7  35
TORSDOF 10
ENDMDL
MODEL 5
REMARK VINA RESULT: -6.460357347      3.028      5.834
REMARK  10 active torsions:
REMARK  status: ('A' for Active; 'I' for Inactive)
REMARK    1  A    between atoms: C2_2  and  O1_3 
REMARK    2  A    between atoms: C2_2  and  C12_36 
REMARK    3  A    between atoms: O1_3  and  N1_4 
REMARK       I    between atoms: N1_4  and  C3_6 
REMARK    4  A    between atoms: C3_6  and  C4_8 
REMARK    5  A    between atoms: C5_10  and  N2_11 
REMARK    6  A    between atoms: N4_17  and  C7_19 
REMARK    7  A    between atoms: C7_19  and  N5_20 
REMARK    8  A    between atoms: C9_27  and  O3_28 
REMARK    9  A    between atoms: O3_28  and  C10_29 
REMARK       I    between atoms: C12_36  and  N12_38 
REMARK   10  A    between atoms: N12_38  and  N13_40 
ROOT
HETATM    1  C4  UNL     1     -38.897   6.916  -0.206  1.00  0.00     0.116 A 
HETATM    2  S1  UNL     1     -39.016   8.616   0.203  1.00  0.00    -0.046 SA
HETATM    3  C5  UNL     1     -38.764   9.642  -1.116  1.00  0.00     0.144 A 
HETATM    4  N3  UNL     1     -38.515   9.037  -2.269  1.00  0.00    -0.321 N 
ATOM      5  H3  UNL     1     -38.360   9.640  -3.076  1.00  0.00     0.169 HD
HETATM    6  C6  UNL     1     -38.447   7.743  -2.481  1.00  0.00     0.144 A 
HETATM    7  N4  UNL     1     -38.194   7.310  -3.660  1.00  0.00    -0.333 N 
ATOM      8  H4  UNL     1     -38.161   6.292  -3.730  1.00  0.00     0.168 HD
HETATM    9  C9  UNL     1     -38.626   6.732  -1.522  1.00  0.00     0.146 A 
ENDROOT
BRANCH   1  10
HETATM   10  C3  UNL     1     -39.068   5.922   0.825  1.00  0.00     0.285 C 
HETATM   11  N1  UNL     1     -38.254   4.875   1.211  1.00  0.00    -0.229 N 
ATOM     12  H1  UNL     1     -37.369   4.738   0.723  1.00  0.00     0.198 HD
HETATM   13  O2  UNL     1     -40.165   6.042   1.496  1.00  0.00    -0.265 OA
BRANCH  11  14
HETATM   14  O1  UNL     1     -38.591   4.006   2.233  1.00  0.00    -0.263 OA
BRANCH  14  15
HETATM   15  C2  UNL     1     -37.492   3.478   2.865  1.00  0.00     0.241 C 
HETATM   16  C1  UNL     1     -36.653   2.627   1.919  1.00  0.00     0.052 C 
BRANCH  15  17
HETATM   17  C12 UNL     1     -37.899   2.581   3.961  1.00  0.00     0.266 C 
HETATM   18  O4  UNL     1     -38.998   1.951   3.768  1.00  0.00    -0.269 OA
HETATM   19  N12 UNL     1     -37.215   2.359   5.163  1.00  0.00    -0.274 N 
ATOM     20  H12 UNL     1     -36.337   2.848   5.342  1.00  0.00     0.189 HD
BRANCH  19  21
HETATM   21  N13 UNL     1     -37.719   1.483   6.111  1.00  0.00    -0.343 N 
ATOM     22 2H13 UNL     1     -38.036   0.561   5.808  1.00  0.00     0.176 HD
ATOM     23 1H13 UNL     1     -37.773   1.755   7.093  1.00  0.00     0.176 HD
ENDBRANCH  19  21
ENDBRANCH  15  17
ENDBRANCH  14  15
ENDBRANCH  11  14
ENDBRANCH   1  10
BRANCH   9  24
HETATM   24  O3  UNL     1     -38.521   5.398  -1.999  1.00  0.00    -0.273 OA
BRANCH  24  25
HETATM   25  C10 UNL     1     -37.183   4.988  -2.244  1.00  0.00     0.237 C 
HETATM   26  N9  UNL     1     -36.194   5.261  -1.477  1.00  0.00    -0.340 N 
HETATM   27  C11 UNL     1     -34.953   4.706  -1.991  1.00  0.00     0.259 C 
ATOM     28  H9  UNL     1     -36.268   5.800  -0.615  1.00  0.00     0.164 HD
HETATM   29  N10 UNL     1     -35.266   4.274  -3.330  1.00  0.00    -0.118 NA
HETATM   30  N11 UNL     1     -36.679   4.234  -3.320  1.00  0.00    -0.267 N 
ATOM     31  H11 UNL     1     -37.252   3.730  -3.997  1.00  0.00     0.186 HD
ENDBRANCH  24  25
ENDBRANCH   9  24
BRANCH   3  32
HETATM   32  N2  UNL     1     -38.800  10.952  -1.072  1.00  0.00    -0.380 N 
ATOM     33  H22 UNL     1     -38.025  11.487  -1.462  1.00  0.00     0.158 HD
ATOM     34  H21 UNL     1     -39.557  11.506  -0.670  1.00  0.00     0.158 HD
ENDBRANCH   3  32
BRANCH   7  35
HETATM   35  C7  UNL     1     -37.953   7.978  -4.877  1.00  0.00     0.232 C 
BRANCH  35  36
HETATM   36  N5  UNL     1     -39.019   7.898  -5.847  1.00  0.00    -0.159 N 
HETATM   37  N6  UNL     1     -39.632   8.813  -6.563  1.00  0.00    -0.203 N 
HETATM   38  N7  UNL     1     -40.383   7.904  -7.117  1.00  0.00    -0.208 N 
ATOM     39  H6  UNL     1     -39.553   9.826  -6.650  1.00  0.00     0.212 HD
HETATM   40  N8  UNL     1     -39.772   6.981  -6.401  1.00  0.00    -0.200 N 
ATOM     41  H7  UNL     1     -41.130   7.904  -7.812  1.00  0.00     0.211 HD
HETATM   42  C8  UNL     1     -39.900   5.513  -6.292  1.00  0.00     0.204 C 
ENDBRANCH  35  36
ENDBRANCH   7  35
TORSDOF 10
ENDMDL
