MODEL 1
REMARK VINA RESULT: -6.394164864      0.000      0.000
REMARK  17 active torsions:
REMARK  status: ('A' for Active; 'I' for Inactive)
REMARK    1  A    between atoms: N1_2  and  C2_4 
REMARK    2  A    between atoms: C4_9  and  N4_10 
REMARK    3  A    between atoms: N5_12  and  O1_14 
REMARK    4  A    between atoms: O1_14  and  C5_15 
REMARK    5  A    between atoms: C5_15  and  C6_16 
REMARK    6  A    between atoms: C5_15  and  N8_25 
REMARK       I    between atoms: C6_16  and  N6_18 
REMARK    7  A    between atoms: N6_18  and  N7_20 
REMARK    8  A    between atoms: N7_20  and  O3_21 
REMARK    9  A    between atoms: N7_20  and  O4_23 
REMARK   10  A    between atoms: N8_25  and  O5_26 
REMARK   11  A    between atoms: N8_25  and  C7_28 
REMARK   12  A    between atoms: C7_28  and  N9_30 
REMARK   13  A    between atoms: N9_30  and  O6_31 
REMARK   14  A    between atoms: N9_30  and  N10_33 
REMARK   15  A    between atoms: N10_33  and  O7_35 
REMARK   16  A    between atoms: C8_37  and  N11_38 
REMARK   17  A    between atoms: N11_38  and  O8_40 
ROOT
HETATM    1  C5  UNL     1     -56.820   7.834   6.462  1.00  0.00     0.377 C 
ENDROOT
BRANCH   1   2
HETATM    2  O1  UNL     1     -56.879   8.476   5.196  1.00  0.00    -0.227 OA
BRANCH   2   3
HETATM    3  N5  UNL     1     -55.764   9.217   4.800  1.00  0.00    -0.204 N 
HETATM    4  N4  UNL     1     -55.742  10.403   5.211  1.00  0.00    -0.274 N 
ATOM      5  H4  UNL     1     -56.507  10.750   5.790  1.00  0.00     0.189 HD
ATOM      6  H5  UNL     1     -55.023   8.824   4.220  1.00  0.00     0.216 HD
BRANCH   4   7
HETATM    7  C4  UNL     1     -54.679  11.257   4.885  1.00  0.00     0.138 A 
HETATM    8  C3  UNL     1     -54.690  11.907   3.660  1.00  0.00     0.163 A 
HETATM    9  N2  UNL     1     -53.673  12.739   3.321  1.00  0.00    -0.176 N 
HETATM   10  N3  UNL     1     -55.770  11.690   2.770  1.00  0.00    -0.080 NA
HETATM   11  C2  UNL     1     -52.660  12.923   4.189  1.00  0.00     0.680 A 
ATOM     12  H2  UNL     1     -53.676  13.218   2.420  1.00  0.00     0.185 HD
HETATM   13  N12 UNL     1     -52.639  12.295   5.382  1.00  0.00    -0.173 N 
HETATM   14  C8  UNL     1     -53.615  11.469   5.760  1.00  0.00     0.172 A 
ATOM     15  H12 UNL     1     -51.854  12.457   6.014  1.00  0.00     0.186 HD
BRANCH  11  16
HETATM   16  N1  UNL     1     -51.685  13.700   3.900  1.00  0.00    -0.230 N 
HETATM   17  C1  UNL     1     -50.476  13.322   3.242  1.00  0.00     0.165 C 
ATOM     18  H1  UNL     1     -51.781  14.681   4.166  1.00  0.00     0.177 HD
ENDBRANCH  11  16
BRANCH  14  19
HETATM   19  N11 UNL     1     -53.650  10.841   6.893  1.00  0.00    -0.251 N 
ATOM     20  H11 UNL     1     -54.298  10.061   7.001  1.00  0.00     0.196 HD
BRANCH  19  21
HETATM   21  O8  UNL     1     -52.852  11.185   7.950  1.00  0.00    -0.288 OA
ATOM     22  H8  UNL     1     -53.165  11.713   8.675  1.00  0.00     0.244 HD
ENDBRANCH  19  21
ENDBRANCH  14  19
ENDBRANCH   4   7
ENDBRANCH   2   3
ENDBRANCH   1   2
BRANCH   1  23
HETATM   23  C6  UNL     1     -56.938   8.927   7.522  1.00  0.00     0.289 C 
HETATM   24  O2  UNL     1     -57.604   9.923   7.244  1.00  0.00    -0.267 OA
HETATM   25  N6  UNL     1     -56.279   8.732   8.751  1.00  0.00    -0.238 N 
ATOM     26  H6  UNL     1     -55.749   7.872   8.890  1.00  0.00     0.188 HD
BRANCH  25  27
HETATM   27  N7  UNL     1     -56.319   9.671   9.793  1.00  0.00     0.036 NA
BRANCH  27  28
HETATM   28  O3  UNL     1     -55.372  10.601   9.483  1.00  0.00    -0.271 OA
ATOM     29  H3  UNL     1     -55.443  10.731   8.544  1.00  0.00     0.241 HD
ENDBRANCH  27  28
BRANCH  27  30
HETATM   30  O4  UNL     1     -55.966   8.995  10.924  1.00  0.00    -0.271 OA
ATOM     31  H4  UNL     1     -56.018   9.624  11.634  1.00  0.00     0.241 HD
ENDBRANCH  27  30
ENDBRANCH  25  27
ENDBRANCH   1  23
BRANCH   1  32
HETATM   32  N8  UNL     1     -55.596   7.153   6.730  1.00  0.00    -0.189 N 
BRANCH  32  33
HETATM   33  O5  UNL     1     -54.416   7.894   6.830  1.00  0.00    -0.282 OA
ATOM     34  H5  UNL     1     -53.583   7.437   6.831  1.00  0.00     0.245 HD
ENDBRANCH  32  33
BRANCH  32  35
HETATM   35  C7  UNL     1     -55.458   5.787   6.910  1.00  0.00     0.247 C 
HETATM   36  S1  UNL     1     -56.366   4.795   5.912  1.00  0.00    -0.035 SA
BRANCH  35  37
HETATM   37  N9  UNL     1     -54.625   5.173   7.856  1.00  0.00    -0.113 N 
BRANCH  37  38
HETATM   38  O6  UNL     1     -53.288   5.092   7.847  1.00  0.00    -0.264 OA
ATOM     39  H6  UNL     1     -52.680   5.540   7.272  1.00  0.00     0.247 HD
ENDBRANCH  37  38
BRANCH  37  40
HETATM   40  N10 UNL     1     -55.254   4.553   8.973  1.00  0.00    -0.181 N 
ATOM     41  H10 UNL     1     -55.576   3.585   8.951  1.00  0.00     0.218 HD
BRANCH  40  42
HETATM   42  O7  UNL     1     -55.385   5.282   9.988  1.00  0.00    -0.272 OA
ATOM     43  H7  UNL     1     -54.837   5.049  10.729  1.00  0.00     0.246 HD
ENDBRANCH  40  42
ENDBRANCH  37  40
ENDBRANCH  35  37
ENDBRANCH  32  35
ENDBRANCH   1  32
TORSDOF 17
ENDMDL
MODEL 2
REMARK VINA RESULT: -6.352428623     16.578     19.221
REMARK  17 active torsions:
REMARK  status: ('A' for Active; 'I' for Inactive)
REMARK    1  A    between atoms: N1_2  and  C2_4 
REMARK    2  A    between atoms: C4_9  and  N4_10 
REMARK    3  A    between atoms: N5_12  and  O1_14 
REMARK    4  A    between atoms: O1_14  and  C5_15 
REMARK    5  A    between atoms: C5_15  and  C6_16 
REMARK    6  A    between atoms: C5_15  and  N8_25 
REMARK       I    between atoms: C6_16  and  N6_18 
REMARK    7  A    between atoms: N6_18  and  N7_20 
REMARK    8  A    between atoms: N7_20  and  O3_21 
REMARK    9  A    between atoms: N7_20  and  O4_23 
REMARK   10  A    between atoms: N8_25  and  O5_26 
REMARK   11  A    between atoms: N8_25  and  C7_28 
REMARK   12  A    between atoms: C7_28  and  N9_30 
REMARK   13  A    between atoms: N9_30  and  O6_31 
REMARK   14  A    between atoms: N9_30  and  N10_33 
REMARK   15  A    between atoms: N10_33  and  O7_35 
REMARK   16  A    between atoms: C8_37  and  N11_38 
REMARK   17  A    between atoms: N11_38  and  O8_40 
ROOT
HETATM    1  C5  UNL     1     -37.616   6.383   0.403  1.00  0.00     0.377 C 
ENDROOT
BRANCH   1   2
HETATM    2  O1  UNL     1     -36.649   5.539   1.012  1.00  0.00    -0.227 OA
BRANCH   2   3
HETATM    3  N5  UNL     1     -36.792   5.279   2.376  1.00  0.00    -0.204 N 
HETATM    4  N4  UNL     1     -36.549   4.097   2.720  1.00  0.00    -0.274 N 
ATOM      5  H4  UNL     1     -36.270   3.414   2.015  1.00  0.00     0.189 HD
ATOM      6  H5  UNL     1     -37.074   5.998   3.044  1.00  0.00     0.216 HD
BRANCH   4   7
HETATM    7  C4  UNL     1     -36.657   3.702   4.061  1.00  0.00     0.138 A 
HETATM    8  C3  UNL     1     -35.796   4.253   4.996  1.00  0.00     0.163 A 
HETATM    9  N2  UNL     1     -35.880   3.888   6.300  1.00  0.00    -0.176 N 
HETATM   10  N3  UNL     1     -34.827   5.196   4.575  1.00  0.00    -0.080 NA
HETATM   11  C2  UNL     1     -36.812   2.987   6.669  1.00  0.00     0.680 A 
ATOM     12  H2  UNL     1     -35.247   4.291   6.992  1.00  0.00     0.185 HD
HETATM   13  N12 UNL     1     -37.654   2.445   5.767  1.00  0.00    -0.173 N 
HETATM   14  C8  UNL     1     -37.610   2.772   4.476  1.00  0.00     0.172 A 
ATOM     15  H12 UNL     1     -38.346   1.764   6.083  1.00  0.00     0.186 HD
BRANCH  11  16
HETATM   16  N1  UNL     1     -36.918   2.621   7.890  1.00  0.00    -0.230 N 
HETATM   17  C1  UNL     1     -36.938   1.274   8.364  1.00  0.00     0.165 C 
ATOM     18  H1  UNL     1     -36.997   3.359   8.589  1.00  0.00     0.177 HD
ENDBRANCH  11  16
BRANCH  14  19
HETATM   19  N11 UNL     1     -38.394   2.286   3.566  1.00  0.00    -0.251 N 
ATOM     20  H11 UNL     1     -38.196   2.493   2.587  1.00  0.00     0.196 HD
BRANCH  19  21
HETATM   21  O8  UNL     1     -39.477   1.507   3.867  1.00  0.00    -0.288 OA
ATOM     22  H8  UNL     1     -39.663   0.694   3.413  1.00  0.00     0.244 HD
ENDBRANCH  19  21
ENDBRANCH  14  19
ENDBRANCH   4   7
ENDBRANCH   2   3
ENDBRANCH   1   2
BRANCH   1  23
HETATM   23  C6  UNL     1     -38.989   5.875   0.841  1.00  0.00     0.289 C 
HETATM   24  O2  UNL     1     -39.150   4.658   0.917  1.00  0.00    -0.267 OA
HETATM   25  N6  UNL     1     -39.986   6.826   1.130  1.00  0.00    -0.238 N 
ATOM     26  H6  UNL     1     -39.757   7.816   1.038  1.00  0.00     0.188 HD
BRANCH  25  27
HETATM   27  N7  UNL     1     -41.281   6.471   1.539  1.00  0.00     0.036 NA
BRANCH  27  28
HETATM   28  O3  UNL     1     -41.948   6.149   0.396  1.00  0.00    -0.271 OA
ATOM     29  H3  UNL     1     -42.871   6.238   0.606  1.00  0.00     0.241 HD
ENDBRANCH  27  28
BRANCH  27  30
HETATM   30  O4  UNL     1     -41.819   7.590   2.103  1.00  0.00    -0.271 OA
ATOM     31  H4  UNL     1     -42.737   7.395   2.251  1.00  0.00     0.241 HD
ENDBRANCH  27  30
ENDBRANCH  25  27
ENDBRANCH   1  23
BRANCH   1  32
HETATM   32  N8  UNL     1     -37.620   6.355  -1.022  1.00  0.00    -0.189 N 
BRANCH  32  33
HETATM   33  O5  UNL     1     -37.227   5.187  -1.679  1.00  0.00    -0.282 OA
ATOM     34  H5  UNL     1     -37.136   5.198  -2.625  1.00  0.00     0.245 HD
ENDBRANCH  32  33
BRANCH  32  35
HETATM   35  C7  UNL     1     -37.990   7.405  -1.846  1.00  0.00     0.247 C 
HETATM   36  S1  UNL     1     -37.454   7.351  -3.432  1.00  0.00    -0.035 SA
BRANCH  35  37
HETATM   37  N9  UNL     1     -38.772   8.503  -1.460  1.00  0.00    -0.113 N 
BRANCH  37  38
HETATM   38  O6  UNL     1     -40.101   8.638  -1.545  1.00  0.00    -0.264 OA
ATOM     39  H6  UNL     1     -40.592   9.314  -1.998  1.00  0.00     0.247 HD
ENDBRANCH  37  38
BRANCH  37  40
HETATM   40  N10 UNL     1     -38.091   9.624  -0.905  1.00  0.00    -0.181 N 
ATOM     41  H10 UNL     1     -37.342   9.524  -0.221  1.00  0.00     0.218 HD
BRANCH  40  42
HETATM   42  O7  UNL     1     -38.481  10.746  -1.318  1.00  0.00    -0.272 OA
ATOM     43  H7  UNL     1     -38.666  11.385  -0.640  1.00  0.00     0.246 HD
ENDBRANCH  40  42
ENDBRANCH  37  40
ENDBRANCH  35  37
ENDBRANCH  32  35
ENDBRANCH   1  32
TORSDOF 17
ENDMDL
MODEL 3
REMARK VINA RESULT: -6.308869023     17.397     19.937
REMARK  17 active torsions:
REMARK  status: ('A' for Active; 'I' for Inactive)
REMARK    1  A    between atoms: N1_2  and  C2_4 
REMARK    2  A    between atoms: C4_9  and  N4_10 
REMARK    3  A    between atoms: N5_12  and  O1_14 
REMARK    4  A    between atoms: O1_14  and  C5_15 
REMARK    5  A    between atoms: C5_15  and  C6_16 
REMARK    6  A    between atoms: C5_15  and  N8_25 
REMARK       I    between atoms: C6_16  and  N6_18 
REMARK    7  A    between atoms: N6_18  and  N7_20 
REMARK    8  A    between atoms: N7_20  and  O3_21 
REMARK    9  A    between atoms: N7_20  and  O4_23 
REMARK   10  A    between atoms: N8_25  and  O5_26 
REMARK   11  A    between atoms: N8_25  and  C7_28 
REMARK   12  A    between atoms: C7_28  and  N9_30 
REMARK   13  A    between atoms: N9_30  and  O6_31 
REMARK   14  A    between atoms: N9_30  and  N10_33 
REMARK   15  A    between atoms: N10_33  and  O7_35 
REMARK   16  A    between atoms: C8_37  and  N11_38 
REMARK   17  A    between atoms: N11_38  and  O8_40 
ROOT
HETATM    1  C5  UNL     1     -37.312   6.201   0.550  1.00  0.00     0.377 C 
ENDROOT
BRANCH   1   2
HETATM    2  O1  UNL     1     -36.458   5.298   1.239  1.00  0.00    -0.227 OA
BRANCH   2   3
HETATM    3  N5  UNL     1     -36.783   4.991   2.562  1.00  0.00    -0.204 N 
HETATM    4  N4  UNL     1     -36.244   3.952   3.014  1.00  0.00    -0.274 N 
ATOM      5  H4  UNL     1     -35.621   3.407   2.417  1.00  0.00     0.189 HD
ATOM      6  H5  UNL     1     -37.412   5.569   3.119  1.00  0.00     0.216 HD
BRANCH   4   7
HETATM    7  C4  UNL     1     -36.487   3.530   4.328  1.00  0.00     0.138 A 
HETATM    8  C3  UNL     1     -35.868   4.196   5.374  1.00  0.00     0.163 A 
HETATM    9  N2  UNL     1     -36.088   3.808   6.655  1.00  0.00    -0.176 N 
HETATM   10  N3  UNL     1     -35.005   5.282   5.090  1.00  0.00    -0.080 NA
HETATM   11  C2  UNL     1     -36.914   2.770   6.893  1.00  0.00     0.680 A 
ATOM     12  H2  UNL     1     -35.634   4.295   7.429  1.00  0.00     0.185 HD
HETATM   13  N12 UNL     1     -37.520   2.114   5.883  1.00  0.00    -0.173 N 
HETATM   14  C8  UNL     1     -37.335   2.460   4.608  1.00  0.00     0.172 A 
ATOM     15  H12 UNL     1     -38.137   1.332   6.100  1.00  0.00     0.186 HD
BRANCH  11  16
HETATM   16  N1  UNL     1     -37.142   2.377   8.089  1.00  0.00    -0.230 N 
HETATM   17  C1  UNL     1     -37.140   1.024   8.543  1.00  0.00     0.165 C 
ATOM     18  H1  UNL     1     -37.345   3.098   8.782  1.00  0.00     0.177 HD
ENDBRANCH  11  16
BRANCH  14  19
HETATM   19  N11 UNL     1     -37.891   1.869   3.598  1.00  0.00    -0.251 N 
ATOM     20  H11 UNL     1     -37.762   0.864   3.485  1.00  0.00     0.196 HD
BRANCH  19  21
HETATM   21  O8  UNL     1     -38.645   2.543   2.676  1.00  0.00    -0.288 OA
ATOM     22  H8  UNL     1     -39.565   2.354   2.532  1.00  0.00     0.244 HD
ENDBRANCH  19  21
ENDBRANCH  14  19
ENDBRANCH   4   7
ENDBRANCH   2   3
ENDBRANCH   1   2
BRANCH   1  23
HETATM   23  C6  UNL     1     -38.746   5.741   0.806  1.00  0.00     0.289 C 
HETATM   24  O2  UNL     1     -38.995   4.545   0.669  1.00  0.00    -0.267 OA
HETATM   25  N6  UNL     1     -39.695   6.710   1.182  1.00  0.00    -0.238 N 
ATOM     26  H6  UNL     1     -39.393   7.680   1.270  1.00  0.00     0.188 HD
BRANCH  25  27
HETATM   27  N7  UNL     1     -41.039   6.399   1.440  1.00  0.00     0.036 NA
BRANCH  27  28
HETATM   28  O3  UNL     1     -41.589   6.122   0.224  1.00  0.00    -0.271 OA
ATOM     29  H3  UNL     1     -41.890   6.957  -0.115  1.00  0.00     0.241 HD
ENDBRANCH  27  28
BRANCH  27  30
HETATM   30  O4  UNL     1     -41.595   7.530   1.964  1.00  0.00    -0.271 OA
ATOM     31  H4  UNL     1     -42.182   7.240   2.652  1.00  0.00     0.241 HD
ENDBRANCH  27  30
ENDBRANCH  25  27
ENDBRANCH   1  23
BRANCH   1  32
HETATM   32  N8  UNL     1     -37.148   6.215  -0.866  1.00  0.00    -0.189 N 
BRANCH  32  33
HETATM   33  O5  UNL     1     -38.281   6.273  -1.680  1.00  0.00    -0.282 OA
ATOM     34  H5  UNL     1     -38.516   7.099  -2.085  1.00  0.00     0.245 HD
ENDBRANCH  32  33
BRANCH  32  35
HETATM   35  C7  UNL     1     -35.936   6.179  -1.536  1.00  0.00     0.247 C 
HETATM   36  S1  UNL     1     -35.326   4.667  -1.920  1.00  0.00    -0.035 SA
BRANCH  35  37
HETATM   37  N9  UNL     1     -35.184   7.300  -1.914  1.00  0.00    -0.113 N 
BRANCH  37  38
HETATM   38  O6  UNL     1     -34.419   8.078  -1.139  1.00  0.00    -0.264 OA
ATOM     39  H6  UNL     1     -33.746   8.692  -1.410  1.00  0.00     0.247 HD
ENDBRANCH  37  38
BRANCH  37  40
HETATM   40  N10 UNL     1     -35.223   7.678  -3.287  1.00  0.00    -0.181 N 
ATOM     41  H10 UNL     1     -34.384   7.937  -3.807  1.00  0.00     0.218 HD
BRANCH  40  42
HETATM   42  O7  UNL     1     -36.365   7.669  -3.814  1.00  0.00    -0.272 OA
ATOM     43  H7  UNL     1     -37.023   7.170  -3.345  1.00  0.00     0.246 HD
ENDBRANCH  40  42
ENDBRANCH  37  40
ENDBRANCH  35  37
ENDBRANCH  32  35
ENDBRANCH   1  32
TORSDOF 17
ENDMDL
MODEL 4
REMARK VINA RESULT: -6.285501064      0.985      2.140
REMARK  17 active torsions:
REMARK  status: ('A' for Active; 'I' for Inactive)
REMARK    1  A    between atoms: N1_2  and  C2_4 
REMARK    2  A    between atoms: C4_9  and  N4_10 
REMARK    3  A    between atoms: N5_12  and  O1_14 
REMARK    4  A    between atoms: O1_14  and  C5_15 
REMARK    5  A    between atoms: C5_15  and  C6_16 
REMARK    6  A    between atoms: C5_15  and  N8_25 
REMARK       I    between atoms: C6_16  and  N6_18 
REMARK    7  A    between atoms: N6_18  and  N7_20 
REMARK    8  A    between atoms: N7_20  and  O3_21 
REMARK    9  A    between atoms: N7_20  and  O4_23 
REMARK   10  A    between atoms: N8_25  and  O5_26 
REMARK   11  A    between atoms: N8_25  and  C7_28 
REMARK   12  A    between atoms: C7_28  and  N9_30 
REMARK   13  A    between atoms: N9_30  and  O6_31 
REMARK   14  A    between atoms: N9_30  and  N10_33 
REMARK   15  A    between atoms: N10_33  and  O7_35 
REMARK   16  A    between atoms: C8_37  and  N11_38 
REMARK   17  A    between atoms: N11_38  and  O8_40 
ROOT
HETATM    1  C5  UNL     1     -56.867   7.944   6.467  1.00  0.00     0.377 C 
ENDROOT
BRANCH   1   2
HETATM    2  O1  UNL     1     -56.769   8.570   5.195  1.00  0.00    -0.227 OA
BRANCH   2   3
HETATM    3  N5  UNL     1     -55.599   9.278   4.918  1.00  0.00    -0.204 N 
HETATM    4  N4  UNL     1     -55.707  10.528   4.979  1.00  0.00    -0.274 N 
ATOM      5  H4  UNL     1     -56.607  10.944   5.219  1.00  0.00     0.189 HD
ATOM      6  H5  UNL     1     -54.721   8.815   4.683  1.00  0.00     0.216 HD
BRANCH   4   7
HETATM    7  C4  UNL     1     -54.608  11.357   4.721  1.00  0.00     0.138 A 
HETATM    8  C3  UNL     1     -53.571  11.407   5.640  1.00  0.00     0.163 A 
HETATM    9  N2  UNL     1     -52.496  12.202   5.413  1.00  0.00    -0.176 N 
HETATM   10  N3  UNL     1     -53.651  10.623   6.817  1.00  0.00    -0.080 NA
HETATM   11  C2  UNL     1     -52.450  12.937   4.285  1.00  0.00     0.680 A 
ATOM     12  H2  UNL     1     -51.731  12.243   6.088  1.00  0.00     0.185 HD
HETATM   13  N12 UNL     1     -53.453  12.896   3.384  1.00  0.00    -0.173 N 
HETATM   14  C8  UNL     1     -54.529  12.130   3.563  1.00  0.00     0.172 A 
ATOM     15  H12 UNL     1     -53.386  13.468   2.541  1.00  0.00     0.186 HD
BRANCH  11  16
HETATM   16  N1  UNL     1     -51.451  13.697   4.040  1.00  0.00    -0.230 N 
HETATM   17  C1  UNL     1     -50.327  13.369   3.222  1.00  0.00     0.165 C 
ATOM     18  H1  UNL     1     -51.458  14.622   4.469  1.00  0.00     0.177 HD
ENDBRANCH  11  16
BRANCH  14  19
HETATM   19  N11 UNL     1     -55.521  12.049   2.733  1.00  0.00    -0.251 N 
ATOM     20  H11 UNL     1     -55.414  11.479   1.895  1.00  0.00     0.196 HD
BRANCH  19  21
HETATM   21  O8  UNL     1     -56.707  12.699   2.938  1.00  0.00    -0.288 OA
ATOM     22  H8  UNL     1     -57.418  12.677   2.308  1.00  0.00     0.244 HD
ENDBRANCH  19  21
ENDBRANCH  14  19
ENDBRANCH   4   7
ENDBRANCH   2   3
ENDBRANCH   1   2
BRANCH   1  23
HETATM   23  C6  UNL     1     -56.898   9.059   7.511  1.00  0.00     0.289 C 
HETATM   24  O2  UNL     1     -57.407  10.130   7.188  1.00  0.00    -0.267 OA
HETATM   25  N6  UNL     1     -56.343   8.796   8.778  1.00  0.00    -0.238 N 
ATOM     26  H6  UNL     1     -55.943   7.874   8.954  1.00  0.00     0.188 HD
BRANCH  25  27
HETATM   27  N7  UNL     1     -56.317   9.746   9.810  1.00  0.00     0.036 NA
BRANCH  27  28
HETATM   28  O3  UNL     1     -55.298  10.596   9.497  1.00  0.00    -0.271 OA
ATOM     29  H3  UNL     1     -55.360  11.309  10.122  1.00  0.00     0.241 HD
ENDBRANCH  27  28
BRANCH  27  30
HETATM   30  O4  UNL     1     -56.025   9.058  10.951  1.00  0.00    -0.271 OA
ATOM     31  H4  UNL     1     -55.106   9.224  11.131  1.00  0.00     0.241 HD
ENDBRANCH  27  30
ENDBRANCH  25  27
ENDBRANCH   1  23
BRANCH   1  32
HETATM   32  N8  UNL     1     -55.761   7.111   6.810  1.00  0.00    -0.189 N 
BRANCH  32  33
HETATM   33  O5  UNL     1     -54.477   7.662   6.828  1.00  0.00    -0.282 OA
ATOM     34  H5  UNL     1     -53.790   7.214   7.307  1.00  0.00     0.245 HD
ENDBRANCH  32  33
BRANCH  32  35
HETATM   35  C7  UNL     1     -55.836   5.769   7.140  1.00  0.00     0.247 C 
HETATM   36  S1  UNL     1     -57.130   4.906   6.517  1.00  0.00    -0.035 SA
BRANCH  35  37
HETATM   37  N9  UNL     1     -54.923   5.079   7.950  1.00  0.00    -0.113 N 
BRANCH  37  38
HETATM   38  O6  UNL     1     -54.957   4.920   9.278  1.00  0.00    -0.264 OA
ATOM     39  H6  UNL     1     -54.880   4.112   9.772  1.00  0.00     0.247 HD
ENDBRANCH  37  38
BRANCH  37  40
HETATM   40  N10 UNL     1     -53.814   4.463   7.302  1.00  0.00    -0.181 N 
ATOM     41  H10 UNL     1     -53.910   3.941   6.431  1.00  0.00     0.218 HD
BRANCH  40  42
HETATM   42  O7  UNL     1     -52.707   4.609   7.879  1.00  0.00    -0.272 OA
ATOM     43  H7  UNL     1     -51.943   4.432   7.343  1.00  0.00     0.246 HD
ENDBRANCH  40  42
ENDBRANCH  37  40
ENDBRANCH  35  37
ENDBRANCH  32  35
ENDBRANCH   1  32
TORSDOF 17
ENDMDL
MODEL 5
REMARK VINA RESULT: -6.251890308     18.185     20.653
REMARK  17 active torsions:
REMARK  status: ('A' for Active; 'I' for Inactive)
REMARK    1  A    between atoms: N1_2  and  C2_4 
REMARK    2  A    between atoms: C4_9  and  N4_10 
REMARK    3  A    between atoms: N5_12  and  O1_14 
REMARK    4  A    between atoms: O1_14  and  C5_15 
REMARK    5  A    between atoms: C5_15  and  C6_16 
REMARK    6  A    between atoms: C5_15  and  N8_25 
REMARK       I    between atoms: C6_16  and  N6_18 
REMARK    7  A    between atoms: N6_18  and  N7_20 
REMARK    8  A    between atoms: N7_20  and  O3_21 
REMARK    9  A    between atoms: N7_20  and  O4_23 
REMARK   10  A    between atoms: N8_25  and  O5_26 
REMARK   11  A    between atoms: N8_25  and  C7_28 
REMARK   12  A    between atoms: C7_28  and  N9_30 
REMARK   13  A    between atoms: N9_30  and  O6_31 
REMARK   14  A    between atoms: N9_30  and  N10_33 
REMARK   15  A    between atoms: N10_33  and  O7_35 
REMARK   16  A    between atoms: C8_37  and  N11_38 
REMARK   17  A    between atoms: N11_38  and  O8_40 
ROOT
HETATM    1  C5  UNL     1     -37.941   6.126  -2.095  1.00  0.00     0.377 C 
ENDROOT
BRANCH   1   2
HETATM    2  O1  UNL     1     -38.294   5.028  -1.264  1.00  0.00    -0.227 OA
BRANCH   2   3
HETATM    3  N5  UNL     1     -37.253   4.279  -0.714  1.00  0.00    -0.204 N 
HETATM    4  N4  UNL     1     -37.576   3.553   0.257  1.00  0.00    -0.274 N 
ATOM      5  H4  UNL     1     -38.543   3.547   0.582  1.00  0.00     0.189 HD
ATOM      6  H5  UNL     1     -36.299   4.319  -1.076  1.00  0.00     0.216 HD
BRANCH   4   7
HETATM    7  C4  UNL     1     -36.625   2.751   0.903  1.00  0.00     0.138 A 
HETATM    8  C3  UNL     1     -36.085   1.669   0.225  1.00  0.00     0.163 A 
HETATM    9  N2  UNL     1     -35.163   0.878   0.827  1.00  0.00    -0.176 N 
HETATM   10  N3  UNL     1     -36.511   1.398  -1.099  1.00  0.00    -0.080 NA
HETATM   11  C2  UNL     1     -34.780   1.160   2.087  1.00  0.00     0.680 A 
ATOM     12  H2  UNL     1     -34.764   0.079   0.332  1.00  0.00     0.185 HD
HETATM   13  N12 UNL     1     -35.298   2.210   2.756  1.00  0.00    -0.173 N 
HETATM   14  C8  UNL     1     -36.207   3.016   2.206  1.00  0.00     0.172 A 
ATOM     15  H12 UNL     1     -34.986   2.393   3.710  1.00  0.00     0.186 HD
BRANCH  11  16
HETATM   16  N1  UNL     1     -33.912   0.435   2.685  1.00  0.00    -0.230 N 
HETATM   17  C1  UNL     1     -33.012   0.870   3.704  1.00  0.00     0.165 C 
ATOM     18  H1  UNL     1     -33.858  -0.546   2.407  1.00  0.00     0.177 HD
ENDBRANCH  11  16
BRANCH  14  19
HETATM   19  N11 UNL     1     -36.738   4.039   2.798  1.00  0.00    -0.251 N 
ATOM     20  H11 UNL     1     -37.282   3.886   3.647  1.00  0.00     0.196 HD
BRANCH  19  21
HETATM   21  O8  UNL     1     -36.597   5.316   2.327  1.00  0.00    -0.288 OA
ATOM     22  H8  UNL     1     -35.807   5.617   1.896  1.00  0.00     0.244 HD
ENDBRANCH  19  21
ENDBRANCH  14  19
ENDBRANCH   4   7
ENDBRANCH   2   3
ENDBRANCH   1   2
BRANCH   1  23
HETATM   23  C6  UNL     1     -36.550   6.583  -1.660  1.00  0.00     0.289 C 
HETATM   24  O2  UNL     1     -36.274   6.516  -0.464  1.00  0.00    -0.267 OA
HETATM   25  N6  UNL     1     -35.667   7.053  -2.651  1.00  0.00    -0.238 N 
ATOM     26  H6  UNL     1     -35.986   7.071  -3.620  1.00  0.00     0.188 HD
BRANCH  25  27
HETATM   27  N7  UNL     1     -34.367   7.498  -2.364  1.00  0.00     0.036 NA
BRANCH  27  28
HETATM   28  O3  UNL     1     -33.672   6.383  -2.005  1.00  0.00    -0.271 OA
ATOM     29  H3  UNL     1     -33.332   6.565  -1.136  1.00  0.00     0.241 HD
ENDBRANCH  27  28
BRANCH  27  30
HETATM   30  O4  UNL     1     -34.484   8.346  -1.303  1.00  0.00    -0.271 OA
ATOM     31  H4  UNL     1     -35.309   8.802  -1.420  1.00  0.00     0.241 HD
ENDBRANCH  27  30
ENDBRANCH  25  27
ENDBRANCH   1  23
BRANCH   1  32
HETATM   32  N8  UNL     1     -38.788   7.266  -1.971  1.00  0.00    -0.189 N 
BRANCH  32  33
HETATM   33  O5  UNL     1     -39.300   7.859  -3.127  1.00  0.00    -0.282 OA
ATOM     34  H5  UNL     1     -40.237   7.999  -3.198  1.00  0.00     0.245 HD
ENDBRANCH  32  33
BRANCH  32  35
HETATM   35  C7  UNL     1     -39.169   7.859  -0.779  1.00  0.00     0.247 C 
HETATM   36  S1  UNL     1     -38.826   9.489  -0.600  1.00  0.00    -0.035 SA
BRANCH  35  37
HETATM   37  N9  UNL     1     -39.812   7.208   0.283  1.00  0.00    -0.113 N 
BRANCH  37  38
HETATM   38  O6  UNL     1     -41.127   7.077   0.494  1.00  0.00    -0.264 OA
ATOM     39  H6  UNL     1     -41.566   6.510   1.117  1.00  0.00     0.247 HD
ENDBRANCH  37  38
BRANCH  37  40
HETATM   40  N10 UNL     1     -38.985   6.603   1.273  1.00  0.00    -0.181 N 
ATOM     41  H10 UNL     1     -38.227   7.106   1.734  1.00  0.00     0.218 HD
BRANCH  40  42
HETATM   42  O7  UNL     1     -39.255   5.404   1.537  1.00  0.00    -0.272 OA
ATOM     43  H7  UNL     1     -38.728   5.012   2.223  1.00  0.00     0.246 HD
ENDBRANCH  40  42
ENDBRANCH  37  40
ENDBRANCH  35  37
ENDBRANCH  32  35
ENDBRANCH   1  32
TORSDOF 17
ENDMDL
