MODEL 1
REMARK VINA RESULT: -7.695317193      0.000      0.000
REMARK  11 active torsions:
REMARK  status: ('A' for Active; 'I' for Inactive)
REMARK    1  A    between atoms: N1_1  and  C1_4 
REMARK    2  A    between atoms: C3_9  and  C4_10 
REMARK    3  A    between atoms: N6_15  and  C5_16 
REMARK    4  A    between atoms: C6_19  and  N8_20 
REMARK    5  A    between atoms: N11_27  and  C8_28 
REMARK    6  A    between atoms: C8_28  and  C9_29 
REMARK    7  A    between atoms: C8_28  and  C10_34 
REMARK    8  A    between atoms: C9_29  and  N12_30 
REMARK    9  A    between atoms: N12_30  and  O1_32 
REMARK   10  A    between atoms: C10_34  and  C11_35 
REMARK   11  A    between atoms: C11_35  and  O2_36 
ROOT
HETATM    1  C5  UNL     1     -36.758   4.973  -0.691  1.00  0.00     0.723 A 
HETATM    2  N7  UNL     1     -36.165   4.724  -1.874  1.00  0.00    -0.171 N 
ATOM      3  H7  UNL     1     -35.572   3.896  -1.943  1.00  0.00     0.186 HD
HETATM    4  C6  UNL     1     -36.300   5.484  -2.957  1.00  0.00     0.146 A 
HETATM    5  C7  UNL     1     -37.103   6.600  -2.857  1.00  0.00     0.136 A 
HETATM    6  N9  UNL     1     -37.483   7.590  -3.697  1.00  0.00    -0.277 N 
ATOM      7  H9  UNL     1     -37.195   7.678  -4.672  1.00  0.00     0.184 HD
HETATM    8  N10 UNL     1     -38.289   8.430  -3.058  1.00  0.00    -0.017 NA
HETATM    9  N11 UNL     1     -38.462   8.032  -1.807  1.00  0.00    -0.248 N 
HETATM   10  C12 UNL     1     -37.729   6.890  -1.662  1.00  0.00     0.169 A 
HETATM   11  N13 UNL     1     -37.536   6.066  -0.617  1.00  0.00    -0.170 N 
ATOM     12  H13 UNL     1     -37.999   6.279   0.267  1.00  0.00     0.186 HD
ENDROOT
BRANCH   1  13
HETATM   13  N6  UNL     1     -36.587   4.132   0.448  1.00  0.00    -0.004 N 
HETATM   14  N5  UNL     1     -36.121   2.899   0.440  1.00  0.00    -0.205 N 
HETATM   15  N4  UNL     1     -36.096   2.411   1.670  1.00  0.00    -0.267 N 
ATOM     16  H5  UNL     1     -35.822   2.393  -0.394  1.00  0.00     0.211 HD
HETATM   17  C4  UNL     1     -36.562   3.360   2.506  1.00  0.00     0.157 A 
ATOM     18  H4  UNL     1     -35.779   1.479   1.939  1.00  0.00     0.190 HD
HETATM   19  N14 UNL     1     -36.859   4.415   1.716  1.00  0.00    -0.246 N 
ATOM     20  H14 UNL     1     -37.238   5.302   2.046  1.00  0.00     0.191 HD
BRANCH  17  21
HETATM   21  C3  UNL     1     -36.705   3.243   3.954  1.00  0.00     0.121 A 
HETATM   22  C2  UNL     1     -37.753   2.511   4.494  1.00  0.00     0.151 A 
HETATM   23  N2  UNL     1     -37.853   2.425   5.828  1.00  0.00    -0.178 N 
HETATM   24  N3  UNL     1     -38.646   1.906   3.595  1.00  0.00    -0.081 NA
HETATM   25  C1  UNL     1     -37.001   3.002   6.693  1.00  0.00     0.680 A 
ATOM     26  H2  UNL     1     -38.627   1.885   6.213  1.00  0.00     0.185 HD
HETATM   27  N15 UNL     1     -35.979   3.715   6.184  1.00  0.00    -0.155 N 
HETATM   28  C13 UNL     1     -35.832   3.834   4.846  1.00  0.00     0.277 A 
ATOM     29  H15 UNL     1     -35.313   4.166   6.811  1.00  0.00     0.187 HD
HETATM   30  O3  UNL     1     -34.881   4.498   4.356  1.00  0.00    -0.267 OA
BRANCH  25  31
HETATM   31  N1  UNL     1     -37.161   2.874   7.982  1.00  0.00    -0.234 N 
ATOM     32  H12 UNL     1     -37.181   3.688   8.597  1.00  0.00     0.174 HD
ATOM     33  H11 UNL     1     -37.269   1.955   8.410  1.00  0.00     0.174 HD
ENDBRANCH  25  31
ENDBRANCH  17  21
ENDBRANCH   1  13
BRANCH   4  34
HETATM   34  N8  UNL     1     -35.724   5.232  -4.089  1.00  0.00    -0.383 N 
ATOM     35  H82 UNL     1     -34.728   5.427  -4.185  1.00  0.00     0.157 HD
ATOM     36  H81 UNL     1     -36.210   4.848  -4.899  1.00  0.00     0.157 HD
ENDBRANCH   4  34
BRANCH   9  37
HETATM   37  C8  UNL     1     -39.257   8.647  -0.763  1.00  0.00     0.150 C 
BRANCH  37  38
HETATM   38  C9  UNL     1     -39.526  10.068  -0.990  1.00  0.00     0.113 C 
BRANCH  38  39
HETATM   39  N12 UNL     1     -38.592  10.936  -1.096  1.00  0.00    -0.282 N 
ATOM     40  H12 UNL     1     -37.697  10.621  -1.472  1.00  0.00     0.192 HD
BRANCH  39  41
HETATM   41  O1  UNL     1     -38.701  12.247  -0.748  1.00  0.00    -0.290 OA
ATOM     42  H1  UNL     1     -39.219  12.894  -1.212  1.00  0.00     0.244 HD
ENDBRANCH  39  41
ENDBRANCH  38  39
ENDBRANCH  37  38
BRANCH  37  43
HETATM   43  C10 UNL     1     -40.519   7.843  -0.527  1.00  0.00     0.058 C 
BRANCH  43  44
HETATM   44  C11 UNL     1     -40.579   7.384   0.909  1.00  0.00     0.166 C 
BRANCH  44  45
HETATM   45  O2  UNL     1     -40.208   6.032   0.945  1.00  0.00    -0.401 OA
ATOM     46  H2  UNL     1     -39.397   5.938   0.460  1.00  0.00     0.209 HD
ENDBRANCH  44  45
ENDBRANCH  43  44
ENDBRANCH  37  43
ENDBRANCH   9  37
TORSDOF 11
ENDMDL
MODEL 2
REMARK VINA RESULT: -7.582441436      1.589      2.160
REMARK  11 active torsions:
REMARK  status: ('A' for Active; 'I' for Inactive)
REMARK    1  A    between atoms: N1_1  and  C1_4 
REMARK    2  A    between atoms: C3_9  and  C4_10 
REMARK    3  A    between atoms: N6_15  and  C5_16 
REMARK    4  A    between atoms: C6_19  and  N8_20 
REMARK    5  A    between atoms: N11_27  and  C8_28 
REMARK    6  A    between atoms: C8_28  and  C9_29 
REMARK    7  A    between atoms: C8_28  and  C10_34 
REMARK    8  A    between atoms: C9_29  and  N12_30 
REMARK    9  A    between atoms: N12_30  and  O1_32 
REMARK   10  A    between atoms: C10_34  and  C11_35 
REMARK   11  A    between atoms: C11_35  and  O2_36 
ROOT
HETATM    1  C5  UNL     1     -36.893   4.592   0.989  1.00  0.00     0.723 A 
HETATM    2  N7  UNL     1     -36.125   4.055   0.023  1.00  0.00    -0.171 N 
ATOM      3  H7  UNL     1     -35.541   3.256   0.269  1.00  0.00     0.186 HD
HETATM    4  C6  UNL     1     -36.077   4.496  -1.231  1.00  0.00     0.146 A 
HETATM    5  C7  UNL     1     -36.870   5.577  -1.558  1.00  0.00     0.136 A 
HETATM    6  N9  UNL     1     -37.097   6.297  -2.680  1.00  0.00    -0.277 N 
ATOM      7  H9  UNL     1     -36.658   6.132  -3.586  1.00  0.00     0.184 HD
HETATM    8  N10 UNL     1     -37.982   7.254  -2.421  1.00  0.00    -0.017 NA
HETATM    9  N11 UNL     1     -38.355   7.197  -1.152  1.00  0.00    -0.248 N 
HETATM   10  C12 UNL     1     -37.671   6.155  -0.596  1.00  0.00     0.169 A 
HETATM   11  N13 UNL     1     -37.657   5.644   0.648  1.00  0.00    -0.170 N 
ATOM     12  H13 UNL     1     -38.250   6.071   1.360  1.00  0.00     0.186 HD
ENDROOT
BRANCH   1  13
HETATM   13  N6  UNL     1     -36.917   4.089   2.323  1.00  0.00    -0.004 N 
HETATM   14  N5  UNL     1     -37.945   3.515   2.918  1.00  0.00    -0.205 N 
HETATM   15  N4  UNL     1     -37.622   3.169   4.154  1.00  0.00    -0.267 N 
ATOM     16  H5  UNL     1     -38.857   3.361   2.488  1.00  0.00     0.211 HD
HETATM   17  C4  UNL     1     -36.343   3.529   4.369  1.00  0.00     0.157 A 
ATOM     18  H4  UNL     1     -38.237   2.709   4.827  1.00  0.00     0.190 HD
HETATM   19  N14 UNL     1     -35.934   4.098   3.214  1.00  0.00    -0.246 N 
ATOM     20  H14 UNL     1     -35.003   4.480   3.050  1.00  0.00     0.191 HD
BRANCH  17  21
HETATM   21  C3  UNL     1     -35.584   3.334   5.602  1.00  0.00     0.121 A 
HETATM   22  C2  UNL     1     -36.123   3.721   6.821  1.00  0.00     0.151 A 
HETATM   23  N2  UNL     1     -35.398   3.525   7.931  1.00  0.00    -0.178 N 
HETATM   24  N3  UNL     1     -37.404   4.296   6.805  1.00  0.00    -0.081 NA
HETATM   25  C1  UNL     1     -34.172   2.975   7.952  1.00  0.00     0.680 A 
ATOM     26  H2  UNL     1     -35.804   3.814   8.821  1.00  0.00     0.185 HD
HETATM   27  N15 UNL     1     -33.637   2.595   6.778  1.00  0.00    -0.155 N 
HETATM   28  C13 UNL     1     -34.324   2.769   5.628  1.00  0.00     0.277 A 
ATOM     29  H15 UNL     1     -32.708   2.173   6.756  1.00  0.00     0.187 HD
HETATM   30  O3  UNL     1     -33.835   2.418   4.522  1.00  0.00    -0.267 OA
BRANCH  25  31
HETATM   31  N1  UNL     1     -33.525   2.816   9.074  1.00  0.00    -0.234 N 
ATOM     32  H12 UNL     1     -32.756   3.433   9.335  1.00  0.00     0.174 HD
ATOM     33  H11 UNL     1     -33.771   2.067   9.722  1.00  0.00     0.174 HD
ENDBRANCH  25  31
ENDBRANCH  17  21
ENDBRANCH   1  13
BRANCH   4  34
HETATM   34  N8  UNL     1     -35.334   3.970  -2.151  1.00  0.00    -0.383 N 
ATOM     35  H82 UNL     1     -34.431   3.577  -1.886  1.00  0.00     0.157 HD
ATOM     36  H81 UNL     1     -35.598   3.923  -3.136  1.00  0.00     0.157 HD
ENDBRANCH   4  34
BRANCH   9  37
HETATM   37  C8  UNL     1     -39.296   8.045  -0.446  1.00  0.00     0.150 C 
BRANCH  37  38
HETATM   38  C9  UNL     1     -39.378   9.404  -0.983  1.00  0.00     0.113 C 
BRANCH  38  39
HETATM   39  N12 UNL     1     -38.369  10.190  -1.022  1.00  0.00    -0.282 N 
ATOM     40  H12 UNL     1     -37.441   9.769  -0.963  1.00  0.00     0.192 HD
BRANCH  39  41
HETATM   41  O1  UNL     1     -38.437  11.544  -1.136  1.00  0.00    -0.290 OA
ATOM     42  H1  UNL     1     -37.742  12.148  -0.900  1.00  0.00     0.244 HD
ENDBRANCH  39  41
ENDBRANCH  38  39
ENDBRANCH  37  38
BRANCH  37  43
HETATM   43  C10 UNL     1     -40.647   7.367  -0.362  1.00  0.00     0.058 C 
BRANCH  43  44
HETATM   44  C11 UNL     1     -41.057   7.208   1.081  1.00  0.00     0.166 C 
BRANCH  44  45
HETATM   45  O2  UNL     1     -40.262   6.203   1.648  1.00  0.00    -0.401 OA
ATOM     46  H2  UNL     1     -40.770   5.776   2.327  1.00  0.00     0.209 HD
ENDBRANCH  44  45
ENDBRANCH  43  44
ENDBRANCH  37  43
ENDBRANCH   9  37
TORSDOF 11
ENDMDL
MODEL 3
REMARK VINA RESULT: -7.532111387      1.652      2.225
REMARK  11 active torsions:
REMARK  status: ('A' for Active; 'I' for Inactive)
REMARK    1  A    between atoms: N1_1  and  C1_4 
REMARK    2  A    between atoms: C3_9  and  C4_10 
REMARK    3  A    between atoms: N6_15  and  C5_16 
REMARK    4  A    between atoms: C6_19  and  N8_20 
REMARK    5  A    between atoms: N11_27  and  C8_28 
REMARK    6  A    between atoms: C8_28  and  C9_29 
REMARK    7  A    between atoms: C8_28  and  C10_34 
REMARK    8  A    between atoms: C9_29  and  N12_30 
REMARK    9  A    between atoms: N12_30  and  O1_32 
REMARK   10  A    between atoms: C10_34  and  C11_35 
REMARK   11  A    between atoms: C11_35  and  O2_36 
ROOT
HETATM    1  C5  UNL     1     -36.962   4.649   0.939  1.00  0.00     0.723 A 
HETATM    2  N7  UNL     1     -36.188   4.117  -0.025  1.00  0.00    -0.171 N 
ATOM      3  H7  UNL     1     -35.613   3.311   0.219  1.00  0.00     0.186 HD
HETATM    4  C6  UNL     1     -36.122   4.573  -1.273  1.00  0.00     0.146 A 
HETATM    5  C7  UNL     1     -36.902   5.663  -1.596  1.00  0.00     0.136 A 
HETATM    6  N9  UNL     1     -37.111   6.399  -2.713  1.00  0.00    -0.277 N 
ATOM      7  H9  UNL     1     -36.663   6.240  -3.615  1.00  0.00     0.184 HD
HETATM    8  N10 UNL     1     -37.991   7.359  -2.452  1.00  0.00    -0.017 NA
HETATM    9  N11 UNL     1     -38.378   7.291  -1.188  1.00  0.00    -0.248 N 
HETATM   10  C12 UNL     1     -37.709   6.237  -0.637  1.00  0.00     0.169 A 
HETATM   11  N13 UNL     1     -37.714   5.712   0.601  1.00  0.00    -0.170 N 
ATOM     12  H13 UNL     1     -38.311   6.135   1.312  1.00  0.00     0.186 HD
ENDROOT
BRANCH   1  13
HETATM   13  N6  UNL     1     -37.005   4.132   2.267  1.00  0.00    -0.004 N 
HETATM   14  N5  UNL     1     -38.026   3.512   2.826  1.00  0.00    -0.205 N 
HETATM   15  N4  UNL     1     -37.727   3.165   4.067  1.00  0.00    -0.267 N 
ATOM     16  H5  UNL     1     -38.918   3.326   2.367  1.00  0.00     0.211 HD
HETATM   17  C4  UNL     1     -36.469   3.573   4.324  1.00  0.00     0.157 A 
ATOM     18  H4  UNL     1     -38.341   2.674   4.717  1.00  0.00     0.190 HD
HETATM   19  N14 UNL     1     -36.049   4.170   3.186  1.00  0.00    -0.246 N 
ATOM     20  H14 UNL     1     -35.130   4.590   3.053  1.00  0.00     0.191 HD
BRANCH  17  21
HETATM   21  C3  UNL     1     -35.739   3.393   5.576  1.00  0.00     0.121 A 
HETATM   22  C2  UNL     1     -34.491   2.786   5.574  1.00  0.00     0.151 A 
HETATM   23  N2  UNL     1     -33.851   2.639   6.742  1.00  0.00    -0.178 N 
HETATM   24  N3  UNL     1     -33.982   2.364   4.336  1.00  0.00    -0.081 NA
HETATM   25  C1  UNL     1     -34.333   3.041   7.931  1.00  0.00     0.680 A 
ATOM     26  H2  UNL     1     -32.934   2.191   6.729  1.00  0.00     0.185 HD
HETATM   27  N15 UNL     1     -35.542   3.631   7.948  1.00  0.00    -0.155 N 
HETATM   28  C13 UNL     1     -36.232   3.805   6.799  1.00  0.00     0.277 A 
ATOM     29  H15 UNL     1     -35.940   3.950   8.832  1.00  0.00     0.187 HD
HETATM   30  O3  UNL     1     -37.364   4.356   6.800  1.00  0.00    -0.267 OA
BRANCH  25  31
HETATM   31  N1  UNL     1     -33.651   2.864   9.029  1.00  0.00    -0.234 N 
ATOM     32  H12 UNL     1     -32.752   3.324   9.174  1.00  0.00     0.174 HD
ATOM     33  H11 UNL     1     -33.999   2.259   9.773  1.00  0.00     0.174 HD
ENDBRANCH  25  31
ENDBRANCH  17  21
ENDBRANCH   1  13
BRANCH   4  34
HETATM   34  N8  UNL     1     -35.373   4.051  -2.191  1.00  0.00    -0.383 N 
ATOM     35  H82 UNL     1     -35.307   3.035  -2.250  1.00  0.00     0.157 HD
ATOM     36  H81 UNL     1     -34.837   4.598  -2.865  1.00  0.00     0.157 HD
ENDBRANCH   4  34
BRANCH   9  37
HETATM   37  C8  UNL     1     -39.320   8.138  -0.483  1.00  0.00     0.150 C 
BRANCH  37  38
HETATM   38  C9  UNL     1     -39.396   9.500  -1.014  1.00  0.00     0.113 C 
BRANCH  38  39
HETATM   39  N12 UNL     1     -38.379  10.274  -1.071  1.00  0.00    -0.282 N 
ATOM     40  H12 UNL     1     -37.458   9.838  -1.120  1.00  0.00     0.192 HD
BRANCH  39  41
HETATM   41  O1  UNL     1     -38.430  11.633  -1.073  1.00  0.00    -0.290 OA
ATOM     42  H1  UNL     1     -39.091  12.155  -0.632  1.00  0.00     0.244 HD
ENDBRANCH  39  41
ENDBRANCH  38  39
ENDBRANCH  37  38
BRANCH  37  43
HETATM   43  C10 UNL     1     -40.674   7.463  -0.408  1.00  0.00     0.058 C 
BRANCH  43  44
HETATM   44  C11 UNL     1     -41.084   7.286   1.033  1.00  0.00     0.166 C 
BRANCH  44  45
HETATM   45  O2  UNL     1     -40.428   6.152   1.532  1.00  0.00    -0.401 OA
ATOM     46  H2  UNL     1     -41.087   5.557   1.870  1.00  0.00     0.209 HD
ENDBRANCH  44  45
ENDBRANCH  43  44
ENDBRANCH  37  43
ENDBRANCH   9  37
TORSDOF 11
ENDMDL
MODEL 4
REMARK VINA RESULT: -7.519088762      0.987      1.475
REMARK  11 active torsions:
REMARK  status: ('A' for Active; 'I' for Inactive)
REMARK    1  A    between atoms: N1_1  and  C1_4 
REMARK    2  A    between atoms: C3_9  and  C4_10 
REMARK    3  A    between atoms: N6_15  and  C5_16 
REMARK    4  A    between atoms: C6_19  and  N8_20 
REMARK    5  A    between atoms: N11_27  and  C8_28 
REMARK    6  A    between atoms: C8_28  and  C9_29 
REMARK    7  A    between atoms: C8_28  and  C10_34 
REMARK    8  A    between atoms: C9_29  and  N12_30 
REMARK    9  A    between atoms: N12_30  and  O1_32 
REMARK   10  A    between atoms: C10_34  and  C11_35 
REMARK   11  A    between atoms: C11_35  and  O2_36 
ROOT
HETATM    1  C5  UNL     1     -36.603   4.845  -0.454  1.00  0.00     0.723 A 
HETATM    2  N7  UNL     1     -35.958   4.631  -1.616  1.00  0.00    -0.171 N 
ATOM      3  H7  UNL     1     -35.343   3.820  -1.676  1.00  0.00     0.186 HD
HETATM    4  C6  UNL     1     -36.070   5.407  -2.691  1.00  0.00     0.146 A 
HETATM    5  C7  UNL     1     -36.903   6.502  -2.604  1.00  0.00     0.136 A 
HETATM    6  N9  UNL     1     -37.273   7.497  -3.443  1.00  0.00    -0.277 N 
ATOM      7  H9  UNL     1     -36.949   7.609  -4.404  1.00  0.00     0.184 HD
HETATM    8  N10 UNL     1     -38.125   8.306  -2.822  1.00  0.00    -0.017 NA
HETATM    9  N11 UNL     1     -38.336   7.882  -1.587  1.00  0.00    -0.248 N 
HETATM   10  C12 UNL     1     -37.582   6.755  -1.431  1.00  0.00     0.169 A 
HETATM   11  N13 UNL     1     -37.411   5.919  -0.393  1.00  0.00    -0.170 N 
ATOM     12  H13 UNL     1     -37.913   6.105   0.475  1.00  0.00     0.186 HD
ENDROOT
BRANCH   1  13
HETATM   13  N6  UNL     1     -36.458   3.990   0.677  1.00  0.00    -0.004 N 
HETATM   14  N5  UNL     1     -36.016   2.747   0.659  1.00  0.00    -0.205 N 
HETATM   15  N4  UNL     1     -36.009   2.246   1.883  1.00  0.00    -0.267 N 
ATOM     16  H5  UNL     1     -35.721   2.244  -0.179  1.00  0.00     0.211 HD
HETATM   17  C4  UNL     1     -36.462   3.194   2.726  1.00  0.00     0.157 A 
ATOM     18  H4  UNL     1     -35.713   1.305   2.144  1.00  0.00     0.190 HD
HETATM   19  N14 UNL     1     -36.732   4.264   1.946  1.00  0.00    -0.246 N 
ATOM     20  H14 UNL     1     -37.095   5.154   2.283  1.00  0.00     0.191 HD
BRANCH  17  21
HETATM   21  C3  UNL     1     -36.617   3.064   4.172  1.00  0.00     0.121 A 
HETATM   22  C2  UNL     1     -35.627   3.533   5.024  1.00  0.00     0.151 A 
HETATM   23  N2  UNL     1     -35.803   3.397   6.346  1.00  0.00    -0.178 N 
HETATM   24  N3  UNL     1     -34.497   4.123   4.435  1.00  0.00    -0.081 NA
HETATM   25  C1  UNL     1     -36.883   2.834   6.915  1.00  0.00     0.680 A 
ATOM     26  H2  UNL     1     -35.069   3.745   6.962  1.00  0.00     0.185 HD
HETATM   27  N15 UNL     1     -37.851   2.375   6.102  1.00  0.00    -0.155 N 
HETATM   28  C13 UNL     1     -37.724   2.485   4.761  1.00  0.00     0.277 A 
ATOM     29  H15 UNL     1     -38.685   1.941   6.499  1.00  0.00     0.187 HD
HETATM   30  O3  UNL     1     -38.623   2.060   3.988  1.00  0.00    -0.267 OA
BRANCH  25  31
HETATM   31  N1  UNL     1     -36.986   2.736   8.212  1.00  0.00    -0.234 N 
ATOM     32  H12 UNL     1     -36.224   3.023   8.827  1.00  0.00     0.174 HD
ATOM     33  H11 UNL     1     -37.833   2.370   8.647  1.00  0.00     0.174 HD
ENDBRANCH  25  31
ENDBRANCH  17  21
ENDBRANCH   1  13
BRANCH   4  34
HETATM   34  N8  UNL     1     -35.443   5.189  -3.803  1.00  0.00    -0.383 N 
ATOM     35  H82 UNL     1     -35.682   4.359  -4.345  1.00  0.00     0.157 HD
ATOM     36  H81 UNL     1     -34.718   5.802  -4.175  1.00  0.00     0.157 HD
ENDBRANCH   4  34
BRANCH   9  37
HETATM   37  C8  UNL     1     -39.187   8.460  -0.565  1.00  0.00     0.150 C 
BRANCH  37  38
HETATM   38  C9  UNL     1     -39.514   9.867  -0.800  1.00  0.00     0.113 C 
BRANCH  38  39
HETATM   39  N12 UNL     1     -38.634  10.729  -1.146  1.00  0.00    -0.282 N 
ATOM     40  H12 UNL     1     -37.841  10.398  -1.696  1.00  0.00     0.192 HD
BRANCH  39  41
HETATM   41  O1  UNL     1     -38.674  12.053  -0.836  1.00  0.00    -0.290 OA
ATOM     42  H1  UNL     1     -38.379  12.431  -0.015  1.00  0.00     0.244 HD
ENDBRANCH  39  41
ENDBRANCH  38  39
ENDBRANCH  37  38
BRANCH  37  43
HETATM   43  C10 UNL     1     -40.417   7.600  -0.362  1.00  0.00     0.058 C 
BRANCH  43  44
HETATM   44  C11 UNL     1     -40.624   7.330   1.108  1.00  0.00     0.166 C 
BRANCH  44  45
HETATM   45  O2  UNL     1     -39.923   6.160   1.434  1.00  0.00    -0.401 OA
ATOM     46  H2  UNL     1     -39.162   6.408   1.945  1.00  0.00     0.209 HD
ENDBRANCH  44  45
ENDBRANCH  43  44
ENDBRANCH  37  43
ENDBRANCH   9  37
TORSDOF 11
ENDMDL
MODEL 5
REMARK VINA RESULT: -7.358051679      2.217      8.292
REMARK  11 active torsions:
REMARK  status: ('A' for Active; 'I' for Inactive)
REMARK    1  A    between atoms: N1_1  and  C1_4 
REMARK    2  A    between atoms: C3_9  and  C4_10 
REMARK    3  A    between atoms: N6_15  and  C5_16 
REMARK    4  A    between atoms: C6_19  and  N8_20 
REMARK    5  A    between atoms: N11_27  and  C8_28 
REMARK    6  A    between atoms: C8_28  and  C9_29 
REMARK    7  A    between atoms: C8_28  and  C10_34 
REMARK    8  A    between atoms: C9_29  and  N12_30 
REMARK    9  A    between atoms: N12_30  and  O1_32 
REMARK   10  A    between atoms: C10_34  and  C11_35 
REMARK   11  A    between atoms: C11_35  and  O2_36 
ROOT
HETATM    1  C5  UNL     1     -35.937   2.597   2.069  1.00  0.00     0.723 A 
HETATM    2  N7  UNL     1     -35.213   1.614   1.502  1.00  0.00    -0.171 N 
ATOM      3  H7  UNL     1     -35.285   1.494   0.491  1.00  0.00     0.186 HD
HETATM    4  C6  UNL     1     -34.412   0.789   2.170  1.00  0.00     0.146 A 
HETATM    5  C7  UNL     1     -34.319   0.956   3.535  1.00  0.00     0.136 A 
HETATM    6  N9  UNL     1     -33.641   0.347   4.535  1.00  0.00    -0.277 N 
ATOM      7  H9  UNL     1     -33.003  -0.442   4.419  1.00  0.00     0.184 HD
HETATM    8  N10 UNL     1     -33.932   0.933   5.690  1.00  0.00    -0.017 NA
HETATM    9  N11 UNL     1     -34.790   1.922   5.495  1.00  0.00    -0.248 N 
HETATM   10  C12 UNL     1     -35.044   1.953   4.155  1.00  0.00     0.169 A 
HETATM   11  N13 UNL     1     -35.830   2.742   3.402  1.00  0.00    -0.170 N 
ATOM     12  H13 UNL     1     -36.367   3.479   3.859  1.00  0.00     0.186 HD
ENDROOT
BRANCH   1  13
HETATM   13  N6  UNL     1     -36.786   3.461   1.317  1.00  0.00    -0.004 N 
HETATM   14  N5  UNL     1     -37.787   3.086   0.545  1.00  0.00    -0.205 N 
HETATM   15  N4  UNL     1     -38.362   4.144  -0.004  1.00  0.00    -0.267 N 
ATOM     16  H5  UNL     1     -38.077   2.120   0.393  1.00  0.00     0.211 HD
HETATM   17  C4  UNL     1     -37.712   5.243   0.425  1.00  0.00     0.157 A 
ATOM     18  H4  UNL     1     -39.158   4.130  -0.642  1.00  0.00     0.190 HD
HETATM   19  N14 UNL     1     -36.739   4.785   1.243  1.00  0.00    -0.246 N 
ATOM     20  H14 UNL     1     -36.065   5.372   1.733  1.00  0.00     0.191 HD
BRANCH  17  21
HETATM   21  C3  UNL     1     -38.018   6.625   0.066  1.00  0.00     0.121 A 
HETATM   22  C2  UNL     1     -37.163   7.333  -0.768  1.00  0.00     0.151 A 
HETATM   23  N2  UNL     1     -37.476   8.600  -1.077  1.00  0.00    -0.178 N 
HETATM   24  N3  UNL     1     -36.019   6.666  -1.234  1.00  0.00    -0.081 NA
HETATM   25  C1  UNL     1     -38.570   9.243  -0.634  1.00  0.00     0.680 A 
ATOM     26  H2  UNL     1     -36.841   9.110  -1.690  1.00  0.00     0.185 HD
HETATM   27  N15 UNL     1     -39.408   8.569   0.175  1.00  0.00    -0.155 N 
HETATM   28  C13 UNL     1     -39.140   7.290   0.519  1.00  0.00     0.277 A 
ATOM     29  H15 UNL     1     -40.249   9.025   0.530  1.00  0.00     0.187 HD
HETATM   30  O3  UNL     1     -39.915   6.647   1.275  1.00  0.00    -0.267 OA
BRANCH  25  31
HETATM   31  N1  UNL     1     -38.810  10.479  -0.978  1.00  0.00    -0.234 N 
ATOM     32  H12 UNL     1     -38.305  11.255  -0.551  1.00  0.00     0.174 HD
ATOM     33  H11 UNL     1     -39.512  10.702  -1.684  1.00  0.00     0.174 HD
ENDBRANCH  25  31
ENDBRANCH  17  21
ENDBRANCH   1  13
BRANCH   4  34
HETATM   34  N8  UNL     1     -33.721  -0.153   1.611  1.00  0.00    -0.383 N 
ATOM     35  H82 UNL     1     -34.021  -0.507   0.703  1.00  0.00     0.157 HD
ATOM     36  H81 UNL     1     -32.887  -0.567   2.027  1.00  0.00     0.157 HD
ENDBRANCH   4  34
BRANCH   9  37
HETATM   37  C8  UNL     1     -35.374   2.820   6.472  1.00  0.00     0.150 C 
BRANCH  37  38
HETATM   38  C9  UNL     1     -35.658   2.184   7.759  1.00  0.00     0.113 C 
BRANCH  38  39
HETATM   39  N12 UNL     1     -36.797   2.277   8.336  1.00  0.00    -0.282 N 
ATOM     40  H12 UNL     1     -37.016   1.589   9.057  1.00  0.00     0.192 HD
BRANCH  39  41
HETATM   41  O1  UNL     1     -37.736   3.221   8.062  1.00  0.00    -0.290 OA
ATOM     42  H1  UNL     1     -38.668   3.055   7.976  1.00  0.00     0.244 HD
ENDBRANCH  39  41
ENDBRANCH  38  39
ENDBRANCH  37  38
BRANCH  37  43
HETATM   43  C10 UNL     1     -34.521   4.064   6.611  1.00  0.00     0.058 C 
BRANCH  43  44
HETATM   44  C11 UNL     1     -35.185   5.227   5.914  1.00  0.00     0.166 C 
BRANCH  44  45
HETATM   45  O2  UNL     1     -36.540   4.911   5.746  1.00  0.00    -0.401 OA
ATOM     46  H2  UNL     1     -36.905   5.518   5.112  1.00  0.00     0.209 HD
ENDBRANCH  44  45
ENDBRANCH  43  44
ENDBRANCH  37  43
ENDBRANCH   9  37
TORSDOF 11
ENDMDL
