MODEL 1
REMARK VINA RESULT: -6.360722367      0.000      0.000
REMARK  10 active torsions:
REMARK  status: ('A' for Active; 'I' for Inactive)
REMARK    1  A    between atoms: C2_2  and  O1_3 
REMARK    2  A    between atoms: O1_3  and  C3_4 
REMARK    3  A    between atoms: C3_4  and  C4_6 
REMARK    4  A    between atoms: C4_6  and  C5_7 
REMARK    5  A    between atoms: C5_7  and  O3_8 
REMARK    6  A    between atoms: O3_8  and  C6_9 
REMARK    7  A    between atoms: C8_15  and  S1_16 
REMARK    8  A    between atoms: S1_16  and  N3_17 
REMARK    9  A    between atoms: N3_17  and  N4_19 
REMARK   10  A    between atoms: N11_37  and  N12_38 
ROOT
HETATM    1  C4  UNL     1     -38.957   6.689  -0.529  1.00  0.00     0.206 C 
HETATM    2  C7  UNL     1     -37.680   5.975  -0.847  1.00  0.00     0.084 A 
HETATM    3  N2  UNL     1     -37.314   4.681  -0.822  1.00  0.00    -0.334 N 
ATOM      4  H2  UNL     1     -38.003   3.985  -0.537  1.00  0.00     0.168 HD
HETATM    5  C8  UNL     1     -36.081   4.263  -1.156  1.00  0.00     0.169 A 
HETATM    6  N9  UNL     1     -35.193   5.204  -1.528  1.00  0.00    -0.300 N 
ATOM      7  H9  UNL     1     -34.250   4.914  -1.786  1.00  0.00     0.171 HD
HETATM    8  C10 UNL     1     -35.504   6.511  -1.572  1.00  0.00     0.277 A 
HETATM    9  O5  UNL     1     -34.692   7.398  -1.915  1.00  0.00    -0.266 OA
HETATM   10  C11 UNL     1     -36.785   6.948  -1.225  1.00  0.00     0.138 A 
HETATM   11  N10 UNL     1     -37.411   8.215  -1.169  1.00  0.00    -0.293 N 
ATOM     12  H10 UNL     1     -37.093   9.071  -1.623  1.00  0.00     0.183 HD
HETATM   13  N11 UNL     1     -38.545   8.066  -0.377  1.00  0.00    -0.117 NA
ENDROOT
BRANCH   5  14
HETATM   14  S1  UNL     1     -35.635   2.522  -1.107  1.00  0.00     0.041 SA
BRANCH  14  15
HETATM   15  N3  UNL     1     -35.535   1.929   0.537  1.00  0.00    -0.229 N 
ATOM     16  H3  UNL     1     -34.799   1.273   0.799  1.00  0.00     0.198 HD
BRANCH  15  17
HETATM   17  N4  UNL     1     -36.457   2.351   1.482  1.00  0.00     0.003 N 
HETATM   18  N5  UNL     1     -36.321   3.430   2.229  1.00  0.00    -0.191 N 
HETATM   19  N6  UNL     1     -37.366   3.534   3.009  1.00  0.00    -0.212 N 
ATOM     20  H5  UNL     1     -35.531   4.075   2.203  1.00  0.00     0.212 HD
HETATM   21  N7  UNL     1     -38.177   2.536   2.775  1.00  0.00    -0.114 N 
ATOM     22  H6  UNL     1     -37.523   4.276   3.691  1.00  0.00     0.210 HD
HETATM   23  C9  UNL     1     -37.632   1.788   1.829  1.00  0.00     0.730 A 
ATOM     24  H7  UNL     1     -39.069   2.364   3.238  1.00  0.00     0.207 HD
HETATM   25  N8  UNL     1     -38.110   0.720   1.318  1.00  0.00    -0.230 N 
ATOM     26  H82 UNL     1     -37.690   0.143   0.589  1.00  0.00     0.174 HD
ATOM     27  H81 UNL     1     -38.999   0.294   1.582  1.00  0.00     0.174 HD
ENDBRANCH  15  17
ENDBRANCH  14  15
ENDBRANCH   5  14
BRANCH   1  28
HETATM   28  C3  UNL     1     -39.485   6.179   0.754  1.00  0.00     0.294 C 
HETATM   29  O2  UNL     1     -39.082   5.091   1.221  1.00  0.00    -0.262 OA
BRANCH  28  30
HETATM   30  O1  UNL     1     -40.431   6.906   1.448  1.00  0.00    -0.320 OA
BRANCH  30  31
HETATM   31  C2  UNL     1     -41.822   6.759   1.253  1.00  0.00     0.174 C 
HETATM   32  C1  UNL     1     -42.521   7.706   2.195  1.00  0.00     0.034 C 
ENDBRANCH  30  31
ENDBRANCH  28  30
ENDBRANCH   1  28
BRANCH   1  33
HETATM   33  C5  UNL     1     -39.991   6.497  -1.586  1.00  0.00     0.226 C 
BRANCH  33  34
HETATM   34  O3  UNL     1     -39.441   6.282  -2.869  1.00  0.00    -0.303 OA
BRANCH  34  35
HETATM   35  C6  UNL     1     -39.490   7.187  -3.886  1.00  0.00     0.372 C 
HETATM   36  N1  UNL     1     -40.421   7.037  -4.942  1.00  0.00    -0.032 NA
HETATM   37  O4  UNL     1     -38.704   8.161  -3.885  1.00  0.00    -0.242 OA
ENDBRANCH  34  35
ENDBRANCH  33  34
ENDBRANCH   1  33
BRANCH  13  38
HETATM   38  N12 UNL     1     -39.509   8.961  -0.854  1.00  0.00    -0.344 NA
ATOM     39 2H12 UNL     1     -39.934   9.413  -0.045  1.00  0.00     0.172 HD
ATOM     40 1H12 UNL     1     -39.096   9.711  -1.408  1.00  0.00     0.172 HD
ENDBRANCH  13  38
TORSDOF 10
ENDMDL
MODEL 2
REMARK VINA RESULT: -6.342296800      2.796      4.581
REMARK  10 active torsions:
REMARK  status: ('A' for Active; 'I' for Inactive)
REMARK    1  A    between atoms: C2_2  and  O1_3 
REMARK    2  A    between atoms: O1_3  and  C3_4 
REMARK    3  A    between atoms: C3_4  and  C4_6 
REMARK    4  A    between atoms: C4_6  and  C5_7 
REMARK    5  A    between atoms: C5_7  and  O3_8 
REMARK    6  A    between atoms: O3_8  and  C6_9 
REMARK    7  A    between atoms: C8_15  and  S1_16 
REMARK    8  A    between atoms: S1_16  and  N3_17 
REMARK    9  A    between atoms: N3_17  and  N4_19 
REMARK   10  A    between atoms: N11_37  and  N12_38 
ROOT
HETATM    1  C4  UNL     1     -38.866   6.771  -1.504  1.00  0.00     0.206 C 
HETATM    2  C7  UNL     1     -37.468   6.289  -1.737  1.00  0.00     0.084 A 
HETATM    3  N2  UNL     1     -36.954   5.141  -2.214  1.00  0.00    -0.334 N 
ATOM      4  H2  UNL     1     -37.596   4.401  -2.497  1.00  0.00     0.168 HD
HETATM    5  C8  UNL     1     -35.633   4.926  -2.335  1.00  0.00     0.169 A 
HETATM    6  N9  UNL     1     -34.811   5.921  -1.954  1.00  0.00    -0.300 N 
ATOM      7  H9  UNL     1     -33.804   5.784  -2.036  1.00  0.00     0.171 HD
HETATM    8  C10 UNL     1     -35.269   7.089  -1.471  1.00  0.00     0.277 A 
HETATM    9  O5  UNL     1     -34.519   8.025  -1.113  1.00  0.00    -0.266 OA
HETATM   10  C11 UNL     1     -36.641   7.315  -1.344  1.00  0.00     0.138 A 
HETATM   11  N10 UNL     1     -37.422   8.403  -0.886  1.00  0.00    -0.293 N 
ATOM     12  H10 UNL     1     -37.113   9.368  -0.776  1.00  0.00     0.183 HD
HETATM   13  N11 UNL     1     -38.690   7.900  -0.617  1.00  0.00    -0.117 NA
ENDROOT
BRANCH   5  14
HETATM   14  S1  UNL     1     -34.990   3.375  -2.978  1.00  0.00     0.041 SA
BRANCH  14  15
HETATM   15  N3  UNL     1     -34.042   3.623  -4.429  1.00  0.00    -0.229 N 
ATOM     16  H3  UNL     1     -33.221   3.045  -4.608  1.00  0.00     0.198 HD
BRANCH  15  17
HETATM   17  N4  UNL     1     -34.408   4.607  -5.334  1.00  0.00     0.003 N 
HETATM   18  N5  UNL     1     -35.378   4.483  -6.221  1.00  0.00    -0.191 N 
HETATM   19  N6  UNL     1     -35.457   5.591  -6.913  1.00  0.00    -0.212 N 
ATOM     20  H5  UNL     1     -35.967   3.660  -6.346  1.00  0.00     0.212 HD
HETATM   21  N7  UNL     1     -34.551   6.429  -6.484  1.00  0.00    -0.114 N 
ATOM     22  H6  UNL     1     -36.121   5.771  -7.667  1.00  0.00     0.210 HD
HETATM   23  C9  UNL     1     -33.888   5.839  -5.503  1.00  0.00     0.730 A 
ATOM     24  H7  UNL     1     -34.386   7.370  -6.841  1.00  0.00     0.207 HD
HETATM   25  N8  UNL     1     -32.924   6.325  -4.822  1.00  0.00    -0.230 N 
ATOM     26  H82 UNL     1     -32.412   5.870  -4.065  1.00  0.00     0.174 HD
ATOM     27  H81 UNL     1     -32.530   7.257  -4.950  1.00  0.00     0.174 HD
ENDBRANCH  15  17
ENDBRANCH  14  15
ENDBRANCH   5  14
BRANCH   1  28
HETATM   28  C3  UNL     1     -39.632   5.709  -0.818  1.00  0.00     0.294 C 
HETATM   29  O2  UNL     1     -39.664   4.547  -1.281  1.00  0.00    -0.262 OA
BRANCH  28  30
HETATM   30  O1  UNL     1     -40.320   5.996   0.344  1.00  0.00    -0.320 OA
BRANCH  30  31
HETATM   31  C2  UNL     1     -41.702   6.286   0.378  1.00  0.00     0.174 C 
HETATM   32  C1  UNL     1     -41.947   7.216   1.540  1.00  0.00     0.034 C 
ENDBRANCH  30  31
ENDBRANCH  28  30
ENDBRANCH   1  28
BRANCH   1  33
HETATM   33  C5  UNL     1     -39.563   7.125  -2.774  1.00  0.00     0.226 C 
BRANCH  33  34
HETATM   34  O3  UNL     1     -38.864   8.082  -3.543  1.00  0.00    -0.303 OA
BRANCH  34  35
HETATM   35  C6  UNL     1     -38.404   7.864  -4.806  1.00  0.00     0.372 C 
HETATM   36  N1  UNL     1     -37.319   6.984  -5.038  1.00  0.00    -0.032 NA
HETATM   37  O4  UNL     1     -38.947   8.447  -5.771  1.00  0.00    -0.242 OA
ENDBRANCH  34  35
ENDBRANCH  33  34
ENDBRANCH   1  33
BRANCH  13  38
HETATM   38  N12 UNL     1     -39.610   8.922  -0.876  1.00  0.00    -0.344 NA
ATOM     39 2H12 UNL     1     -40.259   8.955  -0.090  1.00  0.00     0.172 HD
ATOM     40 1H12 UNL     1     -39.165   9.840  -0.908  1.00  0.00     0.172 HD
ENDBRANCH  13  38
TORSDOF 10
ENDMDL
MODEL 3
REMARK VINA RESULT: -6.236565843      2.786      4.327
REMARK  10 active torsions:
REMARK  status: ('A' for Active; 'I' for Inactive)
REMARK    1  A    between atoms: C2_2  and  O1_3 
REMARK    2  A    between atoms: O1_3  and  C3_4 
REMARK    3  A    between atoms: C3_4  and  C4_6 
REMARK    4  A    between atoms: C4_6  and  C5_7 
REMARK    5  A    between atoms: C5_7  and  O3_8 
REMARK    6  A    between atoms: O3_8  and  C6_9 
REMARK    7  A    between atoms: C8_15  and  S1_16 
REMARK    8  A    between atoms: S1_16  and  N3_17 
REMARK    9  A    between atoms: N3_17  and  N4_19 
REMARK   10  A    between atoms: N11_37  and  N12_38 
ROOT
HETATM    1  C4  UNL     1     -39.008   6.773  -1.726  1.00  0.00     0.206 C 
HETATM    2  C7  UNL     1     -37.616   6.233  -1.824  1.00  0.00     0.084 A 
HETATM    3  N2  UNL     1     -37.111   5.043  -2.197  1.00  0.00    -0.334 N 
ATOM      4  H2  UNL     1     -37.757   4.309  -2.487  1.00  0.00     0.168 HD
HETATM    5  C8  UNL     1     -35.793   4.778  -2.204  1.00  0.00     0.169 A 
HETATM    6  N9  UNL     1     -34.965   5.765  -1.817  1.00  0.00    -0.300 N 
ATOM      7  H9  UNL     1     -33.961   5.591  -1.813  1.00  0.00     0.171 HD
HETATM    8  C10 UNL     1     -35.414   6.974  -1.435  1.00  0.00     0.277 A 
HETATM    9  O5  UNL     1     -34.659   7.903  -1.072  1.00  0.00    -0.266 OA
HETATM   10  C11 UNL     1     -36.783   7.252  -1.425  1.00  0.00     0.138 A 
HETATM   11  N10 UNL     1     -37.554   8.389  -1.089  1.00  0.00    -0.293 N 
ATOM     12  H10 UNL     1     -37.219   9.349  -1.009  1.00  0.00     0.183 HD
HETATM   13  N11 UNL     1     -38.858   7.944  -0.890  1.00  0.00    -0.117 NA
ENDROOT
BRANCH   5  14
HETATM   14  S1  UNL     1     -35.162   3.173  -2.710  1.00  0.00     0.041 SA
BRANCH  14  15
HETATM   15  N3  UNL     1     -34.088   3.307  -4.086  1.00  0.00    -0.229 N 
ATOM     16  H3  UNL     1     -33.602   2.482  -4.437  1.00  0.00     0.198 HD
BRANCH  15  17
HETATM   17  N4  UNL     1     -33.900   4.537  -4.699  1.00  0.00     0.003 N 
HETATM   18  N5  UNL     1     -32.924   5.376  -4.405  1.00  0.00    -0.191 N 
HETATM   19  N6  UNL     1     -33.039   6.434  -5.166  1.00  0.00    -0.212 N 
ATOM     20  H5  UNL     1     -32.201   5.224  -3.702  1.00  0.00     0.212 HD
HETATM   21  N7  UNL     1     -34.077   6.290  -5.947  1.00  0.00    -0.114 N 
ATOM     22  H6  UNL     1     -32.418   7.244  -5.151  1.00  0.00     0.210 HD
HETATM   23  C9  UNL     1     -34.626   5.118  -5.674  1.00  0.00     0.730 A 
ATOM     24  H7  UNL     1     -34.404   6.960  -6.643  1.00  0.00     0.207 HD
HETATM   25  N8  UNL     1     -35.659   4.604  -6.220  1.00  0.00    -0.230 N 
ATOM     26  H82 UNL     1     -36.083   3.700  -6.010  1.00  0.00     0.174 HD
ATOM     27  H81 UNL     1     -36.210   5.043  -6.958  1.00  0.00     0.174 HD
ENDBRANCH  15  17
ENDBRANCH  14  15
ENDBRANCH   5  14
BRANCH   1  28
HETATM   28  C3  UNL     1     -39.862   5.778  -1.043  1.00  0.00     0.294 C 
HETATM   29  O2  UNL     1     -40.052   4.649  -1.548  1.00  0.00    -0.262 OA
BRANCH  28  30
HETATM   30  O1  UNL     1     -40.459   6.091   0.162  1.00  0.00    -0.320 OA
BRANCH  30  31
HETATM   31  C2  UNL     1     -41.826   6.419   0.292  1.00  0.00     0.174 C 
HETATM   32  C1  UNL     1     -41.972   7.314   1.496  1.00  0.00     0.034 C 
ENDBRANCH  30  31
ENDBRANCH  28  30
ENDBRANCH   1  28
BRANCH   1  33
HETATM   33  C5  UNL     1     -39.595   7.076  -3.063  1.00  0.00     0.226 C 
BRANCH  33  34
HETATM   34  O3  UNL     1     -38.881   8.069  -3.770  1.00  0.00    -0.303 OA
BRANCH  34  35
HETATM   35  C6  UNL     1     -38.418   7.921  -5.042  1.00  0.00     0.372 C 
HETATM   36  N1  UNL     1     -37.204   7.237  -5.294  1.00  0.00    -0.032 NA
HETATM   37  O4  UNL     1     -39.074   8.394  -5.998  1.00  0.00    -0.242 OA
ENDBRANCH  34  35
ENDBRANCH  33  34
ENDBRANCH   1  33
BRANCH  13  38
HETATM   38  N12 UNL     1     -39.716   8.980  -1.275  1.00  0.00    -0.344 NA
ATOM     39 2H12 UNL     1     -40.649   8.745  -0.936  1.00  0.00     0.172 HD
ATOM     40 1H12 UNL     1     -39.474   9.866  -0.830  1.00  0.00     0.172 HD
ENDBRANCH  13  38
TORSDOF 10
ENDMDL
MODEL 4
REMARK VINA RESULT: -6.204729774      3.048      5.110
REMARK  10 active torsions:
REMARK  status: ('A' for Active; 'I' for Inactive)
REMARK    1  A    between atoms: C2_2  and  O1_3 
REMARK    2  A    between atoms: O1_3  and  C3_4 
REMARK    3  A    between atoms: C3_4  and  C4_6 
REMARK    4  A    between atoms: C4_6  and  C5_7 
REMARK    5  A    between atoms: C5_7  and  O3_8 
REMARK    6  A    between atoms: O3_8  and  C6_9 
REMARK    7  A    between atoms: C8_15  and  S1_16 
REMARK    8  A    between atoms: S1_16  and  N3_17 
REMARK    9  A    between atoms: N3_17  and  N4_19 
REMARK   10  A    between atoms: N11_37  and  N12_38 
ROOT
HETATM    1  C4  UNL     1     -38.192   6.162  -0.017  1.00  0.00     0.206 C 
HETATM    2  C7  UNL     1     -37.599   5.260   1.019  1.00  0.00     0.084 A 
HETATM    3  N2  UNL     1     -36.754   5.463   2.046  1.00  0.00    -0.334 N 
ATOM      4  H2  UNL     1     -36.406   6.407   2.212  1.00  0.00     0.168 HD
HETATM    5  C8  UNL     1     -36.348   4.477   2.864  1.00  0.00     0.169 A 
HETATM    6  N9  UNL     1     -36.823   3.241   2.621  1.00  0.00    -0.300 N 
ATOM      7  H9  UNL     1     -36.531   2.475   3.227  1.00  0.00     0.171 HD
HETATM    8  C10 UNL     1     -37.670   2.981   1.610  1.00  0.00     0.277 A 
HETATM    9  O5  UNL     1     -38.122   1.840   1.370  1.00  0.00    -0.266 OA
HETATM   10  C11 UNL     1     -38.093   4.004   0.758  1.00  0.00     0.138 A 
HETATM   11  N10 UNL     1     -38.954   4.058  -0.363  1.00  0.00    -0.293 N 
ATOM     12  H10 UNL     1     -39.649   3.361  -0.631  1.00  0.00     0.183 HD
HETATM   13  N11 UNL     1     -38.670   5.246  -1.029  1.00  0.00    -0.117 NA
ENDROOT
BRANCH   5  14
HETATM   14  S1  UNL     1     -35.217   4.793   4.225  1.00  0.00     0.041 SA
BRANCH  14  15
HETATM   15  N3  UNL     1     -35.249   3.498   5.404  1.00  0.00    -0.229 N 
ATOM     16  H3  UNL     1     -34.563   2.745   5.354  1.00  0.00     0.198 HD
BRANCH  15  17
HETATM   17  N4  UNL     1     -36.209   3.498   6.404  1.00  0.00     0.003 N 
HETATM   18  N5  UNL     1     -37.194   4.371   6.495  1.00  0.00    -0.191 N 
HETATM   19  N6  UNL     1     -37.913   4.084   7.550  1.00  0.00    -0.212 N 
ATOM     20  H5  UNL     1     -37.367   5.142   5.849  1.00  0.00     0.212 HD
HETATM   21  N7  UNL     1     -37.404   3.036   8.143  1.00  0.00    -0.114 N 
ATOM     22  H6  UNL     1     -38.738   4.597   7.861  1.00  0.00     0.210 HD
HETATM   23  C9  UNL     1     -36.345   2.655   7.447  1.00  0.00     0.730 A 
ATOM     24  H7  UNL     1     -37.760   2.592   8.989  1.00  0.00     0.207 HD
HETATM   25  N8  UNL     1     -35.571   1.670   7.697  1.00  0.00    -0.230 N 
ATOM     26  H82 UNL     1     -34.754   1.376   7.161  1.00  0.00     0.174 HD
ATOM     27  H81 UNL     1     -35.674   1.033   8.487  1.00  0.00     0.174 HD
ENDBRANCH  15  17
ENDBRANCH  14  15
ENDBRANCH   5  14
BRANCH   1  28
HETATM   28  C3  UNL     1     -37.123   7.015  -0.579  1.00  0.00     0.294 C 
HETATM   29  O2  UNL     1     -37.379   8.169  -0.989  1.00  0.00    -0.262 OA
BRANCH  28  30
HETATM   30  O1  UNL     1     -35.829   6.541  -0.655  1.00  0.00    -0.320 OA
BRANCH  30  31
HETATM   31  C2  UNL     1     -35.230   6.102  -1.856  1.00  0.00     0.174 C 
HETATM   32  C1  UNL     1     -34.058   7.006  -2.143  1.00  0.00     0.034 C 
ENDBRANCH  30  31
ENDBRANCH  28  30
ENDBRANCH   1  28
BRANCH   1  33
HETATM   33  C5  UNL     1     -39.264   7.037   0.539  1.00  0.00     0.226 C 
BRANCH  33  34
HETATM   34  O3  UNL     1     -40.265   6.317   1.229  1.00  0.00    -0.303 OA
BRANCH  34  35
HETATM   35  C6  UNL     1     -41.582   6.662   1.247  1.00  0.00     0.372 C 
HETATM   36  N1  UNL     1     -42.419   6.374   0.142  1.00  0.00    -0.032 NA
HETATM   37  O4  UNL     1     -42.057   7.238   2.252  1.00  0.00    -0.242 OA
ENDBRANCH  34  35
ENDBRANCH  33  34
ENDBRANCH   1  33
BRANCH  13  38
HETATM   38  N12 UNL     1     -39.858   5.688  -1.622  1.00  0.00    -0.344 NA
ATOM     39 2H12 UNL     1     -40.488   5.968  -0.871  1.00  0.00     0.172 HD
ATOM     40 1H12 UNL     1     -39.716   6.522  -2.192  1.00  0.00     0.172 HD
ENDBRANCH  13  38
TORSDOF 10
ENDMDL
MODEL 5
REMARK VINA RESULT: -6.195268708      2.297      5.013
REMARK  10 active torsions:
REMARK  status: ('A' for Active; 'I' for Inactive)
REMARK    1  A    between atoms: C2_2  and  O1_3 
REMARK    2  A    between atoms: O1_3  and  C3_4 
REMARK    3  A    between atoms: C3_4  and  C4_6 
REMARK    4  A    between atoms: C4_6  and  C5_7 
REMARK    5  A    between atoms: C5_7  and  O3_8 
REMARK    6  A    between atoms: O3_8  and  C6_9 
REMARK    7  A    between atoms: C8_15  and  S1_16 
REMARK    8  A    between atoms: S1_16  and  N3_17 
REMARK    9  A    between atoms: N3_17  and  N4_19 
REMARK   10  A    between atoms: N11_37  and  N12_38 
ROOT
HETATM    1  C4  UNL     1     -38.652   6.569  -0.987  1.00  0.00     0.206 C 
HETATM    2  C7  UNL     1     -38.090   5.232  -0.616  1.00  0.00     0.084 A 
HETATM    3  N2  UNL     1     -37.355   4.322  -1.280  1.00  0.00    -0.334 N 
ATOM      4  H2  UNL     1     -37.088   4.522  -2.244  1.00  0.00     0.168 HD
HETATM    5  C8  UNL     1     -36.957   3.162  -0.731  1.00  0.00     0.169 A 
HETATM    6  N9  UNL     1     -37.324   2.926   0.542  1.00  0.00    -0.300 N 
ATOM      7  H9  UNL     1     -37.035   2.054   0.983  1.00  0.00     0.171 HD
HETATM    8  C10 UNL     1     -38.057   3.800   1.254  1.00  0.00     0.277 A 
HETATM    9  O5  UNL     1     -38.407   3.598   2.438  1.00  0.00    -0.266 OA
HETATM   10  C11 UNL     1     -38.473   5.006   0.685  1.00  0.00     0.138 A 
HETATM   11  N10 UNL     1     -39.230   6.106   1.153  1.00  0.00    -0.293 N 
ATOM     12  H10 UNL     1     -39.426   6.339   2.126  1.00  0.00     0.183 HD
HETATM   13  N11 UNL     1     -39.653   6.808   0.029  1.00  0.00    -0.117 NA
ENDROOT
BRANCH   5  14
HETATM   14  S1  UNL     1     -35.975   1.974  -1.656  1.00  0.00     0.041 SA
BRANCH  14  15
HETATM   15  N3  UNL     1     -35.612   2.555  -3.268  1.00  0.00    -0.229 N 
ATOM     16  H3  UNL     1     -36.171   2.242  -4.062  1.00  0.00     0.198 HD
BRANCH  15  17
HETATM   17  N4  UNL     1     -34.564   3.441  -3.463  1.00  0.00     0.003 N 
HETATM   18  N5  UNL     1     -33.818   3.942  -2.496  1.00  0.00    -0.191 N 
HETATM   19  N6  UNL     1     -32.926   4.739  -3.025  1.00  0.00    -0.212 N 
ATOM     20  H5  UNL     1     -33.921   3.740  -1.502  1.00  0.00     0.212 HD
HETATM   21  N7  UNL     1     -33.085   4.759  -4.323  1.00  0.00    -0.114 N 
ATOM     22  H6  UNL     1     -32.218   5.261  -2.508  1.00  0.00     0.210 HD
HETATM   23  C9  UNL     1     -34.098   3.960  -4.617  1.00  0.00     0.730 A 
ATOM     24  H7  UNL     1     -32.529   5.296  -4.988  1.00  0.00     0.207 HD
HETATM   25  N8  UNL     1     -34.570   3.707  -5.776  1.00  0.00    -0.230 N 
ATOM     26  H82 UNL     1     -35.350   3.090  -6.002  1.00  0.00     0.174 HD
ATOM     27  H81 UNL     1     -34.217   4.100  -6.648  1.00  0.00     0.174 HD
ENDBRANCH  15  17
ENDBRANCH  14  15
ENDBRANCH   5  14
BRANCH   1  28
HETATM   28  C3  UNL     1     -39.299   6.466  -2.312  1.00  0.00     0.294 C 
HETATM   29  O2  UNL     1     -40.512   6.738  -2.451  1.00  0.00    -0.262 OA
BRANCH  28  30
HETATM   30  O1  UNL     1     -38.563   6.069  -3.411  1.00  0.00    -0.320 OA
BRANCH  30  31
HETATM   31  C2  UNL     1     -38.776   6.571  -4.713  1.00  0.00     0.174 C 
HETATM   32  C1  UNL     1     -38.211   7.968  -4.765  1.00  0.00     0.034 C 
ENDBRANCH  30  31
ENDBRANCH  28  30
ENDBRANCH   1  28
BRANCH   1  33
HETATM   33  C5  UNL     1     -37.605   7.629  -1.043  1.00  0.00     0.226 C 
BRANCH  33  34
HETATM   34  O3  UNL     1     -36.303   7.136  -0.800  1.00  0.00    -0.303 OA
BRANCH  34  35
HETATM   35  C6  UNL     1     -35.241   7.333  -1.630  1.00  0.00     0.372 C 
HETATM   36  N1  UNL     1     -35.257   6.834  -2.955  1.00  0.00    -0.032 NA
HETATM   37  O4  UNL     1     -34.242   7.963  -1.216  1.00  0.00    -0.242 OA
ENDBRANCH  34  35
ENDBRANCH  33  34
ENDBRANCH   1  33
BRANCH  13  38
HETATM   38  N12 UNL     1     -39.730   8.160   0.385  1.00  0.00    -0.344 NA
ATOM     39 2H12 UNL     1     -40.655   8.494   0.114  1.00  0.00     0.172 HD
ATOM     40 1H12 UNL     1     -39.669   8.296   1.394  1.00  0.00     0.172 HD
ENDBRANCH  13  38
TORSDOF 10
ENDMDL
