MODEL 1
REMARK VINA RESULT: -8.192190152      0.000      0.000
REMARK  15 active torsions:
REMARK  status: ('A' for Active; 'I' for Inactive)
REMARK    1  A    between atoms: O1_2  and  C2_3 
REMARK    2  A    between atoms: C2_3  and  C3_5 
REMARK    3  A    between atoms: C3_5  and  C4_6 
REMARK    4  A    between atoms: C4_6  and  C5_7 
REMARK    5  A    between atoms: C5_7  and  O3_8 
REMARK    6  A    between atoms: O3_8  and  C6_9 
REMARK    7  A    between atoms: C6_9  and  C7_11 
REMARK    8  A    between atoms: C7_11  and  C8_12 
REMARK       I    between atoms: N1_18  and  C14_19 
REMARK    9  A    between atoms: C14_19  and  C15_21 
REMARK   10  A    between atoms: C15_21  and  C16_22 
REMARK   11  A    between atoms: C15_21  and  C20_31 
REMARK   12  A    between atoms: C16_22  and  C17_23 
REMARK       I    between atoms: C17_23  and  N2_25 
REMARK   13  A    between atoms: N2_25  and  C18_27 
REMARK   14  A    between atoms: C18_27  and  C19_28 
REMARK   15  A    between atoms: C20_31  and  C21_32 
ROOT
HETATM    1  C3  UNL     1       4.359   0.174  12.868  1.00  0.00     0.060 C 
HETATM    2  C12 UNL     1       4.519  -1.312  12.673  1.00  0.00     0.040 C 
HETATM    3  C13 UNL     1       5.892  -1.810  12.463  1.00  0.00     0.128 C 
HETATM    4  N1  UNL     1       6.808  -1.616  13.593  1.00  0.00    -0.343 N 
HETATM    5  C14 UNL     1       6.864  -2.721  14.496  1.00  0.00     0.225 C 
HETATM    6  O5  UNL     1       6.136  -3.726  14.175  1.00  0.00    -0.273 OA
HETATM    7  C27 UNL     1       7.613  -0.450  13.772  1.00  0.00     0.199 C 
HETATM    8  S1  UNL     1       6.571   0.897  14.366  1.00  0.00    -0.148 SA
HETATM    9  C28 UNL     1       4.831   0.432  14.316  1.00  0.00     0.095 C 
ENDROOT
BRANCH   5  10
HETATM   10  C15 UNL     1       7.646  -2.808  15.715  1.00  0.00     0.087 C 
BRANCH  10  11
HETATM   11  C16 UNL     1       6.808  -3.118  16.906  1.00  0.00     0.117 C 
BRANCH  11  12
HETATM   12  C17 UNL     1       5.424  -2.672  16.914  1.00  0.00     0.218 C 
HETATM   13  O6  UNL     1       5.101  -1.494  17.117  1.00  0.00    -0.274 OA
HETATM   14  N2  UNL     1       4.398  -3.634  16.674  1.00  0.00    -0.353 N 
ATOM     15  H2  UNL     1       4.672  -4.603  16.507  1.00  0.00     0.162 HD
BRANCH  14  16
HETATM   16  C18 UNL     1       3.001  -3.307  16.658  1.00  0.00     0.222 C 
BRANCH  16  17
HETATM   17  C19 UNL     1       2.510  -3.193  15.278  1.00  0.00     0.248 C 
HETATM   18  N3  UNL     1       2.667  -4.190  14.294  1.00  0.00    -0.061 NA
HETATM   19  O7  UNL     1       1.912  -2.140  14.942  1.00  0.00    -0.275 OA
ENDBRANCH  16  17
ENDBRANCH  14  16
ENDBRANCH  11  12
ENDBRANCH  10  11
BRANCH  10  20
HETATM   20  C20 UNL     1       8.916  -3.603  15.656  1.00  0.00     0.019 C 
BRANCH  20  21
HETATM   21  C21 UNL     1       9.110  -4.657  16.664  1.00  0.00    -0.014 C 
HETATM   22  C22 UNL     1      10.331  -4.655  17.495  1.00  0.00     0.005 C 
HETATM   23  C23 UNL     1      10.329  -5.983  18.282  1.00  0.00     0.000 C 
HETATM   24  C24 UNL     1       8.963  -6.574  18.399  1.00  0.00     0.000 C 
HETATM   25  C25 UNL     1       8.450  -7.027  17.057  1.00  0.00     0.000 C 
HETATM   26  C26 UNL     1       9.003  -6.045  16.023  1.00  0.00     0.005 C 
ENDBRANCH  20  21
ENDBRANCH  10  20
ENDBRANCH   5  10
BRANCH   1  27
HETATM   27  C2  UNL     1       5.194   0.990  11.968  1.00  0.00     0.268 C 
HETATM   28  O2  UNL     1       5.304   2.226  12.140  1.00  0.00    -0.264 OA
BRANCH  27  29
HETATM   29  O1  UNL     1       5.906   0.454  10.879  1.00  0.00    -0.326 OA
HETATM   30  C1  UNL     1       7.071   1.087  10.354  1.00  0.00     0.213 C 
ENDBRANCH  27  29
ENDBRANCH   1  27
BRANCH   1  31
HETATM   31  C4  UNL     1       2.884   0.461  12.769  1.00  0.00     0.047 C 
BRANCH  31  32
HETATM   32  C5  UNL     1       2.330   0.663  11.415  1.00  0.00     0.180 C 
BRANCH  32  33
HETATM   33  O3  UNL     1       1.153   1.395  11.303  1.00  0.00    -0.321 OA
BRANCH  33  34
HETATM   34  C6  UNL     1       1.082   2.689  10.790  1.00  0.00     0.259 C 
HETATM   35  O4  UNL     1       1.080   3.636  11.615  1.00  0.00    -0.265 OA
BRANCH  34  36
HETATM   36  C7  UNL     1       1.014   2.909   9.331  1.00  0.00     0.119 C 
BRANCH  36  37
HETATM   37  C8  UNL     1       2.127   3.770   8.787  1.00  0.00    -0.043 C 
HETATM   38  C9  UNL     1       1.864   5.236   8.886  1.00  0.00     0.015 C 
HETATM   39  C10 UNL     1       3.457   3.387   9.368  1.00  0.00     0.015 C 
HETATM   40  C11 UNL     1       2.196   3.426   7.287  1.00  0.00     0.015 C 
ENDBRANCH  36  37
ENDBRANCH  34  36
ENDBRANCH  33  34
ENDBRANCH  32  33
ENDBRANCH  31  32
ENDBRANCH   1  31
TORSDOF 15
ENDMDL
MODEL 2
REMARK VINA RESULT: -8.080979898      2.595      9.270
REMARK  15 active torsions:
REMARK  status: ('A' for Active; 'I' for Inactive)
REMARK    1  A    between atoms: O1_2  and  C2_3 
REMARK    2  A    between atoms: C2_3  and  C3_5 
REMARK    3  A    between atoms: C3_5  and  C4_6 
REMARK    4  A    between atoms: C4_6  and  C5_7 
REMARK    5  A    between atoms: C5_7  and  O3_8 
REMARK    6  A    between atoms: O3_8  and  C6_9 
REMARK    7  A    between atoms: C6_9  and  C7_11 
REMARK    8  A    between atoms: C7_11  and  C8_12 
REMARK       I    between atoms: N1_18  and  C14_19 
REMARK    9  A    between atoms: C14_19  and  C15_21 
REMARK   10  A    between atoms: C15_21  and  C16_22 
REMARK   11  A    between atoms: C15_21  and  C20_31 
REMARK   12  A    between atoms: C16_22  and  C17_23 
REMARK       I    between atoms: C17_23  and  N2_25 
REMARK   13  A    between atoms: N2_25  and  C18_27 
REMARK   14  A    between atoms: C18_27  and  C19_28 
REMARK   15  A    between atoms: C20_31  and  C21_32 
ROOT
HETATM    1  C3  UNL     1       4.487  -1.898  14.990  1.00  0.00     0.060 C 
HETATM    2  C12 UNL     1       5.734  -2.058  14.159  1.00  0.00     0.040 C 
HETATM    3  C13 UNL     1       5.549  -2.175  12.700  1.00  0.00     0.128 C 
HETATM    4  N1  UNL     1       4.975  -0.995  12.045  1.00  0.00    -0.343 N 
HETATM    5  C14 UNL     1       5.944  -0.071  11.549  1.00  0.00     0.225 C 
HETATM    6  O5  UNL     1       7.166  -0.419  11.718  1.00  0.00    -0.273 OA
HETATM    7  C27 UNL     1       3.572  -0.787  11.872  1.00  0.00     0.199 C 
HETATM    8  S1  UNL     1       2.856  -0.280  13.448  1.00  0.00    -0.148 SA
HETATM    9  C28 UNL     1       4.061  -0.429  14.778  1.00  0.00     0.095 C 
ENDROOT
BRANCH   5  10
HETATM   10  C15 UNL     1       5.681   1.194  10.890  1.00  0.00     0.087 C 
BRANCH  10  11
HETATM   11  C16 UNL     1       5.218   2.243  11.840  1.00  0.00     0.117 C 
BRANCH  11  12
HETATM   12  C17 UNL     1       4.088   3.075  11.456  1.00  0.00     0.218 C 
HETATM   13  O6  UNL     1       3.885   4.195  11.944  1.00  0.00    -0.274 OA
HETATM   14  N2  UNL     1       3.180   2.577  10.475  1.00  0.00    -0.353 N 
ATOM     15  H2  UNL     1       3.354   1.654  10.078  1.00  0.00     0.162 HD
BRANCH  14  16
HETATM   16  C18 UNL     1       2.033   3.311  10.021  1.00  0.00     0.222 C 
BRANCH  16  17
HETATM   17  C19 UNL     1       0.825   2.885  10.741  1.00  0.00     0.248 C 
HETATM   18  N3  UNL     1       0.625   3.052  12.126  1.00  0.00    -0.061 NA
HETATM   19  O7  UNL     1      -0.095   2.332  10.088  1.00  0.00    -0.275 OA
ENDBRANCH  16  17
ENDBRANCH  14  16
ENDBRANCH  11  12
ENDBRANCH  10  11
BRANCH  10  20
HETATM   20  C20 UNL     1       6.710   1.685   9.916  1.00  0.00     0.019 C 
BRANCH  20  21
HETATM   21  C21 UNL     1       6.261   2.015   8.555  1.00  0.00    -0.014 C 
HETATM   22  C22 UNL     1       6.988   1.464   7.393  1.00  0.00     0.005 C 
HETATM   23  C23 UNL     1       6.410   2.159   6.143  1.00  0.00     0.000 C 
HETATM   24  C24 UNL     1       5.042   2.711   6.378  1.00  0.00     0.000 C 
HETATM   25  C25 UNL     1       5.078   3.853   7.359  1.00  0.00     0.000 C 
HETATM   26  C26 UNL     1       6.188   3.534   8.362  1.00  0.00     0.005 C 
ENDBRANCH  20  21
ENDBRANCH  10  20
ENDBRANCH   5  10
BRANCH   1  27
HETATM   27  C2  UNL     1       3.368  -2.759  14.564  1.00  0.00     0.268 C 
HETATM   28  O2  UNL     1       3.542  -3.663  13.715  1.00  0.00    -0.264 OA
BRANCH  27  29
HETATM   29  O1  UNL     1       2.060  -2.629  15.067  1.00  0.00    -0.326 OA
HETATM   30  C1  UNL     1       1.169  -3.739  15.148  1.00  0.00     0.213 C 
ENDBRANCH  27  29
ENDBRANCH   1  27
BRANCH   1  31
HETATM   31  C4  UNL     1       4.902  -2.093  16.424  1.00  0.00     0.047 C 
BRANCH  31  32
HETATM   32  C5  UNL     1       4.760  -3.451  16.986  1.00  0.00     0.180 C 
BRANCH  32  33
HETATM   33  O3  UNL     1       5.731  -4.389  16.658  1.00  0.00    -0.321 OA
BRANCH  33  34
HETATM   34  C6  UNL     1       6.997  -4.443  17.239  1.00  0.00     0.259 C 
HETATM   35  O4  UNL     1       7.115  -5.102  18.302  1.00  0.00    -0.265 OA
BRANCH  34  36
HETATM   36  C7  UNL     1       8.137  -3.747  16.609  1.00  0.00     0.119 C 
BRANCH  36  37
HETATM   37  C8  UNL     1       9.126  -4.667  15.939  1.00  0.00    -0.043 C 
HETATM   38  C9  UNL     1      10.109  -5.286  16.876  1.00  0.00     0.015 C 
HETATM   39  C10 UNL     1       8.438  -5.685  15.077  1.00  0.00     0.015 C 
HETATM   40  C11 UNL     1       9.925  -3.762  14.983  1.00  0.00     0.015 C 
ENDBRANCH  36  37
ENDBRANCH  34  36
ENDBRANCH  33  34
ENDBRANCH  32  33
ENDBRANCH  31  32
ENDBRANCH   1  31
TORSDOF 15
ENDMDL
MODEL 3
REMARK VINA RESULT: -8.057174471      2.577      9.231
REMARK  15 active torsions:
REMARK  status: ('A' for Active; 'I' for Inactive)
REMARK    1  A    between atoms: O1_2  and  C2_3 
REMARK    2  A    between atoms: C2_3  and  C3_5 
REMARK    3  A    between atoms: C3_5  and  C4_6 
REMARK    4  A    between atoms: C4_6  and  C5_7 
REMARK    5  A    between atoms: C5_7  and  O3_8 
REMARK    6  A    between atoms: O3_8  and  C6_9 
REMARK    7  A    between atoms: C6_9  and  C7_11 
REMARK    8  A    between atoms: C7_11  and  C8_12 
REMARK       I    between atoms: N1_18  and  C14_19 
REMARK    9  A    between atoms: C14_19  and  C15_21 
REMARK   10  A    between atoms: C15_21  and  C16_22 
REMARK   11  A    between atoms: C15_21  and  C20_31 
REMARK   12  A    between atoms: C16_22  and  C17_23 
REMARK       I    between atoms: C17_23  and  N2_25 
REMARK   13  A    between atoms: N2_25  and  C18_27 
REMARK   14  A    between atoms: C18_27  and  C19_28 
REMARK   15  A    between atoms: C20_31  and  C21_32 
ROOT
HETATM    1  C3  UNL     1       4.600  -1.039  14.929  1.00  0.00     0.060 C 
HETATM    2  C12 UNL     1       5.784  -1.369  14.056  1.00  0.00     0.040 C 
HETATM    3  C13 UNL     1       5.508  -1.608  12.626  1.00  0.00     0.128 C 
HETATM    4  N1  UNL     1       4.980  -0.454  11.889  1.00  0.00    -0.343 N 
HETATM    5  C14 UNL     1       5.982   0.344  11.257  1.00  0.00     0.225 C 
HETATM    6  O5  UNL     1       7.184  -0.077  11.397  1.00  0.00    -0.273 OA
HETATM    7  C27 UNL     1       3.588  -0.159  11.767  1.00  0.00     0.199 C 
HETATM    8  S1  UNL     1       2.999   0.544  13.320  1.00  0.00    -0.148 SA
HETATM    9  C28 UNL     1       4.266   0.432  14.596  1.00  0.00     0.095 C 
ENDROOT
BRANCH   5  10
HETATM   10  C15 UNL     1       5.770   1.558  10.492  1.00  0.00     0.087 C 
BRANCH  10  11
HETATM   11  C16 UNL     1       5.602   2.755  11.362  1.00  0.00     0.117 C 
BRANCH  11  12
HETATM   12  C17 UNL     1       4.359   3.506  11.273  1.00  0.00     0.218 C 
HETATM   13  O6  UNL     1       4.108   4.473  12.005  1.00  0.00    -0.274 OA
HETATM   14  N2  UNL     1       3.394   3.112  10.300  1.00  0.00    -0.353 N 
ATOM     15  H2  UNL     1       3.609   2.315   9.700  1.00  0.00     0.162 HD
BRANCH  14  16
HETATM   16  C18 UNL     1       2.136   3.780  10.123  1.00  0.00     0.222 C 
BRANCH  16  17
HETATM   17  C19 UNL     1       1.066   3.068  10.834  1.00  0.00     0.248 C 
HETATM   18  N3  UNL     1       0.287   2.037  10.271  1.00  0.00    -0.061 NA
HETATM   19  O7  UNL     1       0.818   3.394  12.022  1.00  0.00    -0.275 OA
ENDBRANCH  16  17
ENDBRANCH  14  16
ENDBRANCH  11  12
ENDBRANCH  10  11
BRANCH  10  20
HETATM   20  C20 UNL     1       6.676   1.795   9.321  1.00  0.00     0.019 C 
BRANCH  20  21
HETATM   21  C21 UNL     1       6.052   2.100   8.024  1.00  0.00    -0.014 C 
HETATM   22  C22 UNL     1       6.541   1.430   6.803  1.00  0.00     0.005 C 
HETATM   23  C23 UNL     1       5.838   2.116   5.613  1.00  0.00     0.000 C 
HETATM   24  C24 UNL     1       4.575   2.803   6.015  1.00  0.00     0.000 C 
HETATM   25  C25 UNL     1       4.859   3.982   6.908  1.00  0.00     0.000 C 
HETATM   26  C26 UNL     1       6.078   3.609   7.752  1.00  0.00     0.005 C 
ENDBRANCH  20  21
ENDBRANCH  10  20
ENDBRANCH   5  10
BRANCH   1  27
HETATM   27  C2  UNL     1       3.402  -1.850  14.646  1.00  0.00     0.268 C 
HETATM   28  O2  UNL     1       2.260  -1.432  14.942  1.00  0.00    -0.264 OA
BRANCH  27  29
HETATM   29  O1  UNL     1       3.456  -3.119  14.040  1.00  0.00    -0.326 OA
HETATM   30  C1  UNL     1       2.729  -4.233  14.555  1.00  0.00     0.213 C 
ENDBRANCH  27  29
ENDBRANCH   1  27
BRANCH   1  31
HETATM   31  C4  UNL     1       5.082  -1.129  16.353  1.00  0.00     0.047 C 
BRANCH  31  32
HETATM   32  C5  UNL     1       6.092  -2.163  16.655  1.00  0.00     0.180 C 
BRANCH  32  33
HETATM   33  O3  UNL     1       5.638  -3.453  16.907  1.00  0.00    -0.321 OA
BRANCH  33  34
HETATM   34  C6  UNL     1       6.068  -4.583  16.214  1.00  0.00     0.259 C 
HETATM   35  O4  UNL     1       5.514  -5.676  16.495  1.00  0.00    -0.265 OA
BRANCH  34  36
HETATM   36  C7  UNL     1       7.131  -4.474  15.195  1.00  0.00     0.119 C 
BRANCH  36  37
HETATM   37  C8  UNL     1       8.491  -4.918  15.674  1.00  0.00    -0.043 C 
HETATM   38  C9  UNL     1       8.769  -4.584  17.101  1.00  0.00     0.015 C 
HETATM   39  C10 UNL     1       8.739  -6.366  15.366  1.00  0.00     0.015 C 
HETATM   40  C11 UNL     1       9.492  -4.118  14.821  1.00  0.00     0.015 C 
ENDBRANCH  36  37
ENDBRANCH  34  36
ENDBRANCH  33  34
ENDBRANCH  32  33
ENDBRANCH  31  32
ENDBRANCH   1  31
TORSDOF 15
ENDMDL
MODEL 4
REMARK VINA RESULT: -8.043023494      2.641      9.061
REMARK  15 active torsions:
REMARK  status: ('A' for Active; 'I' for Inactive)
REMARK    1  A    between atoms: O1_2  and  C2_3 
REMARK    2  A    between atoms: C2_3  and  C3_5 
REMARK    3  A    between atoms: C3_5  and  C4_6 
REMARK    4  A    between atoms: C4_6  and  C5_7 
REMARK    5  A    between atoms: C5_7  and  O3_8 
REMARK    6  A    between atoms: O3_8  and  C6_9 
REMARK    7  A    between atoms: C6_9  and  C7_11 
REMARK    8  A    between atoms: C7_11  and  C8_12 
REMARK       I    between atoms: N1_18  and  C14_19 
REMARK    9  A    between atoms: C14_19  and  C15_21 
REMARK   10  A    between atoms: C15_21  and  C16_22 
REMARK   11  A    between atoms: C15_21  and  C20_31 
REMARK   12  A    between atoms: C16_22  and  C17_23 
REMARK       I    between atoms: C17_23  and  N2_25 
REMARK   13  A    between atoms: N2_25  and  C18_27 
REMARK   14  A    between atoms: C18_27  and  C19_28 
REMARK   15  A    between atoms: C20_31  and  C21_32 
ROOT
HETATM    1  C3  UNL     1       5.206  -1.004  14.932  1.00  0.00     0.060 C 
HETATM    2  C12 UNL     1       6.566  -1.164  14.302  1.00  0.00     0.040 C 
HETATM    3  C13 UNL     1       6.602  -1.342  12.838  1.00  0.00     0.128 C 
HETATM    4  N1  UNL     1       6.109  -0.202  12.057  1.00  0.00    -0.343 N 
HETATM    5  C14 UNL     1       7.123   0.726  11.672  1.00  0.00     0.225 C 
HETATM    6  O5  UNL     1       8.313   0.416  12.033  1.00  0.00    -0.273 OA
HETATM    7  C27 UNL     1       4.744  -0.035  11.670  1.00  0.00     0.199 C 
HETATM    8  S1  UNL     1       3.791   0.512  13.101  1.00  0.00    -0.148 SA
HETATM    9  C28 UNL     1       4.788   0.445  14.600  1.00  0.00     0.095 C 
ENDROOT
BRANCH   5  10
HETATM   10  C15 UNL     1       6.936   1.959  10.929  1.00  0.00     0.087 C 
BRANCH  10  11
HETATM   11  C16 UNL     1       6.405   3.059  11.781  1.00  0.00     0.117 C 
BRANCH  11  12
HETATM   12  C17 UNL     1       5.184   3.730  11.363  1.00  0.00     0.218 C 
HETATM   13  O6  UNL     1       4.842   4.834  11.805  1.00  0.00    -0.274 OA
HETATM   14  N2  UNL     1       4.349   3.085  10.402  1.00  0.00    -0.353 N 
ATOM     15  H2  UNL     1       4.638   2.176  10.042  1.00  0.00     0.162 HD
BRANCH  14  16
HETATM   16  C18 UNL     1       3.123   3.654   9.918  1.00  0.00     0.222 C 
BRANCH  16  17
HETATM   17  C19 UNL     1       1.969   3.061  10.605  1.00  0.00     0.248 C 
HETATM   18  N3  UNL     1       1.298   3.657  11.692  1.00  0.00    -0.061 NA
HETATM   19  O7  UNL     1       1.544   1.947  10.207  1.00  0.00    -0.275 OA
ENDBRANCH  16  17
ENDBRANCH  14  16
ENDBRANCH  11  12
ENDBRANCH  10  11
BRANCH  10  20
HETATM   20  C20 UNL     1       8.054   2.390  10.028  1.00  0.00     0.019 C 
BRANCH  20  21
HETATM   21  C21 UNL     1       7.737   2.631   8.612  1.00  0.00    -0.014 C 
HETATM   22  C22 UNL     1       7.255   3.962   8.188  1.00  0.00     0.005 C 
HETATM   23  C23 UNL     1       6.817   3.822   6.715  1.00  0.00     0.000 C 
HETATM   24  C24 UNL     1       7.461   2.658   6.037  1.00  0.00     0.000 C 
HETATM   25  C25 UNL     1       6.972   1.355   6.612  1.00  0.00     0.000 C 
HETATM   26  C26 UNL     1       6.722   1.600   8.101  1.00  0.00     0.005 C 
ENDBRANCH  20  21
ENDBRANCH  10  20
ENDBRANCH   5  10
BRANCH   1  27
HETATM   27  C2  UNL     1       4.180  -1.909  14.382  1.00  0.00     0.268 C 
HETATM   28  O2  UNL     1       4.497  -2.850  13.621  1.00  0.00    -0.264 OA
BRANCH  27  29
HETATM   29  O1  UNL     1       2.808  -1.780  14.665  1.00  0.00    -0.326 OA
HETATM   30  C1  UNL     1       2.008  -2.898  15.046  1.00  0.00     0.213 C 
ENDBRANCH  27  29
ENDBRANCH   1  27
BRANCH   1  31
HETATM   31  C4  UNL     1       5.408  -1.134  16.419  1.00  0.00     0.047 C 
BRANCH  31  32
HETATM   32  C5  UNL     1       6.303  -2.213  16.884  1.00  0.00     0.180 C 
BRANCH  32  33
HETATM   33  O3  UNL     1       5.757  -3.481  17.040  1.00  0.00    -0.321 OA
BRANCH  33  34
HETATM   34  C6  UNL     1       6.162  -4.603  16.320  1.00  0.00     0.259 C 
HETATM   35  O4  UNL     1       5.633  -5.702  16.620  1.00  0.00    -0.265 OA
BRANCH  34  36
HETATM   36  C7  UNL     1       7.173  -4.477  15.251  1.00  0.00     0.119 C 
BRANCH  36  37
HETATM   37  C8  UNL     1       8.548  -4.957  15.644  1.00  0.00    -0.043 C 
HETATM   38  C9  UNL     1       8.887  -4.715  17.078  1.00  0.00     0.015 C 
HETATM   39  C10 UNL     1       8.774  -6.383  15.236  1.00  0.00     0.015 C 
HETATM   40  C11 UNL     1       9.520  -4.108  14.804  1.00  0.00     0.015 C 
ENDBRANCH  36  37
ENDBRANCH  34  36
ENDBRANCH  33  34
ENDBRANCH  32  33
ENDBRANCH  31  32
ENDBRANCH   1  31
TORSDOF 15
ENDMDL
MODEL 5
REMARK VINA RESULT: -7.923976628      2.783      9.744
REMARK  15 active torsions:
REMARK  status: ('A' for Active; 'I' for Inactive)
REMARK    1  A    between atoms: O1_2  and  C2_3 
REMARK    2  A    between atoms: C2_3  and  C3_5 
REMARK    3  A    between atoms: C3_5  and  C4_6 
REMARK    4  A    between atoms: C4_6  and  C5_7 
REMARK    5  A    between atoms: C5_7  and  O3_8 
REMARK    6  A    between atoms: O3_8  and  C6_9 
REMARK    7  A    between atoms: C6_9  and  C7_11 
REMARK    8  A    between atoms: C7_11  and  C8_12 
REMARK       I    between atoms: N1_18  and  C14_19 
REMARK    9  A    between atoms: C14_19  and  C15_21 
REMARK   10  A    between atoms: C15_21  and  C16_22 
REMARK   11  A    between atoms: C15_21  and  C20_31 
REMARK   12  A    between atoms: C16_22  and  C17_23 
REMARK       I    between atoms: C17_23  and  N2_25 
REMARK   13  A    between atoms: N2_25  and  C18_27 
REMARK   14  A    between atoms: C18_27  and  C19_28 
REMARK   15  A    between atoms: C20_31  and  C21_32 
ROOT
HETATM    1  C3  UNL     1       7.259  -4.434  15.673  1.00  0.00     0.060 C 
HETATM    2  C12 UNL     1       6.506  -4.483  14.369  1.00  0.00     0.040 C 
HETATM    3  C13 UNL     1       5.143  -3.920  14.368  1.00  0.00     0.128 C 
HETATM    4  N1  UNL     1       5.061  -2.480  14.638  1.00  0.00    -0.343 N 
HETATM    5  C14 UNL     1       5.079  -1.663  13.467  1.00  0.00     0.225 C 
HETATM    6  O5  UNL     1       5.132  -2.301  12.356  1.00  0.00    -0.273 OA
HETATM    7  C27 UNL     1       4.932  -1.923  15.947  1.00  0.00     0.199 C 
HETATM    8  S1  UNL     1       6.532  -2.005  16.778  1.00  0.00    -0.148 SA
HETATM    9  C28 UNL     1       7.710  -2.964  15.810  1.00  0.00     0.095 C 
ENDROOT
BRANCH   5  10
HETATM   10  C15 UNL     1       5.047  -0.213  13.418  1.00  0.00     0.087 C 
BRANCH  10  11
HETATM   11  C16 UNL     1       3.963   0.359  14.264  1.00  0.00     0.117 C 
BRANCH  11  12
HETATM   12  C17 UNL     1       2.587   0.217  13.814  1.00  0.00     0.218 C 
HETATM   13  O6  UNL     1       1.778  -0.540  14.365  1.00  0.00    -0.274 OA
HETATM   14  N2  UNL     1       2.155   0.987  12.694  1.00  0.00    -0.353 N 
ATOM     15  H2  UNL     1       2.827   1.610  12.246  1.00  0.00     0.162 HD
BRANCH  14  16
HETATM   16  C18 UNL     1       0.821   0.928  12.166  1.00  0.00     0.222 C 
BRANCH  16  17
HETATM   17  C19 UNL     1       0.432   2.223  11.592  1.00  0.00     0.248 C 
HETATM   18  N3  UNL     1       1.034   3.453  11.924  1.00  0.00    -0.061 NA
HETATM   19  O7  UNL     1      -0.499   2.246  10.748  1.00  0.00    -0.275 OA
ENDBRANCH  16  17
ENDBRANCH  14  16
ENDBRANCH  11  12
ENDBRANCH  10  11
BRANCH  10  20
HETATM   20  C20 UNL     1       6.355   0.505  13.560  1.00  0.00     0.019 C 
BRANCH  20  21
HETATM   21  C21 UNL     1       6.871   1.225  12.386  1.00  0.00    -0.014 C 
HETATM   22  C22 UNL     1       7.719   0.513  11.408  1.00  0.00     0.005 C 
HETATM   23  C23 UNL     1       8.259   1.582  10.434  1.00  0.00     0.000 C 
HETATM   24  C24 UNL     1       7.415   2.813  10.413  1.00  0.00     0.000 C 
HETATM   25  C25 UNL     1       7.490   3.547  11.726  1.00  0.00     0.000 C 
HETATM   26  C26 UNL     1       7.636   2.483  12.815  1.00  0.00     0.005 C 
ENDBRANCH  20  21
ENDBRANCH  10  20
ENDBRANCH   5  10
BRANCH   1  27
HETATM   27  C2  UNL     1       6.440  -4.768  16.852  1.00  0.00     0.268 C 
HETATM   28  O2  UNL     1       6.841  -4.504  18.008  1.00  0.00    -0.264 OA
BRANCH  27  29
HETATM   29  O1  UNL     1       5.181  -5.393  16.764  1.00  0.00    -0.326 OA
HETATM   30  C1  UNL     1       4.161  -5.175  17.737  1.00  0.00     0.213 C 
ENDBRANCH  27  29
ENDBRANCH   1  27
BRANCH   1  31
HETATM   31  C4  UNL     1       8.472  -5.310  15.498  1.00  0.00     0.047 C 
BRANCH  31  32
HETATM   32  C5  UNL     1       9.666  -4.972  16.299  1.00  0.00     0.180 C 
BRANCH  32  33
HETATM   33  O3  UNL     1      10.315  -6.008  16.959  1.00  0.00    -0.321 OA
BRANCH  33  34
HETATM   34  C6  UNL     1      10.140  -6.310  18.308  1.00  0.00     0.259 C 
HETATM   35  O4  UNL     1       9.991  -5.345  19.099  1.00  0.00    -0.265 OA
BRANCH  34  36
HETATM   36  C7  UNL     1      10.132  -7.715  18.763  1.00  0.00     0.119 C 
BRANCH  36  37
HETATM   37  C8  UNL     1       8.804  -8.409  18.593  1.00  0.00    -0.043 C 
HETATM   38  C9  UNL     1       7.628  -7.567  18.965  1.00  0.00     0.015 C 
HETATM   39  C10 UNL     1       8.666  -9.012  17.225  1.00  0.00     0.015 C 
HETATM   40  C11 UNL     1       8.843  -9.588  19.583  1.00  0.00     0.015 C 
ENDBRANCH  36  37
ENDBRANCH  34  36
ENDBRANCH  33  34
ENDBRANCH  32  33
ENDBRANCH  31  32
ENDBRANCH   1  31
TORSDOF 15
ENDMDL
