MODEL 1
REMARK VINA RESULT: -8.362488286      0.000      0.000
REMARK  15 active torsions:
REMARK  status: ('A' for Active; 'I' for Inactive)
REMARK    1  A    between atoms: C2_2  and  C3_3 
REMARK    2  A    between atoms: C3_3  and  C4_4 
REMARK    3  A    between atoms: C3_3  and  O2_22 
REMARK    4  A    between atoms: C4_4  and  N1_5 
REMARK    5  A    between atoms: N2_8  and  C7_9 
REMARK    6  A    between atoms: C7_9  and  C8_10 
REMARK    7  A    between atoms: C8_10  and  C9_11 
REMARK    8  A    between atoms: C9_11  and  N3_12 
REMARK       I    between atoms: N3_12  and  C10_14 
REMARK    9  A    between atoms: C10_14  and  C11_16 
REMARK   10  A    between atoms: O2_22  and  C17_23 
REMARK   11  A    between atoms: C17_23  and  C18_24 
REMARK   12  A    between atoms: C18_24  and  C19_26 
REMARK   13  A    between atoms: C19_26  and  O4_27 
REMARK   14  A    between atoms: O4_27  and  C20_28 
REMARK       I    between atoms: C20_28  and  N4_30 
REMARK   15  A    between atoms: N4_30  and  C21_32 
ROOT
HETATM    1  C3  UNL     1       5.845  -0.352  14.124  1.00  0.00     0.150 C 
ENDROOT
BRANCH   1   2
HETATM    2  C2  UNL     1       4.737   0.376  14.806  1.00  0.00     0.029 C 
HETATM    3  C1  UNL     1       3.636   0.624  13.780  1.00  0.00     0.007 C 
ENDBRANCH   1   2
BRANCH   1   4
HETATM    4  C4  UNL     1       7.206   0.200  14.355  1.00  0.00     0.304 C 
BRANCH   4   5
HETATM    5  N1  UNL     1       7.806   0.617  13.115  1.00  0.00     0.094 N 
HETATM    6  C5  UNL     1       7.611   1.977  12.748  1.00  0.00     0.302 C 
HETATM    7  C6  UNL     1       6.379   2.191  11.896  1.00  0.00     0.302 C 
HETATM    8  N2  UNL     1       6.322   1.331  10.760  1.00  0.00     0.092 N 
HETATM    9  C15 UNL     1       7.486   0.475  10.744  1.00  0.00     0.302 C 
HETATM   10  C16 UNL     1       7.507  -0.307  12.035  1.00  0.00     0.302 C 
BRANCH   8  11
HETATM   11  C7  UNL     1       6.170   2.074   9.495  1.00  0.00     0.277 C 
BRANCH  11  12
HETATM   12  C8  UNL     1       5.649   3.429   9.698  1.00  0.00     0.074 C 
BRANCH  12  13
HETATM   13  C9  UNL     1       4.243   3.660   9.304  1.00  0.00     0.065 C 
BRANCH  13  14
HETATM   14  N3  UNL     1       3.196   2.825   9.715  1.00  0.00    -0.340 N 
HETATM   15  C10 UNL     1       2.487   2.733  10.916  1.00  0.00     0.225 C 
HETATM   16  O1  UNL     1       2.697   3.473  11.886  1.00  0.00    -0.273 OA
ATOM     17  H3  UNL     1       2.894   2.158   9.005  1.00  0.00     0.167 HD
BRANCH  15  18
HETATM   18  C11 UNL     1       1.408   1.709  11.097  1.00  0.00     0.078 A 
HETATM   19  C12 UNL     1       0.528   1.567   9.876  1.00  0.00     0.014 A 
HETATM   20  C13 UNL     1      -0.712   1.964  10.675  1.00  0.00     0.002 A 
HETATM   21  C14 UNL     1       0.200   2.236  11.847  1.00  0.00     0.014 A 
ENDBRANCH  15  18
ENDBRANCH  13  14
ENDBRANCH  12  13
ENDBRANCH  11  12
ENDBRANCH   8  11
ENDBRANCH   4   5
ENDBRANCH   1   4
BRANCH   1  22
HETATM   22  O2  UNL     1       5.748  -1.707  14.425  1.00  0.00    -0.377 OA
BRANCH  22  23
HETATM   23  C17 UNL     1       6.863  -2.226  15.001  1.00  0.00     0.250 C 
BRANCH  23  24
HETATM   24  C18 UNL     1       6.721  -3.047  16.192  1.00  0.00     0.185 C 
HETATM   25  O3  UNL     1       6.411  -2.381  17.213  1.00  0.00    -0.292 OA
BRANCH  24  26
HETATM   26  C19 UNL     1       6.879  -4.479  16.401  1.00  0.00     0.134 C 
HETATM   27  C24 UNL     1       7.571  -5.162  15.217  1.00  0.00     0.047 C 
HETATM   28  C25 UNL     1       9.008  -4.759  15.051  1.00  0.00     0.004 C 
HETATM   29  C26 UNL     1       9.746  -5.289  16.273  1.00  0.00     0.000 C 
HETATM   30  C27 UNL     1       9.174  -4.618  17.476  1.00  0.00     0.004 C 
HETATM   31  C28 UNL     1       7.707  -4.815  17.618  1.00  0.00     0.047 C 
BRANCH  26  32
HETATM   32  O4  UNL     1       5.661  -5.211  16.530  1.00  0.00    -0.284 OA
BRANCH  32  33
HETATM   33  C20 UNL     1       4.879  -5.279  17.654  1.00  0.00     0.367 C 
HETATM   34  O5  UNL     1       5.023  -6.270  18.415  1.00  0.00    -0.238 OA
HETATM   35  N4  UNL     1       3.911  -4.250  17.970  1.00  0.00    -0.282 N 
ATOM     36  H4  UNL     1       3.804  -3.856  18.905  1.00  0.00     0.173 HD
BRANCH  35  37
HETATM   37  C21 UNL     1       3.181  -3.868  16.945  1.00  0.00     0.152 A 
HETATM   38  N5  UNL     1       3.325  -2.739  16.257  1.00  0.00    -0.346 N 
HETATM   39  C22 UNL     1       2.520  -2.502  15.261  1.00  0.00     0.097 A 
ATOM     40  H5  UNL     1       4.054  -2.071  16.505  1.00  0.00     0.167 HD
HETATM   41  C23 UNL     1       1.562  -3.444  14.980  1.00  0.00     0.070 A 
HETATM   42  S1  UNL     1       1.869  -4.627  16.170  1.00  0.00    -0.064 SA
ENDBRANCH  35  37
ENDBRANCH  32  33
ENDBRANCH  26  32
ENDBRANCH  24  26
ENDBRANCH  23  24
ENDBRANCH  22  23
ENDBRANCH   1  22
TORSDOF 15
ENDMDL
MODEL 2
REMARK VINA RESULT: -8.262159941      2.901      4.090
REMARK  15 active torsions:
REMARK  status: ('A' for Active; 'I' for Inactive)
REMARK    1  A    between atoms: C2_2  and  C3_3 
REMARK    2  A    between atoms: C3_3  and  C4_4 
REMARK    3  A    between atoms: C3_3  and  O2_22 
REMARK    4  A    between atoms: C4_4  and  N1_5 
REMARK    5  A    between atoms: N2_8  and  C7_9 
REMARK    6  A    between atoms: C7_9  and  C8_10 
REMARK    7  A    between atoms: C8_10  and  C9_11 
REMARK    8  A    between atoms: C9_11  and  N3_12 
REMARK       I    between atoms: N3_12  and  C10_14 
REMARK    9  A    between atoms: C10_14  and  C11_16 
REMARK   10  A    between atoms: O2_22  and  C17_23 
REMARK   11  A    between atoms: C17_23  and  C18_24 
REMARK   12  A    between atoms: C18_24  and  C19_26 
REMARK   13  A    between atoms: C19_26  and  O4_27 
REMARK   14  A    between atoms: O4_27  and  C20_28 
REMARK       I    between atoms: C20_28  and  N4_30 
REMARK   15  A    between atoms: N4_30  and  C21_32 
ROOT
HETATM    1  C3  UNL     1       5.163  -2.736  14.824  1.00  0.00     0.150 C 
ENDROOT
BRANCH   1   2
HETATM    2  C2  UNL     1       4.152  -3.078  13.783  1.00  0.00     0.029 C 
HETATM    3  C1  UNL     1       4.763  -2.776  12.418  1.00  0.00     0.007 C 
ENDBRANCH   1   2
BRANCH   1   4
HETATM    4  C4  UNL     1       4.727  -1.727  15.825  1.00  0.00     0.304 C 
BRANCH   4   5
HETATM    5  N1  UNL     1       5.366  -0.459  15.585  1.00  0.00     0.094 N 
HETATM    6  C5  UNL     1       4.537   0.575  15.071  1.00  0.00     0.302 C 
HETATM    7  C6  UNL     1       4.514   0.622  13.559  1.00  0.00     0.302 C 
HETATM    8  N2  UNL     1       5.815   0.657  12.976  1.00  0.00     0.092 N 
HETATM    9  C15 UNL     1       6.813   0.636  14.020  1.00  0.00     0.302 C 
HETATM   10  C16 UNL     1       6.604  -0.613  14.841  1.00  0.00     0.302 C 
BRANCH   8  11
HETATM   11  C7  UNL     1       5.996   1.804  12.067  1.00  0.00     0.277 C 
BRANCH  11  12
HETATM   12  C8  UNL     1       5.650   1.483  10.680  1.00  0.00     0.074 C 
BRANCH  12  13
HETATM   13  C9  UNL     1       4.877   2.504   9.940  1.00  0.00     0.065 C 
BRANCH  13  14
HETATM   14  N3  UNL     1       3.493   2.655  10.084  1.00  0.00    -0.340 N 
HETATM   15  C10 UNL     1       2.720   3.388  10.989  1.00  0.00     0.225 C 
HETATM   16  O1  UNL     1       3.206   4.100  11.877  1.00  0.00    -0.273 OA
ATOM     17  H3  UNL     1       2.945   2.133   9.401  1.00  0.00     0.167 HD
BRANCH  15  18
HETATM   18  C11 UNL     1       1.223   3.350  10.930  1.00  0.00     0.078 A 
HETATM   19  C12 UNL     1       0.623   2.407  11.950  1.00  0.00     0.014 A 
HETATM   20  C13 UNL     1      -0.032   1.572  10.850  1.00  0.00     0.002 A 
HETATM   21  C14 UNL     1       0.688   2.437   9.843  1.00  0.00     0.014 A 
ENDBRANCH  15  18
ENDBRANCH  13  14
ENDBRANCH  12  13
ENDBRANCH  11  12
ENDBRANCH   8  11
ENDBRANCH   4   5
ENDBRANCH   1   4
BRANCH   1  22
HETATM   22  O2  UNL     1       5.631  -3.911  15.404  1.00  0.00    -0.377 OA
BRANCH  22  23
HETATM   23  C17 UNL     1       6.034  -3.769  16.692  1.00  0.00     0.250 C 
BRANCH  23  24
HETATM   24  C18 UNL     1       6.854  -4.809  17.290  1.00  0.00     0.185 C 
HETATM   25  O3  UNL     1       6.177  -5.681  17.894  1.00  0.00    -0.292 OA
BRANCH  24  26
HETATM   26  C19 UNL     1       8.297  -5.006  17.316  1.00  0.00     0.134 C 
HETATM   27  C24 UNL     1       8.748  -6.082  16.323  1.00  0.00     0.047 C 
HETATM   28  C25 UNL     1       8.560  -5.687  14.886  1.00  0.00     0.004 C 
HETATM   29  C26 UNL     1       9.509  -4.523  14.635  1.00  0.00     0.000 C 
HETATM   30  C27 UNL     1       9.094  -3.398  15.521  1.00  0.00     0.004 C 
HETATM   31  C28 UNL     1       9.074  -3.762  16.963  1.00  0.00     0.047 C 
BRANCH  26  32
HETATM   32  O4  UNL     1       8.823  -5.470  18.558  1.00  0.00    -0.284 OA
BRANCH  32  33
HETATM   33  C20 UNL     1       9.934  -6.257  18.717  1.00  0.00     0.367 C 
HETATM   34  O5  UNL     1      11.039  -5.806  18.321  1.00  0.00    -0.238 OA
HETATM   35  N4  UNL     1       9.856  -7.570  19.322  1.00  0.00    -0.282 N 
ATOM     36  H4  UNL     1      10.518  -7.899  20.024  1.00  0.00     0.173 HD
BRANCH  35  37
HETATM   37  C21 UNL     1       8.854  -8.302  18.885  1.00  0.00     0.152 A 
HETATM   38  N5  UNL     1       7.572  -8.145  19.201  1.00  0.00    -0.346 N 
HETATM   39  C22 UNL     1       6.692  -8.953  18.683  1.00  0.00     0.097 A 
ATOM     40  H5  UNL     1       7.282  -7.404  19.838  1.00  0.00     0.167 HD
HETATM   41  C23 UNL     1       7.149  -9.929  17.832  1.00  0.00     0.070 A 
HETATM   42  S1  UNL     1       8.829  -9.632  17.822  1.00  0.00    -0.064 SA
ENDBRANCH  35  37
ENDBRANCH  32  33
ENDBRANCH  26  32
ENDBRANCH  24  26
ENDBRANCH  23  24
ENDBRANCH  22  23
ENDBRANCH   1  22
TORSDOF 15
ENDMDL
MODEL 3
REMARK VINA RESULT: -8.258719153      1.757      3.169
REMARK  15 active torsions:
REMARK  status: ('A' for Active; 'I' for Inactive)
REMARK    1  A    between atoms: C2_2  and  C3_3 
REMARK    2  A    between atoms: C3_3  and  C4_4 
REMARK    3  A    between atoms: C3_3  and  O2_22 
REMARK    4  A    between atoms: C4_4  and  N1_5 
REMARK    5  A    between atoms: N2_8  and  C7_9 
REMARK    6  A    between atoms: C7_9  and  C8_10 
REMARK    7  A    between atoms: C8_10  and  C9_11 
REMARK    8  A    between atoms: C9_11  and  N3_12 
REMARK       I    between atoms: N3_12  and  C10_14 
REMARK    9  A    between atoms: C10_14  and  C11_16 
REMARK   10  A    between atoms: O2_22  and  C17_23 
REMARK   11  A    between atoms: C17_23  and  C18_24 
REMARK   12  A    between atoms: C18_24  and  C19_26 
REMARK   13  A    between atoms: C19_26  and  O4_27 
REMARK   14  A    between atoms: O4_27  and  C20_28 
REMARK       I    between atoms: C20_28  and  N4_30 
REMARK   15  A    between atoms: N4_30  and  C21_32 
ROOT
HETATM    1  C3  UNL     1       3.627  -3.727  14.598  1.00  0.00     0.150 C 
ENDROOT
BRANCH   1   2
HETATM    2  C2  UNL     1       2.394  -4.555  14.472  1.00  0.00     0.029 C 
HETATM    3  C1  UNL     1       1.297  -3.893  15.301  1.00  0.00     0.007 C 
ENDBRANCH   1   2
BRANCH   1   4
HETATM    4  C4  UNL     1       3.408  -2.324  15.038  1.00  0.00     0.304 C 
BRANCH   4   5
HETATM    5  N1  UNL     1       3.304  -1.443  13.905  1.00  0.00     0.094 N 
HETATM    6  C5  UNL     1       4.267  -1.625  12.875  1.00  0.00     0.302 C 
HETATM    7  C6  UNL     1       5.505  -0.776  13.063  1.00  0.00     0.302 C 
HETATM    8  N2  UNL     1       5.216   0.606  13.268  1.00  0.00     0.092 N 
HETATM    9  C15 UNL     1       3.786   0.809  13.240  1.00  0.00     0.302 C 
HETATM   10  C16 UNL     1       3.171  -0.054  14.314  1.00  0.00     0.302 C 
BRANCH   8  11
HETATM   11  C7  UNL     1       5.914   1.478  12.305  1.00  0.00     0.277 C 
BRANCH  11  12
HETATM   12  C8  UNL     1       5.571   1.168  10.915  1.00  0.00     0.074 C 
BRANCH  12  13
HETATM   13  C9  UNL     1       4.984   2.269  10.120  1.00  0.00     0.065 C 
BRANCH  13  14
HETATM   14  N3  UNL     1       3.616   2.568  10.138  1.00  0.00    -0.340 N 
HETATM   15  C10 UNL     1       2.854   3.421  10.940  1.00  0.00     0.225 C 
HETATM   16  O1  UNL     1       3.339   4.124  11.836  1.00  0.00    -0.273 OA
ATOM     17  H3  UNL     1       3.073   2.069   9.432  1.00  0.00     0.167 HD
BRANCH  15  18
HETATM   18  C11 UNL     1       1.372   3.533  10.754  1.00  0.00     0.078 A 
HETATM   19  C12 UNL     1       0.596   2.635  11.693  1.00  0.00     0.014 A 
HETATM   20  C13 UNL     1      -0.039   1.890  10.519  1.00  0.00     0.002 A 
HETATM   21  C14 UNL     1       0.847   2.699   9.601  1.00  0.00     0.014 A 
ENDBRANCH  15  18
ENDBRANCH  13  14
ENDBRANCH  12  13
ENDBRANCH  11  12
ENDBRANCH   8  11
ENDBRANCH   4   5
ENDBRANCH   1   4
BRANCH   1  22
HETATM   22  O2  UNL     1       4.550  -4.408  15.386  1.00  0.00    -0.377 OA
BRANCH  22  23
HETATM   23  C17 UNL     1       5.839  -4.047  15.163  1.00  0.00     0.250 C 
BRANCH  23  24
HETATM   24  C18 UNL     1       6.787  -4.111  16.263  1.00  0.00     0.185 C 
HETATM   25  O3  UNL     1       6.532  -3.286  17.179  1.00  0.00    -0.292 OA
BRANCH  24  26
HETATM   26  C19 UNL     1       7.960  -4.946  16.480  1.00  0.00     0.134 C 
HETATM   27  C24 UNL     1       8.576  -5.428  15.163  1.00  0.00     0.047 C 
HETATM   28  C25 UNL     1       9.184  -4.323  14.347  1.00  0.00     0.004 C 
HETATM   29  C26 UNL     1      10.371  -3.804  15.148  1.00  0.00     0.000 C 
HETATM   30  C27 UNL     1       9.847  -3.249  16.429  1.00  0.00     0.004 C 
HETATM   31  C28 UNL     1       9.067  -4.236  17.222  1.00  0.00     0.047 C 
BRANCH  26  32
HETATM   32  O4  UNL     1       7.717  -6.160  17.188  1.00  0.00    -0.284 OA
BRANCH  32  33
HETATM   33  C20 UNL     1       7.569  -6.285  18.545  1.00  0.00     0.367 C 
HETATM   34  O5  UNL     1       8.490  -6.847  19.191  1.00  0.00    -0.238 OA
HETATM   35  N4  UNL     1       6.395  -5.788  19.231  1.00  0.00    -0.282 N 
ATOM     36  H4  UNL     1       6.442  -5.257  20.101  1.00  0.00     0.173 HD
BRANCH  35  37
HETATM   37  C21 UNL     1       5.261  -6.083  18.633  1.00  0.00     0.152 A 
HETATM   38  N5  UNL     1       4.188  -5.301  18.556  1.00  0.00    -0.346 N 
HETATM   39  C22 UNL     1       3.135  -5.737  17.926  1.00  0.00     0.097 A 
ATOM     40  H5  UNL     1       4.190  -4.376  18.984  1.00  0.00     0.167 HD
HETATM   41  C23 UNL     1       3.200  -6.992  17.373  1.00  0.00     0.070 A 
HETATM   42  S1  UNL     1       4.779  -7.483  17.792  1.00  0.00    -0.064 SA
ENDBRANCH  35  37
ENDBRANCH  32  33
ENDBRANCH  26  32
ENDBRANCH  24  26
ENDBRANCH  23  24
ENDBRANCH  22  23
ENDBRANCH   1  22
TORSDOF 15
ENDMDL
MODEL 4
REMARK VINA RESULT: -8.234050989      1.446      2.098
REMARK  15 active torsions:
REMARK  status: ('A' for Active; 'I' for Inactive)
REMARK    1  A    between atoms: C2_2  and  C3_3 
REMARK    2  A    between atoms: C3_3  and  C4_4 
REMARK    3  A    between atoms: C3_3  and  O2_22 
REMARK    4  A    between atoms: C4_4  and  N1_5 
REMARK    5  A    between atoms: N2_8  and  C7_9 
REMARK    6  A    between atoms: C7_9  and  C8_10 
REMARK    7  A    between atoms: C8_10  and  C9_11 
REMARK    8  A    between atoms: C9_11  and  N3_12 
REMARK       I    between atoms: N3_12  and  C10_14 
REMARK    9  A    between atoms: C10_14  and  C11_16 
REMARK   10  A    between atoms: O2_22  and  C17_23 
REMARK   11  A    between atoms: C17_23  and  C18_24 
REMARK   12  A    between atoms: C18_24  and  C19_26 
REMARK   13  A    between atoms: C19_26  and  O4_27 
REMARK   14  A    between atoms: O4_27  and  C20_28 
REMARK       I    between atoms: C20_28  and  N4_30 
REMARK   15  A    between atoms: N4_30  and  C21_32 
ROOT
HETATM    1  C3  UNL     1       6.052  -0.382  12.215  1.00  0.00     0.150 C 
ENDROOT
BRANCH   1   2
HETATM    2  C2  UNL     1       4.602  -0.110  12.430  1.00  0.00     0.029 C 
HETATM    3  C1  UNL     1       4.462   0.694  13.720  1.00  0.00     0.007 C 
ENDBRANCH   1   2
BRANCH   1   4
HETATM    4  C4  UNL     1       6.983   0.548  12.908  1.00  0.00     0.304 C 
BRANCH   4   5
HETATM    5  N1  UNL     1       7.656   1.398  11.961  1.00  0.00     0.094 N 
HETATM    6  C5  UNL     1       7.325   2.779  12.009  1.00  0.00     0.302 C 
HETATM    7  C6  UNL     1       6.178   3.148  11.095  1.00  0.00     0.302 C 
HETATM    8  N2  UNL     1       6.361   2.702   9.752  1.00  0.00     0.092 N 
HETATM    9  C15 UNL     1       7.621   2.005   9.643  1.00  0.00     0.302 C 
HETATM   10  C16 UNL     1       7.603   0.852  10.615  1.00  0.00     0.302 C 
BRANCH   8  11
HETATM   11  C7  UNL     1       6.253   3.800   8.773  1.00  0.00     0.277 C 
BRANCH  11  12
HETATM   12  C8  UNL     1       5.082   3.664   7.903  1.00  0.00     0.074 C 
BRANCH  12  13
HETATM   13  C9  UNL     1       3.777   4.038   8.490  1.00  0.00     0.065 C 
BRANCH  13  14
HETATM   14  N3  UNL     1       2.986   3.134   9.210  1.00  0.00    -0.340 N 
HETATM   15  C10 UNL     1       2.521   3.140  10.528  1.00  0.00     0.225 C 
HETATM   16  O1  UNL     1       2.754   4.056  11.327  1.00  0.00    -0.273 OA
ATOM     17  H3  UNL     1       2.694   2.319   8.672  1.00  0.00     0.167 HD
BRANCH  15  18
HETATM   18  C11 UNL     1       1.693   2.008  11.057  1.00  0.00     0.078 A 
HETATM   19  C12 UNL     1       0.699   1.489  10.042  1.00  0.00     0.014 A 
HETATM   20  C13 UNL     1      -0.475   1.825  10.961  1.00  0.00     0.002 A 
HETATM   21  C14 UNL     1       0.519   2.466  11.901  1.00  0.00     0.014 A 
ENDBRANCH  15  18
ENDBRANCH  13  14
ENDBRANCH  12  13
ENDBRANCH  11  12
ENDBRANCH   8  11
ENDBRANCH   4   5
ENDBRANCH   1   4
BRANCH   1  22
HETATM   22  O2  UNL     1       6.308  -1.720  12.498  1.00  0.00    -0.377 OA
BRANCH  22  23
HETATM   23  C17 UNL     1       7.039  -1.916  13.625  1.00  0.00     0.250 C 
BRANCH  23  24
HETATM   24  C18 UNL     1       6.663  -2.991  14.529  1.00  0.00     0.185 C 
HETATM   25  O3  UNL     1       5.714  -3.691  14.090  1.00  0.00    -0.292 OA
BRANCH  24  26
HETATM   26  C19 UNL     1       7.183  -3.384  15.831  1.00  0.00     0.134 C 
HETATM   27  C24 UNL     1       7.298  -4.906  15.969  1.00  0.00     0.047 C 
HETATM   28  C25 UNL     1       8.340  -5.512  15.073  1.00  0.00     0.004 C 
HETATM   29  C26 UNL     1       9.683  -4.988  15.566  1.00  0.00     0.000 C 
HETATM   30  C27 UNL     1       9.681  -3.506  15.400  1.00  0.00     0.004 C 
HETATM   31  C28 UNL     1       8.560  -2.836  16.112  1.00  0.00     0.047 C 
BRANCH  26  32
HETATM   32  O4  UNL     1       6.370  -3.018  16.944  1.00  0.00    -0.284 OA
BRANCH  32  33
HETATM   33  C20 UNL     1       5.257  -2.219  16.899  1.00  0.00     0.367 C 
HETATM   34  O5  UNL     1       5.384  -1.010  17.223  1.00  0.00    -0.238 OA
HETATM   35  N4  UNL     1       3.967  -2.733  16.491  1.00  0.00    -0.282 N 
ATOM     36  H4  UNL     1       3.351  -2.242  15.843  1.00  0.00     0.173 HD
BRANCH  35  37
HETATM   37  C21 UNL     1       3.658  -3.892  17.032  1.00  0.00     0.152 A 
HETATM   38  N5  UNL     1       3.492  -4.133  18.329  1.00  0.00    -0.346 N 
HETATM   39  C22 UNL     1       3.185  -5.340  18.711  1.00  0.00     0.097 A 
ATOM     40  H5  UNL     1       3.603  -3.386  19.013  1.00  0.00     0.167 HD
HETATM   41  C23 UNL     1       3.051  -6.300  17.738  1.00  0.00     0.070 A 
HETATM   42  S1  UNL     1       3.375  -5.412  16.318  1.00  0.00    -0.064 SA
ENDBRANCH  35  37
ENDBRANCH  32  33
ENDBRANCH  26  32
ENDBRANCH  24  26
ENDBRANCH  23  24
ENDBRANCH  22  23
ENDBRANCH   1  22
TORSDOF 15
ENDMDL
MODEL 5
REMARK VINA RESULT: -8.213948908      3.408      6.421
REMARK  15 active torsions:
REMARK  status: ('A' for Active; 'I' for Inactive)
REMARK    1  A    between atoms: C2_2  and  C3_3 
REMARK    2  A    between atoms: C3_3  and  C4_4 
REMARK    3  A    between atoms: C3_3  and  O2_22 
REMARK    4  A    between atoms: C4_4  and  N1_5 
REMARK    5  A    between atoms: N2_8  and  C7_9 
REMARK    6  A    between atoms: C7_9  and  C8_10 
REMARK    7  A    between atoms: C8_10  and  C9_11 
REMARK    8  A    between atoms: C9_11  and  N3_12 
REMARK       I    between atoms: N3_12  and  C10_14 
REMARK    9  A    between atoms: C10_14  and  C11_16 
REMARK   10  A    between atoms: O2_22  and  C17_23 
REMARK   11  A    between atoms: C17_23  and  C18_24 
REMARK   12  A    between atoms: C18_24  and  C19_26 
REMARK   13  A    between atoms: C19_26  and  O4_27 
REMARK   14  A    between atoms: O4_27  and  C20_28 
REMARK       I    between atoms: C20_28  and  N4_30 
REMARK   15  A    between atoms: N4_30  and  C21_32 
ROOT
HETATM    1  C3  UNL     1       4.218  -5.909  16.770  1.00  0.00     0.150 C 
ENDROOT
BRANCH   1   2
HETATM    2  C2  UNL     1       3.125  -6.165  17.751  1.00  0.00     0.029 C 
HETATM    3  C1  UNL     1       2.784  -7.651  17.697  1.00  0.00     0.007 C 
ENDBRANCH   1   2
BRANCH   1   4
HETATM    4  C4  UNL     1       3.862  -5.005  15.644  1.00  0.00     0.304 C 
BRANCH   4   5
HETATM    5  N1  UNL     1       3.873  -3.630  16.070  1.00  0.00     0.094 N 
HETATM    6  C5  UNL     1       2.631  -2.942  16.008  1.00  0.00     0.302 C 
HETATM    7  C6  UNL     1       2.407  -2.236  14.688  1.00  0.00     0.302 C 
HETATM    8  N2  UNL     1       3.491  -1.390  14.310  1.00  0.00     0.092 N 
HETATM    9  C15 UNL     1       4.523  -1.448  15.320  1.00  0.00     0.302 C 
HETATM   10  C16 UNL     1       4.961  -2.886  15.457  1.00  0.00     0.302 C 
BRANCH   8  11
HETATM   11  C7  UNL     1       3.060  -0.004  14.045  1.00  0.00     0.277 C 
BRANCH  11  12
HETATM   12  C8  UNL     1       2.745   0.226  12.633  1.00  0.00     0.074 C 
BRANCH  12  13
HETATM   13  C9  UNL     1       3.895   0.342  11.712  1.00  0.00     0.065 C 
BRANCH  13  14
HETATM   14  N3  UNL     1       5.203   0.567  12.161  1.00  0.00    -0.340 N 
HETATM   15  C10 UNL     1       6.293  -0.289  12.336  1.00  0.00     0.225 C 
HETATM   16  O1  UNL     1       6.257  -1.497  12.072  1.00  0.00    -0.273 OA
ATOM     17  H3  UNL     1       5.396   1.539  12.405  1.00  0.00     0.167 HD
BRANCH  15  18
HETATM   18  C11 UNL     1       7.598   0.225  12.866  1.00  0.00     0.078 A 
HETATM   19  C12 UNL     1       7.642   0.256  14.377  1.00  0.00     0.014 A 
HETATM   20  C13 UNL     1       7.872   1.766  14.379  1.00  0.00     0.002 A 
HETATM   21  C14 UNL     1       7.685   1.739  12.881  1.00  0.00     0.014 A 
ENDBRANCH  15  18
ENDBRANCH  13  14
ENDBRANCH  12  13
ENDBRANCH  11  12
ENDBRANCH   8  11
ENDBRANCH   4   5
ENDBRANCH   1   4
BRANCH   1  22
HETATM   22  O2  UNL     1       5.356  -5.502  17.457  1.00  0.00    -0.377 OA
BRANCH  22  23
HETATM   23  C17 UNL     1       6.343  -6.434  17.493  1.00  0.00     0.250 C 
BRANCH  23  24
HETATM   24  C18 UNL     1       7.704  -6.006  17.773  1.00  0.00     0.185 C 
HETATM   25  O3  UNL     1       7.862  -5.619  18.960  1.00  0.00    -0.292 OA
BRANCH  24  26
HETATM   26  C19 UNL     1       8.890  -5.946  16.930  1.00  0.00     0.134 C 
HETATM   27  C24 UNL     1       8.546  -6.065  15.442  1.00  0.00     0.047 C 
HETATM   28  C25 UNL     1       7.781  -4.887  14.908  1.00  0.00     0.004 C 
HETATM   29  C26 UNL     1       8.727  -3.695  14.981  1.00  0.00     0.000 C 
HETATM   30  C27 UNL     1       9.061  -3.466  16.416  1.00  0.00     0.004 C 
HETATM   31  C28 UNL     1       9.659  -4.656  17.078  1.00  0.00     0.047 C 
BRANCH  26  32
HETATM   32  O4  UNL     1       9.830  -7.000  17.131  1.00  0.00    -0.284 OA
BRANCH  32  33
HETATM   33  C20 UNL     1      10.730  -7.090  18.161  1.00  0.00     0.367 C 
HETATM   34  O5  UNL     1      11.903  -6.685  17.958  1.00  0.00    -0.238 OA
HETATM   35  N4  UNL     1      10.357  -7.631  19.451  1.00  0.00    -0.282 N 
ATOM     36  H4  UNL     1      10.620  -7.193  20.334  1.00  0.00     0.173 HD
BRANCH  35  37
HETATM   37  C21 UNL     1       9.650  -8.737  19.383  1.00  0.00     0.152 A 
HETATM   38  N5  UNL     1       8.325  -8.827  19.453  1.00  0.00    -0.346 N 
HETATM   39  C22 UNL     1       7.767 -10.001  19.369  1.00  0.00     0.097 A 
ATOM     40  H5  UNL     1       7.755  -7.990  19.571  1.00  0.00     0.167 HD
HETATM   41  C23 UNL     1       8.593 -11.086  19.211  1.00  0.00     0.070 A 
HETATM   42  S1  UNL     1      10.136 -10.358  19.192  1.00  0.00    -0.064 SA
ENDBRANCH  35  37
ENDBRANCH  32  33
ENDBRANCH  26  32
ENDBRANCH  24  26
ENDBRANCH  23  24
ENDBRANCH  22  23
ENDBRANCH   1  22
TORSDOF 15
ENDMDL
