MODEL 1
REMARK VINA RESULT: -8.461081200      0.000      0.000
REMARK  17 active torsions:
REMARK  status: ('A' for Active; 'I' for Inactive)
REMARK    1  A    between atoms: C2_2  and  C3_3 
REMARK    2  A    between atoms: C3_3  and  C4_4 
REMARK    3  A    between atoms: C4_4  and  C5_5 
REMARK    4  A    between atoms: C5_5  and  O1_6 
REMARK    5  A    between atoms: O1_6  and  C6_7 
REMARK       I    between atoms: C6_7  and  N1_9 
REMARK    6  A    between atoms: N2_12  and  C9_13 
REMARK    7  A    between atoms: C9_13  and  O3_14 
REMARK    8  A    between atoms: C9_13  and  C10_16 
REMARK    9  A    between atoms: C10_16  and  C11_17 
REMARK   10  A    between atoms: C10_16  and  N3_21 
REMARK   11  A    between atoms: C11_17  and  C12_18 
REMARK   12  A    between atoms: C12_18  and  S1_19 
REMARK       I    between atoms: N3_21  and  C14_23 
REMARK   13  A    between atoms: C14_23  and  C15_25 
REMARK       I    between atoms: N4_30  and  C20_31 
REMARK   14  A    between atoms: C20_31  and  C21_33 
REMARK   15  A    between atoms: C22_34  and  C23_35 
REMARK   16  A    between atoms: C23_35  and  O6_36 
REMARK   17  A    between atoms: N5_38  and  O7_40 
ROOT
HETATM    1  C10 UNL     1       4.406  -0.039  14.115  1.00  0.00     0.086 C 
ENDROOT
BRANCH   1   2
HETATM    2  C9  UNL     1       5.293  -0.431  15.206  1.00  0.00     0.165 C 
BRANCH   2   3
HETATM    3  N2  UNL     1       6.164  -1.498  15.339  1.00  0.00    -0.357 N 
HETATM    4  C8  UNL     1       7.466  -1.550  14.741  1.00  0.00     0.145 C 
HETATM    5  C7  UNL     1       7.994  -2.988  14.708  1.00  0.00     0.148 C 
HETATM    6  N1  UNL     1       8.075  -3.464  16.079  1.00  0.00    -0.325 N 
HETATM    7  C6  UNL     1       9.223  -4.178  16.474  1.00  0.00     0.362 C 
HETATM    8  C25 UNL     1       6.961  -3.171  16.942  1.00  0.00     0.148 C 
HETATM    9  O2  UNL     1      10.158  -4.410  15.640  1.00  0.00    -0.238 OA
HETATM   10  C24 UNL     1       5.780  -2.657  16.142  1.00  0.00     0.145 C 
BRANCH   7  11
HETATM   11  O1  UNL     1       9.324  -4.627  17.791  1.00  0.00    -0.304 OA
BRANCH  11  12
HETATM   12  C5  UNL     1      10.537  -5.250  18.137  1.00  0.00     0.180 C 
BRANCH  12  13
HETATM   13  C4  UNL     1      10.500  -6.741  18.115  1.00  0.00     0.027 C 
BRANCH  13  14
HETATM   14  C3  UNL     1       9.177  -7.353  18.432  1.00  0.00     0.002 C 
BRANCH  14  15
HETATM   15  C2  UNL     1       8.659  -7.974  17.141  1.00  0.00    -0.004 C 
HETATM   16  C1  UNL     1       8.300  -9.425  17.308  1.00  0.00     0.005 C 
ENDBRANCH  14  15
ENDBRANCH  13  14
ENDBRANCH  12  13
ENDBRANCH  11  12
ENDBRANCH   7  11
ENDBRANCH   2   3
BRANCH   2  17
HETATM   17  O3  UNL     1       5.244   0.384  16.234  1.00  0.00    -0.344 OA
ATOM     18  H3  UNL     1       5.794   1.156  16.166  1.00  0.00     0.219 HD
ENDBRANCH   2  17
ENDBRANCH   1   2
BRANCH   1  19
HETATM   19  C11 UNL     1       3.957  -1.096  13.195  1.00  0.00     0.041 C 
BRANCH  19  20
HETATM   20  C12 UNL     1       3.376  -2.357  13.638  1.00  0.00     0.047 C 
BRANCH  20  21
HETATM   21  S1  UNL     1       2.208  -2.476  14.934  1.00  0.00    -0.146 SA
HETATM   22  C13 UNL     1       1.246  -3.962  15.071  1.00  0.00     0.095 C 
ENDBRANCH  20  21
ENDBRANCH  19  20
ENDBRANCH   1  19
BRANCH   1  23
HETATM   23  N3  UNL     1       4.696   1.210  13.486  1.00  0.00    -0.322 N 
HETATM   24  C14 UNL     1       5.747   1.360  12.559  1.00  0.00     0.245 C 
HETATM   25  O4  UNL     1       6.453   0.379  12.262  1.00  0.00    -0.271 OA
ATOM     26  H3  UNL     1       4.124   2.022  13.716  1.00  0.00     0.169 HD
BRANCH  24  27
HETATM   27  C15 UNL     1       6.037   2.666  11.928  1.00  0.00     0.179 C 
HETATM   28  C16 UNL     1       7.529   2.749  11.697  1.00  0.00     0.035 C 
HETATM   29  C17 UNL     1       7.874   2.648  10.230  1.00  0.00     0.004 C 
HETATM   30  C18 UNL     1       6.921   1.718   9.511  1.00  0.00     0.020 C 
HETATM   31  C19 UNL     1       5.566   2.361   9.492  1.00  0.00     0.127 C 
HETATM   32  N4  UNL     1       5.269   2.928  10.766  1.00  0.00    -0.335 N 
HETATM   33  C20 UNL     1       4.132   3.821  10.859  1.00  0.00     0.244 C 
HETATM   34  O5  UNL     1       3.878   4.347  11.967  1.00  0.00    -0.268 OA
BRANCH  33  35
HETATM   35  C21 UNL     1       3.333   4.081   9.701  1.00  0.00     0.078 C 
HETATM   36  C22 UNL     1       2.091   3.902   9.411  1.00  0.00     0.063 C 
BRANCH  36  37
HETATM   37  C23 UNL     1       0.986   3.363  10.132  1.00  0.00     0.159 C 
HETATM   38  N5  UNL     1       0.108   2.532   9.722  1.00  0.00    -0.248 N 
ATOM     39  H5  UNL     1       0.201   2.207   8.759  1.00  0.00     0.196 HD
BRANCH  37  40
HETATM   40  O6  UNL     1       0.787   3.765  11.484  1.00  0.00    -0.345 OA
ATOM     41  H6  UNL     1      -0.078   4.047  11.755  1.00  0.00     0.219 HD
ENDBRANCH  37  40
BRANCH  38  42
HETATM   42  O7  UNL     1      -0.934   2.039  10.433  1.00  0.00    -0.288 OA
ATOM     43  H7  UNL     1      -1.789   2.440  10.540  1.00  0.00     0.244 HD
ENDBRANCH  38  42
ENDBRANCH  36  37
ENDBRANCH  33  35
ENDBRANCH  24  27
ENDBRANCH   1  23
TORSDOF 17
ENDMDL
MODEL 2
REMARK VINA RESULT: -8.434874180      1.267      1.533
REMARK  17 active torsions:
REMARK  status: ('A' for Active; 'I' for Inactive)
REMARK    1  A    between atoms: C2_2  and  C3_3 
REMARK    2  A    between atoms: C3_3  and  C4_4 
REMARK    3  A    between atoms: C4_4  and  C5_5 
REMARK    4  A    between atoms: C5_5  and  O1_6 
REMARK    5  A    between atoms: O1_6  and  C6_7 
REMARK       I    between atoms: C6_7  and  N1_9 
REMARK    6  A    between atoms: N2_12  and  C9_13 
REMARK    7  A    between atoms: C9_13  and  O3_14 
REMARK    8  A    between atoms: C9_13  and  C10_16 
REMARK    9  A    between atoms: C10_16  and  C11_17 
REMARK   10  A    between atoms: C10_16  and  N3_21 
REMARK   11  A    between atoms: C11_17  and  C12_18 
REMARK   12  A    between atoms: C12_18  and  S1_19 
REMARK       I    between atoms: N3_21  and  C14_23 
REMARK   13  A    between atoms: C14_23  and  C15_25 
REMARK       I    between atoms: N4_30  and  C20_31 
REMARK   14  A    between atoms: C20_31  and  C21_33 
REMARK   15  A    between atoms: C22_34  and  C23_35 
REMARK   16  A    between atoms: C23_35  and  O6_36 
REMARK   17  A    between atoms: N5_38  and  O7_40 
ROOT
HETATM    1  C10 UNL     1       5.335  -1.207  14.573  1.00  0.00     0.086 C 
ENDROOT
BRANCH   1   2
HETATM    2  C9  UNL     1       5.922  -1.605  15.849  1.00  0.00     0.165 C 
BRANCH   2   3
HETATM    3  N2  UNL     1       6.860  -2.571  16.163  1.00  0.00    -0.357 N 
HETATM    4  C8  UNL     1       8.272  -2.328  16.222  1.00  0.00     0.145 C 
HETATM    5  C7  UNL     1       9.055  -3.645  16.167  1.00  0.00     0.148 C 
HETATM    6  N1  UNL     1       8.656  -4.448  17.311  1.00  0.00    -0.325 N 
HETATM    7  C6  UNL     1       9.658  -5.114  18.044  1.00  0.00     0.362 C 
HETATM    8  C25 UNL     1       7.250  -4.508  17.613  1.00  0.00     0.148 C 
HETATM    9  O2  UNL     1      10.881  -5.022  17.698  1.00  0.00    -0.238 OA
HETATM   10  C24 UNL     1       6.430  -3.932  16.474  1.00  0.00     0.145 C 
BRANCH   7  11
HETATM   11  O1  UNL     1       9.293  -5.875  19.155  1.00  0.00    -0.304 OA
BRANCH  11  12
HETATM   12  C5  UNL     1       9.635  -7.239  19.105  1.00  0.00     0.180 C 
BRANCH  12  13
HETATM   13  C4  UNL     1       8.514  -8.148  18.730  1.00  0.00     0.027 C 
BRANCH  13  14
HETATM   14  C3  UNL     1       8.500  -8.595  17.307  1.00  0.00     0.002 C 
BRANCH  14  15
HETATM   15  C2  UNL     1       7.897  -9.993  17.291  1.00  0.00    -0.004 C 
HETATM   16  C1  UNL     1       8.938 -11.069  17.440  1.00  0.00     0.005 C 
ENDBRANCH  14  15
ENDBRANCH  13  14
ENDBRANCH  12  13
ENDBRANCH  11  12
ENDBRANCH   7  11
ENDBRANCH   2   3
BRANCH   2  17
HETATM   17  O3  UNL     1       5.468  -0.912  16.868  1.00  0.00    -0.344 OA
ATOM     18  H3  UNL     1       6.045  -0.876  17.622  1.00  0.00     0.219 HD
ENDBRANCH   2  17
ENDBRANCH   1   2
BRANCH   1  19
HETATM   19  C11 UNL     1       4.907  -2.280  13.661  1.00  0.00     0.041 C 
BRANCH  19  20
HETATM   20  C12 UNL     1       3.557  -2.829  13.641  1.00  0.00     0.047 C 
BRANCH  20  21
HETATM   21  S1  UNL     1       2.416  -2.628  14.951  1.00  0.00    -0.146 SA
HETATM   22  C13 UNL     1       2.712  -3.498  16.471  1.00  0.00     0.095 C 
ENDBRANCH  20  21
ENDBRANCH  19  20
ENDBRANCH   1  19
BRANCH   1  23
HETATM   23  N3  UNL     1       5.937  -0.084  13.926  1.00  0.00    -0.322 N 
HETATM   24  C14 UNL     1       5.174   0.926  13.307  1.00  0.00     0.245 C 
HETATM   25  O4  UNL     1       3.931   0.855  13.318  1.00  0.00    -0.271 OA
ATOM     26  H3  UNL     1       6.954  -0.011  13.912  1.00  0.00     0.169 HD
BRANCH  24  27
HETATM   27  C15 UNL     1       5.819   2.074  12.633  1.00  0.00     0.179 C 
HETATM   28  C16 UNL     1       7.314   1.853  12.667  1.00  0.00     0.035 C 
HETATM   29  C17 UNL     1       7.861   1.520  11.299  1.00  0.00     0.004 C 
HETATM   30  C18 UNL     1       6.867   0.706  10.500  1.00  0.00     0.020 C 
HETATM   31  C19 UNL     1       5.691   1.582  10.186  1.00  0.00     0.127 C 
HETATM   32  N4  UNL     1       5.315   2.338  11.334  1.00  0.00    -0.335 N 
HETATM   33  C20 UNL     1       4.382   3.430  11.148  1.00  0.00     0.244 C 
HETATM   34  O5  UNL     1       4.066   4.118  12.146  1.00  0.00    -0.268 OA
BRANCH  33  35
HETATM   35  C21 UNL     1       3.847   3.698   9.849  1.00  0.00     0.078 C 
HETATM   36  C22 UNL     1       2.659   3.703   9.352  1.00  0.00     0.063 C 
BRANCH  36  37
HETATM   37  C23 UNL     1       1.369   3.440   9.900  1.00  0.00     0.159 C 
HETATM   38  N5  UNL     1       0.444   2.706   9.416  1.00  0.00    -0.248 N 
ATOM     39  H5  UNL     1       0.643   2.245   8.528  1.00  0.00     0.196 HD
BRANCH  37  40
HETATM   40  O6  UNL     1       1.014   4.044  11.140  1.00  0.00    -0.345 OA
ATOM     41  H6  UNL     1       1.446   3.749  11.932  1.00  0.00     0.219 HD
ENDBRANCH  37  40
BRANCH  38  42
HETATM   42  O7  UNL     1      -0.775   2.476   9.961  1.00  0.00    -0.288 OA
ATOM     43  H7  UNL     1      -1.427   1.857   9.653  1.00  0.00     0.244 HD
ENDBRANCH  38  42
ENDBRANCH  36  37
ENDBRANCH  33  35
ENDBRANCH  24  27
ENDBRANCH   1  23
TORSDOF 17
ENDMDL
MODEL 3
REMARK VINA RESULT: -8.397346685      2.954     11.009
REMARK  17 active torsions:
REMARK  status: ('A' for Active; 'I' for Inactive)
REMARK    1  A    between atoms: C2_2  and  C3_3 
REMARK    2  A    between atoms: C3_3  and  C4_4 
REMARK    3  A    between atoms: C4_4  and  C5_5 
REMARK    4  A    between atoms: C5_5  and  O1_6 
REMARK    5  A    between atoms: O1_6  and  C6_7 
REMARK       I    between atoms: C6_7  and  N1_9 
REMARK    6  A    between atoms: N2_12  and  C9_13 
REMARK    7  A    between atoms: C9_13  and  O3_14 
REMARK    8  A    between atoms: C9_13  and  C10_16 
REMARK    9  A    between atoms: C10_16  and  C11_17 
REMARK   10  A    between atoms: C10_16  and  N3_21 
REMARK   11  A    between atoms: C11_17  and  C12_18 
REMARK   12  A    between atoms: C12_18  and  S1_19 
REMARK       I    between atoms: N3_21  and  C14_23 
REMARK   13  A    between atoms: C14_23  and  C15_25 
REMARK       I    between atoms: N4_30  and  C20_31 
REMARK   14  A    between atoms: C20_31  and  C21_33 
REMARK   15  A    between atoms: C22_34  and  C23_35 
REMARK   16  A    between atoms: C23_35  and  O6_36 
REMARK   17  A    between atoms: N5_38  and  O7_40 
ROOT
HETATM    1  C10 UNL     1       4.444  -4.728  16.572  1.00  0.00     0.086 C 
ENDROOT
BRANCH   1   2
HETATM    2  C9  UNL     1       4.266  -3.287  16.423  1.00  0.00     0.165 C 
BRANCH   2   3
HETATM    3  N2  UNL     1       4.180  -2.487  15.298  1.00  0.00    -0.357 N 
HETATM    4  C8  UNL     1       3.376  -2.798  14.152  1.00  0.00     0.145 C 
HETATM    5  C7  UNL     1       3.814  -1.972  12.937  1.00  0.00     0.148 C 
HETATM    6  N1  UNL     1       3.651  -0.568  13.272  1.00  0.00    -0.325 N 
HETATM    7  C6  UNL     1       3.076   0.288  12.312  1.00  0.00     0.362 C 
HETATM    8  C25 UNL     1       4.097  -0.147  14.574  1.00  0.00     0.148 C 
HETATM    9  O2  UNL     1       2.723  -0.163  11.174  1.00  0.00    -0.238 OA
HETATM   10  C24 UNL     1       4.925  -1.232  15.236  1.00  0.00     0.145 C 
BRANCH   7  11
HETATM   11  O1  UNL     1       2.897   1.636  12.625  1.00  0.00    -0.304 OA
BRANCH  11  12
HETATM   12  C5  UNL     1       3.597   2.552  11.819  1.00  0.00     0.180 C 
BRANCH  12  13
HETATM   13  C4  UNL     1       2.737   3.369  10.914  1.00  0.00     0.027 C 
BRANCH  13  14
HETATM   14  C3  UNL     1       1.276   3.331  11.213  1.00  0.00     0.002 C 
BRANCH  14  15
HETATM   15  C2  UNL     1       0.618   2.542  10.089  1.00  0.00    -0.004 C 
HETATM   16  C1  UNL     1      -0.652   1.867  10.531  1.00  0.00     0.005 C 
ENDBRANCH  14  15
ENDBRANCH  13  14
ENDBRANCH  12  13
ENDBRANCH  11  12
ENDBRANCH   7  11
ENDBRANCH   2   3
BRANCH   2  17
HETATM   17  O3  UNL     1       4.171  -2.654  17.569  1.00  0.00    -0.344 OA
ATOM     18  H3  UNL     1       4.565  -3.098  18.311  1.00  0.00     0.219 HD
ENDBRANCH   2  17
ENDBRANCH   1   2
BRANCH   1  19
HETATM   19  C11 UNL     1       4.022  -5.334  17.845  1.00  0.00     0.041 C 
BRANCH  19  20
HETATM   20  C12 UNL     1       3.126  -6.480  17.934  1.00  0.00     0.047 C 
BRANCH  20  21
HETATM   21  S1  UNL     1       3.538  -8.073  17.340  1.00  0.00    -0.146 SA
HETATM   22  C13 UNL     1       5.122  -8.752  17.769  1.00  0.00     0.095 C 
ENDBRANCH  20  21
ENDBRANCH  19  20
ENDBRANCH   1  19
BRANCH   1  23
HETATM   23  N3  UNL     1       5.646  -5.273  16.026  1.00  0.00    -0.322 N 
HETATM   24  C14 UNL     1       6.922  -4.821  16.416  1.00  0.00     0.245 C 
HETATM   25  O4  UNL     1       7.024  -3.919  17.268  1.00  0.00    -0.271 OA
ATOM     26  H3  UNL     1       5.579  -6.015  15.329  1.00  0.00     0.169 HD
BRANCH  24  27
HETATM   27  C15 UNL     1       8.154  -5.392  15.829  1.00  0.00     0.179 C 
HETATM   28  C16 UNL     1       8.585  -4.495  14.690  1.00  0.00     0.035 C 
HETATM   29  C17 UNL     1       9.834  -3.717  15.033  1.00  0.00     0.004 C 
HETATM   30  C18 UNL     1       9.860  -3.353  16.501  1.00  0.00     0.020 C 
HETATM   31  C19 UNL     1      10.025  -4.616  17.293  1.00  0.00     0.127 C 
HETATM   32  N4  UNL     1       9.182  -5.640  16.774  1.00  0.00    -0.335 N 
HETATM   33  C20 UNL     1       9.404  -6.996  17.233  1.00  0.00     0.244 C 
HETATM   34  O5  UNL     1       8.687  -7.908  16.763  1.00  0.00    -0.268 OA
BRANCH  33  35
HETATM   35  C21 UNL     1      10.422  -7.263  18.201  1.00  0.00     0.078 C 
HETATM   36  C22 UNL     1      10.517  -8.066  19.205  1.00  0.00     0.063 C 
BRANCH  36  37
HETATM   37  C23 UNL     1       9.635  -9.032  19.770  1.00  0.00     0.159 C 
HETATM   38  N5  UNL     1       8.368  -9.111  19.642  1.00  0.00    -0.248 N 
ATOM     39  H5  UNL     1       7.921  -8.399  19.065  1.00  0.00     0.196 HD
BRANCH  37  40
HETATM   40  O6  UNL     1      10.181 -10.063  20.587  1.00  0.00    -0.345 OA
ATOM     41  H6  UNL     1      10.050 -10.968  20.331  1.00  0.00     0.219 HD
ENDBRANCH  37  40
BRANCH  38  42
HETATM   42  O7  UNL     1       7.555 -10.044  20.195  1.00  0.00    -0.288 OA
ATOM     43  H7  UNL     1       7.543 -10.319  21.104  1.00  0.00     0.244 HD
ENDBRANCH  38  42
ENDBRANCH  36  37
ENDBRANCH  33  35
ENDBRANCH  24  27
ENDBRANCH   1  23
TORSDOF 17
ENDMDL
MODEL 4
REMARK VINA RESULT: -8.366527076      2.783     10.257
REMARK  17 active torsions:
REMARK  status: ('A' for Active; 'I' for Inactive)
REMARK    1  A    between atoms: C2_2  and  C3_3 
REMARK    2  A    between atoms: C3_3  and  C4_4 
REMARK    3  A    between atoms: C4_4  and  C5_5 
REMARK    4  A    between atoms: C5_5  and  O1_6 
REMARK    5  A    between atoms: O1_6  and  C6_7 
REMARK       I    between atoms: C6_7  and  N1_9 
REMARK    6  A    between atoms: N2_12  and  C9_13 
REMARK    7  A    between atoms: C9_13  and  O3_14 
REMARK    8  A    between atoms: C9_13  and  C10_16 
REMARK    9  A    between atoms: C10_16  and  C11_17 
REMARK   10  A    between atoms: C10_16  and  N3_21 
REMARK   11  A    between atoms: C11_17  and  C12_18 
REMARK   12  A    between atoms: C12_18  and  S1_19 
REMARK       I    between atoms: N3_21  and  C14_23 
REMARK   13  A    between atoms: C14_23  and  C15_25 
REMARK       I    between atoms: N4_30  and  C20_31 
REMARK   14  A    between atoms: C20_31  and  C21_33 
REMARK   15  A    between atoms: C22_34  and  C23_35 
REMARK   16  A    between atoms: C23_35  and  O6_36 
REMARK   17  A    between atoms: N5_38  and  O7_40 
ROOT
HETATM    1  C10 UNL     1       4.582  -3.967  15.983  1.00  0.00     0.086 C 
ENDROOT
BRANCH   1   2
HETATM    2  C9  UNL     1       4.559  -2.508  16.042  1.00  0.00     0.165 C 
BRANCH   2   3
HETATM    3  N2  UNL     1       4.333  -1.557  15.063  1.00  0.00    -0.357 N 
HETATM    4  C8  UNL     1       4.596  -0.157  15.230  1.00  0.00     0.145 C 
HETATM    5  C7  UNL     1       3.861   0.667  14.168  1.00  0.00     0.148 C 
HETATM    6  N1  UNL     1       4.339   0.239  12.864  1.00  0.00    -0.325 N 
HETATM    7  C6  UNL     1       4.631   1.225  11.901  1.00  0.00     0.362 C 
HETATM    8  C25 UNL     1       4.478  -1.177  12.647  1.00  0.00     0.148 C 
HETATM    9  O2  UNL     1       4.464   2.460  12.169  1.00  0.00    -0.238 OA
HETATM   10  C24 UNL     1       3.810  -1.960  13.760  1.00  0.00     0.145 C 
BRANCH   7  11
HETATM   11  O1  UNL     1       5.108   0.833  10.650  1.00  0.00    -0.304 OA
BRANCH  11  12
HETATM   12  C5  UNL     1       6.437   1.191  10.358  1.00  0.00     0.180 C 
BRANCH  12  13
HETATM   13  C4  UNL     1       7.467   0.283  10.940  1.00  0.00     0.027 C 
BRANCH  13  14
HETATM   14  C3  UNL     1       8.358   0.899  11.966  1.00  0.00     0.002 C 
BRANCH  14  15
HETATM   15  C2  UNL     1       7.836   0.454  13.326  1.00  0.00    -0.004 C 
HETATM   16  C1  UNL     1       7.771   1.587  14.313  1.00  0.00     0.005 C 
ENDBRANCH  14  15
ENDBRANCH  13  14
ENDBRANCH  12  13
ENDBRANCH  11  12
ENDBRANCH   7  11
ENDBRANCH   2   3
BRANCH   2  17
HETATM   17  O3  UNL     1       4.797  -2.033  17.242  1.00  0.00    -0.344 OA
ATOM     18  H3  UNL     1       4.234  -2.369  17.930  1.00  0.00     0.219 HD
ENDBRANCH   2  17
ENDBRANCH   1   2
BRANCH   1  19
HETATM   19  C11 UNL     1       3.958  -4.698  17.097  1.00  0.00     0.041 C 
BRANCH  19  20
HETATM   20  C12 UNL     1       3.139  -5.891  16.920  1.00  0.00     0.047 C 
BRANCH  20  21
HETATM   21  S1  UNL     1       3.745  -7.517  17.141  1.00  0.00    -0.146 SA
HETATM   22  C13 UNL     1       5.354  -7.728  17.862  1.00  0.00     0.095 C 
ENDBRANCH  20  21
ENDBRANCH  19  20
ENDBRANCH   1  19
BRANCH   1  23
HETATM   23  N3  UNL     1       5.784  -4.558  15.486  1.00  0.00    -0.322 N 
HETATM   24  C14 UNL     1       6.927  -4.732  16.292  1.00  0.00     0.245 C 
HETATM   25  O4  UNL     1       6.904  -4.368  17.482  1.00  0.00    -0.271 OA
ATOM     26  H3  UNL     1       5.816  -4.865  14.514  1.00  0.00     0.169 HD
BRANCH  24  27
HETATM   27  C15 UNL     1       8.164  -5.336  15.752  1.00  0.00     0.179 C 
HETATM   28  C16 UNL     1       8.630  -4.485  14.593  1.00  0.00     0.035 C 
HETATM   29  C17 UNL     1       9.880  -3.709  14.937  1.00  0.00     0.004 C 
HETATM   30  C18 UNL     1       9.879  -3.294  16.392  1.00  0.00     0.020 C 
HETATM   31  C19 UNL     1      10.011  -4.530  17.231  1.00  0.00     0.127 C 
HETATM   32  N4  UNL     1       9.168  -5.563  16.728  1.00  0.00    -0.335 N 
HETATM   33  C20 UNL     1       9.364  -6.904  17.238  1.00  0.00     0.244 C 
HETATM   34  O5  UNL     1       8.647  -7.825  16.784  1.00  0.00    -0.268 OA
BRANCH  33  35
HETATM   35  C21 UNL     1      10.357  -7.149  18.238  1.00  0.00     0.078 C 
HETATM   36  C22 UNL     1      10.446  -7.960  19.235  1.00  0.00     0.063 C 
BRANCH  36  37
HETATM   37  C23 UNL     1       9.579  -8.963  19.759  1.00  0.00     0.159 C 
HETATM   38  N5  UNL     1       8.316  -9.070  19.606  1.00  0.00    -0.248 N 
ATOM     39  H5  UNL     1       7.862  -8.354  19.039  1.00  0.00     0.196 HD
BRANCH  37  40
HETATM   40  O6  UNL     1      10.136 -10.001  20.559  1.00  0.00    -0.345 OA
ATOM     41  H6  UNL     1       9.569 -10.702  20.859  1.00  0.00     0.219 HD
ENDBRANCH  37  40
BRANCH  38  42
HETATM   42  O7  UNL     1       7.518 -10.036  20.120  1.00  0.00    -0.288 OA
ATOM     43  H7  UNL     1       6.630 -10.242  19.850  1.00  0.00     0.244 HD
ENDBRANCH  38  42
ENDBRANCH  36  37
ENDBRANCH  33  35
ENDBRANCH  24  27
ENDBRANCH   1  23
TORSDOF 17
ENDMDL
MODEL 5
REMARK VINA RESULT: -8.331033731      2.838      8.909
REMARK  17 active torsions:
REMARK  status: ('A' for Active; 'I' for Inactive)
REMARK    1  A    between atoms: C2_2  and  C3_3 
REMARK    2  A    between atoms: C3_3  and  C4_4 
REMARK    3  A    between atoms: C4_4  and  C5_5 
REMARK    4  A    between atoms: C5_5  and  O1_6 
REMARK    5  A    between atoms: O1_6  and  C6_7 
REMARK       I    between atoms: C6_7  and  N1_9 
REMARK    6  A    between atoms: N2_12  and  C9_13 
REMARK    7  A    between atoms: C9_13  and  O3_14 
REMARK    8  A    between atoms: C9_13  and  C10_16 
REMARK    9  A    between atoms: C10_16  and  C11_17 
REMARK   10  A    between atoms: C10_16  and  N3_21 
REMARK   11  A    between atoms: C11_17  and  C12_18 
REMARK   12  A    between atoms: C12_18  and  S1_19 
REMARK       I    between atoms: N3_21  and  C14_23 
REMARK   13  A    between atoms: C14_23  and  C15_25 
REMARK       I    between atoms: N4_30  and  C20_31 
REMARK   14  A    between atoms: C20_31  and  C21_33 
REMARK   15  A    between atoms: C22_34  and  C23_35 
REMARK   16  A    between atoms: C23_35  and  O6_36 
REMARK   17  A    between atoms: N5_38  and  O7_40 
ROOT
HETATM    1  C10 UNL     1       7.405  -3.440  15.562  1.00  0.00     0.086 C 
ENDROOT
BRANCH   1   2
HETATM    2  C9  UNL     1       7.537  -1.990  15.454  1.00  0.00     0.165 C 
BRANCH   2   3
HETATM    3  N2  UNL     1       7.358  -1.132  14.385  1.00  0.00    -0.357 N 
HETATM    4  C8  UNL     1       6.870  -1.542  13.100  1.00  0.00     0.145 C 
HETATM    5  C7  UNL     1       7.186  -0.487  12.034  1.00  0.00     0.148 C 
HETATM    6  N1  UNL     1       6.530   0.750  12.425  1.00  0.00    -0.325 N 
HETATM    7  C6  UNL     1       5.852   1.490  11.437  1.00  0.00     0.362 C 
HETATM    8  C25 UNL     1       6.625   1.135  13.808  1.00  0.00     0.148 C 
HETATM    9  O2  UNL     1       5.831   1.087  10.228  1.00  0.00    -0.238 OA
HETATM   10  C24 UNL     1       7.657   0.291  14.533  1.00  0.00     0.145 C 
BRANCH   7  11
HETATM   11  O1  UNL     1       5.203   2.671  11.798  1.00  0.00    -0.304 OA
BRANCH  11  12
HETATM   12  C5  UNL     1       4.649   3.417  10.742  1.00  0.00     0.180 C 
BRANCH  12  13
HETATM   13  C4  UNL     1       3.264   3.912  10.989  1.00  0.00     0.027 C 
BRANCH  13  14
HETATM   14  C3  UNL     1       2.181   3.160  10.292  1.00  0.00     0.002 C 
BRANCH  14  15
HETATM   15  C2  UNL     1       0.970   3.176  11.215  1.00  0.00    -0.004 C 
HETATM   16  C1  UNL     1      -0.040   2.121  10.854  1.00  0.00     0.005 C 
ENDBRANCH  14  15
ENDBRANCH  13  14
ENDBRANCH  12  13
ENDBRANCH  11  12
ENDBRANCH   7  11
ENDBRANCH   2   3
BRANCH   2  17
HETATM   17  O3  UNL     1       7.886  -1.415  16.582  1.00  0.00    -0.344 OA
ATOM     18  H3  UNL     1       8.815  -1.450  16.784  1.00  0.00     0.219 HD
ENDBRANCH   2  17
ENDBRANCH   1   2
BRANCH   1  19
HETATM   19  C11 UNL     1       8.487  -4.261  14.995  1.00  0.00     0.041 C 
BRANCH  19  20
HETATM   20  C12 UNL     1       9.729  -4.555  15.698  1.00  0.00     0.047 C 
BRANCH  20  21
HETATM   21  S1  UNL     1       9.819  -4.814  17.426  1.00  0.00    -0.146 SA
HETATM   22  C13 UNL     1      10.937  -6.050  18.038  1.00  0.00     0.095 C 
ENDBRANCH  20  21
ENDBRANCH  19  20
ENDBRANCH   1  19
BRANCH   1  23
HETATM   23  N3  UNL     1       6.093  -3.969  15.364  1.00  0.00    -0.322 N 
HETATM   24  C14 UNL     1       5.535  -4.937  16.223  1.00  0.00     0.245 C 
HETATM   25  O4  UNL     1       6.193  -5.353  17.195  1.00  0.00    -0.271 OA
ATOM     26  H3  UNL     1       5.541  -3.635  14.575  1.00  0.00     0.169 HD
BRANCH  24  27
HETATM   27  C15 UNL     1       4.179  -5.480  15.993  1.00  0.00     0.179 C 
HETATM   28  C16 UNL     1       4.014  -6.704  16.865  1.00  0.00     0.035 C 
HETATM   29  C17 UNL     1       3.060  -6.451  18.010  1.00  0.00     0.004 C 
HETATM   30  C18 UNL     1       3.171  -5.025  18.503  1.00  0.00     0.020 C 
HETATM   31  C19 UNL     1       2.652  -4.116  17.428  1.00  0.00     0.127 C 
HETATM   32  N4  UNL     1       3.142  -4.527  16.153  1.00  0.00    -0.335 N 
HETATM   33  C20 UNL     1       2.534  -3.942  14.976  1.00  0.00     0.244 C 
HETATM   34  O5  UNL     1       2.937  -4.315  13.851  1.00  0.00    -0.268 OA
BRANCH  33  35
HETATM   35  C21 UNL     1       1.500  -2.963  15.118  1.00  0.00     0.078 C 
HETATM   36  C22 UNL     1       1.429  -1.696  14.896  1.00  0.00     0.063 C 
BRANCH  36  37
HETATM   37  C23 UNL     1       2.361  -0.734  14.409  1.00  0.00     0.159 C 
HETATM   38  N5  UNL     1       2.190   0.130  13.486  1.00  0.00    -0.248 N 
ATOM     39  H5  UNL     1       1.275   0.143  13.036  1.00  0.00     0.196 HD
BRANCH  37  40
HETATM   40  O6  UNL     1       3.661  -0.685  14.988  1.00  0.00    -0.345 OA
ATOM     41  H6  UNL     1       4.398  -0.448  14.439  1.00  0.00     0.219 HD
ENDBRANCH  37  40
BRANCH  38  42
HETATM   42  O7  UNL     1       3.099   1.033  13.044  1.00  0.00    -0.288 OA
ATOM     43  H7  UNL     1       3.331   1.855  13.459  1.00  0.00     0.244 HD
ENDBRANCH  38  42
ENDBRANCH  36  37
ENDBRANCH  33  35
ENDBRANCH  24  27
ENDBRANCH   1  23
TORSDOF 17
ENDMDL
