MODEL 1
REMARK VINA RESULT: -3.597193602      0.000      0.000
REMARK  2 active torsions:
REMARK  status: ('A' for Active; 'I' for Inactive)
REMARK    1  A    between atoms: N1_1  and  C1_5 
REMARK    2  A    between atoms: C1_5  and  N2_6 
ROOT
HETATM    1  C1  UNL     1      -0.461  40.939  -9.738  1.00  0.00     0.349 C 
ENDROOT
BRANCH   1   2
HETATM    2  N1  UNL     1      -1.738  41.112 -10.443  1.00  0.00    -0.066 N 
ATOM      3  H13 UNL     1      -2.554  40.946  -9.853  1.00  0.00     0.275 HD
ATOM      4  H12 UNL     1      -1.946  42.084 -10.672  1.00  0.00     0.275 HD
ATOM      5  H11 UNL     1      -1.698  40.502 -11.260  1.00  0.00     0.275 HD
ENDBRANCH   1   2
BRANCH   1   6
HETATM    6  N2  UNL     1      -0.329  39.523  -9.485  1.00  0.00    -0.170 NA
HETATM    7  C2  UNL     1      -1.527  38.762  -9.687  1.00  0.00     0.150 C 
HETATM    8  C3  UNL     1      -0.461  37.697  -9.970  1.00  0.00     0.210 C 
HETATM    9  O1  UNL     1       0.245  38.810 -10.484  1.00  0.00    -0.301 OA
ENDBRANCH   1   6
TORSDOF 2
ENDMDL
MODEL 2
REMARK VINA RESULT: -3.575311399      6.811      7.585
REMARK  2 active torsions:
REMARK  status: ('A' for Active; 'I' for Inactive)
REMARK    1  A    between atoms: N1_1  and  C1_5 
REMARK    2  A    between atoms: C1_5  and  N2_6 
ROOT
HETATM    1  C1  UNL     1       2.864  32.009 -10.225  1.00  0.00     0.349 C 
ENDROOT
BRANCH   1   2
HETATM    2  N1  UNL     1       4.283  32.376 -10.131  1.00  0.00    -0.066 N 
ATOM      3  H13 UNL     1       4.724  32.527 -11.038  1.00  0.00     0.275 HD
ATOM      4  H12 UNL     1       4.437  33.313  -9.759  1.00  0.00     0.275 HD
ATOM      5  H11 UNL     1       4.731  31.643  -9.580  1.00  0.00     0.275 HD
ENDBRANCH   1   2
BRANCH   1   6
HETATM    6  N2  UNL     1       2.304  32.827 -11.276  1.00  0.00    -0.170 NA
HETATM    7  C2  UNL     1       1.170  33.613 -10.887  1.00  0.00     0.150 C 
HETATM    8  C3  UNL     1       1.740  34.473 -12.021  1.00  0.00     0.210 C 
HETATM    9  O1  UNL     1       2.969  33.981 -11.525  1.00  0.00    -0.301 OA
ENDBRANCH   1   6
TORSDOF 2
ENDMDL
MODEL 3
REMARK VINA RESULT: -3.462396666      6.707      7.663
REMARK  2 active torsions:
REMARK  status: ('A' for Active; 'I' for Inactive)
REMARK    1  A    between atoms: N1_1  and  C1_5 
REMARK    2  A    between atoms: C1_5  and  N2_6 
ROOT
HETATM    1  C1  UNL     1       2.588  34.055 -12.352  1.00  0.00     0.349 C 
ENDROOT
BRANCH   1   2
HETATM    2  N1  UNL     1       1.859  34.894 -11.391  1.00  0.00    -0.066 N 
ATOM      3  H13 UNL     1       1.928  35.892 -11.590  1.00  0.00     0.275 HD
ATOM      4  H12 UNL     1       0.845  34.820 -11.476  1.00  0.00     0.275 HD
ATOM      5  H11 UNL     1       2.208  34.639 -10.467  1.00  0.00     0.275 HD
ENDBRANCH   1   2
BRANCH   1   6
HETATM    6  N2  UNL     1       3.991  34.220 -12.048  1.00  0.00    -0.170 NA
HETATM    7  C2  UNL     1       4.706  32.997 -11.828  1.00  0.00     0.150 C 
HETATM    8  C3  UNL     1       5.835  33.901 -12.338  1.00  0.00     0.210 C 
HETATM    9  O1  UNL     1       4.790  34.450 -13.118  1.00  0.00    -0.301 OA
ENDBRANCH   1   6
TORSDOF 2
ENDMDL
MODEL 4
REMARK VINA RESULT: -3.460987558      2.059      2.960
REMARK  2 active torsions:
REMARK  status: ('A' for Active; 'I' for Inactive)
REMARK    1  A    between atoms: N1_1  and  C1_5 
REMARK    2  A    between atoms: C1_5  and  N2_6 
ROOT
HETATM    1  C1  UNL     1      -1.581  38.361  -8.583  1.00  0.00     0.349 C 
ENDROOT
BRANCH   1   2
HETATM    2  N1  UNL     1      -2.249  37.550  -9.610  1.00  0.00    -0.066 N 
ATOM      3  H13 UNL     1      -2.871  38.089 -10.212  1.00  0.00     0.275 HD
ATOM      4  H12 UNL     1      -1.618  37.223 -10.343  1.00  0.00     0.275 HD
ATOM      5  H11 UNL     1      -2.720  36.793  -9.114  1.00  0.00     0.275 HD
ENDBRANCH   1   2
BRANCH   1   6
HETATM    6  N2  UNL     1      -1.740  39.737  -8.989  1.00  0.00    -0.170 NA
HETATM    7  C2  UNL     1      -0.821  40.177  -9.998  1.00  0.00     0.150 C 
HETATM    8  C3  UNL     1      -2.012  41.104 -10.272  1.00  0.00     0.210 C 
HETATM    9  O1  UNL     1      -2.749  39.968  -9.864  1.00  0.00    -0.301 OA
ENDBRANCH   1   6
TORSDOF 2
ENDMDL
MODEL 5
REMARK VINA RESULT: -3.454525880      6.266      7.452
REMARK  2 active torsions:
REMARK  status: ('A' for Active; 'I' for Inactive)
REMARK    1  A    between atoms: N1_1  and  C1_5 
REMARK    2  A    between atoms: C1_5  and  N2_6 
ROOT
HETATM    1  C1  UNL     1       3.378  32.469 -11.450  1.00  0.00     0.349 C 
ENDROOT
BRANCH   1   2
HETATM    2  N1  UNL     1       4.187  32.275 -10.239  1.00  0.00    -0.066 N 
ATOM      3  H13 UNL     1       4.489  31.311 -10.103  1.00  0.00     0.275 HD
ATOM      4  H12 UNL     1       5.117  32.690 -10.302  1.00  0.00     0.275 HD
ATOM      5  H11 UNL     1       3.632  32.640  -9.464  1.00  0.00     0.275 HD
ENDBRANCH   1   2
BRANCH   1   6
HETATM    6  N2  UNL     1       2.554  33.629 -11.203  1.00  0.00    -0.170 NA
HETATM    7  C2  UNL     1       2.138  34.332 -12.381  1.00  0.00     0.150 C 
HETATM    8  C3  UNL     1       0.988  34.671 -11.425  1.00  0.00     0.210 C 
HETATM    9  O1  UNL     1       1.249  33.365 -10.948  1.00  0.00    -0.301 OA
ENDBRANCH   1   6
TORSDOF 2
ENDMDL
