MODEL 1
REMARK VINA RESULT: -3.843225365      0.000      0.000
REMARK  2 active torsions:
REMARK  status: ('A' for Active; 'I' for Inactive)
REMARK    1  A    between atoms: N1_1  and  C1_5 
REMARK    2  A    between atoms: C1_5  and  C2_6 
ROOT
HETATM    1  C2  UNL     1       2.287  32.782 -11.289  1.00  0.00     0.212 C 
HETATM    2  C3  UNL     1       1.132  33.660 -10.871  1.00  0.00     0.062 C 
HETATM    3  C4  UNL     1       1.648  34.466 -12.073  1.00  0.00     0.235 C 
HETATM    4  N2  UNL     1       2.980  34.017 -11.625  1.00  0.00    -0.069 N 
ATOM      5  H21 UNL     1       3.800  34.040 -12.231  1.00  0.00     0.277 HD
ATOM      6  H22 UNL     1       3.535  34.538 -10.945  1.00  0.00     0.277 HD
ENDROOT
BRANCH   1   7
HETATM    7  C1  UNL     1       2.919  31.968 -10.204  1.00  0.00     0.262 C 
BRANCH   7   8
HETATM    8  N1  UNL     1       4.290  32.383 -10.058  1.00  0.00    -0.077 N 
ATOM      9  H13 UNL     1       4.669  32.790 -10.913  1.00  0.00     0.274 HD
ATOM     10  H12 UNL     1       4.389  33.202  -9.459  1.00  0.00     0.274 HD
ATOM     11  H11 UNL     1       4.837  31.588  -9.727  1.00  0.00     0.274 HD
ENDBRANCH   7   8
ENDBRANCH   1   7
TORSDOF 2
ENDMDL
MODEL 2
REMARK VINA RESULT: -3.524403139      6.835      7.722
REMARK  2 active torsions:
REMARK  status: ('A' for Active; 'I' for Inactive)
REMARK    1  A    between atoms: N1_1  and  C1_5 
REMARK    2  A    between atoms: C1_5  and  C2_6 
ROOT
HETATM    1  C2  UNL     1      -1.831  39.495  -9.565  1.00  0.00     0.212 C 
HETATM    2  C3  UNL     1      -1.140  40.822  -9.762  1.00  0.00     0.062 C 
HETATM    3  C4  UNL     1      -2.468  41.112 -10.479  1.00  0.00     0.235 C 
HETATM    4  N2  UNL     1      -2.393  39.698 -10.892  1.00  0.00    -0.069 N 
ATOM      5  H21 UNL     1      -3.205  39.181 -11.229  1.00  0.00     0.277 HD
ATOM      6  H22 UNL     1      -1.917  39.398 -11.743  1.00  0.00     0.277 HD
ENDROOT
BRANCH   1   7
HETATM    7  C1  UNL     1      -0.936  38.304  -9.424  1.00  0.00     0.262 C 
BRANCH   7   8
HETATM    8  N1  UNL     1       0.257  38.533 -10.198  1.00  0.00    -0.077 N 
ATOM      9  H13 UNL     1       0.868  37.717 -10.226  1.00  0.00     0.274 HD
ATOM     10  H12 UNL     1       0.067  38.600 -11.198  1.00  0.00     0.274 HD
ATOM     11  H11 UNL     1       0.727  39.361  -9.832  1.00  0.00     0.274 HD
ENDBRANCH   7   8
ENDBRANCH   1   7
TORSDOF 2
ENDMDL
MODEL 3
REMARK VINA RESULT: -3.439451141      1.214      2.759
REMARK  2 active torsions:
REMARK  status: ('A' for Active; 'I' for Inactive)
REMARK    1  A    between atoms: N1_1  and  C1_5 
REMARK    2  A    between atoms: C1_5  and  C2_6 
ROOT
HETATM    1  C2  UNL     1       2.406  32.534 -11.317  1.00  0.00     0.212 C 
HETATM    2  C3  UNL     1       3.454  32.932 -12.329  1.00  0.00     0.062 C 
HETATM    3  C4  UNL     1       4.247  31.884 -11.532  1.00  0.00     0.235 C 
HETATM    4  N2  UNL     1       3.504  32.409 -10.370  1.00  0.00    -0.069 N 
ATOM      5  H21 UNL     1       3.418  31.893  -9.495  1.00  0.00     0.277 HD
ATOM      6  H22 UNL     1       3.840  33.193  -9.812  1.00  0.00     0.277 HD
ENDROOT
BRANCH   1   7
HETATM    7  C1  UNL     1       1.387  33.579 -10.983  1.00  0.00     0.262 C 
BRANCH   7   8
HETATM    8  N1  UNL     1       1.874  34.856 -11.439  1.00  0.00    -0.077 N 
ATOM      9  H13 UNL     1       1.894  35.555 -10.697  1.00  0.00     0.274 HD
ATOM     10  H12 UNL     1       2.873  34.843 -11.644  1.00  0.00     0.274 HD
ATOM     11  H11 UNL     1       1.315  35.150 -12.239  1.00  0.00     0.274 HD
ENDBRANCH   7   8
ENDBRANCH   1   7
TORSDOF 2
ENDMDL
MODEL 4
REMARK VINA RESULT: -3.411638521      2.933      3.463
REMARK  2 active torsions:
REMARK  status: ('A' for Active; 'I' for Inactive)
REMARK    1  A    between atoms: N1_1  and  C1_5 
REMARK    2  A    between atoms: C1_5  and  C2_6 
ROOT
HETATM    1  C2  UNL     1       5.450  32.838 -11.689  1.00  0.00     0.212 C 
HETATM    2  C3  UNL     1       5.428  34.257 -12.206  1.00  0.00     0.062 C 
HETATM    3  C4  UNL     1       6.761  34.279 -11.442  1.00  0.00     0.235 C 
HETATM    4  N2  UNL     1       6.072  33.384 -10.493  1.00  0.00    -0.069 N 
ATOM      5  H21 UNL     1       6.575  32.804  -9.822  1.00  0.00     0.277 HD
ATOM      6  H22 UNL     1       5.531  33.735  -9.702  1.00  0.00     0.277 HD
ENDROOT
BRANCH   1   7
HETATM    7  C1  UNL     1       4.114  32.196 -11.480  1.00  0.00     0.262 C 
BRANCH   7   8
HETATM    8  N1  UNL     1       3.817  32.204 -10.071  1.00  0.00    -0.077 N 
ATOM      9  H13 UNL     1       4.166  31.374  -9.592  1.00  0.00     0.274 HD
ATOM     10  H12 UNL     1       4.362  32.899  -9.560  1.00  0.00     0.274 HD
ATOM     11  H11 UNL     1       2.812  32.331  -9.951  1.00  0.00     0.274 HD
ENDBRANCH   7   8
ENDBRANCH   1   7
TORSDOF 2
ENDMDL
MODEL 5
REMARK VINA RESULT: -3.398915841      1.757      2.658
REMARK  2 active torsions:
REMARK  status: ('A' for Active; 'I' for Inactive)
REMARK    1  A    between atoms: N1_1  and  C1_5 
REMARK    2  A    between atoms: C1_5  and  C2_6 
ROOT
HETATM    1  C2  UNL     1       3.822  32.065 -10.968  1.00  0.00     0.212 C 
HETATM    2  C3  UNL     1       3.842  33.120 -12.048  1.00  0.00     0.062 C 
HETATM    3  C4  UNL     1       5.352  32.963 -11.811  1.00  0.00     0.235 C 
HETATM    4  N2  UNL     1       4.968  32.760 -10.401  1.00  0.00    -0.069 N 
ATOM      5  H21 UNL     1       5.591  32.327  -9.719  1.00  0.00     0.277 HD
ATOM      6  H22 UNL     1       4.871  33.533  -9.741  1.00  0.00     0.277 HD
ENDROOT
BRANCH   1   7
HETATM    7  C1  UNL     1       2.600  32.034 -10.104  1.00  0.00     0.262 C 
BRANCH   7   8
HETATM    8  N1  UNL     1       1.749  33.136 -10.473  1.00  0.00    -0.077 N 
ATOM      9  H13 UNL     1       1.208  33.494  -9.686  1.00  0.00     0.274 HD
ATOM     10  H12 UNL     1       2.276  33.985 -10.677  1.00  0.00     0.274 HD
ATOM     11  H11 UNL     1       1.160  32.845 -11.253  1.00  0.00     0.274 HD
ENDBRANCH   7   8
ENDBRANCH   1   7
TORSDOF 2
ENDMDL
