MODEL 1
REMARK VINA RESULT: -3.719428029      0.000      0.000
REMARK  2 active torsions:
REMARK  status: ('A' for Active; 'I' for Inactive)
REMARK    1  A    between atoms: N1_1  and  C1_5 
REMARK    2  A    between atoms: C1_5  and  C2_6 
ROOT
HETATM    1  C2  UNL     1       2.284  32.755 -11.523  1.00  0.00     0.087 A 
HETATM    2  C3  UNL     1       1.375  33.802 -11.030  1.00  0.00     0.071 A 
HETATM    3  N2  UNL     1       2.017  34.742 -11.542  1.00  0.00    -0.381 N 
ATOM      4  H2  UNL     1       1.881  35.753 -11.553  1.00  0.00     0.164 HD
HETATM    5  C4  UNL     1       2.996  33.898 -12.100  1.00  0.00     0.071 A 
ENDROOT
BRANCH   1   6
HETATM    6  C1  UNL     1       2.933  32.056 -10.347  1.00  0.00     0.244 C 
BRANCH   6   7
HETATM    7  N1  UNL     1       4.305  32.401 -10.162  1.00  0.00    -0.078 N 
ATOM      8  H13 UNL     1       4.462  33.383 -10.385  1.00  0.00     0.274 HD
ATOM      9  H12 UNL     1       4.544  32.411  -9.170  1.00  0.00     0.274 HD
ATOM     10  H11 UNL     1       4.950  31.805 -10.681  1.00  0.00     0.274 HD
ENDBRANCH   6   7
ENDBRANCH   1   6
TORSDOF 2
ENDMDL
MODEL 2
REMARK VINA RESULT: -3.712235243      0.870      2.879
REMARK  2 active torsions:
REMARK  status: ('A' for Active; 'I' for Inactive)
REMARK    1  A    between atoms: N1_1  and  C1_5 
REMARK    2  A    between atoms: C1_5  and  C2_6 
ROOT
HETATM    1  C2  UNL     1       2.943  32.598 -11.830  1.00  0.00     0.087 A 
HETATM    2  C3  UNL     1       4.322  32.440 -11.341  1.00  0.00     0.071 A 
HETATM    3  N2  UNL     1       3.984  32.187 -10.167  1.00  0.00    -0.381 N 
ATOM      4  H2  UNL     1       4.512  31.977  -9.320  1.00  0.00     0.164 HD
HETATM    5  C4  UNL     1       2.606  32.296 -10.436  1.00  0.00     0.071 A 
ENDROOT
BRANCH   1   6
HETATM    6  C1  UNL     1       2.735  34.022 -12.301  1.00  0.00     0.244 C 
BRANCH   6   7
HETATM    7  N1  UNL     1       1.922  34.802 -11.425  1.00  0.00    -0.078 N 
ATOM      8  H13 UNL     1       1.743  35.723 -11.825  1.00  0.00     0.274 HD
ATOM      9  H12 UNL     1       0.968  34.439 -11.400  1.00  0.00     0.274 HD
ATOM     10  H11 UNL     1       2.301  34.885 -10.482  1.00  0.00     0.274 HD
ENDBRANCH   6   7
ENDBRANCH   1   6
TORSDOF 2
ENDMDL
MODEL 3
REMARK VINA RESULT: -3.452136807      1.248      2.868
REMARK  2 active torsions:
REMARK  status: ('A' for Active; 'I' for Inactive)
REMARK    1  A    between atoms: N1_1  and  C1_5 
REMARK    2  A    between atoms: C1_5  and  C2_6 
ROOT
HETATM    1  C2  UNL     1       2.425  32.521 -11.611  1.00  0.00     0.087 A 
HETATM    2  C3  UNL     1       3.662  31.803 -11.952  1.00  0.00     0.071 A 
HETATM    3  N2  UNL     1       3.910  31.466 -10.776  1.00  0.00    -0.381 N 
ATOM      4  H2  UNL     1       4.666  30.928 -10.351  1.00  0.00     0.164 HD
HETATM    5  C4  UNL     1       2.767  32.097 -10.251  1.00  0.00     0.071 A 
ENDROOT
BRANCH   1   6
HETATM    6  C1  UNL     1       2.585  33.990 -11.941  1.00  0.00     0.244 C 
BRANCH   6   7
HETATM    7  N1  UNL     1       3.642  34.258 -12.862  1.00  0.00    -0.078 N 
ATOM      8  H13 UNL     1       3.687  33.535 -13.579  1.00  0.00     0.274 HD
ATOM      9  H12 UNL     1       3.416  35.063 -13.446  1.00  0.00     0.274 HD
ATOM     10  H11 UNL     1       4.552  34.381 -12.416  1.00  0.00     0.274 HD
ENDBRANCH   6   7
ENDBRANCH   1   6
TORSDOF 2
ENDMDL
MODEL 4
REMARK VINA RESULT: -3.398941622      7.000      7.811
REMARK  2 active torsions:
REMARK  status: ('A' for Active; 'I' for Inactive)
REMARK    1  A    between atoms: N1_1  and  C1_5 
REMARK    2  A    between atoms: C1_5  and  C2_6 
ROOT
HETATM    1  C2  UNL     1      -0.802  39.529 -10.097  1.00  0.00     0.087 A 
HETATM    2  C3  UNL     1      -2.049  39.923 -10.769  1.00  0.00     0.071 A 
HETATM    3  N2  UNL     1      -1.996  41.111 -10.391  1.00  0.00    -0.381 N 
ATOM      4  H2  UNL     1      -2.603  41.917 -10.541  1.00  0.00     0.164 HD
HETATM    5  C4  UNL     1      -0.792  40.934  -9.683  1.00  0.00     0.071 A 
ENDROOT
BRANCH   1   6
HETATM    6  C1  UNL     1      -1.106  38.494  -9.034  1.00  0.00     0.244 C 
BRANCH   6   7
HETATM    7  N1  UNL     1      -2.268  37.714  -9.310  1.00  0.00    -0.078 N 
ATOM      8  H13 UNL     1      -3.112  38.214  -9.033  1.00  0.00     0.274 HD
ATOM      9  H12 UNL     1      -2.430  37.651 -10.316  1.00  0.00     0.274 HD
ATOM     10  H11 UNL     1      -2.246  36.784  -8.890  1.00  0.00     0.274 HD
ENDBRANCH   6   7
ENDBRANCH   1   6
TORSDOF 2
ENDMDL
MODEL 5
REMARK VINA RESULT: -3.363072028      1.496      2.022
REMARK  2 active torsions:
REMARK  status: ('A' for Active; 'I' for Inactive)
REMARK    1  A    between atoms: N1_1  and  C1_5 
REMARK    2  A    between atoms: C1_5  and  C2_6 
ROOT
HETATM    1  C2  UNL     1       3.556  32.255 -11.666  1.00  0.00     0.087 A 
HETATM    2  C3  UNL     1       3.176  31.952 -10.278  1.00  0.00     0.071 A 
HETATM    3  N2  UNL     1       2.175  32.699 -10.283  1.00  0.00    -0.381 N 
ATOM      4  H2  UNL     1       1.472  32.925  -9.579  1.00  0.00     0.164 HD
HETATM    5  C4  UNL     1       2.371  33.115 -11.613  1.00  0.00     0.071 A 
ENDROOT
BRANCH   1   6
HETATM    6  C1  UNL     1       4.908  32.937 -11.683  1.00  0.00     0.244 C 
BRANCH   6   7
HETATM    7  N1  UNL     1       5.556  32.955 -10.412  1.00  0.00    -0.078 N 
ATOM      8  H13 UNL     1       6.515  32.619 -10.492  1.00  0.00     0.274 HD
ATOM      9  H12 UNL     1       5.736  33.914 -10.112  1.00  0.00     0.274 HD
ATOM     10  H11 UNL     1       5.053  32.440  -9.689  1.00  0.00     0.274 HD
ENDBRANCH   6   7
ENDBRANCH   1   6
TORSDOF 2
ENDMDL
