MODEL 1
REMARK VINA RESULT: -6.311243776      0.000      0.000
REMARK  9 active torsions:
REMARK  status: ('A' for Active; 'I' for Inactive)
REMARK    1  A    between atoms: N1_1  and  C1_5 
REMARK    2  A    between atoms: C1_5  and  C2_6 
REMARK    3  A    between atoms: C2_6  and  C3_7 
REMARK       I    between atoms: C3_7  and  N2_9 
REMARK    4  A    between atoms: C5_11  and  O2_12 
REMARK    5  A    between atoms: C6_14  and  O3_15 
REMARK    6  A    between atoms: C7_17  and  O4_18 
REMARK    7  A    between atoms: O4_18  and  N3_19 
REMARK    8  A    between atoms: N3_19  and  C8_21 
REMARK    9  A    between atoms: C9_26  and  O5_27 
ROOT
HETATM    1  C3  UNL     1       4.921  76.688  17.181  1.00  0.00     0.238 C 
HETATM    2  O1  UNL     1       4.943  77.569  16.252  1.00  0.00    -0.272 OA
HETATM    3  N2  UNL     1       3.701  76.365  17.839  1.00  0.00    -0.246 N 
HETATM    4  C4  UNL     1       2.554  77.087  17.383  1.00  0.00     0.183 C 
HETATM    5  C5  UNL     1       1.351  76.215  17.125  1.00  0.00     0.170 C 
HETATM    6  C6  UNL     1       0.794  75.603  18.389  1.00  0.00     0.197 C 
HETATM    7  C7  UNL     1       1.720  74.560  18.964  1.00  0.00     0.293 C 
HETATM    8  N7  UNL     1       2.779  75.259  19.660  1.00  0.00    -0.088 NA
HETATM    9  N8  UNL     1       3.862  75.390  18.820  1.00  0.00    -0.024 NA
ENDROOT
BRANCH   7  10
HETATM   10  O4  UNL     1       0.981  73.704  19.782  1.00  0.00    -0.252 OA
BRANCH  10  11
HETATM   11  N3  UNL     1      -0.258  73.261  19.405  1.00  0.00    -0.243 N 
ATOM     12  H3  UNL     1      -0.412  72.812  18.502  1.00  0.00     0.196 HD
BRANCH  11  13
HETATM   13  C8  UNL     1      -1.239  73.440  20.258  1.00  0.00     0.209 A 
HETATM   14  N4  UNL     1      -1.661  74.654  20.598  1.00  0.00    -0.277 N 
HETATM   15  N5  UNL     1      -2.648  74.818  21.457  1.00  0.00    -0.263 N 
ATOM     16  H4  UNL     1      -1.213  75.472  20.187  1.00  0.00     0.189 HD
HETATM   17  C9  UNL     1      -3.287  73.794  22.039  1.00  0.00     0.239 A 
ATOM     18  H5  UNL     1      -2.938  75.768  21.689  1.00  0.00     0.190 HD
HETATM   19  N6  UNL     1      -2.866  72.552  21.701  1.00  0.00    -0.285 N 
HETATM   20  C10 UNL     1      -1.866  72.341  20.832  1.00  0.00     0.295 A 
ATOM     21  H6  UNL     1      -3.328  71.747  22.122  1.00  0.00     0.172 HD
HETATM   22  O6  UNL     1      -1.492  71.186  20.533  1.00  0.00    -0.264 OA
BRANCH  17  23
HETATM   23  O5  UNL     1      -4.305  74.047  22.922  1.00  0.00    -0.331 OA
ATOM     24  H5  UNL     1      -4.136  74.572  23.695  1.00  0.00     0.221 HD
ENDBRANCH  17  23
ENDBRANCH  11  13
ENDBRANCH  10  11
ENDBRANCH   7  10
BRANCH   6  25
HETATM   25  O3  UNL     1       0.565  76.601  19.305  1.00  0.00    -0.389 OA
ATOM     26  H3  UNL     1      -0.304  76.957  19.163  1.00  0.00     0.210 HD
ENDBRANCH   6  25
BRANCH   5  27
HETATM   27  O2  UNL     1       1.606  75.261  16.148  1.00  0.00    -0.391 OA
ATOM     28  H2  UNL     1       2.179  75.597  15.469  1.00  0.00     0.210 HD
ENDBRANCH   5  27
BRANCH   1  29
HETATM   29  C2  UNL     1       6.207  76.032  17.533  1.00  0.00     0.131 C 
BRANCH  29  30
HETATM   30  C1  UNL     1       7.338  76.606  16.731  1.00  0.00     0.239 C 
BRANCH  30  31
HETATM   31  N1  UNL     1       7.709  77.874  17.358  1.00  0.00    -0.079 N 
ATOM     32  H13 UNL     1       7.046  78.625  17.165  1.00  0.00     0.274 HD
ATOM     33  H12 UNL     1       7.603  77.865  18.373  1.00  0.00     0.274 HD
ATOM     34  H11 UNL     1       8.659  78.090  17.057  1.00  0.00     0.274 HD
ENDBRANCH  30  31
ENDBRANCH  29  30
ENDBRANCH   1  29
TORSDOF 9
ENDMDL
MODEL 2
REMARK VINA RESULT: -6.154606501      0.989      1.015
REMARK  9 active torsions:
REMARK  status: ('A' for Active; 'I' for Inactive)
REMARK    1  A    between atoms: N1_1  and  C1_5 
REMARK    2  A    between atoms: C1_5  and  C2_6 
REMARK    3  A    between atoms: C2_6  and  C3_7 
REMARK       I    between atoms: C3_7  and  N2_9 
REMARK    4  A    between atoms: C5_11  and  O2_12 
REMARK    5  A    between atoms: C6_14  and  O3_15 
REMARK    6  A    between atoms: C7_17  and  O4_18 
REMARK    7  A    between atoms: O4_18  and  N3_19 
REMARK    8  A    between atoms: N3_19  and  C8_21 
REMARK    9  A    between atoms: C9_26  and  O5_27 
ROOT
HETATM    1  C3  UNL     1       4.664  78.001  17.194  1.00  0.00     0.238 C 
HETATM    2  O1  UNL     1       4.666  78.694  16.116  1.00  0.00    -0.272 OA
HETATM    3  N2  UNL     1       3.481  77.333  17.619  1.00  0.00    -0.246 N 
HETATM    4  C4  UNL     1       2.347  77.502  16.765  1.00  0.00     0.183 C 
HETATM    5  C5  UNL     1       1.625  76.215  16.451  1.00  0.00     0.170 C 
HETATM    6  C6  UNL     1       0.958  75.612  17.665  1.00  0.00     0.197 C 
HETATM    7  C7  UNL     1       1.965  75.080  18.655  1.00  0.00     0.293 C 
HETATM    8  N7  UNL     1       2.486  76.212  19.391  1.00  0.00    -0.088 NA
HETATM    9  N8  UNL     1       3.660  76.628  18.807  1.00  0.00    -0.024 NA
ENDROOT
BRANCH   7  10
HETATM   10  O4  UNL     1       1.343  74.125  19.460  1.00  0.00    -0.252 OA
BRANCH  10  11
HETATM   11  N3  UNL     1       0.159  73.549  19.088  1.00  0.00    -0.243 N 
ATOM     12  H3  UNL     1       0.050  73.092  18.182  1.00  0.00     0.196 HD
BRANCH  11  13
HETATM   13  C8  UNL     1      -0.830  73.611  19.948  1.00  0.00     0.209 A 
HETATM   14  N4  UNL     1      -1.314  74.771  20.380  1.00  0.00    -0.277 N 
HETATM   15  N5  UNL     1      -2.307  74.818  21.245  1.00  0.00    -0.263 N 
ATOM     16  H4  UNL     1      -0.909  75.641  20.035  1.00  0.00     0.189 HD
HETATM   17  C9  UNL     1      -2.893  73.721  21.743  1.00  0.00     0.239 A 
ATOM     18  H5  UNL     1      -2.646  75.731  21.548  1.00  0.00     0.190 HD
HETATM   19  N6  UNL     1      -2.410  72.532  21.312  1.00  0.00    -0.285 N 
HETATM   20  C10 UNL     1      -1.400  72.440  20.433  1.00  0.00     0.295 A 
ATOM     21  H6  UNL     1      -2.829  71.674  21.668  1.00  0.00     0.172 HD
HETATM   22  O6  UNL     1      -0.967  71.332  20.047  1.00  0.00    -0.264 OA
BRANCH  17  23
HETATM   23  O5  UNL     1      -3.923  73.852  22.640  1.00  0.00    -0.331 OA
ATOM     24  H5  UNL     1      -3.735  73.861  23.571  1.00  0.00     0.221 HD
ENDBRANCH  17  23
ENDBRANCH  11  13
ENDBRANCH  10  11
ENDBRANCH   7  10
BRANCH   6  25
HETATM   25  O3  UNL     1       0.159  76.561  18.254  1.00  0.00    -0.389 OA
ATOM     26  H3  UNL     1       0.650  76.995  18.942  1.00  0.00     0.210 HD
ENDBRANCH   6  25
BRANCH   5  27
HETATM   27  O2  UNL     1       2.451  75.308  15.801  1.00  0.00    -0.391 OA
ATOM     28  H2  UNL     1       2.131  74.417  15.884  1.00  0.00     0.210 HD
ENDBRANCH   5  27
BRANCH   1  29
HETATM   29  C2  UNL     1       5.932  77.931  17.964  1.00  0.00     0.131 C 
BRANCH  29  30
HETATM   30  C1  UNL     1       6.950  77.093  17.246  1.00  0.00     0.239 C 
BRANCH  30  31
HETATM   31  N1  UNL     1       6.607  75.694  17.498  1.00  0.00    -0.079 N 
ATOM     32  H13 UNL     1       6.804  75.400  18.454  1.00  0.00     0.274 HD
ATOM     33  H12 UNL     1       5.602  75.523  17.512  1.00  0.00     0.274 HD
ATOM     34  H11 UNL     1       7.097  75.136  16.798  1.00  0.00     0.274 HD
ENDBRANCH  30  31
ENDBRANCH  29  30
ENDBRANCH   1  29
TORSDOF 9
ENDMDL
MODEL 3
REMARK VINA RESULT: -5.938849330      2.299      2.867
REMARK  9 active torsions:
REMARK  status: ('A' for Active; 'I' for Inactive)
REMARK    1  A    between atoms: N1_1  and  C1_5 
REMARK    2  A    between atoms: C1_5  and  C2_6 
REMARK    3  A    between atoms: C2_6  and  C3_7 
REMARK       I    between atoms: C3_7  and  N2_9 
REMARK    4  A    between atoms: C5_11  and  O2_12 
REMARK    5  A    between atoms: C6_14  and  O3_15 
REMARK    6  A    between atoms: C7_17  and  O4_18 
REMARK    7  A    between atoms: O4_18  and  N3_19 
REMARK    8  A    between atoms: N3_19  and  C8_21 
REMARK    9  A    between atoms: C9_26  and  O5_27 
ROOT
HETATM    1  C3  UNL     1       4.880  78.888  18.962  1.00  0.00     0.238 C 
HETATM    2  O1  UNL     1       5.701  79.357  18.098  1.00  0.00    -0.272 OA
HETATM    3  N2  UNL     1       3.988  77.836  18.611  1.00  0.00    -0.246 N 
HETATM    4  C4  UNL     1       4.093  77.374  17.263  1.00  0.00     0.183 C 
HETATM    5  C5  UNL     1       4.143  75.871  17.137  1.00  0.00     0.170 C 
HETATM    6  C6  UNL     1       2.848  75.210  17.546  1.00  0.00     0.197 C 
HETATM    7  C7  UNL     1       2.607  75.313  19.031  1.00  0.00     0.293 C 
HETATM    8  N7  UNL     1       2.115  76.647  19.298  1.00  0.00    -0.088 NA
HETATM    9  N8  UNL     1       3.169  77.451  19.670  1.00  0.00    -0.024 NA
ENDROOT
BRANCH   7  10
HETATM   10  O4  UNL     1       1.724  74.303  19.415  1.00  0.00    -0.252 OA
BRANCH  10  11
HETATM   11  N3  UNL     1       0.457  74.238  18.899  1.00  0.00    -0.243 N 
ATOM     12  H3  UNL     1       0.245  74.579  17.962  1.00  0.00     0.196 HD
BRANCH  11  13
HETATM   13  C8  UNL     1      -0.471  73.715  19.666  1.00  0.00     0.209 A 
HETATM   14  N4  UNL     1      -0.628  72.400  19.782  1.00  0.00    -0.277 N 
HETATM   15  N5  UNL     1      -1.566  71.890  20.555  1.00  0.00    -0.263 N 
ATOM     16  H4  UNL     1      -0.011  71.775  19.264  1.00  0.00     0.189 HD
HETATM   17  C9  UNL     1      -2.414  72.643  21.268  1.00  0.00     0.239 A 
ATOM     18  H5  UNL     1      -1.649  70.875  20.614  1.00  0.00     0.190 HD
HETATM   19  N6  UNL     1      -2.265  73.985  21.158  1.00  0.00    -0.285 N 
HETATM   20  C10 UNL     1      -1.325  74.545  20.383  1.00  0.00     0.295 A 
ATOM     21  H6  UNL     1      -2.892  74.592  21.685  1.00  0.00     0.172 HD
HETATM   22  O6  UNL     1      -1.204  75.787  20.294  1.00  0.00    -0.264 OA
BRANCH  17  23
HETATM   23  O5  UNL     1      -3.363  72.037  22.051  1.00  0.00    -0.331 OA
ATOM     24  H5  UNL     1      -4.030  72.566  22.472  1.00  0.00     0.221 HD
ENDBRANCH  17  23
ENDBRANCH  11  13
ENDBRANCH  10  11
ENDBRANCH   7  10
BRANCH   6  25
HETATM   25  O3  UNL     1       1.813  75.786  16.849  1.00  0.00    -0.389 OA
ATOM     26  H3  UNL     1       1.154  76.085  17.465  1.00  0.00     0.210 HD
ENDBRANCH   6  25
BRANCH   5  27
HETATM   27  O2  UNL     1       5.238  75.335  17.802  1.00  0.00    -0.391 OA
ATOM     28  H2  UNL     1       5.021  74.518  18.236  1.00  0.00     0.210 HD
ENDBRANCH   5  27
BRANCH   1  29
HETATM   29  C2  UNL     1       4.903  79.485  20.322  1.00  0.00     0.131 C 
BRANCH  29  30
HETATM   30  C1  UNL     1       6.292  79.909  20.698  1.00  0.00     0.239 C 
BRANCH  30  31
HETATM   31  N1  UNL     1       6.430  81.314  20.313  1.00  0.00    -0.079 N 
ATOM     32  H13 UNL     1       5.945  81.951  20.945  1.00  0.00     0.274 HD
ATOM     33  H12 UNL     1       7.372  81.678  20.458  1.00  0.00     0.274 HD
ATOM     34  H11 UNL     1       6.116  81.391  19.346  1.00  0.00     0.274 HD
ENDBRANCH  30  31
ENDBRANCH  29  30
ENDBRANCH   1  29
TORSDOF 9
ENDMDL
MODEL 4
REMARK VINA RESULT: -5.849697248      1.994      8.085
REMARK  9 active torsions:
REMARK  status: ('A' for Active; 'I' for Inactive)
REMARK    1  A    between atoms: N1_1  and  C1_5 
REMARK    2  A    between atoms: C1_5  and  C2_6 
REMARK    3  A    between atoms: C2_6  and  C3_7 
REMARK       I    between atoms: C3_7  and  N2_9 
REMARK    4  A    between atoms: C5_11  and  O2_12 
REMARK    5  A    between atoms: C6_14  and  O3_15 
REMARK    6  A    between atoms: C7_17  and  O4_18 
REMARK    7  A    between atoms: O4_18  and  N3_19 
REMARK    8  A    between atoms: N3_19  and  C8_21 
REMARK    9  A    between atoms: C9_26  and  O5_27 
ROOT
HETATM    1  C3  UNL     1      -2.091  75.231  21.701  1.00  0.00     0.238 C 
HETATM    2  O1  UNL     1      -3.072  74.475  21.374  1.00  0.00    -0.272 OA
HETATM    3  N2  UNL     1      -0.842  75.124  21.028  1.00  0.00    -0.246 N 
HETATM    4  C4  UNL     1      -0.790  74.135  19.997  1.00  0.00     0.183 C 
HETATM    5  C5  UNL     1      -0.176  74.630  18.710  1.00  0.00     0.170 C 
HETATM    6  C6  UNL     1       1.295  74.944  18.852  1.00  0.00     0.197 C 
HETATM    7  C7  UNL     1       1.530  76.164  19.708  1.00  0.00     0.293 C 
HETATM    8  N7  UNL     1       1.391  75.755  21.089  1.00  0.00    -0.088 NA
HETATM    9  N8  UNL     1       0.108  76.020  21.512  1.00  0.00    -0.024 NA
ENDROOT
BRANCH   7  10
HETATM   10  O4  UNL     1       2.784  76.693  19.403  1.00  0.00    -0.252 OA
BRANCH  10  11
HETATM   11  N3  UNL     1       3.578  76.123  18.445  1.00  0.00    -0.243 N 
ATOM     12  H3  UNL     1       3.396  75.184  18.091  1.00  0.00     0.196 HD
BRANCH  11  13
HETATM   13  C8  UNL     1       4.585  76.839  18.002  1.00  0.00     0.209 A 
HETATM   14  N4  UNL     1       4.565  78.168  18.025  1.00  0.00    -0.277 N 
HETATM   15  N5  UNL     1       5.583  78.875  17.576  1.00  0.00    -0.263 N 
ATOM     16  H4  UNL     1       3.747  78.649  18.397  1.00  0.00     0.189 HD
HETATM   17  C9  UNL     1       6.693  78.317  17.073  1.00  0.00     0.239 A 
ATOM     18  H5  UNL     1       5.524  79.892  17.613  1.00  0.00     0.190 HD
HETATM   19  N6  UNL     1       6.726  76.964  17.044  1.00  0.00    -0.285 N 
HETATM   20  C10 UNL     1       5.712  76.208  17.490  1.00  0.00     0.295 A 
ATOM     21  H6  UNL     1       7.554  76.501  16.668  1.00  0.00     0.172 HD
HETATM   22  O6  UNL     1       5.761  74.958  17.454  1.00  0.00    -0.264 OA
BRANCH  17  23
HETATM   23  O5  UNL     1       7.710  79.120  16.626  1.00  0.00    -0.331 OA
ATOM     24  H5  UNL     1       8.574  78.749  16.487  1.00  0.00     0.221 HD
ENDBRANCH  17  23
ENDBRANCH  11  13
ENDBRANCH  10  11
ENDBRANCH   7  10
BRANCH   6  25
HETATM   25  O3  UNL     1       1.936  73.852  19.384  1.00  0.00    -0.389 OA
ATOM     26  H3  UNL     1       2.868  73.929  19.217  1.00  0.00     0.210 HD
ENDBRANCH   6  25
BRANCH   5  27
HETATM   27  O2  UNL     1      -0.891  75.693  18.174  1.00  0.00    -0.391 OA
ATOM     28  H2  UNL     1      -1.469  75.411  17.475  1.00  0.00     0.210 HD
ENDBRANCH   5  27
BRANCH   1  29
HETATM   29  C2  UNL     1      -2.317  76.207  22.798  1.00  0.00     0.131 C 
BRANCH  29  30
HETATM   30  C1  UNL     1      -2.377  75.514  24.128  1.00  0.00     0.239 C 
BRANCH  30  31
HETATM   31  N1  UNL     1      -1.314  74.510  24.137  1.00  0.00    -0.079 N 
ATOM     32  H13 UNL     1      -0.886  74.371  23.221  1.00  0.00     0.274 HD
ATOM     33  H12 UNL     1      -0.474  74.819  24.628  1.00  0.00     0.274 HD
ATOM     34  H11 UNL     1      -1.712  73.655  24.526  1.00  0.00     0.274 HD
ENDBRANCH  30  31
ENDBRANCH  29  30
ENDBRANCH   1  29
TORSDOF 9
ENDMDL
MODEL 5
REMARK VINA RESULT: -5.828506882      3.982      7.144
REMARK  9 active torsions:
REMARK  status: ('A' for Active; 'I' for Inactive)
REMARK    1  A    between atoms: N1_1  and  C1_5 
REMARK    2  A    between atoms: C1_5  and  C2_6 
REMARK    3  A    between atoms: C2_6  and  C3_7 
REMARK       I    between atoms: C3_7  and  N2_9 
REMARK    4  A    between atoms: C5_11  and  O2_12 
REMARK    5  A    between atoms: C6_14  and  O3_15 
REMARK    6  A    between atoms: C7_17  and  O4_18 
REMARK    7  A    between atoms: O4_18  and  N3_19 
REMARK    8  A    between atoms: N3_19  and  C8_21 
REMARK    9  A    between atoms: C9_26  and  O5_27 
ROOT
HETATM    1  C3  UNL     1       0.375  75.689  20.133  1.00  0.00     0.238 C 
HETATM    2  O1  UNL     1       0.963  75.901  21.250  1.00  0.00    -0.272 OA
HETATM    3  N2  UNL     1       1.035  75.974  18.905  1.00  0.00    -0.246 N 
HETATM    4  C4  UNL     1       2.360  76.496  19.033  1.00  0.00     0.183 C 
HETATM    5  C5  UNL     1       3.368  75.826  18.133  1.00  0.00     0.170 C 
HETATM    6  C6  UNL     1       3.114  76.100  16.670  1.00  0.00     0.197 C 
HETATM    7  C7  UNL     1       1.865  75.413  16.176  1.00  0.00     0.293 C 
HETATM    8  N7  UNL     1       0.735  76.204  16.614  1.00  0.00    -0.088 NA
HETATM    9  N8  UNL     1       0.250  75.683  17.792  1.00  0.00    -0.024 NA
ENDROOT
BRANCH   7  10
HETATM   10  O4  UNL     1       1.947  75.272  14.790  1.00  0.00    -0.252 OA
BRANCH  10  11
HETATM   11  N3  UNL     1       1.336  76.165  13.952  1.00  0.00    -0.243 N 
ATOM     12  H3  UNL     1       1.666  77.126  13.863  1.00  0.00     0.196 HD
BRANCH  11  13
HETATM   13  C8  UNL     1       0.306  75.728  13.266  1.00  0.00     0.209 A 
HETATM   14  N4  UNL     1      -0.917  75.686  13.786  1.00  0.00    -0.277 N 
HETATM   15  N5  UNL     1      -1.943  75.244  13.085  1.00  0.00    -0.263 N 
ATOM     16  H4  UNL     1      -1.064  76.003  14.744  1.00  0.00     0.189 HD
HETATM   17  C9  UNL     1      -1.831  74.813  11.822  1.00  0.00     0.239 A 
ATOM     18  H5  UNL     1      -2.863  75.230  13.525  1.00  0.00     0.190 HD
HETATM   19  N6  UNL     1      -0.591  74.849  11.280  1.00  0.00    -0.285 N 
HETATM   20  C10 UNL     1       0.479  75.291  11.958  1.00  0.00     0.295 A 
ATOM     21  H6  UNL     1      -0.465  74.529  10.320  1.00  0.00     0.172 HD
HETATM   22  O6  UNL     1       1.618  75.316  11.441  1.00  0.00    -0.264 OA
BRANCH  17  23
HETATM   23  O5  UNL     1      -2.946  74.368  11.158  1.00  0.00    -0.331 OA
ATOM     24  H5  UNL     1      -2.953  74.357  10.209  1.00  0.00     0.221 HD
ENDBRANCH  17  23
ENDBRANCH  11  13
ENDBRANCH  10  11
ENDBRANCH   7  10
BRANCH   6  25
HETATM   25  O3  UNL     1       3.023  77.458  16.479  1.00  0.00    -0.389 OA
ATOM     26  H3  UNL     1       2.867  77.631  15.559  1.00  0.00     0.210 HD
ENDBRANCH   6  25
BRANCH   5  27
HETATM   27  O2  UNL     1       3.473  74.467  18.401  1.00  0.00    -0.391 OA
ATOM     28  H2  UNL     1       4.097  74.293  19.097  1.00  0.00     0.210 HD
ENDBRANCH   5  27
BRANCH   1  29
HETATM   29  C2  UNL     1      -1.006  75.142  20.180  1.00  0.00     0.131 C 
BRANCH  29  30
HETATM   30  C1  UNL     1      -0.997  73.701  20.599  1.00  0.00     0.239 C 
BRANCH  30  31
HETATM   31  N1  UNL     1      -0.630  72.914  19.422  1.00  0.00    -0.079 N 
ATOM     32  H13 UNL     1       0.341  73.044  19.141  1.00  0.00     0.274 HD
ATOM     33  H12 UNL     1      -0.580  71.913  19.609  1.00  0.00     0.274 HD
ATOM     34  H11 UNL     1      -1.296  73.150  18.686  1.00  0.00     0.274 HD
ENDBRANCH  30  31
ENDBRANCH  29  30
ENDBRANCH   1  29
TORSDOF 9
ENDMDL
