MODEL 1
REMARK VINA RESULT: -4.942808565      0.000      0.000
REMARK  9 active torsions:
REMARK  status: ('A' for Active; 'I' for Inactive)
REMARK    1  A    between atoms: N1_1  and  N2_4 
REMARK    2  A    between atoms: N2_4  and  C1_6 
REMARK    3  A    between atoms: N5_15  and  C4_16 
REMARK    4  A    between atoms: C5_18  and  C6_19 
REMARK    5  A    between atoms: C6_19  and  O4_20 
REMARK    6  A    between atoms: C6_19  and  C7_22 
REMARK    7  A    between atoms: C7_22  and  O5_23 
REMARK    8  A    between atoms: C9_26  and  O6_27 
REMARK    9  A    between atoms: C9_26  and  C10_29 
ROOT
HETATM    1  C4  UNL     1       2.419  76.351  16.863  1.00  0.00     0.296 C 
HETATM    2  O3  UNL     1       1.667  76.764  18.000  1.00  0.00    -0.354 OA
HETATM    3  C5  UNL     1       0.456  76.093  17.832  1.00  0.00     0.158 C 
HETATM    4  C8  UNL     1       0.289  75.767  16.384  1.00  0.00     0.088 C 
HETATM    5  C9  UNL     1       1.465  76.617  15.802  1.00  0.00     0.193 C 
ENDROOT
BRANCH   1   6
HETATM    6  N5  UNL     1       3.748  76.711  16.893  1.00  0.00    -0.100 N 
HETATM    7  C1  UNL     1       4.319  77.881  16.589  1.00  0.00     0.709 A 
HETATM    8  N3  UNL     1       5.641  78.101  16.664  1.00  0.00    -0.139 N 
HETATM    9  C2  UNL     1       6.481  77.128  17.059  1.00  0.00     0.342 A 
ATOM     10  H3  UNL     1       6.014  79.018  16.417  1.00  0.00     0.189 HD
HETATM   11  O1  UNL     1       7.710  77.371  17.117  1.00  0.00    -0.246 OA
HETATM   12  N4  UNL     1       5.951  75.953  17.370  1.00  0.00    -0.259 N 
HETATM   13  C3  UNL     1       4.630  75.728  17.296  1.00  0.00     0.347 A 
ATOM     14  H4  UNL     1       6.565  75.198  17.674  1.00  0.00     0.175 HD
HETATM   15  O2  UNL     1       4.231  74.578  17.613  1.00  0.00    -0.246 OA
BRANCH   7  16
HETATM   16  N2  UNL     1       3.577  78.825  16.215  1.00  0.00    -0.138 N 
ATOM     17  H2  UNL     1       3.003  79.288  16.921  1.00  0.00     0.205 HD
BRANCH  16  18
HETATM   18  N1  UNL     1       3.488  79.279  14.910  1.00  0.00    -0.331 N 
ATOM     19  H12 UNL     1       4.047  78.786  14.214  1.00  0.00     0.177 HD
ATOM     20  H11 UNL     1       2.908  80.063  14.611  1.00  0.00     0.177 HD
ENDBRANCH  16  18
ENDBRANCH   7  16
ENDBRANCH   1   6
BRANCH   5  21
HETATM   21  O6  UNL     1       0.846  77.870  15.777  1.00  0.00    -0.375 OA
ATOM     22  H6  UNL     1       0.141  78.006  15.155  1.00  0.00     0.211 HD
ENDBRANCH   5  21
BRANCH   5  23
HETATM   23  C10 UNL     1       1.696  76.045  14.489  1.00  0.00     0.213 C 
HETATM   24  O7  UNL     1       1.916  76.788  13.508  1.00  0.00    -0.646 OA
HETATM   25  O8  UNL     1       1.678  74.682  14.288  1.00  0.00    -0.646 OA
ENDBRANCH   5  23
BRANCH   3  26
HETATM   26  C6  UNL     1       0.440  74.904  18.740  1.00  0.00     0.170 C 
BRANCH  26  27
HETATM   27  O4  UNL     1      -0.856  74.532  19.008  1.00  0.00    -0.391 OA
ATOM     28  H4  UNL     1      -0.900  74.081  19.843  1.00  0.00     0.210 HD
ENDBRANCH  26  27
BRANCH  26  29
HETATM   29  C7  UNL     1       1.176  75.306  20.018  1.00  0.00     0.198 C 
BRANCH  29  30
HETATM   30  O5  UNL     1       2.475  74.801  19.998  1.00  0.00    -0.398 OA
ATOM     31  H5  UNL     1       3.068  75.446  19.631  1.00  0.00     0.209 HD
ENDBRANCH  29  30
ENDBRANCH  26  29
ENDBRANCH   3  26
TORSDOF 9
ENDMDL
MODEL 2
REMARK VINA RESULT: -4.933350407      1.052      1.367
REMARK  9 active torsions:
REMARK  status: ('A' for Active; 'I' for Inactive)
REMARK    1  A    between atoms: N1_1  and  N2_4 
REMARK    2  A    between atoms: N2_4  and  C1_6 
REMARK    3  A    between atoms: N5_15  and  C4_16 
REMARK    4  A    between atoms: C5_18  and  C6_19 
REMARK    5  A    between atoms: C6_19  and  O4_20 
REMARK    6  A    between atoms: C6_19  and  C7_22 
REMARK    7  A    between atoms: C7_22  and  O5_23 
REMARK    8  A    between atoms: C9_26  and  O6_27 
REMARK    9  A    between atoms: C9_26  and  C10_29 
ROOT
HETATM    1  C4  UNL     1       2.317  76.600  17.722  1.00  0.00     0.296 C 
HETATM    2  O3  UNL     1       1.725  77.234  18.853  1.00  0.00    -0.354 OA
HETATM    3  C5  UNL     1       0.444  76.685  18.881  1.00  0.00     0.158 C 
HETATM    4  C8  UNL     1       0.102  76.200  17.510  1.00  0.00     0.088 C 
HETATM    5  C9  UNL     1       1.294  76.834  16.720  1.00  0.00     0.193 C 
ENDROOT
BRANCH   1   6
HETATM    6  N5  UNL     1       3.672  76.812  17.590  1.00  0.00    -0.100 N 
HETATM    7  C1  UNL     1       4.347  77.961  17.505  1.00  0.00     0.709 A 
HETATM    8  N3  UNL     1       5.683  78.027  17.379  1.00  0.00    -0.139 N 
HETATM    9  C2  UNL     1       6.427  76.908  17.330  1.00  0.00     0.342 A 
ATOM     10  H3  UNL     1       6.139  78.937  17.318  1.00  0.00     0.189 HD
HETATM   11  O1  UNL     1       7.671  77.010  17.212  1.00  0.00    -0.246 OA
HETATM   12  N4  UNL     1       5.790  75.748  17.413  1.00  0.00    -0.259 N 
HETATM   13  C3  UNL     1       4.456  75.677  17.538  1.00  0.00     0.347 A 
ATOM     14  H4  UNL     1       6.331  74.884  17.379  1.00  0.00     0.175 HD
HETATM   15  O2  UNL     1       3.952  74.527  17.608  1.00  0.00    -0.246 OA
BRANCH   7  16
HETATM   16  N2  UNL     1       3.699  79.038  17.547  1.00  0.00    -0.138 N 
ATOM     17  H2  UNL     1       3.361  79.355  18.456  1.00  0.00     0.205 HD
BRANCH  16  18
HETATM   18  N1  UNL     1       3.412  79.821  16.441  1.00  0.00    -0.331 N 
ATOM     19  H12 UNL     1       4.077  80.561  16.218  1.00  0.00     0.177 HD
ATOM     20  H11 UNL     1       2.589  79.702  15.850  1.00  0.00     0.177 HD
ENDBRANCH  16  18
ENDBRANCH   7  16
ENDBRANCH   1   6
BRANCH   5  21
HETATM   21  O6  UNL     1       0.801  78.134  16.578  1.00  0.00    -0.375 OA
ATOM     22  H6  UNL     1      -0.086  78.242  16.256  1.00  0.00     0.211 HD
ENDBRANCH   5  21
BRANCH   5  23
HETATM   23  C10 UNL     1       1.336  76.079  15.482  1.00  0.00     0.213 C 
HETATM   24  O7  UNL     1       0.911  74.905  15.445  1.00  0.00    -0.646 OA
HETATM   25  O8  UNL     1       1.840  76.631  14.323  1.00  0.00    -0.646 OA
ENDBRANCH   5  23
BRANCH   3  26
HETATM   26  C6  UNL     1       0.400  75.630  19.940  1.00  0.00     0.170 C 
BRANCH  26  27
HETATM   27  O4  UNL     1       1.460  75.784  20.803  1.00  0.00    -0.391 OA
ATOM     28  H4  UNL     1       1.629  74.969  21.262  1.00  0.00     0.210 HD
ENDBRANCH  26  27
BRANCH  26  29
HETATM   29  C7  UNL     1       0.458  74.278  19.230  1.00  0.00     0.198 C 
BRANCH  29  30
HETATM   30  O5  UNL     1       1.666  73.644  19.511  1.00  0.00    -0.398 OA
ATOM     31  H5  UNL     1       1.880  73.031  18.817  1.00  0.00     0.209 HD
ENDBRANCH  29  30
ENDBRANCH  26  29
ENDBRANCH   3  26
TORSDOF 9
ENDMDL
MODEL 3
REMARK VINA RESULT: -4.827249132      1.451      3.513
REMARK  9 active torsions:
REMARK  status: ('A' for Active; 'I' for Inactive)
REMARK    1  A    between atoms: N1_1  and  N2_4 
REMARK    2  A    between atoms: N2_4  and  C1_6 
REMARK    3  A    between atoms: N5_15  and  C4_16 
REMARK    4  A    between atoms: C5_18  and  C6_19 
REMARK    5  A    between atoms: C6_19  and  O4_20 
REMARK    6  A    between atoms: C6_19  and  C7_22 
REMARK    7  A    between atoms: C7_22  and  O5_23 
REMARK    8  A    between atoms: C9_26  and  O6_27 
REMARK    9  A    between atoms: C9_26  and  C10_29 
ROOT
HETATM    1  C4  UNL     1       2.734  76.287  17.321  1.00  0.00     0.296 C 
HETATM    2  O3  UNL     1       2.585  75.357  16.252  1.00  0.00    -0.354 OA
HETATM    3  C5  UNL     1       1.225  75.053  16.292  1.00  0.00     0.158 C 
HETATM    4  C8  UNL     1       0.714  75.334  17.667  1.00  0.00     0.088 C 
HETATM    5  C9  UNL     1       2.078  75.564  18.395  1.00  0.00     0.193 C 
ENDROOT
BRANCH   1   6
HETATM    6  N5  UNL     1       3.960  76.913  17.370  1.00  0.00    -0.100 N 
HETATM    7  C1  UNL     1       4.247  78.218  17.356  1.00  0.00     0.709 A 
HETATM    8  N3  UNL     1       5.500  78.700  17.411  1.00  0.00    -0.139 N 
HETATM    9  C2  UNL     1       6.555  77.872  17.484  1.00  0.00     0.342 A 
ATOM     10  H3  UNL     1       5.652  79.709  17.396  1.00  0.00     0.189 HD
HETATM   11  O1  UNL     1       7.710  78.359  17.534  1.00  0.00    -0.246 OA
HETATM   12  N4  UNL     1       6.308  76.569  17.501  1.00  0.00    -0.259 N 
HETATM   13  C3  UNL     1       5.059  76.082  17.446  1.00  0.00     0.347 A 
ATOM     14  H4  UNL     1       7.091  75.917  17.557  1.00  0.00     0.175 HD
HETATM   15  O2  UNL     1       4.935  74.830  17.467  1.00  0.00    -0.246 OA
BRANCH   7  16
HETATM   16  N2  UNL     1       3.295  79.037  17.290  1.00  0.00    -0.138 N 
ATOM     17  H2  UNL     1       2.759  79.074  16.423  1.00  0.00     0.205 HD
BRANCH  16  18
HETATM   18  N1  UNL     1       2.927  79.892  18.315  1.00  0.00    -0.331 N 
ATOM     19  H12 UNL     1       3.643  80.116  19.006  1.00  0.00     0.177 HD
ATOM     20  H11 UNL     1       1.999  80.302  18.417  1.00  0.00     0.177 HD
ENDBRANCH  16  18
ENDBRANCH   7  16
ENDBRANCH   1   6
BRANCH   5  21
HETATM   21  O6  UNL     1       2.446  74.232  18.609  1.00  0.00    -0.375 OA
ATOM     22  H6  UNL     1       3.373  74.030  18.667  1.00  0.00     0.211 HD
ENDBRANCH   5  21
BRANCH   5  23
HETATM   23  C10 UNL     1       1.715  76.278  19.605  1.00  0.00     0.213 C 
HETATM   24  O7  UNL     1       1.512  75.654  20.668  1.00  0.00    -0.646 OA
HETATM   25  O8  UNL     1       1.585  77.650  19.615  1.00  0.00    -0.646 OA
ENDBRANCH   5  23
BRANCH   3  26
HETATM   26  C6  UNL     1       0.534  75.816  15.207  1.00  0.00     0.170 C 
BRANCH  26  27
HETATM   27  O4  UNL     1      -0.700  76.241  15.640  1.00  0.00    -0.391 OA
ATOM     28  H4  UNL     1      -1.075  76.849  15.013  1.00  0.00     0.210 HD
ENDBRANCH  26  27
BRANCH  26  29
HETATM   29  C7  UNL     1       0.406  74.876  14.009  1.00  0.00     0.198 C 
BRANCH  29  30
HETATM   30  O5  UNL     1       1.633  74.271  13.745  1.00  0.00    -0.398 OA
ATOM     31  H5  UNL     1       2.200  74.342  14.505  1.00  0.00     0.209 HD
ENDBRANCH  29  30
ENDBRANCH  26  29
ENDBRANCH   3  26
TORSDOF 9
ENDMDL
MODEL 4
REMARK VINA RESULT: -4.740345394      3.027      5.670
REMARK  9 active torsions:
REMARK  status: ('A' for Active; 'I' for Inactive)
REMARK    1  A    between atoms: N1_1  and  N2_4 
REMARK    2  A    between atoms: N2_4  and  C1_6 
REMARK    3  A    between atoms: N5_15  and  C4_16 
REMARK    4  A    between atoms: C5_18  and  C6_19 
REMARK    5  A    between atoms: C6_19  and  O4_20 
REMARK    6  A    between atoms: C6_19  and  C7_22 
REMARK    7  A    between atoms: C7_22  and  O5_23 
REMARK    8  A    between atoms: C9_26  and  O6_27 
REMARK    9  A    between atoms: C9_26  and  C10_29 
ROOT
HETATM    1  C4  UNL     1       0.777  75.675  17.470  1.00  0.00     0.296 C 
HETATM    2  O3  UNL     1       0.251  76.360  16.337  1.00  0.00    -0.354 OA
HETATM    3  C5  UNL     1       1.154  76.029  15.327  1.00  0.00     0.158 C 
HETATM    4  C8  UNL     1       2.456  75.652  15.956  1.00  0.00     0.088 C 
HETATM    5  C9  UNL     1       2.162  76.107  17.423  1.00  0.00     0.193 C 
ENDROOT
BRANCH   1   6
HETATM    6  N5  UNL     1      -0.052  75.664  18.570  1.00  0.00    -0.100 N 
HETATM    7  C1  UNL     1      -0.668  76.681  19.179  1.00  0.00     0.709 A 
HETATM    8  N3  UNL     1      -1.458  76.530  20.254  1.00  0.00    -0.139 N 
HETATM    9  C2  UNL     1      -1.675  75.315  20.785  1.00  0.00     0.342 A 
ATOM     10  H3  UNL     1      -1.900  77.349  20.673  1.00  0.00     0.189 HD
HETATM   11  O1  UNL     1      -2.420  75.214  21.789  1.00  0.00    -0.246 OA
HETATM   12  N4  UNL     1      -1.081  74.281  20.207  1.00  0.00    -0.259 N 
HETATM   13  C3  UNL     1      -0.289  74.426  19.133  1.00  0.00     0.347 A 
ATOM     14  H4  UNL     1      -1.229  73.347  20.589  1.00  0.00     0.175 HD
HETATM   15  O2  UNL     1       0.226  73.380  18.661  1.00  0.00    -0.246 OA
BRANCH   7  16
HETATM   16  N2  UNL     1      -0.499  77.840  18.720  1.00  0.00    -0.138 N 
ATOM     17  H2  UNL     1      -1.034  78.107  17.893  1.00  0.00     0.205 HD
BRANCH  16  18
HETATM   18  N1  UNL     1       0.364  78.777  19.263  1.00  0.00    -0.331 N 
ATOM     19  H12 UNL     1       0.612  79.570  18.671  1.00  0.00     0.177 HD
ATOM     20  H11 UNL     1       0.759  78.721  20.202  1.00  0.00     0.177 HD
ENDBRANCH  16  18
ENDBRANCH   7  16
ENDBRANCH   1   6
BRANCH   5  21
HETATM   21  O6  UNL     1       2.417  77.474  17.289  1.00  0.00    -0.375 OA
ATOM     22  H6  UNL     1       3.313  77.747  17.129  1.00  0.00     0.211 HD
ENDBRANCH   5  21
BRANCH   5  23
HETATM   23  C10 UNL     1       3.149  75.396  18.215  1.00  0.00     0.213 C 
HETATM   24  O7  UNL     1       3.118  75.458  19.462  1.00  0.00    -0.646 OA
HETATM   25  O8  UNL     1       4.137  74.641  17.620  1.00  0.00    -0.646 OA
ENDBRANCH   5  23
BRANCH   3  26
HETATM   26  C6  UNL     1       0.546  74.962  14.475  1.00  0.00     0.170 C 
BRANCH  26  27
HETATM   27  O4  UNL     1       1.527  74.303  13.771  1.00  0.00    -0.391 OA
ATOM     28  H4  UNL     1       2.003  73.715  14.346  1.00  0.00     0.210 HD
ENDBRANCH  26  27
BRANCH  26  29
HETATM   29  C7  UNL     1      -0.444  75.648  13.534  1.00  0.00     0.198 C 
BRANCH  29  30
HETATM   30  O5  UNL     1      -1.644  75.888  14.199  1.00  0.00    -0.398 OA
ATOM     31  H5  UNL     1      -2.320  76.126  13.574  1.00  0.00     0.209 HD
ENDBRANCH  29  30
ENDBRANCH  26  29
ENDBRANCH   3  26
TORSDOF 9
ENDMDL
MODEL 5
REMARK VINA RESULT: -4.726211249      5.030      7.731
REMARK  9 active torsions:
REMARK  status: ('A' for Active; 'I' for Inactive)
REMARK    1  A    between atoms: N1_1  and  N2_4 
REMARK    2  A    between atoms: N2_4  and  C1_6 
REMARK    3  A    between atoms: N5_15  and  C4_16 
REMARK    4  A    between atoms: C5_18  and  C6_19 
REMARK    5  A    between atoms: C6_19  and  O4_20 
REMARK    6  A    between atoms: C6_19  and  C7_22 
REMARK    7  A    between atoms: C7_22  and  O5_23 
REMARK    8  A    between atoms: C9_26  and  O6_27 
REMARK    9  A    between atoms: C9_26  and  C10_29 
ROOT
HETATM    1  C4  UNL     1      -0.958  75.467  20.422  1.00  0.00     0.296 C 
HETATM    2  O3  UNL     1      -1.145  75.728  19.034  1.00  0.00    -0.354 OA
HETATM    3  C5  UNL     1       0.023  76.407  18.686  1.00  0.00     0.158 C 
HETATM    4  C8  UNL     1       0.600  77.026  19.917  1.00  0.00     0.088 C 
HETATM    5  C9  UNL     1      -0.597  76.791  20.896  1.00  0.00     0.193 C 
ENDROOT
BRANCH   1   6
HETATM    6  N5  UNL     1      -1.886  74.613  20.975  1.00  0.00    -0.100 N 
HETATM    7  C1  UNL     1      -3.062  74.890  21.546  1.00  0.00     0.709 A 
HETATM    8  N3  UNL     1      -3.880  73.951  22.050  1.00  0.00    -0.139 N 
HETATM    9  C2  UNL     1      -3.547  72.650  22.004  1.00  0.00     0.342 A 
ATOM     10  H3  UNL     1      -4.765  74.230  22.473  1.00  0.00     0.189 HD
HETATM   11  O1  UNL     1      -4.336  71.802  22.484  1.00  0.00    -0.246 OA
HETATM   12  N4  UNL     1      -2.386  72.336  21.444  1.00  0.00    -0.259 N 
HETATM   13  C3  UNL     1      -1.565  73.271  20.940  1.00  0.00     0.347 A 
ATOM     14  H4  UNL     1      -2.109  71.356  21.395  1.00  0.00     0.175 HD
HETATM   15  O2  UNL     1      -0.488  72.866  20.431  1.00  0.00    -0.246 OA
BRANCH   7  16
HETATM   16  N2  UNL     1      -3.422  76.093  21.613  1.00  0.00    -0.138 N 
ATOM     17  H2  UNL     1      -3.669  76.565  20.743  1.00  0.00     0.205 HD
BRANCH  16  18
HETATM   18  N1  UNL     1      -3.505  76.820  22.789  1.00  0.00    -0.331 N 
ATOM     19  H12 UNL     1      -4.238  77.526  22.842  1.00  0.00     0.177 HD
ATOM     20  H11 UNL     1      -2.886  76.691  23.590  1.00  0.00     0.177 HD
ENDBRANCH  16  18
ENDBRANCH   7  16
ENDBRANCH   1   6
BRANCH   5  21
HETATM   21  O6  UNL     1      -1.409  77.865  20.519  1.00  0.00    -0.375 OA
ATOM     22  H6  UNL     1      -1.730  77.888  19.625  1.00  0.00     0.211 HD
ENDBRANCH   5  21
BRANCH   5  23
HETATM   23  C10 UNL     1      -0.007  76.931  22.213  1.00  0.00     0.213 C 
HETATM   24  O7  UNL     1       0.960  76.215  22.550  1.00  0.00    -0.646 OA
HETATM   25  O8  UNL     1      -0.490  77.848  23.122  1.00  0.00    -0.646 OA
ENDBRANCH   5  23
BRANCH   3  26
HETATM   26  C6  UNL     1       0.937  75.454  17.985  1.00  0.00     0.170 C 
BRANCH  26  27
HETATM   27  O4  UNL     1       0.292  74.260  17.759  1.00  0.00    -0.391 OA
ATOM     28  H4  UNL     1       0.021  74.202  16.850  1.00  0.00     0.210 HD
ENDBRANCH  26  27
BRANCH  26  29
HETATM   29  C7  UNL     1       2.159  75.261  18.883  1.00  0.00     0.198 C 
BRANCH  29  30
HETATM   30  O5  UNL     1       2.117  74.001  19.479  1.00  0.00    -0.398 OA
ATOM     31  H5  UNL     1       2.972  73.590  19.428  1.00  0.00     0.209 HD
ENDBRANCH  29  30
ENDBRANCH  26  29
ENDBRANCH   3  26
TORSDOF 9
ENDMDL
