MODEL 1
REMARK VINA RESULT: -5.507880798      0.000      0.000
REMARK  9 active torsions:
REMARK  status: ('A' for Active; 'I' for Inactive)
REMARK    1  A    between atoms: O1_2  and  N1_3 
REMARK       I    between atoms: N1_3  and  C2_5 
REMARK    2  A    between atoms: C2_5  and  C3_7 
REMARK    3  A    between atoms: N2_9  and  C5_10 
REMARK    4  A    between atoms: C6_12  and  C7_13 
REMARK    5  A    between atoms: C7_13  and  O4_14 
REMARK    6  A    between atoms: C8_19  and  O5_20 
REMARK    7  A    between atoms: C9_22  and  O6_23 
REMARK    8  A    between atoms: C9_22  and  O7_25 
REMARK    9  A    between atoms: C11_31  and  N5_32 
ROOT
HETATM    1  C3  UNL     1       5.638  78.107  17.712  1.00  0.00     0.093 A 
HETATM    2  C4  UNL     1       4.470  77.383  17.751  1.00  0.00     0.119 A 
HETATM    3  N2  UNL     1       3.525  77.528  18.674  1.00  0.00    -0.276 N 
HETATM    4  C10 UNL     1       3.753  78.452  19.633  1.00  0.00     0.330 A 
HETATM    5  O8  UNL     1       2.937  78.677  20.561  1.00  0.00    -0.246 OA
HETATM    6  N4  UNL     1       4.881  79.179  19.634  1.00  0.00    -0.294 N 
ATOM      7  H4  UNL     1       5.012  79.866  20.376  1.00  0.00     0.172 HD
HETATM    8  C11 UNL     1       5.852  79.052  18.705  1.00  0.00     0.120 A 
ENDROOT
BRANCH   3   9
HETATM    9  C5  UNL     1       2.269  76.819  18.646  1.00  0.00     0.301 C 
HETATM   10  O3  UNL     1       1.966  76.589  17.297  1.00  0.00    -0.326 OA
HETATM   11  C6  UNL     1       0.675  76.142  17.133  1.00  0.00     0.349 C 
HETATM   12  N3  UNL     1       0.252  75.322  18.232  1.00  0.00    -0.015 N 
HETATM   13  C8  UNL     1       1.388  74.557  18.701  1.00  0.00     0.389 C 
ATOM     14  H32 UNL     1      -0.189  75.862  18.977  1.00  0.00     0.283 HD
ATOM     15  H31 UNL     1      -0.546  74.732  17.995  1.00  0.00     0.283 HD
HETATM   16  C9  UNL     1       2.283  75.554  19.452  1.00  0.00     0.258 C 
BRANCH  11  17
HETATM   17  C7  UNL     1       0.583  75.407  15.815  1.00  0.00     0.225 C 
BRANCH  17  18
HETATM   18  O4  UNL     1       1.813  75.275  15.176  1.00  0.00    -0.397 OA
ATOM     19  H4  UNL     1       1.996  74.384  14.901  1.00  0.00     0.209 HD
ENDBRANCH  17  18
ENDBRANCH  11  17
BRANCH  13  20
HETATM   20  O5  UNL     1       0.898  73.568  19.567  1.00  0.00    -0.365 OA
ATOM     21  H5  UNL     1       0.806  72.769  19.061  1.00  0.00     0.212 HD
ENDBRANCH  13  20
BRANCH  16  22
HETATM   22  O6  UNL     1       3.528  75.046  19.720  1.00  0.00    -0.359 OA
ATOM     23  H6  UNL     1       3.603  74.570  20.539  1.00  0.00     0.213 HD
ENDBRANCH  16  22
BRANCH  16  24
HETATM   24  O7  UNL     1       1.566  75.830  20.641  1.00  0.00    -0.359 OA
ATOM     25  H7  UNL     1       2.142  75.600  21.361  1.00  0.00     0.213 HD
ENDBRANCH  16  24
ENDBRANCH   3   9
BRANCH   1  26
HETATM   26  C2  UNL     1       6.591  77.947  16.630  1.00  0.00     0.280 C 
HETATM   27  N1  UNL     1       6.363  78.510  15.371  1.00  0.00    -0.231 N 
ATOM     28  H1  UNL     1       5.500  79.036  15.241  1.00  0.00     0.197 HD
HETATM   29  O2  UNL     1       7.624  77.278  16.858  1.00  0.00    -0.265 OA
BRANCH  27  30
HETATM   30  O1  UNL     1       7.201  78.412  14.306  1.00  0.00    -0.282 OA
HETATM   31  C1  UNL     1       7.653  79.696  14.029  1.00  0.00     0.237 C 
ENDBRANCH  27  30
ENDBRANCH   1  26
BRANCH   8  32
HETATM   32  N5  UNL     1       6.919  79.744  18.724  1.00  0.00    -0.385 N 
ATOM     33  H52 UNL     1       7.847  79.333  18.618  1.00  0.00     0.157 HD
ATOM     34  H51 UNL     1       6.882  80.756  18.840  1.00  0.00     0.157 HD
ENDBRANCH   8  32
TORSDOF 9
ENDMDL
MODEL 2
REMARK VINA RESULT: -5.390163034      3.302      5.672
REMARK  9 active torsions:
REMARK  status: ('A' for Active; 'I' for Inactive)
REMARK    1  A    between atoms: O1_2  and  N1_3 
REMARK       I    between atoms: N1_3  and  C2_5 
REMARK    2  A    between atoms: C2_5  and  C3_7 
REMARK    3  A    between atoms: N2_9  and  C5_10 
REMARK    4  A    between atoms: C6_12  and  C7_13 
REMARK    5  A    between atoms: C7_13  and  O4_14 
REMARK    6  A    between atoms: C8_19  and  O5_20 
REMARK    7  A    between atoms: C9_22  and  O6_23 
REMARK    8  A    between atoms: C9_22  and  O7_25 
REMARK    9  A    between atoms: C11_31  and  N5_32 
ROOT
HETATM    1  C3  UNL     1       1.325  76.324  13.603  1.00  0.00     0.093 A 
HETATM    2  C4  UNL     1       1.397  76.027  14.943  1.00  0.00     0.119 A 
HETATM    3  N2  UNL     1       1.727  76.899  15.890  1.00  0.00    -0.276 N 
HETATM    4  C10 UNL     1       2.011  78.156  15.484  1.00  0.00     0.330 A 
HETATM    5  O8  UNL     1       2.339  79.066  16.284  1.00  0.00    -0.246 OA
HETATM    6  N4  UNL     1       1.955  78.487  14.184  1.00  0.00    -0.294 N 
ATOM      7  H4  UNL     1       2.178  79.447  13.922  1.00  0.00     0.172 HD
HETATM    8  C11 UNL     1       1.619  77.620  13.206  1.00  0.00     0.120 A 
ENDROOT
BRANCH   3   9
HETATM    9  C5  UNL     1       1.711  76.588  17.299  1.00  0.00     0.301 C 
HETATM   10  O3  UNL     1       0.745  75.588  17.481  1.00  0.00    -0.326 OA
HETATM   11  C6  UNL     1       0.465  75.386  18.813  1.00  0.00     0.349 C 
HETATM   12  N3  UNL     1       1.623  75.584  19.637  1.00  0.00    -0.015 N 
HETATM   13  C8  UNL     1       2.789  75.127  18.912  1.00  0.00     0.389 C 
ATOM     14  H32 UNL     1       1.715  76.548  19.957  1.00  0.00     0.283 HD
ATOM     15  H31 UNL     1       1.532  75.140  20.551  1.00  0.00     0.283 HD
HETATM   16  C9  UNL     1       3.054  76.189  17.833  1.00  0.00     0.258 C 
BRANCH  11  17
HETATM   17  C7  UNL     1      -0.113  73.999  18.979  1.00  0.00     0.225 C 
BRANCH  17  18
HETATM   18  O4  UNL     1       0.659  73.180  19.798  1.00  0.00    -0.397 OA
ATOM     19  H4  UNL     1       1.035  72.439  19.337  1.00  0.00     0.209 HD
ENDBRANCH  17  18
ENDBRANCH  11  17
BRANCH  13  20
HETATM   20  O5  UNL     1       3.851  75.060  19.826  1.00  0.00    -0.365 OA
ATOM     21  H5  UNL     1       4.581  74.646  19.382  1.00  0.00     0.212 HD
ENDBRANCH  13  20
BRANCH  16  22
HETATM   22  O6  UNL     1       3.957  75.769  16.891  1.00  0.00    -0.359 OA
ATOM     23  H6  UNL     1       4.039  76.332  16.131  1.00  0.00     0.213 HD
ENDBRANCH  16  22
BRANCH  16  24
HETATM   24  O7  UNL     1       3.542  77.302  18.561  1.00  0.00    -0.359 OA
ATOM     25  H7  UNL     1       4.271  77.650  18.063  1.00  0.00     0.213 HD
ENDBRANCH  16  24
ENDBRANCH   3   9
BRANCH   1  26
HETATM   26  C2  UNL     1       0.885  75.339  12.633  1.00  0.00     0.280 C 
HETATM   27  N1  UNL     1      -0.389  74.768  12.702  1.00  0.00    -0.231 N 
ATOM     28  H1  UNL     1      -0.997  75.069  13.463  1.00  0.00     0.197 HD
HETATM   29  O2  UNL     1       1.689  75.008  11.733  1.00  0.00    -0.265 OA
BRANCH  27  30
HETATM   30  O1  UNL     1      -0.881  73.844  11.837  1.00  0.00    -0.282 OA
HETATM   31  C1  UNL     1      -2.001  74.407  11.240  1.00  0.00     0.237 C 
ENDBRANCH  27  30
ENDBRANCH   1  26
BRANCH   8  32
HETATM   32  N5  UNL     1       1.579  77.949  11.978  1.00  0.00    -0.385 N 
ATOM     33  H52 UNL     1       0.926  78.642  11.612  1.00  0.00     0.157 HD
ATOM     34  H51 UNL     1       2.218  77.528  11.304  1.00  0.00     0.157 HD
ENDBRANCH   8  32
TORSDOF 9
ENDMDL
MODEL 3
REMARK VINA RESULT: -5.370953565      3.109      5.436
REMARK  9 active torsions:
REMARK  status: ('A' for Active; 'I' for Inactive)
REMARK    1  A    between atoms: O1_2  and  N1_3 
REMARK       I    between atoms: N1_3  and  C2_5 
REMARK    2  A    between atoms: C2_5  and  C3_7 
REMARK    3  A    between atoms: N2_9  and  C5_10 
REMARK    4  A    between atoms: C6_12  and  C7_13 
REMARK    5  A    between atoms: C7_13  and  O4_14 
REMARK    6  A    between atoms: C8_19  and  O5_20 
REMARK    7  A    between atoms: C9_22  and  O6_23 
REMARK    8  A    between atoms: C9_22  and  O7_25 
REMARK    9  A    between atoms: C11_31  and  N5_32 
ROOT
HETATM    1  C3  UNL     1       2.602  75.763  17.038  1.00  0.00     0.093 A 
HETATM    2  C4  UNL     1       2.099  75.885  15.765  1.00  0.00     0.119 A 
HETATM    3  N2  UNL     1       0.810  76.024  15.475  1.00  0.00    -0.276 N 
HETATM    4  C10 UNL     1      -0.047  76.041  16.519  1.00  0.00     0.330 A 
HETATM    5  O8  UNL     1      -1.288  76.162  16.372  1.00  0.00    -0.246 OA
HETATM    6  N4  UNL     1       0.402  75.923  17.779  1.00  0.00    -0.294 N 
ATOM      7  H4  UNL     1      -0.280  75.941  18.537  1.00  0.00     0.172 HD
HETATM    8  C11 UNL     1       1.706  75.785  18.097  1.00  0.00     0.120 A 
ENDROOT
BRANCH   3   9
HETATM    9  C5  UNL     1       0.313  76.236  14.136  1.00  0.00     0.301 C 
HETATM   10  O3  UNL     1       1.318  76.918  13.436  1.00  0.00    -0.326 OA
HETATM   11  C6  UNL     1       0.865  77.394  12.228  1.00  0.00     0.349 C 
HETATM   12  N3  UNL     1      -0.109  76.518  11.642  1.00  0.00    -0.015 N 
HETATM   13  C8  UNL     1       0.244  75.152  11.966  1.00  0.00     0.389 C 
ATOM     14  H32 UNL     1      -1.063  76.751  11.921  1.00  0.00     0.283 HD
ATOM     15  H31 UNL     1      -0.216  76.667  10.639  1.00  0.00     0.283 HD
HETATM   16  C9  UNL     1      -0.104  74.970  13.451  1.00  0.00     0.258 C 
BRANCH  11  17
HETATM   17  C7  UNL     1       2.053  77.602  11.316  1.00  0.00     0.225 C 
BRANCH  17  18
HETATM   18  O4  UNL     1       2.831  76.458  11.162  1.00  0.00    -0.397 OA
ATOM     19  H4  UNL     1       2.551  75.912  10.437  1.00  0.00     0.209 HD
ENDBRANCH  17  18
ENDBRANCH  11  17
BRANCH  13  20
HETATM   20  O5  UNL     1      -0.540  74.315  11.158  1.00  0.00    -0.365 OA
ATOM     21  H5  UNL     1      -0.381  74.562  10.254  1.00  0.00     0.212 HD
ENDBRANCH  13  20
BRANCH  16  22
HETATM   22  O6  UNL     1       0.423  73.819  13.977  1.00  0.00    -0.359 OA
ATOM     23  H6  UNL     1       1.021  73.350  13.408  1.00  0.00     0.213 HD
ENDBRANCH  16  22
BRANCH  16  24
HETATM   24  O7  UNL     1      -1.520  74.951  13.471  1.00  0.00    -0.359 OA
ATOM     25  H7  UNL     1      -1.776  75.038  14.382  1.00  0.00     0.213 HD
ENDBRANCH  16  24
ENDBRANCH   3   9
BRANCH   1  26
HETATM   26  C2  UNL     1       4.030  75.690  17.283  1.00  0.00     0.280 C 
HETATM   27  N1  UNL     1       4.835  76.831  17.240  1.00  0.00    -0.231 N 
ATOM     28  H1  UNL     1       4.381  77.718  17.027  1.00  0.00     0.197 HD
HETATM   29  O2  UNL     1       4.521  74.565  17.527  1.00  0.00    -0.265 OA
BRANCH  27  30
HETATM   30  O1  UNL     1       6.176  76.852  17.459  1.00  0.00    -0.282 OA
HETATM   31  C1  UNL     1       6.777  77.177  16.250  1.00  0.00     0.237 C 
ENDBRANCH  27  30
ENDBRANCH   1  26
BRANCH   8  32
HETATM   32  N5  UNL     1       2.114  75.667  19.296  1.00  0.00    -0.385 N 
ATOM     33  H52 UNL     1       2.870  75.036  19.564  1.00  0.00     0.157 HD
ATOM     34  H51 UNL     1       1.695  76.217  20.045  1.00  0.00     0.157 HD
ENDBRANCH   8  32
TORSDOF 9
ENDMDL
MODEL 4
REMARK VINA RESULT: -5.329003627      3.000      5.061
REMARK  9 active torsions:
REMARK  status: ('A' for Active; 'I' for Inactive)
REMARK    1  A    between atoms: O1_2  and  N1_3 
REMARK       I    between atoms: N1_3  and  C2_5 
REMARK    2  A    between atoms: C2_5  and  C3_7 
REMARK    3  A    between atoms: N2_9  and  C5_10 
REMARK    4  A    between atoms: C6_12  and  C7_13 
REMARK    5  A    between atoms: C7_13  and  O4_14 
REMARK    6  A    between atoms: C8_19  and  O5_20 
REMARK    7  A    between atoms: C9_22  and  O6_23 
REMARK    8  A    between atoms: C9_22  and  O7_25 
REMARK    9  A    between atoms: C11_31  and  N5_32 
ROOT
HETATM    1  C3  UNL     1       3.694  75.942  17.200  1.00  0.00     0.093 A 
HETATM    2  C4  UNL     1       3.155  76.221  15.967  1.00  0.00     0.119 A 
HETATM    3  N2  UNL     1       1.861  76.142  15.675  1.00  0.00    -0.276 N 
HETATM    4  C10 UNL     1       1.038  75.754  16.674  1.00  0.00     0.330 A 
HETATM    5  O8  UNL     1      -0.203  75.638  16.520  1.00  0.00    -0.246 OA
HETATM    6  N4  UNL     1       1.523  75.471  17.893  1.00  0.00    -0.294 N 
ATOM      7  H4  UNL     1       0.866  75.181  18.618  1.00  0.00     0.172 HD
HETATM    8  C11 UNL     1       2.832  75.547  18.213  1.00  0.00     0.120 A 
ENDROOT
BRANCH   3   9
HETATM    9  C5  UNL     1       1.308  76.524  14.398  1.00  0.00     0.301 C 
HETATM   10  O3  UNL     1       2.230  77.396  13.804  1.00  0.00    -0.326 OA
HETATM   11  C6  UNL     1       1.701  78.020  12.697  1.00  0.00     0.349 C 
HETATM   12  N3  UNL     1       0.789  77.167  11.991  1.00  0.00    -0.015 N 
HETATM   13  C8  UNL     1       1.267  75.804  12.080  1.00  0.00     0.389 C 
ATOM     14  H32 UNL     1      -0.172  77.265  12.318  1.00  0.00     0.283 HD
ATOM     15  H31 UNL     1       0.639  77.467  11.027  1.00  0.00     0.283 HD
HETATM   16  C9  UNL     1       0.981  75.353  13.520  1.00  0.00     0.258 C 
BRANCH  11  17
HETATM   17  C7  UNL     1       2.839  78.479  11.813  1.00  0.00     0.225 C 
BRANCH  17  18
HETATM   18  O4  UNL     1       4.093  78.239  12.368  1.00  0.00    -0.397 OA
ATOM     19  H4  UNL     1       4.377  77.338  12.272  1.00  0.00     0.209 HD
ENDBRANCH  17  18
ENDBRANCH  11  17
BRANCH  13  20
HETATM   20  O5  UNL     1       0.534  75.042  11.158  1.00  0.00    -0.365 OA
ATOM     21  H5  UNL     1       0.512  74.149  11.481  1.00  0.00     0.212 HD
ENDBRANCH  13  20
BRANCH  16  22
HETATM   22  O6  UNL     1       1.620  74.184  13.842  1.00  0.00    -0.359 OA
ATOM     23  H6  UNL     1       2.124  73.791  13.139  1.00  0.00     0.213 HD
ENDBRANCH  16  22
BRANCH  16  24
HETATM   24  O7  UNL     1      -0.427  75.204  13.559  1.00  0.00    -0.359 OA
ATOM     25  H7  UNL     1      -0.700  75.007  12.671  1.00  0.00     0.213 HD
ENDBRANCH  16  24
ENDBRANCH   3   9
BRANCH   1  26
HETATM   26  C2  UNL     1       5.109  76.123  17.466  1.00  0.00     0.280 C 
HETATM   27  N1  UNL     1       5.669  77.397  17.586  1.00  0.00    -0.231 N 
ATOM     28  H1  UNL     1       5.046  78.197  17.478  1.00  0.00     0.197 HD
HETATM   29  O2  UNL     1       5.816  75.097  17.576  1.00  0.00    -0.265 OA
BRANCH  27  30
HETATM   30  O1  UNL     1       6.980  77.656  17.837  1.00  0.00    -0.282 OA
HETATM   31  C1  UNL     1       7.468  78.359  16.742  1.00  0.00     0.237 C 
ENDBRANCH  27  30
ENDBRANCH   1  26
BRANCH   8  32
HETATM   32  N5  UNL     1       3.276  75.267  19.372  1.00  0.00    -0.385 N 
ATOM     33  H52 UNL     1       4.047  75.774  19.806  1.00  0.00     0.157 HD
ATOM     34  H51 UNL     1       2.860  74.515  19.921  1.00  0.00     0.157 HD
ENDBRANCH   8  32
TORSDOF 9
ENDMDL
MODEL 5
REMARK VINA RESULT: -5.263951161      2.868      4.430
REMARK  9 active torsions:
REMARK  status: ('A' for Active; 'I' for Inactive)
REMARK    1  A    between atoms: O1_2  and  N1_3 
REMARK       I    between atoms: N1_3  and  C2_5 
REMARK    2  A    between atoms: C2_5  and  C3_7 
REMARK    3  A    between atoms: N2_9  and  C5_10 
REMARK    4  A    between atoms: C6_12  and  C7_13 
REMARK    5  A    between atoms: C7_13  and  O4_14 
REMARK    6  A    between atoms: C8_19  and  O5_20 
REMARK    7  A    between atoms: C9_22  and  O6_23 
REMARK    8  A    between atoms: C9_22  and  O7_25 
REMARK    9  A    between atoms: C11_31  and  N5_32 
ROOT
HETATM    1  C3  UNL     1       2.318  76.605  18.192  1.00  0.00     0.093 A 
HETATM    2  C4  UNL     1       1.444  75.934  19.015  1.00  0.00     0.119 A 
HETATM    3  N2  UNL     1       0.407  76.494  19.628  1.00  0.00    -0.276 N 
HETATM    4  C10 UNL     1       0.220  77.815  19.416  1.00  0.00     0.330 A 
HETATM    5  O8  UNL     1      -0.723  78.457  19.943  1.00  0.00    -0.246 OA
HETATM    6  N4  UNL     1       1.050  78.509  18.621  1.00  0.00    -0.294 N 
ATOM      7  H4  UNL     1       0.872  79.504  18.489  1.00  0.00     0.172 HD
HETATM    8  C11 UNL     1       2.107  77.961  17.986  1.00  0.00     0.120 A 
ENDROOT
BRANCH   3   9
HETATM    9  C5  UNL     1      -0.547  75.752  20.417  1.00  0.00     0.301 C 
HETATM   10  O3  UNL     1      -0.531  74.436  19.937  1.00  0.00    -0.326 OA
HETATM   11  C6  UNL     1      -1.574  73.696  20.444  1.00  0.00     0.349 C 
HETATM   12  N3  UNL     1      -1.904  74.088  21.784  1.00  0.00    -0.015 N 
HETATM   13  C8  UNL     1      -0.685  74.462  22.469  1.00  0.00     0.389 C 
ATOM     14  H32 UNL     1      -2.610  74.824  21.814  1.00  0.00     0.283 HD
ATOM     15  H31 UNL     1      -2.429  73.370  22.284  1.00  0.00     0.283 HD
HETATM   16  C9  UNL     1      -0.281  75.827  21.891  1.00  0.00     0.258 C 
BRANCH  11  17
HETATM   17  C7  UNL     1      -1.210  72.230  20.361  1.00  0.00     0.225 C 
BRANCH  17  18
HETATM   18  O4  UNL     1      -2.094  71.408  21.054  1.00  0.00    -0.397 OA
ATOM     19  H4  UNL     1      -2.329  70.623  20.572  1.00  0.00     0.209 HD
ENDBRANCH  17  18
ENDBRANCH  11  17
BRANCH  13  20
HETATM   20  O5  UNL     1      -0.986  74.562  23.835  1.00  0.00    -0.365 OA
ATOM     21  H5  UNL     1      -0.799  73.718  24.229  1.00  0.00     0.212 HD
ENDBRANCH  13  20
BRANCH  16  22
HETATM   22  O6  UNL     1       0.995  76.188  22.238  1.00  0.00    -0.359 OA
ATOM     23  H6  UNL     1       1.058  76.856  22.911  1.00  0.00     0.213 HD
ENDBRANCH  16  22
BRANCH  16  24
HETATM   24  O7  UNL     1      -1.239  76.722  22.426  1.00  0.00    -0.359 OA
ATOM     25  H7  UNL     1      -0.956  77.595  22.181  1.00  0.00     0.213 HD
ENDBRANCH  16  24
ENDBRANCH   3   9
BRANCH   1  26
HETATM   26  C2  UNL     1       3.385  75.911  17.496  1.00  0.00     0.280 C 
HETATM   27  N1  UNL     1       4.640  75.730  18.084  1.00  0.00    -0.231 N 
ATOM     28  H1  UNL     1       4.778  76.107  19.021  1.00  0.00     0.197 HD
HETATM   29  O2  UNL     1       3.148  75.486  16.344  1.00  0.00    -0.265 OA
BRANCH  27  30
HETATM   30  O1  UNL     1       5.691  75.092  17.506  1.00  0.00    -0.282 OA
HETATM   31  C1  UNL     1       6.686  76.043  17.319  1.00  0.00     0.237 C 
ENDBRANCH  27  30
ENDBRANCH   1  26
BRANCH   8  32
HETATM   32  N5  UNL     1       2.889  78.634  17.242  1.00  0.00    -0.385 N 
ATOM     33  H52 UNL     1       3.901  78.505  17.243  1.00  0.00     0.157 HD
ATOM     34  H51 UNL     1       2.521  79.335  16.600  1.00  0.00     0.157 HD
ENDBRANCH   8  32
TORSDOF 9
ENDMDL
