MODEL 1
REMARK VINA RESULT: -5.536082293      0.000      0.000
REMARK  9 active torsions:
REMARK  status: ('A' for Active; 'I' for Inactive)
REMARK    1  A    between atoms: N1_1  and  C1_5 
REMARK    2  A    between atoms: C1_5  and  C2_6 
REMARK    3  A    between atoms: C1_5  and  C3_9 
REMARK    4  A    between atoms: C3_9  and  O3_10 
REMARK    5  A    between atoms: C4_12  and  O4_13 
REMARK    6  A    between atoms: C5_15  and  N2_16 
REMARK    7  A    between atoms: C10_26  and  C11_27 
REMARK    8  A    between atoms: C11_27  and  O8_28 
REMARK    9  A    between atoms: N4_30  and  N5_31 
ROOT
HETATM    1  C3  UNL     1       2.503  76.588  18.411  1.00  0.00     0.218 C 
HETATM    2  C4  UNL     1       1.636  75.363  18.586  1.00  0.00     0.227 C 
HETATM    3  C5  UNL     1       0.436  75.819  19.413  1.00  0.00     0.268 C 
HETATM    4  O7  UNL     1      -0.291  76.645  18.574  1.00  0.00    -0.335 OA
HETATM    5  C10 UNL     1       0.386  77.785  18.242  1.00  0.00     0.267 C 
HETATM    6  N4  UNL     1       1.787  77.800  18.402  1.00  0.00    -0.263 N 
ENDROOT
BRANCH   1   7
HETATM    7  C1  UNL     1       3.171  76.443  17.036  1.00  0.00     0.342 C 
BRANCH   7   8
HETATM    8  N1  UNL     1       2.376  75.526  16.204  1.00  0.00    -0.060 N 
ATOM      9  H13 UNL     1       2.856  75.280  15.338  1.00  0.00     0.275 HD
ATOM     10  H12 UNL     1       2.318  74.593  16.610  1.00  0.00     0.275 HD
ATOM     11  H11 UNL     1       1.455  75.928  16.032  1.00  0.00     0.275 HD
ENDBRANCH   7   8
BRANCH   7  12
HETATM   12  C2  UNL     1       4.546  75.952  17.137  1.00  0.00     0.209 C 
HETATM   13  O1  UNL     1       5.494  76.731  16.883  1.00  0.00    -0.646 OA
HETATM   14  O2  UNL     1       4.862  74.657  17.503  1.00  0.00    -0.646 OA
ENDBRANCH   7  12
ENDBRANCH   1   7
BRANCH   1  15
HETATM   15  O3  UNL     1       3.472  76.512  19.423  1.00  0.00    -0.365 OA
ATOM     16  H3  UNL     1       3.765  77.385  19.656  1.00  0.00     0.212 HD
ENDBRANCH   1  15
BRANCH   2  17
HETATM   17  O4  UNL     1       2.273  74.373  19.323  1.00  0.00    -0.386 OA
ATOM     18  H4  UNL     1       2.988  73.972  18.842  1.00  0.00     0.210 HD
ENDBRANCH   2  17
BRANCH   6  19
HETATM   19  N5  UNL     1       2.168  78.700  19.367  1.00  0.00    -0.342 N 
ATOM     20  H52 UNL     1       2.947  78.342  19.919  1.00  0.00     0.176 HD
ATOM     21  H51 UNL     1       2.165  79.675  19.067  1.00  0.00     0.176 HD
ENDBRANCH   6  19
BRANCH   3  22
HETATM   22  N2  UNL     1      -0.334  74.692  19.884  1.00  0.00    -0.279 N 
HETATM   23  C6  UNL     1      -0.238  73.463  19.319  1.00  0.00     0.104 A 
HETATM   24  C7  UNL     1      -0.970  72.382  19.763  1.00  0.00     0.092 A 
HETATM   25  C8  UNL     1      -1.835  72.560  20.828  1.00  0.00     0.250 A 
HETATM   26  O5  UNL     1      -2.531  71.615  21.282  1.00  0.00    -0.268 OA
HETATM   27  N3  UNL     1      -1.906  73.795  21.368  1.00  0.00    -0.275 N 
HETATM   28  C9  UNL     1      -1.182  74.835  20.917  1.00  0.00     0.331 A 
ATOM     29  H3  UNL     1      -2.539  73.946  22.154  1.00  0.00     0.173 HD
HETATM   30  O6  UNL     1      -1.308  75.959  21.478  1.00  0.00    -0.246 OA
ENDBRANCH   3  22
BRANCH   5  31
HETATM   31  C11 UNL     1      -0.278  79.033  18.849  1.00  0.00     0.219 C 
BRANCH  31  32
HETATM   32  O8  UNL     1      -0.824  78.668  20.091  1.00  0.00    -0.397 OA
ATOM     33  H8  UNL     1      -0.195  78.112  20.534  1.00  0.00     0.209 HD
ENDBRANCH  31  32
ENDBRANCH   5  31
TORSDOF 9
ENDMDL
MODEL 2
REMARK VINA RESULT: -5.403564860      1.208      1.447
REMARK  9 active torsions:
REMARK  status: ('A' for Active; 'I' for Inactive)
REMARK    1  A    between atoms: N1_1  and  C1_5 
REMARK    2  A    between atoms: C1_5  and  C2_6 
REMARK    3  A    between atoms: C1_5  and  C3_9 
REMARK    4  A    between atoms: C3_9  and  O3_10 
REMARK    5  A    between atoms: C4_12  and  O4_13 
REMARK    6  A    between atoms: C5_15  and  N2_16 
REMARK    7  A    between atoms: C10_26  and  C11_27 
REMARK    8  A    between atoms: C11_27  and  O8_28 
REMARK    9  A    between atoms: N4_30  and  N5_31 
ROOT
HETATM    1  C3  UNL     1       2.727  76.658  18.395  1.00  0.00     0.218 C 
HETATM    2  C4  UNL     1       1.966  75.398  18.736  1.00  0.00     0.227 C 
HETATM    3  C5  UNL     1       0.517  75.834  18.950  1.00  0.00     0.268 C 
HETATM    4  O7  UNL     1       0.057  76.193  17.695  1.00  0.00    -0.335 OA
HETATM    5  C10 UNL     1       0.703  77.286  17.190  1.00  0.00     0.267 C 
HETATM    6  N4  UNL     1       1.955  77.635  17.740  1.00  0.00    -0.263 N 
ENDROOT
BRANCH   1   7
HETATM    7  C1  UNL     1       3.840  76.232  17.428  1.00  0.00     0.342 C 
BRANCH   7   8
HETATM    8  N1  UNL     1       4.016  74.774  17.499  1.00  0.00    -0.060 N 
ATOM      9  H13 UNL     1       3.127  74.285  17.613  1.00  0.00     0.275 HD
ATOM     10  H12 UNL     1       4.288  74.376  16.601  1.00  0.00     0.275 HD
ATOM     11  H11 UNL     1       4.679  74.542  18.239  1.00  0.00     0.275 HD
ENDBRANCH   7   8
BRANCH   7  12
HETATM   12  C2  UNL     1       5.111  76.898  17.719  1.00  0.00     0.209 C 
HETATM   13  O1  UNL     1       6.176  76.239  17.658  1.00  0.00    -0.646 OA
HETATM   14  O2  UNL     1       5.204  78.234  18.062  1.00  0.00    -0.646 OA
ENDBRANCH   7  12
ENDBRANCH   1   7
BRANCH   1  15
HETATM   15  O3  UNL     1       3.287  77.098  19.604  1.00  0.00    -0.365 OA
ATOM     16  H3  UNL     1       3.076  78.013  19.744  1.00  0.00     0.212 HD
ENDBRANCH   1  15
BRANCH   2  17
HETATM   17  O4  UNL     1       2.391  74.837  19.932  1.00  0.00    -0.386 OA
ATOM     18  H4  UNL     1       2.857  74.019  19.799  1.00  0.00     0.210 HD
ENDBRANCH   2  17
BRANCH   6  19
HETATM   19  N5  UNL     1       1.896  78.847  18.383  1.00  0.00    -0.342 N 
ATOM     20  H52 UNL     1       1.805  79.614  17.717  1.00  0.00     0.176 HD
ATOM     21  H51 UNL     1       1.339  78.850  19.238  1.00  0.00     0.176 HD
ENDBRANCH   6  19
BRANCH   3  22
HETATM   22  N2  UNL     1      -0.265  74.777  19.546  1.00  0.00    -0.279 N 
HETATM   23  C6  UNL     1      -0.100  73.474  19.206  1.00  0.00     0.104 A 
HETATM   24  C7  UNL     1      -0.843  72.459  19.770  1.00  0.00     0.092 A 
HETATM   25  C8  UNL     1      -1.794  72.785  20.721  1.00  0.00     0.250 A 
HETATM   26  O5  UNL     1      -2.506  71.907  21.275  1.00  0.00    -0.268 OA
HETATM   27  N3  UNL     1      -1.933  74.090  21.037  1.00  0.00    -0.275 N 
HETATM   28  C9  UNL     1      -1.196  75.063  20.472  1.00  0.00     0.331 A 
ATOM     29  H3  UNL     1      -2.630  74.350  21.736  1.00  0.00     0.173 HD
HETATM   30  O6  UNL     1      -1.389  76.260  20.823  1.00  0.00    -0.246 OA
ENDBRANCH   3  22
BRANCH   5  31
HETATM   31  C11 UNL     1      -0.238  78.499  17.083  1.00  0.00     0.219 C 
BRANCH  31  32
HETATM   32  O8  UNL     1       0.154  79.251  15.963  1.00  0.00    -0.397 OA
ATOM     33  H8  UNL     1       0.834  79.853  16.240  1.00  0.00     0.209 HD
ENDBRANCH  31  32
ENDBRANCH   5  31
TORSDOF 9
ENDMDL
MODEL 3
REMARK VINA RESULT: -5.342751432      2.927      6.073
REMARK  9 active torsions:
REMARK  status: ('A' for Active; 'I' for Inactive)
REMARK    1  A    between atoms: N1_1  and  C1_5 
REMARK    2  A    between atoms: C1_5  and  C2_6 
REMARK    3  A    between atoms: C1_5  and  C3_9 
REMARK    4  A    between atoms: C3_9  and  O3_10 
REMARK    5  A    between atoms: C4_12  and  O4_13 
REMARK    6  A    between atoms: C5_15  and  N2_16 
REMARK    7  A    between atoms: C10_26  and  C11_27 
REMARK    8  A    between atoms: C11_27  and  O8_28 
REMARK    9  A    between atoms: N4_30  and  N5_31 
ROOT
HETATM    1  C3  UNL     1       1.674  76.217  18.632  1.00  0.00     0.218 C 
HETATM    2  C4  UNL     1       1.110  75.763  17.305  1.00  0.00     0.227 C 
HETATM    3  C5  UNL     1       2.163  76.129  16.260  1.00  0.00     0.268 C 
HETATM    4  O7  UNL     1       3.225  75.276  16.500  1.00  0.00    -0.335 OA
HETATM    5  C10 UNL     1       3.814  75.495  17.713  1.00  0.00     0.267 C 
HETATM    6  N4  UNL     1       3.080  76.193  18.695  1.00  0.00    -0.263 N 
ENDROOT
BRANCH   1   7
HETATM    7  C1  UNL     1       1.154  75.220  19.677  1.00  0.00     0.342 C 
BRANCH   7   8
HETATM    8  N1  UNL     1       0.325  74.204  19.010  1.00  0.00    -0.060 N 
ATOM      9  H13 UNL     1      -0.523  74.604  18.608  1.00  0.00     0.275 HD
ATOM     10  H12 UNL     1       0.752  73.867  18.148  1.00  0.00     0.275 HD
ATOM     11  H11 UNL     1       0.121  73.445  19.660  1.00  0.00     0.275 HD
ENDBRANCH   7   8
BRANCH   7  12
HETATM   12  C2  UNL     1       0.378  75.877  20.730  1.00  0.00     0.209 C 
HETATM   13  O1  UNL     1       0.939  76.172  21.811  1.00  0.00    -0.646 OA
HETATM   14  O2  UNL     1      -0.962  76.194  20.596  1.00  0.00    -0.646 OA
ENDBRANCH   7  12
ENDBRANCH   1   7
BRANCH   1  15
HETATM   15  O3  UNL     1       1.120  77.485  18.862  1.00  0.00    -0.365 OA
ATOM     16  H3  UNL     1       0.173  77.422  18.899  1.00  0.00     0.212 HD
ENDBRANCH   1  15
BRANCH   2  17
HETATM   17  O4  UNL     1      -0.044  76.454  16.963  1.00  0.00    -0.386 OA
ATOM     18  H4  UNL     1       0.104  77.391  16.902  1.00  0.00     0.210 HD
ENDBRANCH   2  17
BRANCH   6  19
HETATM   19  N5  UNL     1       3.662  77.402  18.986  1.00  0.00    -0.342 N 
ATOM     20  H52 UNL     1       3.057  78.178  18.718  1.00  0.00     0.176 HD
ATOM     21  H51 UNL     1       4.161  77.433  19.876  1.00  0.00     0.176 HD
ENDBRANCH   6  19
BRANCH   3  22
HETATM   22  N2  UNL     1       1.639  76.000  14.921  1.00  0.00    -0.279 N 
HETATM   23  C6  UNL     1       1.013  74.875  14.494  1.00  0.00     0.104 A 
HETATM   24  C7  UNL     1       0.510  74.744  13.217  1.00  0.00     0.092 A 
HETATM   25  C8  UNL     1       0.650  75.803  12.339  1.00  0.00     0.250 A 
HETATM   26  O5  UNL     1       0.214  75.748  11.159  1.00  0.00    -0.268 OA
HETATM   27  N3  UNL     1       1.278  76.908  12.794  1.00  0.00    -0.275 N 
HETATM   28  C9  UNL     1       1.761  77.012  14.046  1.00  0.00     0.331 A 
ATOM     29  H3  UNL     1       1.392  77.699  12.160  1.00  0.00     0.173 HD
HETATM   30  O6  UNL     1       2.336  78.081  14.393  1.00  0.00    -0.246 OA
ENDBRANCH   3  22
BRANCH   5  31
HETATM   31  C11 UNL     1       5.241  76.050  17.556  1.00  0.00     0.219 C 
BRANCH  31  32
HETATM   32  O8  UNL     1       6.129  74.962  17.565  1.00  0.00    -0.397 OA
ATOM     33  H8  UNL     1       6.502  74.884  16.695  1.00  0.00     0.209 HD
ENDBRANCH  31  32
ENDBRANCH   5  31
TORSDOF 9
ENDMDL
MODEL 4
REMARK VINA RESULT: -5.265790279      3.356      5.242
REMARK  9 active torsions:
REMARK  status: ('A' for Active; 'I' for Inactive)
REMARK    1  A    between atoms: N1_1  and  C1_5 
REMARK    2  A    between atoms: C1_5  and  C2_6 
REMARK    3  A    between atoms: C1_5  and  C3_9 
REMARK    4  A    between atoms: C3_9  and  O3_10 
REMARK    5  A    between atoms: C4_12  and  O4_13 
REMARK    6  A    between atoms: C5_15  and  N2_16 
REMARK    7  A    between atoms: C10_26  and  C11_27 
REMARK    8  A    between atoms: C11_27  and  O8_28 
REMARK    9  A    between atoms: N4_30  and  N5_31 
ROOT
HETATM    1  C3  UNL     1       3.246  77.231  16.713  1.00  0.00     0.218 C 
HETATM    2  C4  UNL     1       2.013  77.268  15.840  1.00  0.00     0.227 C 
HETATM    3  C5  UNL     1       1.328  75.916  16.033  1.00  0.00     0.268 C 
HETATM    4  O7  UNL     1       0.841  75.938  17.327  1.00  0.00    -0.335 OA
HETATM    5  C10 UNL     1       1.835  75.986  18.264  1.00  0.00     0.267 C 
HETATM    6  N4  UNL     1       3.114  76.422  17.857  1.00  0.00    -0.263 N 
ENDROOT
BRANCH   1   7
HETATM    7  C1  UNL     1       3.467  78.671  17.196  1.00  0.00     0.342 C 
BRANCH   7   8
HETATM    8  N1  UNL     1       2.525  79.566  16.506  1.00  0.00    -0.060 N 
ATOM      9  H13 UNL     1       2.492  79.388  15.502  1.00  0.00     0.275 HD
ATOM     10  H12 UNL     1       1.554  79.345  16.727  1.00  0.00     0.275 HD
ATOM     11  H11 UNL     1       2.755  80.537  16.717  1.00  0.00     0.275 HD
ENDBRANCH   7   8
BRANCH   7  12
HETATM   12  C2  UNL     1       4.839  79.127  16.969  1.00  0.00     0.209 C 
HETATM   13  O1  UNL     1       5.078  79.894  16.007  1.00  0.00    -0.646 OA
HETATM   14  O2  UNL     1       5.903  78.753  17.769  1.00  0.00    -0.646 OA
ENDBRANCH   7  12
ENDBRANCH   1   7
BRANCH   1  15
HETATM   15  O3  UNL     1       4.295  76.845  15.867  1.00  0.00    -0.365 OA
ATOM     16  H3  UNL     1       4.942  76.350  16.357  1.00  0.00     0.212 HD
ENDBRANCH   1  15
BRANCH   2  17
HETATM   17  O4  UNL     1       2.330  77.363  14.492  1.00  0.00    -0.386 OA
ATOM     18  H4  UNL     1       1.566  77.543  13.956  1.00  0.00     0.210 HD
ENDBRANCH   2  17
BRANCH   6  19
HETATM   19  N5  UNL     1       4.038  75.411  17.956  1.00  0.00    -0.342 N 
ATOM     20  H52 UNL     1       4.988  75.781  17.988  1.00  0.00     0.176 HD
ATOM     21  H51 UNL     1       3.770  74.647  18.577  1.00  0.00     0.176 HD
ENDBRANCH   6  19
BRANCH   3  22
HETATM   22  N2  UNL     1       0.288  75.712  15.052  1.00  0.00    -0.279 N 
HETATM   23  C6  UNL     1      -0.927  76.307  15.150  1.00  0.00     0.104 A 
HETATM   24  C7  UNL     1      -1.925  76.116  14.219  1.00  0.00     0.092 A 
HETATM   25  C8  UNL     1      -1.674  75.286  13.141  1.00  0.00     0.250 A 
HETATM   26  O5  UNL     1      -2.542  75.070  12.254  1.00  0.00    -0.268 OA
HETATM   27  N3  UNL     1      -0.456  74.710  13.072  1.00  0.00    -0.275 N 
HETATM   28  C9  UNL     1       0.503  74.911  13.995  1.00  0.00     0.331 A 
ATOM     29  H3  UNL     1      -0.253  74.094  12.284  1.00  0.00     0.173 HD
HETATM   30  O6  UNL     1       1.617  74.334  13.857  1.00  0.00    -0.246 OA
ENDBRANCH   3  22
BRANCH   5  31
HETATM   31  C11 UNL     1       1.901  74.687  19.085  1.00  0.00     0.219 C 
BRANCH  31  32
HETATM   32  O8  UNL     1       2.551  74.976  20.296  1.00  0.00    -0.397 OA
ATOM     33  H8  UNL     1       3.474  75.102  20.109  1.00  0.00     0.209 HD
ENDBRANCH  31  32
ENDBRANCH   5  31
TORSDOF 9
ENDMDL
MODEL 5
REMARK VINA RESULT: -5.211005599      1.702      2.399
REMARK  9 active torsions:
REMARK  status: ('A' for Active; 'I' for Inactive)
REMARK    1  A    between atoms: N1_1  and  C1_5 
REMARK    2  A    between atoms: C1_5  and  C2_6 
REMARK    3  A    between atoms: C1_5  and  C3_9 
REMARK    4  A    between atoms: C3_9  and  O3_10 
REMARK    5  A    between atoms: C4_12  and  O4_13 
REMARK    6  A    between atoms: C5_15  and  N2_16 
REMARK    7  A    between atoms: C10_26  and  C11_27 
REMARK    8  A    between atoms: C11_27  and  O8_28 
REMARK    9  A    between atoms: N4_30  and  N5_31 
ROOT
HETATM    1  C3  UNL     1       2.296  76.684  18.638  1.00  0.00     0.218 C 
HETATM    2  C4  UNL     1       1.662  75.542  19.399  1.00  0.00     0.227 C 
HETATM    3  C5  UNL     1       0.356  75.232  18.668  1.00  0.00     0.268 C 
HETATM    4  O7  UNL     1       0.739  74.678  17.460  1.00  0.00    -0.335 OA
HETATM    5  C10 UNL     1       1.408  75.564  16.663  1.00  0.00     0.267 C 
HETATM    6  N4  UNL     1       1.983  76.703  17.266  1.00  0.00    -0.263 N 
ENDROOT
BRANCH   1   7
HETATM    7  C1  UNL     1       3.813  76.482  18.756  1.00  0.00     0.342 C 
BRANCH   7   8
HETATM    8  N1  UNL     1       4.457  77.778  19.018  1.00  0.00    -0.060 N 
ATOM      9  H13 UNL     1       5.191  77.986  18.340  1.00  0.00     0.275 HD
ATOM     10  H12 UNL     1       3.840  78.563  18.810  1.00  0.00     0.275 HD
ATOM     11  H11 UNL     1       4.802  77.805  19.977  1.00  0.00     0.275 HD
ENDBRANCH   7   8
BRANCH   7  12
HETATM   12  C2  UNL     1       4.387  75.879  17.553  1.00  0.00     0.209 C 
HETATM   13  O1  UNL     1       4.420  74.630  17.450  1.00  0.00    -0.646 OA
HETATM   14  O2  UNL     1       4.904  76.621  16.507  1.00  0.00    -0.646 OA
ENDBRANCH   7  12
ENDBRANCH   1   7
BRANCH   1  15
HETATM   15  O3  UNL     1       1.914  77.849  19.320  1.00  0.00    -0.365 OA
ATOM     16  H3  UNL     1       1.491  78.451  18.720  1.00  0.00     0.212 HD
ENDBRANCH   1  15
BRANCH   2  17
HETATM   17  O4  UNL     1       1.316  75.904  20.694  1.00  0.00    -0.386 OA
ATOM     18  H4  UNL     1       1.829  75.440  21.345  1.00  0.00     0.210 HD
ENDBRANCH   2  17
BRANCH   6  19
HETATM   19  N5  UNL     1       1.376  77.855  16.831  1.00  0.00    -0.342 N 
ATOM     20  H52 UNL     1       1.953  78.673  17.027  1.00  0.00     0.176 HD
ATOM     21  H51 UNL     1       0.901  77.774  15.932  1.00  0.00     0.176 HD
ENDBRANCH   6  19
BRANCH   3  22
HETATM   22  N2  UNL     1      -0.479  74.347  19.445  1.00  0.00    -0.279 N 
HETATM   23  C6  UNL     1      -0.301  73.002  19.451  1.00  0.00     0.104 A 
HETATM   24  C7  UNL     1      -1.095  72.151  20.189  1.00  0.00     0.092 A 
HETATM   25  C8  UNL     1      -2.113  72.691  20.953  1.00  0.00     0.250 A 
HETATM   26  O5  UNL     1      -2.874  71.970  21.650  1.00  0.00    -0.268 OA
HETATM   27  N3  UNL     1      -2.265  74.032  20.926  1.00  0.00    -0.275 N 
HETATM   28  C9  UNL     1      -1.476  74.843  20.197  1.00  0.00     0.331 A 
ATOM     29  H3  UNL     1      -3.011  74.449  21.483  1.00  0.00     0.173 HD
HETATM   30  O6  UNL     1      -1.685  76.088  20.226  1.00  0.00    -0.246 OA
ENDBRANCH   3  22
BRANCH   5  31
HETATM   31  C11 UNL     1       0.592  75.925  15.410  1.00  0.00     0.219 C 
BRANCH  31  32
HETATM   32  O8  UNL     1       1.496  76.197  14.370  1.00  0.00    -0.397 OA
ATOM     33  H8  UNL     1       1.385  75.529  13.705  1.00  0.00     0.209 HD
ENDBRANCH  31  32
ENDBRANCH   5  31
TORSDOF 9
ENDMDL
