MODEL 1
REMARK VINA RESULT: -5.727144570      0.000      0.000
REMARK  7 active torsions:
REMARK  status: ('A' for Active; 'I' for Inactive)
REMARK    1  A    between atoms: C1_2  and  C2_4 
REMARK    2  A    between atoms: N3_7  and  C4_8 
REMARK    3  A    between atoms: C5_10  and  O3_11 
REMARK    4  A    between atoms: C5_10  and  C6_13 
REMARK    5  A    between atoms: C7_16  and  C8_17 
REMARK    6  A    between atoms: C8_17  and  O5_18 
REMARK    7  A    between atoms: C9_20  and  O6_21 
ROOT
HETATM    1  C4  UNL     1       2.410  75.413  18.650  1.00  0.00     0.267 C 
HETATM    2  O2  UNL     1       1.871  75.348  19.942  1.00  0.00    -0.319 OA
HETATM    3  C5  UNL     1       0.643  74.714  19.821  1.00  0.00     0.253 C 
HETATM    4  C7  UNL     1       0.054  75.207  18.539  1.00  0.00     0.114 C 
HETATM    5  C9  UNL     1       1.247  75.611  17.710  1.00  0.00     0.179 C 
ENDROOT
BRANCH   1   6
HETATM    6  N3  UNL     1       3.401  76.442  18.540  1.00  0.00    -0.256 N 
HETATM    7  C3  UNL     1       4.523  76.241  17.825  1.00  0.00     0.145 A 
HETATM    8  C2  UNL     1       5.511  77.193  17.685  1.00  0.00     0.138 A 
HETATM    9  N2  UNL     1       4.668  74.965  17.191  1.00  0.00    -0.081 NA
HETATM   10  C11 UNL     1       5.339  78.407  18.306  1.00  0.00     0.268 A 
HETATM   11  N5  UNL     1       4.221  78.602  19.017  1.00  0.00    -0.274 N 
HETATM   12  O8  UNL     1       6.225  79.321  18.207  1.00  0.00    -0.267 OA
HETATM   13  C10 UNL     1       3.271  77.642  19.132  1.00  0.00     0.332 A 
ATOM     14  H5  UNL     1       4.080  79.497  19.485  1.00  0.00     0.173 HD
HETATM   15  O7  UNL     1       2.260  77.913  19.816  1.00  0.00    -0.246 OA
BRANCH   8  16
HETATM   16  C1  UNL     1       6.710  76.943  16.905  1.00  0.00     0.273 C 
HETATM   17  N1  UNL     1       6.747  77.251  15.524  1.00  0.00    -0.057 NA
HETATM   18  O1  UNL     1       7.710  76.455  17.458  1.00  0.00    -0.271 OA
ENDBRANCH   8  16
ENDBRANCH   1   6
BRANCH   5  19
HETATM   19  O6  UNL     1       1.150  76.917  17.253  1.00  0.00    -0.391 OA
ATOM     20  H6  UNL     1       0.390  77.053  16.698  1.00  0.00     0.210 HD
ENDBRANCH   5  19
BRANCH   3  21
HETATM   21  O3  UNL     1       0.780  73.316  19.746  1.00  0.00    -0.358 OA
ATOM     22  H3  UNL     1       1.309  72.974  20.457  1.00  0.00     0.213 HD
ENDBRANCH   3  21
BRANCH   3  23
HETATM   23  C6  UNL     1      -0.199  75.007  21.008  1.00  0.00     0.294 C 
HETATM   24  N4  UNL     1       0.168  76.010  21.975  1.00  0.00    -0.057 NA
HETATM   25  O4  UNL     1      -1.277  74.401  21.244  1.00  0.00    -0.271 OA
ENDBRANCH   3  23
BRANCH   4  26
HETATM   26  C8  UNL     1      -0.932  76.326  18.709  1.00  0.00     0.177 C 
BRANCH  26  27
HETATM   27  O5  UNL     1      -1.651  76.419  17.501  1.00  0.00    -0.400 OA
ATOM     28  H5  UNL     1      -2.559  76.573  17.735  1.00  0.00     0.209 HD
ENDBRANCH  26  27
ENDBRANCH   4  26
TORSDOF 7
ENDMDL
MODEL 2
REMARK VINA RESULT: -5.722380079      1.719      2.729
REMARK  7 active torsions:
REMARK  status: ('A' for Active; 'I' for Inactive)
REMARK    1  A    between atoms: C1_2  and  C2_4 
REMARK    2  A    between atoms: N3_7  and  C4_8 
REMARK    3  A    between atoms: C5_10  and  O3_11 
REMARK    4  A    between atoms: C5_10  and  C6_13 
REMARK    5  A    between atoms: C7_16  and  C8_17 
REMARK    6  A    between atoms: C8_17  and  O5_18 
REMARK    7  A    between atoms: C9_20  and  O6_21 
ROOT
HETATM    1  C4  UNL     1       1.922  76.775  17.634  1.00  0.00     0.267 C 
HETATM    2  O2  UNL     1       1.401  75.500  17.897  1.00  0.00    -0.319 OA
HETATM    3  C5  UNL     1       0.174  75.700  18.512  1.00  0.00     0.253 C 
HETATM    4  C7  UNL     1       0.352  76.887  19.402  1.00  0.00     0.114 C 
HETATM    5  C9  UNL     1       1.483  77.661  18.773  1.00  0.00     0.179 C 
ENDROOT
BRANCH   1   6
HETATM    6  N3  UNL     1       3.345  76.742  17.466  1.00  0.00    -0.256 N 
HETATM    7  C3  UNL     1       3.957  77.592  16.621  1.00  0.00     0.145 A 
HETATM    8  C2  UNL     1       5.320  77.605  16.418  1.00  0.00     0.138 A 
HETATM    9  N2  UNL     1       3.122  78.514  15.912  1.00  0.00    -0.081 NA
HETATM   10  C11 UNL     1       6.092  76.706  17.116  1.00  0.00     0.268 A 
HETATM   11  N5  UNL     1       5.479  75.862  17.955  1.00  0.00    -0.274 N 
HETATM   12  O8  UNL     1       7.360  76.679  16.963  1.00  0.00    -0.267 OA
HETATM   13  C10 UNL     1       4.135  75.878  18.128  1.00  0.00     0.332 A 
ATOM     14  H5  UNL     1       6.038  75.188  18.477  1.00  0.00     0.173 HD
HETATM   15  O7  UNL     1       3.649  75.054  18.933  1.00  0.00    -0.246 OA
BRANCH   8  16
HETATM   16  C1  UNL     1       5.948  78.537  15.498  1.00  0.00     0.273 C 
HETATM   17  N1  UNL     1       6.185  78.169  14.152  1.00  0.00    -0.057 NA
HETATM   18  O1  UNL     1       6.279  79.666  15.900  1.00  0.00    -0.271 OA
ENDBRANCH   8  16
ENDBRANCH   1   6
BRANCH   5  19
HETATM   19  O6  UNL     1       2.507  77.916  19.673  1.00  0.00    -0.391 OA
ATOM     20  H6  UNL     1       2.415  78.759  20.101  1.00  0.00     0.210 HD
ENDBRANCH   5  19
BRANCH   3  21
HETATM   21  O3  UNL     1      -0.840  75.984  17.578  1.00  0.00    -0.358 OA
ATOM     22  H3  UNL     1      -1.012  76.916  17.515  1.00  0.00     0.213 HD
ENDBRANCH   3  21
BRANCH   3  23
HETATM   23  C6  UNL     1      -0.235  74.472  19.240  1.00  0.00     0.294 C 
HETATM   24  N4  UNL     1       0.674  73.376  19.458  1.00  0.00    -0.057 NA
HETATM   25  O4  UNL     1      -1.393  74.312  19.706  1.00  0.00    -0.271 OA
ENDBRANCH   3  23
BRANCH   4  26
HETATM   26  C8  UNL     1       0.623  76.540  20.838  1.00  0.00     0.177 C 
BRANCH  26  27
HETATM   27  O5  UNL     1       1.693  75.624  20.838  1.00  0.00    -0.400 OA
ATOM     28  H5  UNL     1       1.729  75.247  21.709  1.00  0.00     0.209 HD
ENDBRANCH  26  27
ENDBRANCH   4  26
TORSDOF 7
ENDMDL
MODEL 3
REMARK VINA RESULT: -5.609853327      1.576      2.810
REMARK  7 active torsions:
REMARK  status: ('A' for Active; 'I' for Inactive)
REMARK    1  A    between atoms: C1_2  and  C2_4 
REMARK    2  A    between atoms: N3_7  and  C4_8 
REMARK    3  A    between atoms: C5_10  and  O3_11 
REMARK    4  A    between atoms: C5_10  and  C6_13 
REMARK    5  A    between atoms: C7_16  and  C8_17 
REMARK    6  A    between atoms: C8_17  and  O5_18 
REMARK    7  A    between atoms: C9_20  and  O6_21 
ROOT
HETATM    1  C4  UNL     1       3.694  75.475  18.252  1.00  0.00     0.267 C 
HETATM    2  O2  UNL     1       3.005  75.751  19.442  1.00  0.00    -0.319 OA
HETATM    3  C5  UNL     1       1.764  75.143  19.324  1.00  0.00     0.253 C 
HETATM    4  C7  UNL     1       1.359  75.315  17.896  1.00  0.00     0.114 C 
HETATM    5  C9  UNL     1       2.662  75.465  17.152  1.00  0.00     0.179 C 
ENDROOT
BRANCH   1   6
HETATM    6  N3  UNL     1       4.750  76.415  18.021  1.00  0.00    -0.256 N 
HETATM    7  C3  UNL     1       4.597  77.713  18.340  1.00  0.00     0.145 A 
HETATM    8  C2  UNL     1       5.578  78.662  18.141  1.00  0.00     0.138 A 
HETATM    9  N2  UNL     1       3.341  78.096  18.912  1.00  0.00    -0.081 NA
HETATM   10  C11 UNL     1       6.771  78.259  17.590  1.00  0.00     0.268 A 
HETATM   11  N5  UNL     1       6.919  76.967  17.273  1.00  0.00    -0.274 N 
HETATM   12  O8  UNL     1       7.710  79.100  17.385  1.00  0.00    -0.267 OA
HETATM   13  C10 UNL     1       5.932  76.062  17.485  1.00  0.00     0.332 A 
ATOM     14  H5  UNL     1       7.798  76.654  16.862  1.00  0.00     0.173 HD
HETATM   15  O7  UNL     1       6.159  74.876  17.159  1.00  0.00    -0.246 OA
BRANCH   8  16
HETATM   16  C1  UNL     1       5.379  80.055  18.496  1.00  0.00     0.273 C 
HETATM   17  N1  UNL     1       5.717  80.523  19.789  1.00  0.00    -0.057 NA
HETATM   18  O1  UNL     1       4.907  80.841  17.657  1.00  0.00    -0.271 OA
ENDBRANCH   8  16
ENDBRANCH   1   6
BRANCH   5  19
HETATM   19  O6  UNL     1       2.696  76.618  16.381  1.00  0.00    -0.391 OA
ATOM     20  H6  UNL     1       3.366  77.227  16.668  1.00  0.00     0.210 HD
ENDBRANCH   5  19
BRANCH   3  21
HETATM   21  O3  UNL     1       1.827  73.766  19.612  1.00  0.00    -0.358 OA
ATOM     22  H3  UNL     1       2.642  73.531  20.039  1.00  0.00     0.213 HD
ENDBRANCH   3  21
BRANCH   3  23
HETATM   23  C6  UNL     1       0.809  75.747  20.287  1.00  0.00     0.294 C 
HETATM   24  N4  UNL     1      -0.516  75.216  20.482  1.00  0.00    -0.057 NA
HETATM   25  O4  UNL     1       1.094  76.754  20.986  1.00  0.00    -0.271 OA
ENDBRANCH   3  23
BRANCH   4  26
HETATM   26  C8  UNL     1       0.427  76.469  17.660  1.00  0.00     0.177 C 
BRANCH  26  27
HETATM   27  O5  UNL     1      -0.843  75.918  17.404  1.00  0.00    -0.400 OA
ATOM     28  H5  UNL     1      -1.323  76.563  16.897  1.00  0.00     0.209 HD
ENDBRANCH  26  27
ENDBRANCH   4  26
TORSDOF 7
ENDMDL
MODEL 4
REMARK VINA RESULT: -5.381312042      2.086      6.814
REMARK  7 active torsions:
REMARK  status: ('A' for Active; 'I' for Inactive)
REMARK    1  A    between atoms: C1_2  and  C2_4 
REMARK    2  A    between atoms: N3_7  and  C4_8 
REMARK    3  A    between atoms: C5_10  and  O3_11 
REMARK    4  A    between atoms: C5_10  and  C6_13 
REMARK    5  A    between atoms: C7_16  and  C8_17 
REMARK    6  A    between atoms: C8_17  and  O5_18 
REMARK    7  A    between atoms: C9_20  and  O6_21 
ROOT
HETATM    1  C4  UNL     1       1.248  76.233  19.809  1.00  0.00     0.267 C 
HETATM    2  O2  UNL     1       2.390  75.552  19.364  1.00  0.00    -0.319 OA
HETATM    3  C5  UNL     1       3.098  76.449  18.578  1.00  0.00     0.253 C 
HETATM    4  C7  UNL     1       2.071  77.232  17.826  1.00  0.00     0.114 C 
HETATM    5  C9  UNL     1       0.836  77.155  18.689  1.00  0.00     0.179 C 
ENDROOT
BRANCH   1   6
HETATM    6  N3  UNL     1       0.209  75.326  20.200  1.00  0.00    -0.256 N 
HETATM    7  C3  UNL     1      -0.585  75.603  21.250  1.00  0.00     0.145 A 
HETATM    8  C2  UNL     1      -1.599  74.770  21.673  1.00  0.00     0.138 A 
HETATM    9  N2  UNL     1      -0.337  76.832  21.943  1.00  0.00    -0.081 NA
HETATM   10  C11 UNL     1      -1.809  73.599  20.984  1.00  0.00     0.268 A 
HETATM   11  N5  UNL     1      -1.017  73.327  19.939  1.00  0.00    -0.274 N 
HETATM   12  O8  UNL     1      -2.735  72.793  21.336  1.00  0.00    -0.267 OA
HETATM   13  C10 UNL     1      -0.029  74.172  19.554  1.00  0.00     0.332 A 
ATOM     14  H5  UNL     1      -1.159  72.461  19.420  1.00  0.00     0.173 HD
HETATM   15  O7  UNL     1       0.661  73.836  18.566  1.00  0.00    -0.246 OA
BRANCH   8  16
HETATM   16  C1  UNL     1      -2.437  75.100  22.812  1.00  0.00     0.273 C 
HETATM   17  N1  UNL     1      -3.638  75.827  22.634  1.00  0.00    -0.057 NA
HETATM   18  O1  UNL     1      -2.093  74.739  23.950  1.00  0.00    -0.271 OA
ENDBRANCH   8  16
ENDBRANCH   1   6
BRANCH   5  19
HETATM   19  O6  UNL     1      -0.264  76.681  17.988  1.00  0.00    -0.391 OA
ATOM     20  H6  UNL     1      -1.085  77.019  18.327  1.00  0.00     0.210 HD
ENDBRANCH   5  19
BRANCH   3  21
HETATM   21  O3  UNL     1       3.861  77.338  19.358  1.00  0.00    -0.358 OA
ATOM     22  H3  UNL     1       3.381  77.644  20.118  1.00  0.00     0.213 HD
ENDBRANCH   3  21
BRANCH   3  23
HETATM   23  C6  UNL     1       4.044  75.717  17.699  1.00  0.00     0.294 C 
HETATM   24  N4  UNL     1       5.101  76.390  16.989  1.00  0.00    -0.057 NA
HETATM   25  O4  UNL     1       3.981  74.473  17.519  1.00  0.00    -0.271 OA
ENDBRANCH   3  23
BRANCH   4  26
HETATM   26  C8  UNL     1       1.827  76.737  16.429  1.00  0.00     0.177 C 
BRANCH  26  27
HETATM   27  O5  UNL     1       1.562  75.357  16.529  1.00  0.00    -0.400 OA
ATOM     28  H5  UNL     1       2.354  74.907  16.262  1.00  0.00     0.209 HD
ENDBRANCH  26  27
ENDBRANCH   4  26
TORSDOF 7
ENDMDL
MODEL 5
REMARK VINA RESULT: -5.319407218      3.854      6.344
REMARK  7 active torsions:
REMARK  status: ('A' for Active; 'I' for Inactive)
REMARK    1  A    between atoms: C1_2  and  C2_4 
REMARK    2  A    between atoms: N3_7  and  C4_8 
REMARK    3  A    between atoms: C5_10  and  O3_11 
REMARK    4  A    between atoms: C5_10  and  C6_13 
REMARK    5  A    between atoms: C7_16  and  C8_17 
REMARK    6  A    between atoms: C8_17  and  O5_18 
REMARK    7  A    between atoms: C9_20  and  O6_21 
ROOT
HETATM    1  C4  UNL     1       0.629  76.663  15.120  1.00  0.00     0.267 C 
HETATM    2  O2  UNL     1       0.968  77.893  14.539  1.00  0.00    -0.319 OA
HETATM    3  C5  UNL     1       0.414  77.888  13.267  1.00  0.00     0.253 C 
HETATM    4  C7  UNL     1       0.566  76.491  12.760  1.00  0.00     0.114 C 
HETATM    5  C9  UNL     1       0.636  75.646  14.007  1.00  0.00     0.179 C 
ENDROOT
BRANCH   1   6
HETATM    6  N3  UNL     1       1.513  76.324  16.196  1.00  0.00    -0.256 N 
HETATM    7  C3  UNL     1       1.038  75.772  17.328  1.00  0.00     0.145 A 
HETATM    8  C2  UNL     1       1.839  75.426  18.395  1.00  0.00     0.138 A 
HETATM    9  N2  UNL     1      -0.375  75.548  17.395  1.00  0.00    -0.081 NA
HETATM   10  C11 UNL     1       3.192  75.655  18.295  1.00  0.00     0.268 A 
HETATM   11  N5  UNL     1       3.660  76.205  17.167  1.00  0.00    -0.274 N 
HETATM   12  O8  UNL     1       3.976  75.352  19.256  1.00  0.00    -0.267 OA
HETATM   13  C10 UNL     1       2.840  76.532  16.139  1.00  0.00     0.332 A 
ATOM     14  H5  UNL     1       4.660  76.383  17.080  1.00  0.00     0.173 HD
HETATM   15  O7  UNL     1       3.366  77.040  15.124  1.00  0.00    -0.246 OA
BRANCH   8  16
HETATM   16  C1  UNL     1       1.293  74.832  19.601  1.00  0.00     0.273 C 
HETATM   17  N1  UNL     1       1.010  75.633  20.734  1.00  0.00    -0.057 NA
HETATM   18  O1  UNL     1       1.073  73.609  19.638  1.00  0.00    -0.271 OA
ENDBRANCH   8  16
ENDBRANCH   1   6
BRANCH   5  19
HETATM   19  O6  UNL     1       1.765  74.840  14.031  1.00  0.00    -0.391 OA
ATOM     20  H6  UNL     1       1.600  73.994  14.431  1.00  0.00     0.210 HD
ENDBRANCH   5  19
BRANCH   3  21
HETATM   21  O3  UNL     1      -0.956  78.212  13.292  1.00  0.00    -0.358 OA
ATOM     22  H3  UNL     1      -1.397  77.824  14.037  1.00  0.00     0.213 HD
ENDBRANCH   3  21
BRANCH   3  23
HETATM   23  C6  UNL     1       1.087  78.902  12.416  1.00  0.00     0.294 C 
HETATM   24  N4  UNL     1       2.340  79.505  12.794  1.00  0.00    -0.057 NA
HETATM   25  O4  UNL     1       0.609  79.297  11.321  1.00  0.00    -0.271 OA
ENDBRANCH   3  23
BRANCH   4  26
HETATM   26  C8  UNL     1       1.755  76.292  11.864  1.00  0.00     0.177 C 
BRANCH  26  27
HETATM   27  O5  UNL     1       1.645  74.994  11.328  1.00  0.00    -0.400 OA
ATOM     28  H5  UNL     1       2.305  74.922  10.649  1.00  0.00     0.209 HD
ENDBRANCH  26  27
ENDBRANCH   4  26
TORSDOF 7
ENDMDL
