MODEL 1
REMARK VINA RESULT: -7.376707748      0.000      0.000
REMARK  17 active torsions:
REMARK  status: ('A' for Active; 'I' for Inactive)
REMARK    1  A    between atoms: C4_4  and  N1_5 
REMARK    2  A    between atoms: N1_5  and  C5_8 
REMARK    3  A    between atoms: C5_8  and  C6_9 
REMARK    4  A    between atoms: C6_9  and  N2_10 
REMARK    5  A    between atoms: N2_10  and  C7_13 
REMARK    6  A    between atoms: C7_13  and  C8_14 
REMARK    7  A    between atoms: C8_14  and  C9_15 
REMARK    8  A    between atoms: C9_15  and  C10_16 
REMARK    9  A    between atoms: C10_16  and  N3_17 
REMARK   10  A    between atoms: N3_17  and  C11_19 
REMARK   11  A    between atoms: C11_19  and  C12_20 
REMARK   12  A    between atoms: C12_20  and  C13_21 
REMARK   13  A    between atoms: C13_21  and  C14_22 
REMARK   14  A    between atoms: C14_22  and  N4_23 
REMARK   15  A    between atoms: N4_23  and  C15_26 
REMARK   16  A    between atoms: C15_26  and  C16_27 
REMARK   17  A    between atoms: C16_27  and  C17_28 
ROOT
HETATM    1  C10 UNL     1      -0.996  18.270  29.480  1.00  0.00     0.060 C 
ENDROOT
BRANCH   1   2
HETATM    2  C9  UNL     1      -2.089  17.407  28.949  1.00  0.00     0.046 C 
BRANCH   2   3
HETATM    3  C8  UNL     1      -2.379  17.543  27.495  1.00  0.00     0.032 C 
BRANCH   3   4
HETATM    4  C7  UNL     1      -2.527  19.039  27.184  1.00  0.00     0.232 C 
BRANCH   4   5
HETATM    5  N2  UNL     1      -3.814  19.509  27.614  1.00  0.00    -0.074 N 
ATOM      6  H22 UNL     1      -3.806  19.772  28.600  1.00  0.00     0.277 HD
ATOM      7  H21 UNL     1      -4.494  18.749  27.661  1.00  0.00     0.277 HD
BRANCH   5   8
HETATM    8  C6  UNL     1      -4.280  20.584  26.783  1.00  0.00     0.259 C 
BRANCH   8   9
HETATM    9  C5  UNL     1      -3.232  21.700  26.620  1.00  0.00     0.260 C 
BRANCH   9  10
HETATM   10  N1  UNL     1      -3.258  22.520  27.786  1.00  0.00    -0.069 N 
ATOM     11  H12 UNL     1      -4.118  22.363  28.311  1.00  0.00     0.277 HD
ATOM     12  H11 UNL     1      -3.387  23.498  27.528  1.00  0.00     0.277 HD
BRANCH  10  13
HETATM   13  C4  UNL     1      -2.132  22.379  28.632  1.00  0.00     0.186 C 
HETATM   14  C3  UNL     1      -2.513  22.715  30.060  1.00  0.00     0.033 C 
HETATM   15  C2  UNL     1      -2.858  24.150  30.230  1.00  0.00     0.002 C 
HETATM   16  C1  UNL     1      -2.402  25.084  29.170  1.00  0.00     0.000 C 
HETATM   17  C22 UNL     1      -1.179  24.691  28.416  1.00  0.00     0.002 C 
HETATM   18  C21 UNL     1      -0.981  23.228  28.212  1.00  0.00     0.033 C 
ENDBRANCH  10  13
ENDBRANCH   9  10
ENDBRANCH   8   9
ENDBRANCH   5   8
ENDBRANCH   4   5
ENDBRANCH   3   4
ENDBRANCH   2   3
ENDBRANCH   1   2
BRANCH   1  19
HETATM   19  N3  UNL     1      -0.859  18.364  30.864  1.00  0.00    -0.382 N 
ATOM     20  H3  UNL     1      -1.459  19.020  31.364  1.00  0.00     0.163 HD
BRANCH  19  21
HETATM   21  C11 UNL     1       0.045  17.616  31.596  1.00  0.00     0.060 C 
BRANCH  21  22
HETATM   22  C12 UNL     1       0.993  16.712  30.915  1.00  0.00     0.046 C 
BRANCH  22  23
HETATM   23  C13 UNL     1       0.869  15.258  31.174  1.00  0.00     0.032 C 
BRANCH  23  24
HETATM   24  C14 UNL     1       0.464  14.897  32.568  1.00  0.00     0.232 C 
BRANCH  24  25
HETATM   25  N4  UNL     1       1.566  14.492  33.410  1.00  0.00    -0.075 N 
ATOM     26  H42 UNL     1       1.354  13.620  33.895  1.00  0.00     0.277 HD
ATOM     27  H41 UNL     1       2.360  14.180  32.849  1.00  0.00     0.277 HD
BRANCH  25  28
HETATM   28  C15 UNL     1       1.966  15.525  34.346  1.00  0.00     0.234 C 
BRANCH  28  29
HETATM   29  C16 UNL     1       1.047  15.588  35.538  1.00  0.00     0.060 C 
BRANCH  29  30
HETATM   30  C17 UNL     1       1.173  14.342  36.352  1.00  0.00     0.187 C 
HETATM   31  C18 UNL     1       2.573  14.174  36.849  1.00  0.00     0.034 C 
HETATM   32  C19 UNL     1       2.398  14.011  38.350  1.00  0.00     0.029 C 
HETATM   33  C20 UNL     1       1.085  14.747  38.624  1.00  0.00     0.233 C 
HETATM   34  N5  UNL     1       0.281  14.370  37.495  1.00  0.00    -0.071 N 
ATOM     35  H52 UNL     1      -0.532  14.971  37.359  1.00  0.00     0.277 HD
ATOM     36  H51 UNL     1      -0.228  13.497  37.633  1.00  0.00     0.277 HD
ENDBRANCH  29  30
ENDBRANCH  28  29
ENDBRANCH  25  28
ENDBRANCH  24  25
ENDBRANCH  23  24
ENDBRANCH  22  23
ENDBRANCH  21  22
ENDBRANCH  19  21
ENDBRANCH   1  19
TORSDOF 17
ENDMDL
MODEL 2
REMARK VINA RESULT: -7.302700228      0.870      1.381
REMARK  17 active torsions:
REMARK  status: ('A' for Active; 'I' for Inactive)
REMARK    1  A    between atoms: C4_4  and  N1_5 
REMARK    2  A    between atoms: N1_5  and  C5_8 
REMARK    3  A    between atoms: C5_8  and  C6_9 
REMARK    4  A    between atoms: C6_9  and  N2_10 
REMARK    5  A    between atoms: N2_10  and  C7_13 
REMARK    6  A    between atoms: C7_13  and  C8_14 
REMARK    7  A    between atoms: C8_14  and  C9_15 
REMARK    8  A    between atoms: C9_15  and  C10_16 
REMARK    9  A    between atoms: C10_16  and  N3_17 
REMARK   10  A    between atoms: N3_17  and  C11_19 
REMARK   11  A    between atoms: C11_19  and  C12_20 
REMARK   12  A    between atoms: C12_20  and  C13_21 
REMARK   13  A    between atoms: C13_21  and  C14_22 
REMARK   14  A    between atoms: C14_22  and  N4_23 
REMARK   15  A    between atoms: N4_23  and  C15_26 
REMARK   16  A    between atoms: C15_26  and  C16_27 
REMARK   17  A    between atoms: C16_27  and  C17_28 
ROOT
HETATM    1  C10 UNL     1      -2.185  18.294  30.059  1.00  0.00     0.060 C 
ENDROOT
BRANCH   1   2
HETATM    2  C9  UNL     1      -2.047  17.481  28.817  1.00  0.00     0.046 C 
BRANCH   2   3
HETATM    3  C8  UNL     1      -2.398  18.169  27.544  1.00  0.00     0.032 C 
BRANCH   3   4
HETATM    4  C7  UNL     1      -3.411  19.274  27.873  1.00  0.00     0.232 C 
BRANCH   4   5
HETATM    5  N2  UNL     1      -3.504  20.201  26.781  1.00  0.00    -0.074 N 
ATOM      6  H22 UNL     1      -4.388  20.102  26.280  1.00  0.00     0.277 HD
ATOM      7  H21 UNL     1      -2.867  19.953  26.023  1.00  0.00     0.277 HD
BRANCH   5   8
HETATM    8  C6  UNL     1      -3.296  21.551  27.224  1.00  0.00     0.259 C 
BRANCH   8   9
HETATM    9  C5  UNL     1      -3.271  21.670  28.759  1.00  0.00     0.260 C 
BRANCH   9  10
HETATM   10  N1  UNL     1      -2.199  22.532  29.130  1.00  0.00    -0.069 N 
ATOM     11  H12 UNL     1      -1.302  22.086  28.937  1.00  0.00     0.277 HD
ATOM     12  H11 UNL     1      -2.141  22.611  30.145  1.00  0.00     0.277 HD
BRANCH  10  13
HETATM   13  C4  UNL     1      -2.245  23.819  28.539  1.00  0.00     0.186 C 
HETATM   14  C3  UNL     1      -0.872  24.459  28.584  1.00  0.00     0.033 C 
HETATM   15  C2  UNL     1      -0.436  24.764  29.972  1.00  0.00     0.002 C 
HETATM   16  C1  UNL     1      -1.490  24.804  31.017  1.00  0.00     0.000 C 
HETATM   17  C22 UNL     1      -2.863  25.165  30.565  1.00  0.00     0.002 C 
HETATM   18  C21 UNL     1      -3.236  24.721  29.192  1.00  0.00     0.033 C 
ENDBRANCH  10  13
ENDBRANCH   9  10
ENDBRANCH   8   9
ENDBRANCH   5   8
ENDBRANCH   4   5
ENDBRANCH   3   4
ENDBRANCH   2   3
ENDBRANCH   1   2
BRANCH   1  19
HETATM   19  N3  UNL     1      -1.022  18.614  30.757  1.00  0.00    -0.382 N 
ATOM     20  H3  UNL     1      -0.660  19.565  30.681  1.00  0.00     0.163 HD
BRANCH  19  21
HETATM   21  C11 UNL     1      -0.331  17.712  31.547  1.00  0.00     0.060 C 
BRANCH  21  22
HETATM   22  C12 UNL     1       0.805  16.949  30.994  1.00  0.00     0.046 C 
BRANCH  22  23
HETATM   23  C13 UNL     1       0.770  15.473  31.116  1.00  0.00     0.032 C 
BRANCH  23  24
HETATM   24  C14 UNL     1       0.419  14.959  32.475  1.00  0.00     0.232 C 
BRANCH  24  25
HETATM   25  N4  UNL     1       1.562  14.533  33.251  1.00  0.00    -0.075 N 
ATOM     26  H42 UNL     1       1.412  13.603  33.642  1.00  0.00     0.277 HD
ATOM     27  H41 UNL     1       2.360  14.332  32.647  1.00  0.00     0.277 HD
BRANCH  25  28
HETATM   28  C15 UNL     1       1.921  15.481  34.288  1.00  0.00     0.234 C 
BRANCH  28  29
HETATM   29  C16 UNL     1       0.918  15.488  35.413  1.00  0.00     0.060 C 
BRANCH  29  30
HETATM   30  C17 UNL     1       1.118  14.295  36.288  1.00  0.00     0.187 C 
HETATM   31  C18 UNL     1       2.546  14.185  36.716  1.00  0.00     0.034 C 
HETATM   32  C19 UNL     1       2.455  14.106  38.232  1.00  0.00     0.029 C 
HETATM   33  C20 UNL     1       1.142  14.830  38.534  1.00  0.00     0.233 C 
HETATM   34  N5  UNL     1       0.288  14.372  37.475  1.00  0.00    -0.071 N 
ATOM     35  H52 UNL     1      -0.545  14.947  37.350  1.00  0.00     0.277 HD
ATOM     36  H51 UNL     1      -0.192  13.498  37.691  1.00  0.00     0.277 HD
ENDBRANCH  29  30
ENDBRANCH  28  29
ENDBRANCH  25  28
ENDBRANCH  24  25
ENDBRANCH  23  24
ENDBRANCH  22  23
ENDBRANCH  21  22
ENDBRANCH  19  21
ENDBRANCH   1  19
TORSDOF 17
ENDMDL
MODEL 3
REMARK VINA RESULT: -7.266951800      1.592      2.317
REMARK  17 active torsions:
REMARK  status: ('A' for Active; 'I' for Inactive)
REMARK    1  A    between atoms: C4_4  and  N1_5 
REMARK    2  A    between atoms: N1_5  and  C5_8 
REMARK    3  A    between atoms: C5_8  and  C6_9 
REMARK    4  A    between atoms: C6_9  and  N2_10 
REMARK    5  A    between atoms: N2_10  and  C7_13 
REMARK    6  A    between atoms: C7_13  and  C8_14 
REMARK    7  A    between atoms: C8_14  and  C9_15 
REMARK    8  A    between atoms: C9_15  and  C10_16 
REMARK    9  A    between atoms: C10_16  and  N3_17 
REMARK   10  A    between atoms: N3_17  and  C11_19 
REMARK   11  A    between atoms: C11_19  and  C12_20 
REMARK   12  A    between atoms: C12_20  and  C13_21 
REMARK   13  A    between atoms: C13_21  and  C14_22 
REMARK   14  A    between atoms: C14_22  and  N4_23 
REMARK   15  A    between atoms: N4_23  and  C15_26 
REMARK   16  A    between atoms: C15_26  and  C16_27 
REMARK   17  A    between atoms: C16_27  and  C17_28 
ROOT
HETATM    1  C10 UNL     1       0.126  17.144  32.064  1.00  0.00     0.060 C 
ENDROOT
BRANCH   1   2
HETATM    2  C9  UNL     1      -0.625  18.019  31.120  1.00  0.00     0.046 C 
BRANCH   2   3
HETATM    3  C8  UNL     1      -0.633  17.586  29.695  1.00  0.00     0.032 C 
BRANCH   3   4
HETATM    4  C7  UNL     1      -2.085  17.274  29.309  1.00  0.00     0.232 C 
BRANCH   4   5
HETATM    5  N2  UNL     1      -2.192  17.099  27.888  1.00  0.00    -0.074 N 
ATOM      6  H22 UNL     1      -2.982  16.502  27.642  1.00  0.00     0.277 HD
ATOM      7  H21 UNL     1      -1.437  16.518  27.523  1.00  0.00     0.277 HD
BRANCH   5   8
HETATM    8  C6  UNL     1      -2.257  18.365  27.211  1.00  0.00     0.259 C 
BRANCH   8   9
HETATM    9  C5  UNL     1      -3.533  19.155  27.559  1.00  0.00     0.260 C 
BRANCH   9  10
HETATM   10  N1  UNL     1      -3.221  20.545  27.550  1.00  0.00    -0.069 N 
ATOM     11  H12 UNL     1      -4.023  21.091  27.866  1.00  0.00     0.277 HD
ATOM     12  H11 UNL     1      -3.145  20.885  26.592  1.00  0.00     0.277 HD
BRANCH  10  13
HETATM   13  C4  UNL     1      -2.066  20.896  28.290  1.00  0.00     0.186 C 
HETATM   14  C3  UNL     1      -2.406  20.998  29.763  1.00  0.00     0.033 C 
HETATM   15  C2  UNL     1      -3.324  22.130  30.054  1.00  0.00     0.002 C 
HETATM   16  C1  UNL     1      -3.432  23.193  29.023  1.00  0.00     0.000 C 
HETATM   17  C22 UNL     1      -2.245  23.395  28.147  1.00  0.00     0.002 C 
HETATM   18  C21 UNL     1      -1.450  22.174  27.832  1.00  0.00     0.033 C 
ENDBRANCH  10  13
ENDBRANCH   9  10
ENDBRANCH   8   9
ENDBRANCH   5   8
ENDBRANCH   4   5
ENDBRANCH   3   4
ENDBRANCH   2   3
ENDBRANCH   1   2
BRANCH   1  19
HETATM   19  N3  UNL     1       0.319  15.812  31.700  1.00  0.00    -0.382 N 
ATOM     20  H3  UNL     1      -0.500  15.207  31.634  1.00  0.00     0.163 HD
BRANCH  19  21
HETATM   21  C11 UNL     1       1.559  15.266  31.423  1.00  0.00     0.060 C 
BRANCH  21  22
HETATM   22  C12 UNL     1       2.635  16.103  30.855  1.00  0.00     0.046 C 
BRANCH  22  23
HETATM   23  C13 UNL     1       3.873  16.272  31.651  1.00  0.00     0.032 C 
BRANCH  23  24
HETATM   24  C14 UNL     1       3.685  16.937  32.977  1.00  0.00     0.232 C 
BRANCH  24  25
HETATM   25  N4  UNL     1       4.063  16.112  34.102  1.00  0.00    -0.075 N 
ATOM     26  H42 UNL     1       4.234  15.150  33.809  1.00  0.00     0.277 HD
ATOM     27  H41 UNL     1       4.998  16.352  34.435  1.00  0.00     0.277 HD
BRANCH  25  28
HETATM   28  C15 UNL     1       3.098  16.163  35.183  1.00  0.00     0.234 C 
BRANCH  28  29
HETATM   29  C16 UNL     1       2.164  14.980  35.158  1.00  0.00     0.060 C 
BRANCH  29  30
HETATM   30  C17 UNL     1       2.586  13.970  36.173  1.00  0.00     0.187 C 
HETATM   31  C18 UNL     1       3.482  14.589  37.196  1.00  0.00     0.034 C 
HETATM   32  C19 UNL     1       2.807  14.242  38.514  1.00  0.00     0.029 C 
HETATM   33  C20 UNL     1       1.339  14.080  38.113  1.00  0.00     0.233 C 
HETATM   34  N5  UNL     1       1.438  13.400  36.853  1.00  0.00    -0.071 N 
ATOM     35  H52 UNL     1       0.581  13.441  36.302  1.00  0.00     0.277 HD
ATOM     36  H51 UNL     1       1.483  12.385  36.942  1.00  0.00     0.277 HD
ENDBRANCH  29  30
ENDBRANCH  28  29
ENDBRANCH  25  28
ENDBRANCH  24  25
ENDBRANCH  23  24
ENDBRANCH  22  23
ENDBRANCH  21  22
ENDBRANCH  19  21
ENDBRANCH   1  19
TORSDOF 17
ENDMDL
MODEL 4
REMARK VINA RESULT: -7.129090656      1.235      1.551
REMARK  17 active torsions:
REMARK  status: ('A' for Active; 'I' for Inactive)
REMARK    1  A    between atoms: C4_4  and  N1_5 
REMARK    2  A    between atoms: N1_5  and  C5_8 
REMARK    3  A    between atoms: C5_8  and  C6_9 
REMARK    4  A    between atoms: C6_9  and  N2_10 
REMARK    5  A    between atoms: N2_10  and  C7_13 
REMARK    6  A    between atoms: C7_13  and  C8_14 
REMARK    7  A    between atoms: C8_14  and  C9_15 
REMARK    8  A    between atoms: C9_15  and  C10_16 
REMARK    9  A    between atoms: C10_16  and  N3_17 
REMARK   10  A    between atoms: N3_17  and  C11_19 
REMARK   11  A    between atoms: C11_19  and  C12_20 
REMARK   12  A    between atoms: C12_20  and  C13_21 
REMARK   13  A    between atoms: C13_21  and  C14_22 
REMARK   14  A    between atoms: C14_22  and  N4_23 
REMARK   15  A    between atoms: N4_23  and  C15_26 
REMARK   16  A    between atoms: C15_26  and  C16_27 
REMARK   17  A    between atoms: C16_27  and  C17_28 
ROOT
HETATM    1  C10 UNL     1      -1.508  18.661  30.444  1.00  0.00     0.060 C 
ENDROOT
BRANCH   1   2
HETATM    2  C9  UNL     1      -2.748  19.314  29.938  1.00  0.00     0.046 C 
BRANCH   2   3
HETATM    3  C8  UNL     1      -3.340  18.725  28.705  1.00  0.00     0.032 C 
BRANCH   3   4
HETATM    4  C7  UNL     1      -2.856  19.557  27.510  1.00  0.00     0.232 C 
BRANCH   4   5
HETATM    5  N2  UNL     1      -3.899  20.437  27.065  1.00  0.00    -0.074 N 
ATOM      6  H22 UNL     1      -4.734  20.352  27.646  1.00  0.00     0.277 HD
ATOM      7  H21 UNL     1      -4.295  20.131  26.176  1.00  0.00     0.277 HD
BRANCH   5   8
HETATM    8  C6  UNL     1      -3.440  21.797  26.997  1.00  0.00     0.259 C 
BRANCH   8   9
HETATM    9  C5  UNL     1      -2.010  21.964  27.544  1.00  0.00     0.260 C 
BRANCH   9  10
HETATM   10  N1  UNL     1      -1.930  23.212  28.228  1.00  0.00    -0.069 N 
ATOM     11  H12 UNL     1      -1.921  23.982  27.560  1.00  0.00     0.277 HD
ATOM     12  H11 UNL     1      -1.006  23.330  28.643  1.00  0.00     0.277 HD
BRANCH  10  13
HETATM   13  C4  UNL     1      -2.937  23.417  29.202  1.00  0.00     0.186 C 
HETATM   14  C3  UNL     1      -3.456  24.839  29.119  1.00  0.00     0.033 C 
HETATM   15  C2  UNL     1      -2.429  25.839  29.510  1.00  0.00     0.002 C 
HETATM   16  C1  UNL     1      -1.266  25.342  30.288  1.00  0.00     0.000 C 
HETATM   17  C22 UNL     1      -1.492  24.131  31.125  1.00  0.00     0.002 C 
HETATM   18  C21 UNL     1      -2.467  23.139  30.589  1.00  0.00     0.033 C 
ENDBRANCH  10  13
ENDBRANCH   9  10
ENDBRANCH   8   9
ENDBRANCH   5   8
ENDBRANCH   4   5
ENDBRANCH   3   4
ENDBRANCH   2   3
ENDBRANCH   1   2
BRANCH   1  19
HETATM   19  N3  UNL     1      -1.243  17.359  30.022  1.00  0.00    -0.382 N 
ATOM     20  H3  UNL     1      -1.691  17.029  29.167  1.00  0.00     0.163 HD
BRANCH  19  21
HETATM   21  C11 UNL     1      -0.405  16.491  30.699  1.00  0.00     0.060 C 
BRANCH  21  22
HETATM   22  C12 UNL     1       1.048  16.746  30.757  1.00  0.00     0.046 C 
BRANCH  22  23
HETATM   23  C13 UNL     1       1.933  15.615  31.120  1.00  0.00     0.032 C 
BRANCH  23  24
HETATM   24  C14 UNL     1       1.269  14.510  31.877  1.00  0.00     0.232 C 
BRANCH  24  25
HETATM   25  N4  UNL     1       1.569  14.509  33.291  1.00  0.00    -0.075 N 
ATOM     26  H42 UNL     1       1.692  13.557  33.638  1.00  0.00     0.277 HD
ATOM     27  H41 UNL     1       2.506  14.871  33.467  1.00  0.00     0.277 HD
BRANCH  25  28
HETATM   28  C15 UNL     1       0.580  15.224  34.075  1.00  0.00     0.234 C 
BRANCH  28  29
HETATM   29  C16 UNL     1       1.050  15.465  35.487  1.00  0.00     0.060 C 
BRANCH  29  30
HETATM   30  C17 UNL     1       2.005  14.394  35.900  1.00  0.00     0.187 C 
HETATM   31  C18 UNL     1       3.199  14.984  36.580  1.00  0.00     0.034 C 
HETATM   32  C19 UNL     1       3.257  14.237  37.903  1.00  0.00     0.029 C 
HETATM   33  C20 UNL     1       1.800  13.829  38.130  1.00  0.00     0.233 C 
HETATM   34  N5  UNL     1       1.377  13.455  36.810  1.00  0.00    -0.071 N 
ATOM     35  H52 UNL     1       0.363  13.409  36.708  1.00  0.00     0.277 HD
ATOM     36  H51 UNL     1       1.572  12.480  36.582  1.00  0.00     0.277 HD
ENDBRANCH  29  30
ENDBRANCH  28  29
ENDBRANCH  25  28
ENDBRANCH  24  25
ENDBRANCH  23  24
ENDBRANCH  22  23
ENDBRANCH  21  22
ENDBRANCH  19  21
ENDBRANCH   1  19
TORSDOF 17
ENDMDL
MODEL 5
REMARK VINA RESULT: -6.975739067      1.688      9.565
REMARK  17 active torsions:
REMARK  status: ('A' for Active; 'I' for Inactive)
REMARK    1  A    between atoms: C4_4  and  N1_5 
REMARK    2  A    between atoms: N1_5  and  C5_8 
REMARK    3  A    between atoms: C5_8  and  C6_9 
REMARK    4  A    between atoms: C6_9  and  N2_10 
REMARK    5  A    between atoms: N2_10  and  C7_13 
REMARK    6  A    between atoms: C7_13  and  C8_14 
REMARK    7  A    between atoms: C8_14  and  C9_15 
REMARK    8  A    between atoms: C9_15  and  C10_16 
REMARK    9  A    between atoms: C10_16  and  N3_17 
REMARK   10  A    between atoms: N3_17  and  C11_19 
REMARK   11  A    between atoms: C11_19  and  C12_20 
REMARK   12  A    between atoms: C12_20  and  C13_21 
REMARK   13  A    between atoms: C13_21  and  C14_22 
REMARK   14  A    between atoms: C14_22  and  N4_23 
REMARK   15  A    between atoms: N4_23  and  C15_26 
REMARK   16  A    between atoms: C15_26  and  C16_27 
REMARK   17  A    between atoms: C16_27  and  C17_28 
ROOT
HETATM    1  C10 UNL     1      -1.748  19.194  30.431  1.00  0.00     0.060 C 
ENDROOT
BRANCH   1   2
HETATM    2  C9  UNL     1      -0.814  18.270  31.134  1.00  0.00     0.046 C 
BRANCH   2   3
HETATM    3  C8  UNL     1       0.168  17.555  30.274  1.00  0.00     0.032 C 
BRANCH   3   4
HETATM    4  C7  UNL     1       0.052  16.055  30.577  1.00  0.00     0.232 C 
BRANCH   4   5
HETATM    5  N2  UNL     1       1.353  15.498  30.818  1.00  0.00    -0.074 N 
ATOM      6  H22 UNL     1       1.982  16.182  31.240  1.00  0.00     0.277 HD
ATOM      7  H21 UNL     1       1.860  15.338  29.947  1.00  0.00     0.277 HD
BRANCH   5   8
HETATM    8  C6  UNL     1       1.269  14.300  31.607  1.00  0.00     0.259 C 
BRANCH   8   9
HETATM    9  C5  UNL     1       0.234  14.413  32.741  1.00  0.00     0.260 C 
BRANCH   9  10
HETATM   10  N1  UNL     1       0.929  14.558  33.976  1.00  0.00    -0.069 N 
ATOM     11  H12 UNL     1       1.933  14.633  33.812  1.00  0.00     0.277 HD
ATOM     12  H11 UNL     1       0.903  13.685  34.503  1.00  0.00     0.277 HD
BRANCH  10  13
HETATM   13  C4  UNL     1       0.481  15.632  34.783  1.00  0.00     0.186 C 
HETATM   14  C3  UNL     1       0.803  16.952  34.111  1.00  0.00     0.033 C 
HETATM   15  C2  UNL     1       2.265  17.205  34.031  1.00  0.00     0.002 C 
HETATM   16  C1  UNL     1       3.136  16.411  34.934  1.00  0.00     0.000 C 
HETATM   17  C22 UNL     1       2.524  15.940  36.207  1.00  0.00     0.002 C 
HETATM   18  C21 UNL     1       1.071  15.614  36.152  1.00  0.00     0.033 C 
ENDBRANCH  10  13
ENDBRANCH   9  10
ENDBRANCH   8   9
ENDBRANCH   5   8
ENDBRANCH   4   5
ENDBRANCH   3   4
ENDBRANCH   2   3
ENDBRANCH   1   2
BRANCH   1  19
HETATM   19  N3  UNL     1      -3.020  18.717  30.119  1.00  0.00    -0.382 N 
ATOM     20  H3  UNL     1      -3.754  18.804  30.823  1.00  0.00     0.163 HD
BRANCH  19  21
HETATM   21  C11 UNL     1      -3.342  18.131  28.908  1.00  0.00     0.060 C 
BRANCH  21  22
HETATM   22  C12 UNL     1      -3.990  18.923  27.843  1.00  0.00     0.046 C 
BRANCH  22  23
HETATM   23  C13 UNL     1      -3.170  19.938  27.141  1.00  0.00     0.032 C 
BRANCH  23  24
HETATM   24  C14 UNL     1      -3.930  20.835  26.217  1.00  0.00     0.232 C 
BRANCH  24  25
HETATM   25  N4  UNL     1      -3.905  22.227  26.604  1.00  0.00    -0.075 N 
ATOM     26  H42 UNL     1      -3.236  22.751  26.040  1.00  0.00     0.277 HD
ATOM     27  H41 UNL     1      -4.765  22.700  26.323  1.00  0.00     0.277 HD
BRANCH  25  28
HETATM   28  C15 UNL     1      -3.649  22.412  28.019  1.00  0.00     0.234 C 
BRANCH  28  29
HETATM   29  C16 UNL     1      -2.930  23.707  28.295  1.00  0.00     0.060 C 
BRANCH  29  30
HETATM   30  C17 UNL     1      -1.768  23.467  29.201  1.00  0.00     0.187 C 
HETATM   31  C18 UNL     1      -0.926  24.697  29.320  1.00  0.00     0.034 C 
HETATM   32  C19 UNL     1      -0.842  24.925  30.820  1.00  0.00     0.029 C 
HETATM   33  C20 UNL     1      -2.122  24.267  31.338  1.00  0.00     0.233 C 
HETATM   34  N5  UNL     1      -2.209  23.085  30.529  1.00  0.00    -0.071 N 
ATOM     35  H52 UNL     1      -3.133  22.654  30.540  1.00  0.00     0.277 HD
ATOM     36  H51 UNL     1      -1.695  22.292  30.913  1.00  0.00     0.277 HD
ENDBRANCH  29  30
ENDBRANCH  28  29
ENDBRANCH  25  28
ENDBRANCH  24  25
ENDBRANCH  23  24
ENDBRANCH  22  23
ENDBRANCH  21  22
ENDBRANCH  19  21
ENDBRANCH   1  19
TORSDOF 17
ENDMDL
