MODEL 1
REMARK VINA RESULT: -7.553007306      0.000      0.000
REMARK  16 active torsions:
REMARK  status: ('A' for Active; 'I' for Inactive)
REMARK    1  A    between atoms: C4_4  and  N1_5 
REMARK    2  A    between atoms: N1_5  and  C5_7 
REMARK    3  A    between atoms: C6_8  and  N2_9 
REMARK    4  A    between atoms: N2_9  and  C7_11 
REMARK    5  A    between atoms: C7_11  and  C8_12 
REMARK    6  A    between atoms: C8_12  and  C9_13 
REMARK    7  A    between atoms: C9_13  and  N3_14 
REMARK    8  A    between atoms: N3_14  and  C10_17 
REMARK    9  A    between atoms: C10_17  and  C11_18 
REMARK   10  A    between atoms: C11_18  and  C12_19 
REMARK   11  A    between atoms: C12_19  and  C13_20 
REMARK   12  A    between atoms: C13_20  and  N4_21 
REMARK   13  A    between atoms: N4_21  and  C14_24 
REMARK   14  A    between atoms: C14_24  and  C15_25 
REMARK   15  A    between atoms: C15_25  and  N5_26 
REMARK   16  A    between atoms: N5_26  and  C16_28 
ROOT
HETATM    1  N3  UNL     1      -1.338  18.731  30.188  1.00  0.00    -0.075 N 
ATOM      2  H31 UNL     1      -1.602  19.644  30.558  1.00  0.00     0.277 HD
ATOM      3  H32 UNL     1      -0.732  19.033  29.425  1.00  0.00     0.277 HD
ENDROOT
BRANCH   1   4
HETATM    4  C9  UNL     1      -2.495  18.020  29.685  1.00  0.00     0.234 C 
BRANCH   4   5
HETATM    5  C8  UNL     1      -2.162  17.520  28.245  1.00  0.00     0.047 C 
BRANCH   5   6
HETATM    6  C7  UNL     1      -2.137  18.835  27.467  1.00  0.00     0.120 C 
BRANCH   6   7
HETATM    7  N2  UNL     1      -3.439  19.395  27.421  1.00  0.00    -0.398 N 
ATOM      8  H2  UNL     1      -4.163  19.213  28.115  1.00  0.00     0.158 HD
BRANCH   7   9
HETATM    9  C6  UNL     1      -3.612  20.230  26.303  1.00  0.00     0.100 C 
HETATM   10  C5  UNL     1      -3.318  21.637  26.256  1.00  0.00     0.104 C 
BRANCH  10  11
HETATM   11  N1  UNL     1      -3.916  22.642  27.033  1.00  0.00    -0.371 N 
ATOM     12  H1  UNL     1      -4.802  23.078  26.776  1.00  0.00     0.164 HD
BRANCH  11  13
HETATM   13  C4  UNL     1      -3.195  23.010  28.208  1.00  0.00    -0.014 C 
HETATM   14  C3  UNL     1      -3.111  24.474  28.491  1.00  0.00     0.052 C 
HETATM   15  C2  UNL     1      -1.932  24.729  29.411  1.00  0.00     0.006 C 
HETATM   16  C1  UNL     1      -2.103  23.930  30.657  1.00  0.00     0.001 C 
HETATM   17  C22 UNL     1      -2.331  22.465  30.435  1.00  0.00     0.006 C 
HETATM   18  C21 UNL     1      -3.450  22.212  29.435  1.00  0.00     0.052 C 
ENDBRANCH  11  13
ENDBRANCH  10  11
ENDBRANCH   7   9
ENDBRANCH   6   7
ENDBRANCH   5   6
ENDBRANCH   4   5
ENDBRANCH   1   4
BRANCH   1  19
HETATM   19  C10 UNL     1      -0.618  17.985  31.143  1.00  0.00     0.232 C 
BRANCH  19  20
HETATM   20  C11 UNL     1       0.543  17.210  30.710  1.00  0.00     0.029 C 
BRANCH  20  21
HETATM   21  C12 UNL     1       0.504  15.766  31.076  1.00  0.00     0.029 C 
BRANCH  21  22
HETATM   22  C13 UNL     1       1.840  15.352  31.697  1.00  0.00     0.232 C 
BRANCH  22  23
HETATM   23  N4  UNL     1       1.606  14.620  32.911  1.00  0.00    -0.074 N 
ATOM     24  H42 UNL     1       1.742  13.618  32.778  1.00  0.00     0.277 HD
ATOM     25  H41 UNL     1       2.342  14.787  33.598  1.00  0.00     0.277 HD
BRANCH  23  26
HETATM   26  C14 UNL     1       0.268  14.918  33.464  1.00  0.00     0.251 C 
BRANCH  26  27
HETATM   27  C15 UNL     1       0.487  15.391  34.915  1.00  0.00     0.141 C 
BRANCH  27  28
HETATM   28  N5  UNL     1       0.290  14.267  35.743  1.00  0.00    -0.415 N 
ATOM     29  H5  UNL     1      -0.399  13.545  35.531  1.00  0.00     0.153 HD
BRANCH  28  30
HETATM   30  C16 UNL     1       1.111  14.212  36.879  1.00  0.00     0.076 C 
HETATM   31  C17 UNL     1       1.074  15.366  37.822  1.00  0.00     0.024 C 
HETATM   32  C18 UNL     1       2.436  15.365  38.497  1.00  0.00     0.002 C 
HETATM   33  C19 UNL     1       3.317  14.434  37.715  1.00  0.00     0.002 C 
HETATM   34  C20 UNL     1       2.593  14.206  36.421  1.00  0.00     0.024 C 
ENDBRANCH  28  30
ENDBRANCH  27  28
ENDBRANCH  26  27
ENDBRANCH  23  26
ENDBRANCH  22  23
ENDBRANCH  21  22
ENDBRANCH  20  21
ENDBRANCH  19  20
ENDBRANCH   1  19
TORSDOF 16
ENDMDL
MODEL 2
REMARK VINA RESULT: -7.404276765      1.343      1.791
REMARK  16 active torsions:
REMARK  status: ('A' for Active; 'I' for Inactive)
REMARK    1  A    between atoms: C4_4  and  N1_5 
REMARK    2  A    between atoms: N1_5  and  C5_7 
REMARK    3  A    between atoms: C6_8  and  N2_9 
REMARK    4  A    between atoms: N2_9  and  C7_11 
REMARK    5  A    between atoms: C7_11  and  C8_12 
REMARK    6  A    between atoms: C8_12  and  C9_13 
REMARK    7  A    between atoms: C9_13  and  N3_14 
REMARK    8  A    between atoms: N3_14  and  C10_17 
REMARK    9  A    between atoms: C10_17  and  C11_18 
REMARK   10  A    between atoms: C11_18  and  C12_19 
REMARK   11  A    between atoms: C12_19  and  C13_20 
REMARK   12  A    between atoms: C13_20  and  N4_21 
REMARK   13  A    between atoms: N4_21  and  C14_24 
REMARK   14  A    between atoms: C14_24  and  C15_25 
REMARK   15  A    between atoms: C15_25  and  N5_26 
REMARK   16  A    between atoms: N5_26  and  C16_28 
ROOT
HETATM    1  N3  UNL     1      -0.247  18.001  31.189  1.00  0.00    -0.075 N 
ATOM      2  H31 UNL     1      -1.145  18.346  31.527  1.00  0.00     0.277 HD
ATOM      3  H32 UNL     1       0.331  18.814  31.403  1.00  0.00     0.277 HD
ENDROOT
BRANCH   1   4
HETATM    4  C9  UNL     1      -0.288  17.752  29.763  1.00  0.00     0.234 C 
BRANCH   4   5
HETATM    5  C8  UNL     1      -1.786  17.657  29.336  1.00  0.00     0.047 C 
BRANCH   5   6
HETATM    6  C7  UNL     1      -2.364  18.918  29.975  1.00  0.00     0.120 C 
BRANCH   6   7
HETATM    7  N2  UNL     1      -3.686  19.133  29.512  1.00  0.00    -0.398 N 
ATOM      8  H2  UNL     1      -4.479  19.331  30.121  1.00  0.00     0.158 HD
BRANCH   7   9
HETATM    9  C6  UNL     1      -3.774  19.041  28.111  1.00  0.00     0.100 C 
HETATM   10  C5  UNL     1      -3.370  20.059  27.179  1.00  0.00     0.104 C 
BRANCH  10  11
HETATM   11  N1  UNL     1      -3.901  21.354  27.073  1.00  0.00    -0.371 N 
ATOM     12  H1  UNL     1      -4.765  21.551  26.568  1.00  0.00     0.164 HD
BRANCH  11  13
HETATM   13  C4  UNL     1      -3.146  22.374  27.724  1.00  0.00    -0.014 C 
HETATM   14  C3  UNL     1      -3.690  22.859  29.027  1.00  0.00     0.052 C 
HETATM   15  C2  UNL     1      -3.117  24.233  29.318  1.00  0.00     0.006 C 
HETATM   16  C1  UNL     1      -1.629  24.148  29.334  1.00  0.00     0.001 C 
HETATM   17  C22 UNL     1      -1.024  23.540  28.104  1.00  0.00     0.006 C 
HETATM   18  C21 UNL     1      -1.671  22.206  27.756  1.00  0.00     0.052 C 
ENDBRANCH  11  13
ENDBRANCH  10  11
ENDBRANCH   7   9
ENDBRANCH   6   7
ENDBRANCH   5   6
ENDBRANCH   4   5
ENDBRANCH   1   4
BRANCH   1  19
HETATM   19  C10 UNL     1       0.172  16.872  31.923  1.00  0.00     0.232 C 
BRANCH  19  20
HETATM   20  C11 UNL     1       0.433  15.621  31.214  1.00  0.00     0.029 C 
BRANCH  20  21
HETATM   21  C12 UNL     1       1.267  14.640  31.964  1.00  0.00     0.029 C 
BRANCH  21  22
HETATM   22  C13 UNL     1       1.975  15.341  33.126  1.00  0.00     0.232 C 
BRANCH  22  23
HETATM   23  N4  UNL     1       1.766  14.601  34.340  1.00  0.00    -0.074 N 
ATOM     24  H42 UNL     1       1.708  13.598  34.163  1.00  0.00     0.277 HD
ATOM     25  H41 UNL     1       2.598  14.606  34.930  1.00  0.00     0.277 HD
BRANCH  23  26
HETATM   26  C14 UNL     1       0.578  15.094  35.068  1.00  0.00     0.251 C 
BRANCH  26  27
HETATM   27  C15 UNL     1       1.033  15.368  36.515  1.00  0.00     0.141 C 
BRANCH  27  28
HETATM   28  N5  UNL     1       0.671  14.238  37.276  1.00  0.00    -0.415 N 
ATOM     29  H5  UNL     1      -0.215  13.749  37.143  1.00  0.00     0.153 HD
BRANCH  28  30
HETATM   30  C16 UNL     1       1.617  13.833  38.229  1.00  0.00     0.076 C 
HETATM   31  C17 UNL     1       1.470  14.347  39.620  1.00  0.00     0.024 C 
HETATM   32  C18 UNL     1       2.877  14.333  40.195  1.00  0.00     0.002 C 
HETATM   33  C19 UNL     1       3.822  14.122  39.047  1.00  0.00     0.002 C 
HETATM   34  C20 UNL     1       3.006  14.387  37.816  1.00  0.00     0.024 C 
ENDBRANCH  28  30
ENDBRANCH  27  28
ENDBRANCH  26  27
ENDBRANCH  23  26
ENDBRANCH  22  23
ENDBRANCH  21  22
ENDBRANCH  20  21
ENDBRANCH  19  20
ENDBRANCH   1  19
TORSDOF 16
ENDMDL
MODEL 3
REMARK VINA RESULT: -7.307966353      0.943     10.752
REMARK  16 active torsions:
REMARK  status: ('A' for Active; 'I' for Inactive)
REMARK    1  A    between atoms: C4_4  and  N1_5 
REMARK    2  A    between atoms: N1_5  and  C5_7 
REMARK    3  A    between atoms: C6_8  and  N2_9 
REMARK    4  A    between atoms: N2_9  and  C7_11 
REMARK    5  A    between atoms: C7_11  and  C8_12 
REMARK    6  A    between atoms: C8_12  and  C9_13 
REMARK    7  A    between atoms: C9_13  and  N3_14 
REMARK    8  A    between atoms: N3_14  and  C10_17 
REMARK    9  A    between atoms: C10_17  and  C11_18 
REMARK   10  A    between atoms: C11_18  and  C12_19 
REMARK   11  A    between atoms: C12_19  and  C13_20 
REMARK   12  A    between atoms: C13_20  and  N4_21 
REMARK   13  A    between atoms: N4_21  and  C14_24 
REMARK   14  A    between atoms: C14_24  and  C15_25 
REMARK   15  A    between atoms: C15_25  and  N5_26 
REMARK   16  A    between atoms: N5_26  and  C16_28 
ROOT
HETATM    1  N3  UNL     1      -0.308  17.916  30.999  1.00  0.00    -0.075 N 
ATOM      2  H31 UNL     1       0.071  18.739  31.468  1.00  0.00     0.277 HD
ATOM      3  H32 UNL     1      -0.973  17.615  31.712  1.00  0.00     0.277 HD
ENDROOT
BRANCH   1   4
HETATM    4  C9  UNL     1       0.719  16.917  30.788  1.00  0.00     0.234 C 
BRANCH   4   5
HETATM    5  C8  UNL     1       0.284  15.617  31.533  1.00  0.00     0.047 C 
BRANCH   5   6
HETATM    6  C7  UNL     1       1.637  14.973  31.833  1.00  0.00     0.120 C 
BRANCH   6   7
HETATM    7  N2  UNL     1       1.698  14.590  33.197  1.00  0.00    -0.398 N 
ATOM      8  H2  UNL     1       2.390  13.945  33.578  1.00  0.00     0.158 HD
BRANCH   7   9
HETATM    9  C6  UNL     1       0.691  15.205  33.962  1.00  0.00     0.100 C 
HETATM   10  C5  UNL     1       0.635  15.241  35.399  1.00  0.00     0.104 C 
BRANCH  10  11
HETATM   11  N1  UNL     1       0.538  14.135  36.258  1.00  0.00    -0.371 N 
ATOM     12  H1  UNL     1      -0.003  13.303  36.020  1.00  0.00     0.164 HD
BRANCH  11  13
HETATM   13  C4  UNL     1       1.250  14.258  37.488  1.00  0.00    -0.014 C 
HETATM   14  C3  UNL     1       2.740  14.247  37.384  1.00  0.00     0.052 C 
HETATM   15  C2  UNL     1       3.323  13.864  38.731  1.00  0.00     0.006 C 
HETATM   16  C1  UNL     1       2.844  14.827  39.763  1.00  0.00     0.001 C 
HETATM   17  C22 UNL     1       1.356  14.989  39.825  1.00  0.00     0.006 C 
HETATM   18  C21 UNL     1       0.760  15.275  38.454  1.00  0.00     0.052 C 
ENDBRANCH  11  13
ENDBRANCH  10  11
ENDBRANCH   7   9
ENDBRANCH   6   7
ENDBRANCH   5   6
ENDBRANCH   4   5
ENDBRANCH   1   4
BRANCH   1  19
HETATM   19  C10 UNL     1      -0.969  18.271  29.806  1.00  0.00     0.232 C 
BRANCH  19  20
HETATM   20  C11 UNL     1      -2.043  17.415  29.307  1.00  0.00     0.029 C 
BRANCH  20  21
HETATM   21  C12 UNL     1      -2.297  17.518  27.842  1.00  0.00     0.029 C 
BRANCH  21  22
HETATM   22  C13 UNL     1      -2.329  18.990  27.424  1.00  0.00     0.232 C 
BRANCH  22  23
HETATM   23  N4  UNL     1      -3.617  19.553  27.725  1.00  0.00    -0.074 N 
ATOM     24  H42 UNL     1      -4.311  18.827  27.904  1.00  0.00     0.277 HD
ATOM     25  H41 UNL     1      -3.624  20.004  28.640  1.00  0.00     0.277 HD
BRANCH  23  26
HETATM   26  C14 UNL     1      -4.059  20.477  26.660  1.00  0.00     0.251 C 
BRANCH  26  27
HETATM   27  C15 UNL     1      -3.420  21.844  26.972  1.00  0.00     0.141 C 
BRANCH  27  28
HETATM   28  N5  UNL     1      -3.733  22.143  28.313  1.00  0.00    -0.415 N 
ATOM     29  H5  UNL     1      -4.544  21.744  28.787  1.00  0.00     0.153 HD
BRANCH  28  30
HETATM   30  C16 UNL     1      -2.850  23.028  28.949  1.00  0.00     0.076 C 
HETATM   31  C17 UNL     1      -3.244  24.462  29.038  1.00  0.00     0.024 C 
HETATM   32  C18 UNL     1      -1.932  25.225  29.118  1.00  0.00     0.002 C 
HETATM   33  C19 UNL     1      -0.838  24.263  28.757  1.00  0.00     0.002 C 
HETATM   34  C20 UNL     1      -1.538  23.095  28.126  1.00  0.00     0.024 C 
ENDBRANCH  28  30
ENDBRANCH  27  28
ENDBRANCH  26  27
ENDBRANCH  23  26
ENDBRANCH  22  23
ENDBRANCH  21  22
ENDBRANCH  20  21
ENDBRANCH  19  20
ENDBRANCH   1  19
TORSDOF 16
ENDMDL
MODEL 4
REMARK VINA RESULT: -7.307615064      1.223      1.554
REMARK  16 active torsions:
REMARK  status: ('A' for Active; 'I' for Inactive)
REMARK    1  A    between atoms: C4_4  and  N1_5 
REMARK    2  A    between atoms: N1_5  and  C5_7 
REMARK    3  A    between atoms: C6_8  and  N2_9 
REMARK    4  A    between atoms: N2_9  and  C7_11 
REMARK    5  A    between atoms: C7_11  and  C8_12 
REMARK    6  A    between atoms: C8_12  and  C9_13 
REMARK    7  A    between atoms: C9_13  and  N3_14 
REMARK    8  A    between atoms: N3_14  and  C10_17 
REMARK    9  A    between atoms: C10_17  and  C11_18 
REMARK   10  A    between atoms: C11_18  and  C12_19 
REMARK   11  A    between atoms: C12_19  and  C13_20 
REMARK   12  A    between atoms: C13_20  and  N4_21 
REMARK   13  A    between atoms: N4_21  and  C14_24 
REMARK   14  A    between atoms: C14_24  and  C15_25 
REMARK   15  A    between atoms: C15_25  and  N5_26 
REMARK   16  A    between atoms: N5_26  and  C16_28 
ROOT
HETATM    1  N3  UNL     1      -1.066  18.518  30.603  1.00  0.00    -0.075 N 
ATOM      2  H31 UNL     1      -2.059  18.382  30.793  1.00  0.00     0.277 HD
ATOM      3  H32 UNL     1      -1.015  19.530  30.722  1.00  0.00     0.277 HD
ENDROOT
BRANCH   1   4
HETATM    4  C9  UNL     1      -0.738  18.135  29.246  1.00  0.00     0.234 C 
BRANCH   4   5
HETATM    5  C8  UNL     1      -2.029  17.559  28.584  1.00  0.00     0.047 C 
BRANCH   5   6
HETATM    6  C7  UNL     1      -3.106  18.455  29.194  1.00  0.00     0.120 C 
BRANCH   6   7
HETATM    7  N2  UNL     1      -3.999  18.894  28.184  1.00  0.00    -0.398 N 
ATOM      8  H2  UNL     1      -4.990  18.655  28.155  1.00  0.00     0.158 HD
BRANCH   7   9
HETATM    9  C6  UNL     1      -3.355  19.696  27.225  1.00  0.00     0.100 C 
HETATM   10  C5  UNL     1      -2.856  21.027  27.447  1.00  0.00     0.104 C 
BRANCH  10  11
HETATM   11  N1  UNL     1      -3.613  22.155  27.804  1.00  0.00    -0.371 N 
ATOM     12  H1  UNL     1      -4.633  22.157  27.782  1.00  0.00     0.164 HD
BRANCH  11  13
HETATM   13  C4  UNL     1      -2.853  23.295  28.200  1.00  0.00    -0.014 C 
HETATM   14  C3  UNL     1      -3.444  24.128  29.290  1.00  0.00     0.052 C 
HETATM   15  C2  UNL     1      -2.834  25.515  29.234  1.00  0.00     0.006 C 
HETATM   16  C1  UNL     1      -1.352  25.402  29.360  1.00  0.00     0.001 C 
HETATM   17  C22 UNL     1      -0.710  24.470  28.378  1.00  0.00     0.006 C 
HETATM   18  C21 UNL     1      -1.389  23.107  28.364  1.00  0.00     0.052 C 
ENDBRANCH  11  13
ENDBRANCH  10  11
ENDBRANCH   7   9
ENDBRANCH   6   7
ENDBRANCH   5   6
ENDBRANCH   4   5
ENDBRANCH   1   4
BRANCH   1  19
HETATM   19  C10 UNL     1      -0.270  17.854  31.560  1.00  0.00     0.232 C 
BRANCH  19  20
HETATM   20  C11 UNL     1       0.571  16.739  31.132  1.00  0.00     0.029 C 
BRANCH  20  21
HETATM   21  C12 UNL     1       0.238  15.428  31.757  1.00  0.00     0.029 C 
BRANCH  21  22
HETATM   22  C13 UNL     1       1.524  14.702  32.158  1.00  0.00     0.232 C 
BRANCH  22  23
HETATM   23  N4  UNL     1       1.548  14.507  33.582  1.00  0.00    -0.074 N 
ATOM     24  H42 UNL     1       0.621  14.287  33.947  1.00  0.00     0.277 HD
ATOM     25  H41 UNL     1       2.024  13.641  33.834  1.00  0.00     0.277 HD
BRANCH  23  26
HETATM   26  C14 UNL     1       2.139  15.674  34.271  1.00  0.00     0.251 C 
BRANCH  26  27
HETATM   27  C15 UNL     1       2.785  15.139  35.564  1.00  0.00     0.141 C 
BRANCH  27  28
HETATM   28  N5  UNL     1       2.021  14.026  35.969  1.00  0.00    -0.415 N 
ATOM     29  H5  UNL     1       1.889  13.207  35.374  1.00  0.00     0.153 HD
BRANCH  28  30
HETATM   30  C16 UNL     1       1.456  14.124  37.249  1.00  0.00     0.076 C 
HETATM   31  C17 UNL     1       0.937  15.452  37.682  1.00  0.00     0.024 C 
HETATM   32  C18 UNL     1       1.034  15.436  39.199  1.00  0.00     0.002 C 
HETATM   33  C19 UNL     1       1.885  14.258  39.576  1.00  0.00     0.002 C 
HETATM   34  C20 UNL     1       2.560  13.841  38.301  1.00  0.00     0.024 C 
ENDBRANCH  28  30
ENDBRANCH  27  28
ENDBRANCH  26  27
ENDBRANCH  23  26
ENDBRANCH  22  23
ENDBRANCH  21  22
ENDBRANCH  20  21
ENDBRANCH  19  20
ENDBRANCH   1  19
TORSDOF 16
ENDMDL
MODEL 5
REMARK VINA RESULT: -7.300714771      2.141      3.853
REMARK  16 active torsions:
REMARK  status: ('A' for Active; 'I' for Inactive)
REMARK    1  A    between atoms: C4_4  and  N1_5 
REMARK    2  A    between atoms: N1_5  and  C5_7 
REMARK    3  A    between atoms: C6_8  and  N2_9 
REMARK    4  A    between atoms: N2_9  and  C7_11 
REMARK    5  A    between atoms: C7_11  and  C8_12 
REMARK    6  A    between atoms: C8_12  and  C9_13 
REMARK    7  A    between atoms: C9_13  and  N3_14 
REMARK    8  A    between atoms: N3_14  and  C10_17 
REMARK    9  A    between atoms: C10_17  and  C11_18 
REMARK   10  A    between atoms: C11_18  and  C12_19 
REMARK   11  A    between atoms: C12_19  and  C13_20 
REMARK   12  A    between atoms: C13_20  and  N4_21 
REMARK   13  A    between atoms: N4_21  and  C14_24 
REMARK   14  A    between atoms: C14_24  and  C15_25 
REMARK   15  A    between atoms: C15_25  and  N5_26 
REMARK   16  A    between atoms: N5_26  and  C16_28 
ROOT
HETATM    1  N3  UNL     1      -0.590  17.946  31.327  1.00  0.00    -0.075 N 
ATOM      2  H31 UNL     1      -1.354  18.354  31.865  1.00  0.00     0.277 HD
ATOM      3  H32 UNL     1      -0.059  18.795  31.128  1.00  0.00     0.277 HD
ENDROOT
BRANCH   1   4
HETATM    4  C9  UNL     1      -1.077  17.338  30.106  1.00  0.00     0.234 C 
BRANCH   4   5
HETATM    5  C8  UNL     1      -1.238  18.466  29.040  1.00  0.00     0.047 C 
BRANCH   5   6
HETATM    6  C7  UNL     1      -2.171  19.436  29.763  1.00  0.00     0.120 C 
BRANCH   6   7
HETATM    7  N2  UNL     1      -3.517  19.167  29.408  1.00  0.00    -0.398 N 
ATOM      8  H2  UNL     1      -4.261  18.991  30.084  1.00  0.00     0.158 HD
BRANCH   7   9
HETATM    9  C6  UNL     1      -3.704  19.172  28.015  1.00  0.00     0.100 C 
HETATM   10  C5  UNL     1      -3.374  20.257  27.130  1.00  0.00     0.104 C 
BRANCH  10  11
HETATM   11  N1  UNL     1      -3.921  21.550  27.154  1.00  0.00    -0.371 N 
ATOM     12  H1  UNL     1      -4.822  21.771  26.730  1.00  0.00     0.164 HD
BRANCH  11  13
HETATM   13  C4  UNL     1      -3.124  22.533  27.813  1.00  0.00    -0.014 C 
HETATM   14  C3  UNL     1      -3.591  22.950  29.169  1.00  0.00     0.052 C 
HETATM   15  C2  UNL     1      -2.995  24.305  29.499  1.00  0.00     0.006 C 
HETATM   16  C1  UNL     1      -1.508  24.215  29.426  1.00  0.00     0.001 C 
HETATM   17  C22 UNL     1      -0.977  23.670  28.134  1.00  0.00     0.006 C 
HETATM   18  C21 UNL     1      -1.650  22.358  27.754  1.00  0.00     0.052 C 
ENDBRANCH  11  13
ENDBRANCH  10  11
ENDBRANCH   7   9
ENDBRANCH   6   7
ENDBRANCH   5   6
ENDBRANCH   4   5
ENDBRANCH   1   4
BRANCH   1  19
HETATM   19  C10 UNL     1       0.163  17.050  32.114  1.00  0.00     0.232 C 
BRANCH  19  20
HETATM   20  C11 UNL     1       0.393  15.694  31.622  1.00  0.00     0.029 C 
BRANCH  20  21
HETATM   21  C12 UNL     1       0.211  14.620  32.639  1.00  0.00     0.029 C 
BRANCH  21  22
HETATM   22  C13 UNL     1       0.647  15.129  34.014  1.00  0.00     0.232 C 
BRANCH  22  23
HETATM   23  N4  UNL     1       2.003  14.731  34.273  1.00  0.00    -0.074 N 
ATOM     24  H42 UNL     1       2.048  13.803  34.695  1.00  0.00     0.277 HD
ATOM     25  H41 UNL     1       2.508  14.533  33.409  1.00  0.00     0.277 HD
BRANCH  23  26
HETATM   26  C14 UNL     1       2.708  15.736  35.097  1.00  0.00     0.251 C 
BRANCH  26  27
HETATM   27  C15 UNL     1       3.320  16.756  34.116  1.00  0.00     0.141 C 
BRANCH  27  28
HETATM   28  N5  UNL     1       3.981  16.012  33.117  1.00  0.00    -0.415 N 
ATOM     29  H5  UNL     1       4.142  15.008  33.199  1.00  0.00     0.153 HD
BRANCH  28  30
HETATM   30  C16 UNL     1       4.402  16.752  32.003  1.00  0.00     0.076 C 
HETATM   31  C17 UNL     1       3.746  16.476  30.694  1.00  0.00     0.024 C 
HETATM   32  C18 UNL     1       4.780  16.859  29.648  1.00  0.00     0.002 C 
HETATM   33  C19 UNL     1       6.088  17.037  30.362  1.00  0.00     0.002 C 
HETATM   34  C20 UNL     1       5.885  16.407  31.710  1.00  0.00     0.024 C 
ENDBRANCH  28  30
ENDBRANCH  27  28
ENDBRANCH  26  27
ENDBRANCH  23  26
ENDBRANCH  22  23
ENDBRANCH  21  22
ENDBRANCH  20  21
ENDBRANCH  19  20
ENDBRANCH   1  19
TORSDOF 16
ENDMDL
