MODEL 1
REMARK VINA RESULT: -10.521894070      0.000      0.000
REMARK  16 active torsions:
REMARK  status: ('A' for Active; 'I' for Inactive)
REMARK    1  A    between atoms: N1_1  and  C1_4 
REMARK    2  A    between atoms: C5_15  and  N5_16 
REMARK    3  A    between atoms: N5_16  and  C6_17 
REMARK    4  A    between atoms: C8_22  and  N7_23 
REMARK    5  A    between atoms: N7_23  and  C9_25 
REMARK    6  A    between atoms: C11_27  and  C12_28 
REMARK       I    between atoms: C12_28  and  N8_30 
REMARK    7  A    between atoms: N8_30  and  C13_32 
REMARK    8  A    between atoms: C18_37  and  C19_38 
REMARK       I    between atoms: C19_38  and  N9_40 
REMARK    9  A    between atoms: N9_40  and  C20_42 
REMARK   10  A    between atoms: C20_42  and  C21_43 
REMARK   11  A    between atoms: C20_42  and  C24_48 
REMARK   12  A    between atoms: C21_43  and  C22_44 
REMARK   13  A    between atoms: C22_44  and  C23_45 
REMARK   14  A    between atoms: C24_48  and  N10_49 
REMARK   15  A    between atoms: C25_51  and  N11_52 
REMARK   16  A    between atoms: N11_52  and  N12_54 
ROOT
HETATM    1  C9  UNL     1       0.720 -44.785 -23.660  1.00  0.00     0.107 A 
HETATM    2  C10 UNL     1      -0.271 -43.850 -23.581  1.00  0.00     0.083 A 
HETATM    3  C11 UNL     1      -1.185 -43.838 -22.514  1.00  0.00     0.108 A 
HETATM    4  N13 UNL     1      -1.069 -44.763 -21.568  1.00  0.00    -0.304 N 
ATOM      5  H13 UNL     1      -1.713 -44.783 -20.778  1.00  0.00     0.171 HD
HETATM    6  C26 UNL     1      -0.065 -45.691 -21.676  1.00  0.00     0.326 A 
HETATM    7  O6  UNL     1       0.036 -46.570 -20.769  1.00  0.00    -0.247 OA
HETATM    8  N14 UNL     1       0.806 -45.708 -22.687  1.00  0.00    -0.295 N 
ATOM      9  H14 UNL     1       1.535 -46.421 -22.722  1.00  0.00     0.172 HD
ENDROOT
BRANCH   3  10
HETATM   10  C12 UNL     1      -2.192 -42.770 -22.486  1.00  0.00     0.273 C 
HETATM   11  O2  UNL     1      -3.293 -43.029 -21.977  1.00  0.00    -0.266 OA
HETATM   12  N8  UNL     1      -1.897 -41.529 -23.019  1.00  0.00    -0.321 N 
ATOM     13  H8  UNL     1      -0.948 -41.443 -23.383  1.00  0.00     0.169 HD
BRANCH  12  14
HETATM   14  C13 UNL     1      -2.684 -40.352 -23.147  1.00  0.00     0.050 A 
HETATM   15  C14 UNL     1      -3.225 -40.076 -24.375  1.00  0.00     0.030 A 
HETATM   16  C15 UNL     1      -3.853 -38.867 -24.674  1.00  0.00     0.002 A 
HETATM   17  C16 UNL     1      -3.904 -37.958 -23.657  1.00  0.00     0.001 A 
HETATM   18  C17 UNL     1      -3.382 -38.183 -22.407  1.00  0.00     0.019 A 
HETATM   19  C18 UNL     1      -2.758 -39.414 -22.147  1.00  0.00     0.058 A 
BRANCH  19  20
HETATM   20  C19 UNL     1      -2.368 -39.708 -20.790  1.00  0.00     0.254 C 
HETATM   21  O3  UNL     1      -3.218 -39.964 -19.917  1.00  0.00    -0.268 OA
HETATM   22  N9  UNL     1      -1.007 -39.737 -20.325  1.00  0.00    -0.351 N 
ATOM     23  H9  UNL     1      -0.237 -39.563 -20.970  1.00  0.00     0.163 HD
BRANCH  22  24
HETATM   24  C20 UNL     1      -0.738 -40.025 -18.889  1.00  0.00     0.103 C 
BRANCH  24  25
HETATM   25  C21 UNL     1      -0.472 -41.475 -18.718  1.00  0.00     0.037 C 
BRANCH  25  26
HETATM   26  C22 UNL     1      -1.490 -42.347 -18.089  1.00  0.00     0.115 C 
BRANCH  26  27
HETATM   27  C23 UNL     1      -1.613 -43.734 -18.456  1.00  0.00     0.172 C 
HETATM   28  O4  UNL     1      -0.653 -44.570 -18.284  1.00  0.00    -0.648 OA
HETATM   29  O5  UNL     1      -2.800 -44.207 -19.018  1.00  0.00    -0.648 OA
ENDBRANCH  26  27
ENDBRANCH  25  26
ENDBRANCH  24  25
BRANCH  24  30
HETATM   30  C24 UNL     1       0.266 -39.057 -18.388  1.00  0.00     0.145 C 
BRANCH  30  31
HETATM   31  N10 UNL     1       1.604 -39.696 -18.268  1.00  0.00    -0.383 N 
HETATM   32  C25 UNL     1       2.538 -39.317 -19.075  1.00  0.00     0.192 C 
ATOM     33  H10 UNL     1       1.779 -40.416 -17.566  1.00  0.00     0.160 HD
BRANCH  32  34
HETATM   34  N11 UNL     1       3.821 -39.876 -19.011  1.00  0.00    -0.303 N 
ATOM     35  H11 UNL     1       4.162 -40.441 -19.789  1.00  0.00     0.187 HD
BRANCH  34  36
HETATM   36  N12 UNL     1       4.632 -39.673 -17.907  1.00  0.00    -0.344 N 
ATOM     37 2H12 UNL     1       4.267 -39.911 -16.985  1.00  0.00     0.176 HD
ATOM     38 1H12 UNL     1       5.573 -39.293 -18.010  1.00  0.00     0.176 HD
ENDBRANCH  34  36
ENDBRANCH  32  34
ENDBRANCH  30  31
ENDBRANCH  24  30
ENDBRANCH  22  24
ENDBRANCH  19  20
ENDBRANCH  12  14
ENDBRANCH   3  10
BRANCH   1  39
HETATM   39  N7  UNL     1       1.667 -44.771 -24.747  1.00  0.00    -0.365 N 
ATOM     40  H7  UNL     1       1.665 -45.501 -25.460  1.00  0.00     0.161 HD
BRANCH  39  41
HETATM   41  C8  UNL     1       2.626 -43.681 -24.788  1.00  0.00     0.172 C 
HETATM   42  C6  UNL     1       3.472 -43.698 -26.054  1.00  0.00     0.387 C 
HETATM   43  N6  UNL     1       2.425 -42.811 -26.656  1.00  0.00    -0.039 N 
HETATM   44  C7  UNL     1       2.072 -42.405 -25.333  1.00  0.00     0.266 C 
ATOM     45  H62 UNL     1       2.671 -42.121 -27.365  1.00  0.00     0.281 HD
ATOM     46  H61 UNL     1       1.722 -43.190 -27.290  1.00  0.00     0.281 HD
BRANCH  42  47
HETATM   47  N5  UNL     1       3.599 -44.824 -26.755  1.00  0.00    -0.392 NA
BRANCH  47  48
HETATM   48  C5  UNL     1       3.952 -45.811 -27.298  1.00  0.00     0.206 A 
HETATM   49  N4  UNL     1       3.510 -46.142 -28.578  1.00  0.00    -0.326 N 
HETATM   50  C4  UNL     1       3.880 -47.235 -29.212  1.00  0.00     0.183 A 
ATOM     51  H4  UNL     1       2.866 -45.505 -29.047  1.00  0.00     0.169 HD
HETATM   52  N3  UNL     1       4.719 -48.126 -28.669  1.00  0.00    -0.346 N 
HETATM   53  C3  UNL     1       5.212 -47.916 -27.441  1.00  0.00     0.135 A 
ATOM     54  H3  UNL     1       4.983 -48.963 -29.188  1.00  0.00     0.167 HD
HETATM   55  C2  UNL     1       6.066 -48.849 -26.884  1.00  0.00     0.288 A 
HETATM   56  C27 UNL     1       4.845 -46.792 -26.767  1.00  0.00     0.139 A 
HETATM   57  N2  UNL     1       6.519 -48.592 -25.644  1.00  0.00    -0.154 N 
HETATM   58  O1  UNL     1       6.443 -49.897 -27.444  1.00  0.00    -0.265 OA
HETATM   59  C1  UNL     1       6.156 -47.484 -24.982  1.00  0.00     0.679 A 
ATOM     60  H2  UNL     1       7.153 -49.255 -25.198  1.00  0.00     0.187 HD
HETATM   61  N15 UNL     1       5.310 -46.553 -25.525  1.00  0.00    -0.185 N 
ATOM     62  H15 UNL     1       5.043 -45.714 -25.010  1.00  0.00     0.184 HD
BRANCH  59  63
HETATM   63  N1  UNL     1       6.595 -47.235 -23.777  1.00  0.00    -0.234 N 
ATOM     64  H12 UNL     1       7.607 -47.251 -23.652  1.00  0.00     0.174 HD
ATOM     65  H11 UNL     1       5.956 -47.038 -23.007  1.00  0.00     0.174 HD
ENDBRANCH  59  63
ENDBRANCH  47  48
ENDBRANCH  42  47
ENDBRANCH  39  41
ENDBRANCH   1  39
TORSDOF 16
ENDMDL
MODEL 2
REMARK VINA RESULT: -10.511800916      1.934      3.000
REMARK  16 active torsions:
REMARK  status: ('A' for Active; 'I' for Inactive)
REMARK    1  A    between atoms: N1_1  and  C1_4 
REMARK    2  A    between atoms: C5_15  and  N5_16 
REMARK    3  A    between atoms: N5_16  and  C6_17 
REMARK    4  A    between atoms: C8_22  and  N7_23 
REMARK    5  A    between atoms: N7_23  and  C9_25 
REMARK    6  A    between atoms: C11_27  and  C12_28 
REMARK       I    between atoms: C12_28  and  N8_30 
REMARK    7  A    between atoms: N8_30  and  C13_32 
REMARK    8  A    between atoms: C18_37  and  C19_38 
REMARK       I    between atoms: C19_38  and  N9_40 
REMARK    9  A    between atoms: N9_40  and  C20_42 
REMARK   10  A    between atoms: C20_42  and  C21_43 
REMARK   11  A    between atoms: C20_42  and  C24_48 
REMARK   12  A    between atoms: C21_43  and  C22_44 
REMARK   13  A    between atoms: C22_44  and  C23_45 
REMARK   14  A    between atoms: C24_48  and  N10_49 
REMARK   15  A    between atoms: C25_51  and  N11_52 
REMARK   16  A    between atoms: N11_52  and  N12_54 
ROOT
HETATM    1  C9  UNL     1       0.732 -44.776 -23.681  1.00  0.00     0.107 A 
HETATM    2  C10 UNL     1      -0.258 -43.838 -23.638  1.00  0.00     0.083 A 
HETATM    3  C11 UNL     1      -1.190 -43.802 -22.588  1.00  0.00     0.108 A 
HETATM    4  N13 UNL     1      -1.092 -44.709 -21.621  1.00  0.00    -0.304 N 
ATOM      5  H13 UNL     1      -1.751 -44.712 -20.842  1.00  0.00     0.171 HD
HETATM    6  C26 UNL     1      -0.089 -45.641 -21.693  1.00  0.00     0.326 A 
HETATM    7  O6  UNL     1      -0.006 -46.502 -20.768  1.00  0.00    -0.247 OA
HETATM    8  N14 UNL     1       0.799 -45.680 -22.689  1.00  0.00    -0.295 N 
ATOM      9  H14 UNL     1       1.526 -46.395 -22.697  1.00  0.00     0.172 HD
ENDROOT
BRANCH   3  10
HETATM   10  C12 UNL     1      -2.194 -42.732 -22.599  1.00  0.00     0.273 C 
HETATM   11  O2  UNL     1      -3.308 -42.981 -22.110  1.00  0.00    -0.266 OA
HETATM   12  N8  UNL     1      -1.885 -41.500 -23.143  1.00  0.00    -0.321 N 
ATOM     13  H8  UNL     1      -0.927 -41.421 -23.488  1.00  0.00     0.169 HD
BRANCH  12  14
HETATM   14  C13 UNL     1      -2.666 -40.323 -23.307  1.00  0.00     0.050 A 
HETATM   15  C14 UNL     1      -3.330 -40.158 -24.493  1.00  0.00     0.030 A 
HETATM   16  C15 UNL     1      -3.971 -38.970 -24.845  1.00  0.00     0.002 A 
HETATM   17  C16 UNL     1      -3.902 -37.964 -23.925  1.00  0.00     0.001 A 
HETATM   18  C17 UNL     1      -3.253 -38.076 -22.721  1.00  0.00     0.019 A 
HETATM   19  C18 UNL     1      -2.621 -39.289 -22.404  1.00  0.00     0.058 A 
BRANCH  19  20
HETATM   20  C19 UNL     1      -2.093 -39.457 -21.072  1.00  0.00     0.254 C 
HETATM   21  O3  UNL     1      -2.692 -40.144 -20.224  1.00  0.00    -0.268 OA
HETATM   22  N9  UNL     1      -0.865 -38.870 -20.607  1.00  0.00    -0.351 N 
ATOM     23  H9  UNL     1      -0.290 -38.308 -21.235  1.00  0.00     0.163 HD
BRANCH  22  24
HETATM   24  C20 UNL     1      -0.443 -39.095 -19.196  1.00  0.00     0.103 C 
BRANCH  24  25
HETATM   25  C21 UNL     1       0.927 -39.665 -19.176  1.00  0.00     0.037 C 
BRANCH  25  26
HETATM   26  C22 UNL     1       2.039 -38.901 -18.565  1.00  0.00     0.115 C 
BRANCH  26  27
HETATM   27  C23 UNL     1       3.396 -39.380 -18.630  1.00  0.00     0.172 C 
HETATM   28  O4  UNL     1       3.850 -39.997 -19.661  1.00  0.00    -0.648 OA
HETATM   29  O5  UNL     1       4.262 -39.178 -17.555  1.00  0.00    -0.648 OA
ENDBRANCH  26  27
ENDBRANCH  25  26
ENDBRANCH  24  25
BRANCH  24  30
HETATM   30  C24 UNL     1      -0.710 -37.864 -18.416  1.00  0.00     0.145 C 
BRANCH  30  31
HETATM   31  N10 UNL     1      -2.172 -37.607 -18.318  1.00  0.00    -0.383 N 
HETATM   32  C25 UNL     1      -2.636 -36.512 -18.820  1.00  0.00     0.192 C 
ATOM     33  H10 UNL     1      -2.792 -38.279 -17.865  1.00  0.00     0.160 HD
BRANCH  32  34
HETATM   34  N11 UNL     1      -4.005 -36.213 -18.764  1.00  0.00    -0.303 N 
ATOM     35  H11 UNL     1      -4.417 -35.910 -17.882  1.00  0.00     0.187 HD
BRANCH  34  36
HETATM   36  N12 UNL     1      -4.804 -36.324 -19.890  1.00  0.00    -0.344 N 
ATOM     37 2H12 UNL     1      -4.558 -37.018 -20.595  1.00  0.00     0.176 HD
ATOM     38 1H12 UNL     1      -5.620 -35.725 -20.014  1.00  0.00     0.176 HD
ENDBRANCH  34  36
ENDBRANCH  32  34
ENDBRANCH  30  31
ENDBRANCH  24  30
ENDBRANCH  22  24
ENDBRANCH  19  20
ENDBRANCH  12  14
ENDBRANCH   3  10
BRANCH   1  39
HETATM   39  N7  UNL     1       1.699 -44.786 -24.751  1.00  0.00    -0.365 N 
ATOM     40  H7  UNL     1       1.718 -45.538 -25.439  1.00  0.00     0.161 HD
BRANCH  39  41
HETATM   41  C8  UNL     1       2.644 -43.685 -24.812  1.00  0.00     0.172 C 
HETATM   42  C6  UNL     1       3.480 -43.706 -26.084  1.00  0.00     0.387 C 
HETATM   43  N6  UNL     1       2.418 -42.837 -26.686  1.00  0.00    -0.039 N 
HETATM   44  C7  UNL     1       2.071 -42.421 -25.365  1.00  0.00     0.266 C 
ATOM     45  H62 UNL     1       2.650 -42.152 -27.405  1.00  0.00     0.281 HD
ATOM     46  H61 UNL     1       1.714 -43.231 -27.311  1.00  0.00     0.281 HD
BRANCH  42  47
HETATM   47  N5  UNL     1       3.614 -44.838 -26.775  1.00  0.00    -0.392 NA
BRANCH  47  48
HETATM   48  C5  UNL     1       3.974 -45.824 -27.315  1.00  0.00     0.206 A 
HETATM   49  N4  UNL     1       3.546 -46.155 -28.599  1.00  0.00    -0.326 N 
HETATM   50  C4  UNL     1       3.925 -47.248 -29.229  1.00  0.00     0.183 A 
ATOM     51  H4  UNL     1       2.907 -45.519 -29.076  1.00  0.00     0.169 HD
HETATM   52  N3  UNL     1       4.760 -48.137 -28.677  1.00  0.00    -0.346 N 
HETATM   53  C3  UNL     1       5.239 -47.926 -27.444  1.00  0.00     0.135 A 
ATOM     54  H3  UNL     1       5.032 -48.974 -29.194  1.00  0.00     0.167 HD
HETATM   55  C2  UNL     1       6.089 -48.858 -26.878  1.00  0.00     0.288 A 
HETATM   56  C27 UNL     1       4.864 -46.803 -26.774  1.00  0.00     0.139 A 
HETATM   57  N2  UNL     1       6.528 -48.601 -25.634  1.00  0.00    -0.154 N 
HETATM   58  O1  UNL     1       6.474 -49.906 -27.434  1.00  0.00    -0.265 OA
HETATM   59  C1  UNL     1       6.156 -47.494 -24.975  1.00  0.00     0.679 A 
ATOM     60  H2  UNL     1       7.158 -49.263 -25.180  1.00  0.00     0.187 HD
HETATM   61  N15 UNL     1       5.314 -46.564 -25.527  1.00  0.00    -0.185 N 
ATOM     62  H15 UNL     1       5.040 -45.726 -25.015  1.00  0.00     0.184 HD
BRANCH  59  63
HETATM   63  N1  UNL     1       6.582 -47.244 -23.765  1.00  0.00    -0.234 N 
ATOM     64  H12 UNL     1       7.216 -46.452 -23.663  1.00  0.00     0.174 HD
ATOM     65  H11 UNL     1       6.293 -47.815 -22.971  1.00  0.00     0.174 HD
ENDBRANCH  59  63
ENDBRANCH  47  48
ENDBRANCH  42  47
ENDBRANCH  39  41
ENDBRANCH   1  39
TORSDOF 16
ENDMDL
MODEL 3
REMARK VINA RESULT: -10.393849472      1.784      2.860
REMARK  16 active torsions:
REMARK  status: ('A' for Active; 'I' for Inactive)
REMARK    1  A    between atoms: N1_1  and  C1_4 
REMARK    2  A    between atoms: C5_15  and  N5_16 
REMARK    3  A    between atoms: N5_16  and  C6_17 
REMARK    4  A    between atoms: C8_22  and  N7_23 
REMARK    5  A    between atoms: N7_23  and  C9_25 
REMARK    6  A    between atoms: C11_27  and  C12_28 
REMARK       I    between atoms: C12_28  and  N8_30 
REMARK    7  A    between atoms: N8_30  and  C13_32 
REMARK    8  A    between atoms: C18_37  and  C19_38 
REMARK       I    between atoms: C19_38  and  N9_40 
REMARK    9  A    between atoms: N9_40  and  C20_42 
REMARK   10  A    between atoms: C20_42  and  C21_43 
REMARK   11  A    between atoms: C20_42  and  C24_48 
REMARK   12  A    between atoms: C21_43  and  C22_44 
REMARK   13  A    between atoms: C22_44  and  C23_45 
REMARK   14  A    between atoms: C24_48  and  N10_49 
REMARK   15  A    between atoms: C25_51  and  N11_52 
REMARK   16  A    between atoms: N11_52  and  N12_54 
ROOT
HETATM    1  C9  UNL     1       0.913 -44.904 -23.676  1.00  0.00     0.107 A 
HETATM    2  C10 UNL     1      -0.031 -43.923 -23.573  1.00  0.00     0.083 A 
HETATM    3  C11 UNL     1      -0.942 -43.890 -22.505  1.00  0.00     0.108 A 
HETATM    4  N13 UNL     1      -0.871 -44.841 -21.580  1.00  0.00    -0.304 N 
ATOM      5  H13 UNL     1      -1.514 -44.847 -20.789  1.00  0.00     0.171 HD
HETATM    6  C26 UNL     1       0.086 -45.815 -21.711  1.00  0.00     0.326 A 
HETATM    7  O6  UNL     1       0.144 -46.719 -20.825  1.00  0.00    -0.247 OA
HETATM    8  N14 UNL     1       0.954 -45.853 -22.724  1.00  0.00    -0.295 N 
ATOM      9  H14 UNL     1       1.646 -46.600 -22.777  1.00  0.00     0.172 HD
ENDROOT
BRANCH   3  10
HETATM   10  C12 UNL     1      -1.894 -42.774 -22.451  1.00  0.00     0.273 C 
HETATM   11  O2  UNL     1      -2.919 -42.924 -21.768  1.00  0.00    -0.266 OA
HETATM   12  N8  UNL     1      -1.634 -41.610 -23.148  1.00  0.00    -0.321 N 
ATOM     13  H8  UNL     1      -0.744 -41.609 -23.649  1.00  0.00     0.169 HD
BRANCH  12  14
HETATM   14  C13 UNL     1      -2.387 -40.412 -23.290  1.00  0.00     0.050 A 
HETATM   15  C14 UNL     1      -3.308 -40.353 -24.303  1.00  0.00     0.030 A 
HETATM   16  C15 UNL     1      -3.969 -39.178 -24.660  1.00  0.00     0.002 A 
HETATM   17  C16 UNL     1      -3.647 -38.071 -23.930  1.00  0.00     0.001 A 
HETATM   18  C17 UNL     1      -2.736 -38.074 -22.903  1.00  0.00     0.019 A 
HETATM   19  C18 UNL     1      -2.092 -39.278 -22.574  1.00  0.00     0.058 A 
BRANCH  19  20
HETATM   20  C19 UNL     1      -1.269 -39.311 -21.390  1.00  0.00     0.254 C 
HETATM   21  O3  UNL     1      -0.150 -39.857 -21.399  1.00  0.00    -0.268 OA
HETATM   22  N9  UNL     1      -1.644 -38.737 -20.125  1.00  0.00    -0.351 N 
ATOM     23  H9  UNL     1      -2.533 -38.248 -20.023  1.00  0.00     0.163 HD
BRANCH  22  24
HETATM   24  C20 UNL     1      -0.716 -38.866 -18.967  1.00  0.00     0.103 C 
BRANCH  24  25
HETATM   25  C21 UNL     1       0.167 -37.674 -18.908  1.00  0.00     0.037 C 
BRANCH  25  26
HETATM   26  C22 UNL     1       1.584 -37.820 -18.505  1.00  0.00     0.115 C 
BRANCH  26  27
HETATM   27  C23 UNL     1       2.210 -39.115 -18.437  1.00  0.00     0.172 C 
HETATM   28  O4  UNL     1       2.733 -39.672 -19.469  1.00  0.00    -0.648 OA
HETATM   29  O5  UNL     1       2.262 -39.805 -17.225  1.00  0.00    -0.648 OA
ENDBRANCH  26  27
ENDBRANCH  25  26
ENDBRANCH  24  25
BRANCH  24  30
HETATM   30  C24 UNL     1      -1.501 -39.227 -17.764  1.00  0.00     0.145 C 
BRANCH  30  31
HETATM   31  N10 UNL     1      -2.657 -40.089 -18.126  1.00  0.00    -0.383 N 
HETATM   32  C25 UNL     1      -2.756 -41.248 -17.565  1.00  0.00     0.192 C 
ATOM     33  H10 UNL     1      -3.355 -39.773 -18.800  1.00  0.00     0.160 HD
BRANCH  32  34
HETATM   34  N11 UNL     1      -3.824 -42.107 -17.859  1.00  0.00    -0.303 N 
ATOM     35  H11 UNL     1      -4.343 -42.542 -17.097  1.00  0.00     0.187 HD
BRANCH  34  36
HETATM   36  N12 UNL     1      -4.182 -42.372 -19.170  1.00  0.00    -0.344 N 
ATOM     37 2H12 UNL     1      -3.444 -42.478 -19.865  1.00  0.00     0.176 HD
ATOM     38 1H12 UNL     1      -5.163 -42.459 -19.438  1.00  0.00     0.176 HD
ENDBRANCH  34  36
ENDBRANCH  32  34
ENDBRANCH  30  31
ENDBRANCH  24  30
ENDBRANCH  22  24
ENDBRANCH  19  20
ENDBRANCH  12  14
ENDBRANCH   3  10
BRANCH   1  39
HETATM   39  N7  UNL     1       1.858 -44.913 -24.764  1.00  0.00    -0.365 N 
ATOM     40  H7  UNL     1       1.913 -45.699 -25.411  1.00  0.00     0.161 HD
BRANCH  39  41
HETATM   41  C8  UNL     1       2.731 -43.760 -24.904  1.00  0.00     0.172 C 
HETATM   42  C6  UNL     1       3.522 -43.785 -26.205  1.00  0.00     0.387 C 
HETATM   43  N6  UNL     1       2.389 -43.008 -26.801  1.00  0.00    -0.039 N 
HETATM   44  C7  UNL     1       2.063 -42.558 -25.485  1.00  0.00     0.266 C 
ATOM     45  H62 UNL     1       2.553 -42.341 -27.555  1.00  0.00     0.281 HD
ATOM     46  H61 UNL     1       1.689 -43.469 -27.383  1.00  0.00     0.281 HD
BRANCH  42  47
HETATM   47  N5  UNL     1       3.702 -44.935 -26.854  1.00  0.00    -0.392 NA
BRANCH  47  48
HETATM   48  C5  UNL     1       4.106 -45.906 -27.388  1.00  0.00     0.206 A 
HETATM   49  N4  UNL     1       3.733 -46.237 -28.690  1.00  0.00    -0.326 N 
HETATM   50  C4  UNL     1       4.161 -47.313 -29.315  1.00  0.00     0.183 A 
ATOM     51  H4  UNL     1       3.095 -45.612 -29.184  1.00  0.00     0.169 HD
HETATM   52  N3  UNL     1       4.998 -48.187 -28.741  1.00  0.00    -0.346 N 
HETATM   53  C3  UNL     1       5.428 -47.975 -27.490  1.00  0.00     0.135 A 
ATOM     54  H3  UNL     1       5.309 -49.011 -29.255  1.00  0.00     0.167 HD
HETATM   55  C2  UNL     1       6.280 -48.891 -26.902  1.00  0.00     0.288 A 
HETATM   56  C27 UNL     1       5.000 -46.868 -26.824  1.00  0.00     0.139 A 
HETATM   57  N2  UNL     1       6.667 -48.635 -25.640  1.00  0.00    -0.154 N 
HETATM   58  O1  UNL     1       6.711 -49.924 -27.453  1.00  0.00    -0.265 OA
HETATM   59  C1  UNL     1       6.244 -47.543 -24.985  1.00  0.00     0.679 A 
ATOM     60  H2  UNL     1       7.297 -49.285 -25.170  1.00  0.00     0.187 HD
HETATM   61  N15 UNL     1       5.400 -46.630 -25.560  1.00  0.00    -0.185 N 
ATOM     62  H15 UNL     1       5.087 -45.803 -25.051  1.00  0.00     0.184 HD
BRANCH  59  63
HETATM   63  N1  UNL     1       6.620 -47.295 -23.759  1.00  0.00    -0.234 N 
ATOM     64  H12 UNL     1       6.605 -48.084 -23.113  1.00  0.00     0.174 HD
ATOM     65  H11 UNL     1       6.909 -46.360 -23.470  1.00  0.00     0.174 HD
ENDBRANCH  59  63
ENDBRANCH  47  48
ENDBRANCH  42  47
ENDBRANCH  39  41
ENDBRANCH   1  39
TORSDOF 16
ENDMDL
MODEL 4
REMARK VINA RESULT: -10.241659891      1.533      2.105
REMARK  16 active torsions:
REMARK  status: ('A' for Active; 'I' for Inactive)
REMARK    1  A    between atoms: N1_1  and  C1_4 
REMARK    2  A    between atoms: C5_15  and  N5_16 
REMARK    3  A    between atoms: N5_16  and  C6_17 
REMARK    4  A    between atoms: C8_22  and  N7_23 
REMARK    5  A    between atoms: N7_23  and  C9_25 
REMARK    6  A    between atoms: C11_27  and  C12_28 
REMARK       I    between atoms: C12_28  and  N8_30 
REMARK    7  A    between atoms: N8_30  and  C13_32 
REMARK    8  A    between atoms: C18_37  and  C19_38 
REMARK       I    between atoms: C19_38  and  N9_40 
REMARK    9  A    between atoms: N9_40  and  C20_42 
REMARK   10  A    between atoms: C20_42  and  C21_43 
REMARK   11  A    between atoms: C20_42  and  C24_48 
REMARK   12  A    between atoms: C21_43  and  C22_44 
REMARK   13  A    between atoms: C22_44  and  C23_45 
REMARK   14  A    between atoms: C24_48  and  N10_49 
REMARK   15  A    between atoms: C25_51  and  N11_52 
REMARK   16  A    between atoms: N11_52  and  N12_54 
ROOT
HETATM    1  C9  UNL     1       0.807 -44.938 -23.759  1.00  0.00     0.107 A 
HETATM    2  C10 UNL     1      -0.234 -44.055 -23.759  1.00  0.00     0.083 A 
HETATM    3  C11 UNL     1      -1.182 -44.038 -22.724  1.00  0.00     0.108 A 
HETATM    4  N13 UNL     1      -1.051 -44.909 -21.728  1.00  0.00    -0.304 N 
ATOM      5  H13 UNL     1      -1.720 -44.924 -20.959  1.00  0.00     0.171 HD
HETATM    6  C26 UNL     1       0.002 -45.786 -21.757  1.00  0.00     0.326 A 
HETATM    7  O6  UNL     1       0.118 -46.613 -20.805  1.00  0.00    -0.247 OA
HETATM    8  N14 UNL     1       0.907 -45.807 -22.739  1.00  0.00    -0.295 N 
ATOM      9  H14 UNL     1       1.672 -46.481 -22.714  1.00  0.00     0.172 HD
ENDROOT
BRANCH   3  10
HETATM   10  C12 UNL     1      -2.243 -43.025 -22.782  1.00  0.00     0.273 C 
HETATM   11  O2  UNL     1      -3.401 -43.388 -22.523  1.00  0.00    -0.266 OA
HETATM   12  N8  UNL     1      -1.935 -41.722 -23.119  1.00  0.00    -0.321 N 
ATOM     13  H8  UNL     1      -0.942 -41.553 -23.284  1.00  0.00     0.169 HD
BRANCH  12  14
HETATM   14  C13 UNL     1      -2.759 -40.573 -23.277  1.00  0.00     0.050 A 
HETATM   15  C14 UNL     1      -3.145 -40.233 -24.546  1.00  0.00     0.030 A 
HETATM   16  C15 UNL     1      -3.790 -39.034 -24.848  1.00  0.00     0.002 A 
HETATM   17  C16 UNL     1      -4.023 -38.203 -23.790  1.00  0.00     0.001 A 
HETATM   18  C17 UNL     1      -3.661 -38.494 -22.499  1.00  0.00     0.019 A 
HETATM   19  C18 UNL     1      -3.014 -39.713 -22.237  1.00  0.00     0.058 A 
BRANCH  19  20
HETATM   20  C19 UNL     1      -2.792 -40.086 -20.861  1.00  0.00     0.254 C 
HETATM   21  O3  UNL     1      -3.565 -40.866 -20.274  1.00  0.00    -0.268 OA
HETATM   22  N9  UNL     1      -1.695 -39.615 -20.059  1.00  0.00    -0.351 N 
ATOM     23  H9  UNL     1      -0.995 -38.989 -20.457  1.00  0.00     0.163 HD
BRANCH  22  24
HETATM   24  C20 UNL     1      -1.595 -40.053 -18.639  1.00  0.00     0.103 C 
BRANCH  24  25
HETATM   25  C21 UNL     1      -0.881 -41.351 -18.572  1.00  0.00     0.037 C 
BRANCH  25  26
HETATM   26  C22 UNL     1      -1.504 -42.507 -17.888  1.00  0.00     0.115 C 
BRANCH  26  27
HETATM   27  C23 UNL     1      -1.585 -43.796 -18.525  1.00  0.00     0.172 C 
HETATM   28  O4  UNL     1      -0.658 -44.676 -18.397  1.00  0.00    -0.648 OA
HETATM   29  O5  UNL     1      -2.692 -44.121 -19.309  1.00  0.00    -0.648 OA
ENDBRANCH  26  27
ENDBRANCH  25  26
ENDBRANCH  24  25
BRANCH  24  30
HETATM   30  C24 UNL     1      -1.088 -38.922 -17.825  1.00  0.00     0.145 C 
BRANCH  30  31
HETATM   31  N10 UNL     1      -2.183 -37.967 -17.507  1.00  0.00    -0.383 N 
HETATM   32  C25 UNL     1      -1.952 -36.704 -17.645  1.00  0.00     0.192 C 
ATOM     33  H10 UNL     1      -3.093 -38.301 -17.189  1.00  0.00     0.160 HD
BRANCH  32  34
HETATM   34  N11 UNL     1      -2.943 -35.752 -17.367  1.00  0.00    -0.303 N 
ATOM     35  H11 UNL     1      -2.743 -34.995 -16.714  1.00  0.00     0.187 HD
BRANCH  34  36
HETATM   36  N12 UNL     1      -4.189 -35.827 -17.966  1.00  0.00    -0.344 N 
ATOM     37 2H12 UNL     1      -4.431 -36.671 -18.483  1.00  0.00     0.176 HD
ATOM     38 1H12 UNL     1      -4.853 -35.056 -17.893  1.00  0.00     0.176 HD
ENDBRANCH  34  36
ENDBRANCH  32  34
ENDBRANCH  30  31
ENDBRANCH  24  30
ENDBRANCH  22  24
ENDBRANCH  19  20
ENDBRANCH  12  14
ENDBRANCH   3  10
BRANCH   1  39
HETATM   39  N7  UNL     1       1.789 -44.927 -24.815  1.00  0.00    -0.365 N 
ATOM     40  H7  UNL     1       1.849 -45.691 -25.489  1.00  0.00     0.161 HD
BRANCH  39  41
HETATM   41  C8  UNL     1       2.689 -43.789 -24.883  1.00  0.00     0.172 C 
HETATM   42  C6  UNL     1       3.529 -43.789 -26.153  1.00  0.00     0.387 C 
HETATM   43  N6  UNL     1       2.435 -42.969 -26.766  1.00  0.00    -0.039 N 
HETATM   44  C7  UNL     1       2.067 -42.555 -25.450  1.00  0.00     0.266 C 
ATOM     45  H62 UNL     1       2.642 -42.282 -27.490  1.00  0.00     0.281 HD
ATOM     46  H61 UNL     1       1.751 -43.396 -27.390  1.00  0.00     0.281 HD
BRANCH  42  47
HETATM   47  N5  UNL     1       3.712 -44.920 -26.832  1.00  0.00    -0.392 NA
BRANCH  47  48
HETATM   48  C5  UNL     1       4.115 -45.891 -27.369  1.00  0.00     0.206 A 
HETATM   49  N4  UNL     1       3.747 -46.215 -28.674  1.00  0.00    -0.326 N 
HETATM   50  C4  UNL     1       4.175 -47.290 -29.301  1.00  0.00     0.183 A 
ATOM     51  H4  UNL     1       3.114 -45.586 -29.168  1.00  0.00     0.169 HD
HETATM   52  N3  UNL     1       5.007 -48.169 -28.727  1.00  0.00    -0.346 N 
HETATM   53  C3  UNL     1       5.431 -47.964 -27.473  1.00  0.00     0.135 A 
ATOM     54  H3  UNL     1       5.317 -48.992 -29.242  1.00  0.00     0.167 HD
HETATM   55  C2  UNL     1       6.277 -48.885 -26.884  1.00  0.00     0.288 A 
HETATM   56  C27 UNL     1       5.004 -46.858 -26.804  1.00  0.00     0.139 A 
HETATM   57  N2  UNL     1       6.660 -48.634 -25.620  1.00  0.00    -0.154 N 
HETATM   58  O1  UNL     1       6.708 -49.916 -27.437  1.00  0.00    -0.265 OA
HETATM   59  C1  UNL     1       6.237 -47.544 -24.963  1.00  0.00     0.679 A 
ATOM     60  H2  UNL     1       7.286 -49.288 -25.149  1.00  0.00     0.187 HD
HETATM   61  N15 UNL     1       5.398 -46.626 -25.537  1.00  0.00    -0.185 N 
ATOM     62  H15 UNL     1       5.085 -45.800 -25.026  1.00  0.00     0.184 HD
BRANCH  59  63
HETATM   63  N1  UNL     1       6.608 -47.302 -23.734  1.00  0.00    -0.234 N 
ATOM     64  H12 UNL     1       7.028 -48.080 -23.226  1.00  0.00     0.174 HD
ATOM     65  H11 UNL     1       6.480 -46.382 -23.311  1.00  0.00     0.174 HD
ENDBRANCH  59  63
ENDBRANCH  47  48
ENDBRANCH  42  47
ENDBRANCH  39  41
ENDBRANCH   1  39
TORSDOF 16
ENDMDL
MODEL 5
REMARK VINA RESULT: -10.211830838      2.020      2.496
REMARK  16 active torsions:
REMARK  status: ('A' for Active; 'I' for Inactive)
REMARK    1  A    between atoms: N1_1  and  C1_4 
REMARK    2  A    between atoms: C5_15  and  N5_16 
REMARK    3  A    between atoms: N5_16  and  C6_17 
REMARK    4  A    between atoms: C8_22  and  N7_23 
REMARK    5  A    between atoms: N7_23  and  C9_25 
REMARK    6  A    between atoms: C11_27  and  C12_28 
REMARK       I    between atoms: C12_28  and  N8_30 
REMARK    7  A    between atoms: N8_30  and  C13_32 
REMARK    8  A    between atoms: C18_37  and  C19_38 
REMARK       I    between atoms: C19_38  and  N9_40 
REMARK    9  A    between atoms: N9_40  and  C20_42 
REMARK   10  A    between atoms: C20_42  and  C21_43 
REMARK   11  A    between atoms: C20_42  and  C24_48 
REMARK   12  A    between atoms: C21_43  and  C22_44 
REMARK   13  A    between atoms: C22_44  and  C23_45 
REMARK   14  A    between atoms: C24_48  and  N10_49 
REMARK   15  A    between atoms: C25_51  and  N11_52 
REMARK   16  A    between atoms: N11_52  and  N12_54 
ROOT
HETATM    1  C9  UNL     1       0.723 -44.746 -23.761  1.00  0.00     0.107 A 
HETATM    2  C10 UNL     1      -0.257 -43.797 -23.708  1.00  0.00     0.083 A 
HETATM    3  C11 UNL     1      -1.175 -43.750 -22.647  1.00  0.00     0.108 A 
HETATM    4  N13 UNL     1      -1.076 -44.656 -21.680  1.00  0.00    -0.304 N 
ATOM      5  H13 UNL     1      -1.725 -44.650 -20.893  1.00  0.00     0.171 HD
HETATM    6  C26 UNL     1      -0.084 -45.598 -21.762  1.00  0.00     0.326 A 
HETATM    7  O6  UNL     1       0.002 -46.459 -20.836  1.00  0.00    -0.247 OA
HETATM    8  N14 UNL     1       0.792 -45.649 -22.768  1.00  0.00    -0.295 N 
ATOM      9  H14 UNL     1       1.512 -46.371 -22.783  1.00  0.00     0.172 HD
ENDROOT
BRANCH   3  10
HETATM   10  C12 UNL     1      -2.169 -42.669 -22.648  1.00  0.00     0.273 C 
HETATM   11  O2  UNL     1      -3.306 -42.931 -22.227  1.00  0.00    -0.266 OA
HETATM   12  N8  UNL     1      -1.822 -41.414 -23.110  1.00  0.00    -0.321 N 
ATOM     13  H8  UNL     1      -0.849 -41.327 -23.405  1.00  0.00     0.169 HD
BRANCH  12  14
HETATM   14  C13 UNL     1      -2.584 -40.221 -23.248  1.00  0.00     0.050 A 
HETATM   15  C14 UNL     1      -3.439 -40.128 -24.314  1.00  0.00     0.030 A 
HETATM   16  C15 UNL     1      -4.095 -38.947 -24.661  1.00  0.00     0.002 A 
HETATM   17  C16 UNL     1      -3.837 -37.870 -23.864  1.00  0.00     0.001 A 
HETATM   18  C17 UNL     1      -2.993 -37.907 -22.783  1.00  0.00     0.019 A 
HETATM   19  C18 UNL     1      -2.353 -39.116 -22.466  1.00  0.00     0.058 A 
BRANCH  19  20
HETATM   20  C19 UNL     1      -1.606 -39.191 -21.234  1.00  0.00     0.254 C 
HETATM   21  O3  UNL     1      -1.835 -40.085 -20.398  1.00  0.00    -0.268 OA
HETATM   22  N9  UNL     1      -0.560 -38.277 -20.861  1.00  0.00    -0.351 N 
ATOM     23  H9  UNL     1      -0.285 -37.523 -21.491  1.00  0.00     0.163 HD
BRANCH  22  24
HETATM   24  C20 UNL     1       0.115 -38.446 -19.544  1.00  0.00     0.103 C 
BRANCH  24  25
HETATM   25  C21 UNL     1       1.448 -39.063 -19.749  1.00  0.00     0.037 C 
BRANCH  25  26
HETATM   26  C22 UNL     1       2.197 -39.611 -18.595  1.00  0.00     0.115 C 
BRANCH  26  27
HETATM   27  C23 UNL     1       3.531 -39.159 -18.290  1.00  0.00     0.172 C 
HETATM   28  O4  UNL     1       3.792 -38.481 -17.231  1.00  0.00    -0.648 OA
HETATM   29  O5  UNL     1       4.585 -39.454 -19.155  1.00  0.00    -0.648 OA
ENDBRANCH  26  27
ENDBRANCH  25  26
ENDBRANCH  24  25
BRANCH  24  30
HETATM   30  C24 UNL     1       0.033 -37.168 -18.798  1.00  0.00     0.145 C 
BRANCH  30  31
HETATM   31  N10 UNL     1       1.290 -36.387 -18.946  1.00  0.00    -0.383 N 
HETATM   32  C25 UNL     1       1.759 -35.781 -17.907  1.00  0.00     0.192 C 
ATOM     33  H10 UNL     1       1.770 -36.333 -19.845  1.00  0.00     0.160 HD
BRANCH  32  34
HETATM   34  N11 UNL     1       2.943 -35.032 -17.979  1.00  0.00    -0.303 N 
ATOM     35  H11 UNL     1       2.953 -34.157 -18.502  1.00  0.00     0.187 HD
BRANCH  34  36
HETATM   36  N12 UNL     1       4.097 -35.466 -17.350  1.00  0.00    -0.344 N 
ATOM     37 2H12 UNL     1       4.161 -35.382 -16.336  1.00  0.00     0.176 HD
ATOM     38 1H12 UNL     1       4.869 -35.862 -17.886  1.00  0.00     0.176 HD
ENDBRANCH  34  36
ENDBRANCH  32  34
ENDBRANCH  30  31
ENDBRANCH  24  30
ENDBRANCH  22  24
ENDBRANCH  19  20
ENDBRANCH  12  14
ENDBRANCH   3  10
BRANCH   1  39
HETATM   39  N7  UNL     1       1.676 -44.768 -24.843  1.00  0.00    -0.365 N 
ATOM     40  H7  UNL     1       1.686 -45.527 -25.524  1.00  0.00     0.161 HD
BRANCH  39  41
HETATM   41  C8  UNL     1       2.623 -43.669 -24.926  1.00  0.00     0.172 C 
HETATM   42  C6  UNL     1       3.526 -43.771 -26.148  1.00  0.00     0.387 C 
HETATM   43  N6  UNL     1       2.497 -42.949 -26.862  1.00  0.00    -0.039 N 
HETATM   44  C7  UNL     1       2.080 -42.447 -25.591  1.00  0.00     0.266 C 
ATOM     45  H62 UNL     1       2.767 -42.312 -27.611  1.00  0.00     0.281 HD
ATOM     46  H61 UNL     1       1.828 -43.386 -27.496  1.00  0.00     0.281 HD
BRANCH  42  47
HETATM   47  N5  UNL     1       3.698 -44.946 -26.753  1.00  0.00    -0.392 NA
BRANCH  47  48
HETATM   48  C5  UNL     1       4.091 -45.914 -27.301  1.00  0.00     0.206 A 
HETATM   49  N4  UNL     1       3.698 -46.234 -28.600  1.00  0.00    -0.326 N 
HETATM   50  C4  UNL     1       4.114 -47.308 -29.239  1.00  0.00     0.183 A 
ATOM     51  H4  UNL     1       3.054 -45.605 -29.079  1.00  0.00     0.169 HD
HETATM   52  N3  UNL     1       4.958 -48.187 -28.684  1.00  0.00    -0.346 N 
HETATM   53  C3  UNL     1       5.407 -47.985 -27.438  1.00  0.00     0.135 A 
ATOM     54  H3  UNL     1       5.259 -49.008 -29.208  1.00  0.00     0.167 HD
HETATM   55  C2  UNL     1       6.266 -48.907 -26.869  1.00  0.00     0.288 A 
HETATM   56  C27 UNL     1       4.992 -46.882 -26.758  1.00  0.00     0.139 A 
HETATM   57  N2  UNL     1       6.674 -48.660 -25.612  1.00  0.00    -0.154 N 
HETATM   58  O1  UNL     1       6.687 -49.936 -27.434  1.00  0.00    -0.265 OA
HETATM   59  C1  UNL     1       6.262 -47.573 -24.943  1.00  0.00     0.679 A 
ATOM     60  H2  UNL     1       7.310 -49.315 -25.156  1.00  0.00     0.187 HD
HETATM   61  N15 UNL     1       5.411 -46.653 -25.498  1.00  0.00    -0.185 N 
ATOM     62  H15 UNL     1       5.108 -45.830 -24.978  1.00  0.00     0.184 HD
BRANCH  59  63
HETATM   63  N1  UNL     1       6.657 -47.333 -23.721  1.00  0.00    -0.234 N 
ATOM     64  H12 UNL     1       6.989 -46.388 -23.530  1.00  0.00     0.174 HD
ATOM     65  H11 UNL     1       6.634 -48.057 -23.003  1.00  0.00     0.174 HD
ENDBRANCH  59  63
ENDBRANCH  47  48
ENDBRANCH  42  47
ENDBRANCH  39  41
ENDBRANCH   1  39
TORSDOF 16
ENDMDL
