MODEL 1
REMARK VINA RESULT: -10.252396241      0.000      0.000
REMARK  16 active torsions:
REMARK  status: ('A' for Active; 'I' for Inactive)
REMARK    1  A    between atoms: N1_1  and  C1_4 
REMARK    2  A    between atoms: N3_8  and  C3_10 
REMARK    3  A    between atoms: C3_10  and  C4_11 
REMARK    4  A    between atoms: C4_11  and  C5_12 
REMARK    5  A    between atoms: C5_12  and  C6_13 
REMARK    6  A    between atoms: C6_13  and  C7_14 
REMARK    7  A    between atoms: C7_14  and  C8_15 
REMARK    8  A    between atoms: C8_15  and  C9_16 
REMARK    9  A    between atoms: C9_16  and  N4_17 
REMARK       I    between atoms: N4_17  and  C10_19 
REMARK   10  A    between atoms: C10_19  and  C11_21 
REMARK   11  A    between atoms: C11_21  and  N5_22 
REMARK   12  A    between atoms: C18_36  and  N9_37 
REMARK   13  A    between atoms: N9_37  and  C19_38 
REMARK   14  A    between atoms: C20_43  and  N12_44 
REMARK       I    between atoms: N12_44  and  C21_46 
REMARK   15  A    between atoms: C21_46  and  C22_48 
REMARK   16  A    between atoms: C24_55  and  N15_56 
ROOT
HETATM    1  C1  UNL     1       0.543 -45.730 -22.056  1.00  0.00     0.678 A 
HETATM    2  N2  UNL     1       1.546 -46.233 -22.780  1.00  0.00    -0.174 N 
ATOM      3  H2  UNL     1       1.956 -47.123 -22.497  1.00  0.00     0.186 HD
HETATM    4  C2  UNL     1       2.045 -45.600 -23.889  1.00  0.00     0.150 A 
HETATM    5  N3  UNL     1       2.997 -46.064 -24.544  1.00  0.00    -0.354 N 
ATOM      6  H3  UNL     1       3.305 -46.938 -24.118  1.00  0.00     0.166 HD
HETATM    7  C16 UNL     1       1.423 -44.389 -24.200  1.00  0.00     0.110 A 
HETATM    8  N7  UNL     1       1.804 -43.650 -25.241  1.00  0.00    -0.347 N 
ATOM      9  H7  UNL     1       2.566 -43.985 -25.832  1.00  0.00     0.167 HD
HETATM   10  C17 UNL     1       1.218 -42.479 -25.538  1.00  0.00     0.183 A 
HETATM   11  N8  UNL     1       0.217 -41.987 -24.809  1.00  0.00    -0.325 N 
ATOM     12  H8  UNL     1      -0.202 -41.095 -25.069  1.00  0.00     0.169 HD
HETATM   13  C18 UNL     1      -0.261 -42.665 -23.707  1.00  0.00     0.213 A 
HETATM   14  C26 UNL     1       0.394 -43.895 -23.438  1.00  0.00     0.138 A 
HETATM   15  N18 UNL     1      -0.051 -44.558 -22.367  1.00  0.00    -0.185 N 
ATOM     16  H18 UNL     1      -0.817 -44.191 -21.802  1.00  0.00     0.184 HD
ENDROOT
BRANCH  13  17
HETATM   17  N9  UNL     1      -1.149 -42.269 -23.021  1.00  0.00    -0.348 NA
BRANCH  17  18
HETATM   18  C19 UNL     1      -2.140 -41.826 -22.253  1.00  0.00     0.290 A 
HETATM   19  N10 UNL     1      -3.336 -41.273 -22.659  1.00  0.00    -0.244 N 
HETATM   20  N11 UNL     1      -4.047 -40.963 -21.610  1.00  0.00    -0.128 N 
ATOM     21  H10 UNL     1      -3.621 -41.128 -23.627  1.00  0.00     0.191 HD
HETATM   22  C20 UNL     1      -3.388 -41.281 -20.487  1.00  0.00     0.703 A 
ATOM     23  H11 UNL     1      -4.974 -40.539 -21.639  1.00  0.00     0.205 HD
HETATM   24  N17 UNL     1      -2.236 -41.802 -20.876  1.00  0.00    -0.146 N 
ATOM     25  H17 UNL     1      -1.513 -42.142 -20.241  1.00  0.00     0.188 HD
BRANCH  22  26
HETATM   26  N12 UNL     1      -3.823 -41.107 -19.258  1.00  0.00    -0.153 N 
HETATM   27  C21 UNL     1      -2.857 -41.283 -18.231  1.00  0.00     0.288 C 
HETATM   28  O2  UNL     1      -2.298 -40.309 -17.717  1.00  0.00    -0.265 OA
ATOM     29  H12 UNL     1      -4.791 -40.861 -19.056  1.00  0.00     0.187 HD
BRANCH  27  30
HETATM   30  C22 UNL     1      -2.572 -42.667 -17.823  1.00  0.00     0.133 A 
HETATM   31  N13 UNL     1      -1.520 -43.350 -18.282  1.00  0.00    -0.302 N 
HETATM   32  C23 UNL     1      -1.285 -44.624 -17.871  1.00  0.00     0.326 A 
ATOM     33  H13 UNL     1      -0.884 -42.911 -18.948  1.00  0.00     0.171 HD
HETATM   34  O3  UNL     1      -0.302 -45.265 -18.298  1.00  0.00    -0.247 OA
HETATM   35  N14 UNL     1      -2.118 -45.219 -16.990  1.00  0.00    -0.293 N 
HETATM   36  C24 UNL     1      -3.186 -44.574 -16.503  1.00  0.00     0.130 A 
ATOM     37  H14 UNL     1      -1.930 -46.176 -16.690  1.00  0.00     0.172 HD
HETATM   38  C25 UNL     1      -3.412 -43.285 -16.927  1.00  0.00     0.122 A 
HETATM   39  N16 UNL     1      -4.542 -42.553 -16.442  1.00  0.00    -0.096 NA
BRANCH  36  40
HETATM   40  N15 UNL     1      -3.954 -45.171 -15.679  1.00  0.00    -0.384 N 
ATOM     41 2H15 UNL     1      -4.669 -45.836 -15.976  1.00  0.00     0.157 HD
ATOM     42 1H15 UNL     1      -3.854 -44.988 -14.681  1.00  0.00     0.157 HD
ENDBRANCH  36  40
ENDBRANCH  27  30
ENDBRANCH  22  26
ENDBRANCH  17  18
ENDBRANCH  13  17
BRANCH   1  43
HETATM   43  N1  UNL     1       0.075 -46.333 -21.007  1.00  0.00    -0.234 N 
ATOM     44  H12 UNL     1      -0.941 -46.331 -20.917  1.00  0.00     0.174 HD
ATOM     45  H11 UNL     1       0.681 -46.781 -20.319  1.00  0.00     0.174 HD
ENDBRANCH   1  43
BRANCH   5  46
HETATM   46  C3  UNL     1       3.773 -45.798 -25.647  1.00  0.00     0.062 C 
BRANCH  46  47
HETATM   47  C4  UNL     1       5.043 -46.502 -25.920  1.00  0.00     0.044 C 
BRANCH  47  48
HETATM   48  C5  UNL     1       5.046 -47.842 -26.532  1.00  0.00     0.005 C 
BRANCH  48  49
HETATM   49  C6  UNL     1       5.349 -47.943 -27.982  1.00  0.00     0.000 C 
BRANCH  49  50
HETATM   50  C7  UNL     1       4.723 -46.823 -28.787  1.00  0.00     0.002 C 
BRANCH  50  51
HETATM   51  C8  UNL     1       3.313 -47.167 -29.229  1.00  0.00     0.020 C 
BRANCH  51  52
HETATM   52  C9  UNL     1       2.327 -46.138 -28.783  1.00  0.00     0.123 C 
BRANCH  52  53
HETATM   53  N4  UNL     1       1.025 -46.326 -29.352  1.00  0.00    -0.356 N 
HETATM   54  C10 UNL     1      -0.162 -46.412 -28.577  1.00  0.00     0.256 C 
HETATM   55  O1  UNL     1       0.003 -46.305 -27.303  1.00  0.00    -0.267 OA
ATOM     56  H4  UNL     1       0.948 -46.401 -30.366  1.00  0.00     0.162 HD
BRANCH  54  57
HETATM   57  C11 UNL     1      -1.525 -46.604 -29.094  1.00  0.00     0.160 C 
BRANCH  57  58
HETATM   58  N5  UNL     1      -2.189 -47.782 -28.834  1.00  0.00    -0.382 N 
HETATM   59  C12 UNL     1      -3.518 -47.898 -28.453  1.00  0.00     0.150 C 
HETATM   60  C13 UNL     1      -4.109 -49.097 -29.229  1.00  0.00     0.252 C 
HETATM   61  N6  UNL     1      -3.290 -49.398 -30.384  1.00  0.00    -0.072 N 
HETATM   62  C14 UNL     1      -1.937 -49.816 -30.011  1.00  0.00     0.252 C 
ATOM     63  H62 UNL     1      -3.737 -50.091 -30.984  1.00  0.00     0.277 HD
ATOM     64  H61 UNL     1      -3.266 -48.612 -31.034  1.00  0.00     0.277 HD
HETATM   65  C15 UNL     1      -1.468 -49.002 -28.799  1.00  0.00     0.150 C 
ENDBRANCH  57  58
ENDBRANCH  54  57
ENDBRANCH  52  53
ENDBRANCH  51  52
ENDBRANCH  50  51
ENDBRANCH  49  50
ENDBRANCH  48  49
ENDBRANCH  47  48
ENDBRANCH  46  47
ENDBRANCH   5  46
TORSDOF 16
ENDMDL
MODEL 2
REMARK VINA RESULT: -10.133623871      1.053      1.486
REMARK  16 active torsions:
REMARK  status: ('A' for Active; 'I' for Inactive)
REMARK    1  A    between atoms: N1_1  and  C1_4 
REMARK    2  A    between atoms: N3_8  and  C3_10 
REMARK    3  A    between atoms: C3_10  and  C4_11 
REMARK    4  A    between atoms: C4_11  and  C5_12 
REMARK    5  A    between atoms: C5_12  and  C6_13 
REMARK    6  A    between atoms: C6_13  and  C7_14 
REMARK    7  A    between atoms: C7_14  and  C8_15 
REMARK    8  A    between atoms: C8_15  and  C9_16 
REMARK    9  A    between atoms: C9_16  and  N4_17 
REMARK       I    between atoms: N4_17  and  C10_19 
REMARK   10  A    between atoms: C10_19  and  C11_21 
REMARK   11  A    between atoms: C11_21  and  N5_22 
REMARK   12  A    between atoms: C18_36  and  N9_37 
REMARK   13  A    between atoms: N9_37  and  C19_38 
REMARK   14  A    between atoms: C20_43  and  N12_44 
REMARK       I    between atoms: N12_44  and  C21_46 
REMARK   15  A    between atoms: C21_46  and  C22_48 
REMARK   16  A    between atoms: C24_55  and  N15_56 
ROOT
HETATM    1  C1  UNL     1       0.535 -45.643 -22.133  1.00  0.00     0.678 A 
HETATM    2  N2  UNL     1       1.560 -46.207 -22.776  1.00  0.00    -0.174 N 
ATOM      3  H2  UNL     1       1.939 -47.084 -22.419  1.00  0.00     0.186 HD
HETATM    4  C2  UNL     1       2.122 -45.656 -23.898  1.00  0.00     0.150 A 
HETATM    5  N3  UNL     1       3.094 -46.176 -24.477  1.00  0.00    -0.354 N 
ATOM      6  H3  UNL     1       3.365 -47.025 -23.982  1.00  0.00     0.166 HD
HETATM    7  C16 UNL     1       1.538 -44.457 -24.315  1.00  0.00     0.110 A 
HETATM    8  N7  UNL     1       1.981 -43.792 -25.382  1.00  0.00    -0.347 N 
ATOM      9  H7  UNL     1       2.762 -44.177 -25.913  1.00  0.00     0.167 HD
HETATM   10  C17 UNL     1       1.431 -42.634 -25.780  1.00  0.00     0.183 A 
HETATM   11  N8  UNL     1       0.407 -42.080 -25.131  1.00  0.00    -0.325 N 
ATOM     12  H8  UNL     1       0.017 -41.200 -25.468  1.00  0.00     0.169 HD
HETATM   13  C18 UNL     1      -0.134 -42.678 -24.012  1.00  0.00     0.213 A 
HETATM   14  C26 UNL     1       0.484 -43.899 -23.635  1.00  0.00     0.138 A 
HETATM   15  N18 UNL     1      -0.022 -44.484 -22.546  1.00  0.00    -0.185 N 
ATOM     16  H18 UNL     1      -0.806 -44.069 -22.043  1.00  0.00     0.184 HD
ENDROOT
BRANCH  13  17
HETATM   17  N9  UNL     1      -1.045 -42.224 -23.396  1.00  0.00    -0.348 NA
BRANCH  17  18
HETATM   18  C19 UNL     1      -2.062 -41.716 -22.707  1.00  0.00     0.290 A 
HETATM   19  N10 UNL     1      -3.365 -41.551 -23.129  1.00  0.00    -0.244 N 
HETATM   20  N11 UNL     1      -4.066 -41.019 -22.165  1.00  0.00    -0.128 N 
ATOM     21  H10 UNL     1      -3.723 -41.804 -24.049  1.00  0.00     0.191 HD
HETATM   22  C20 UNL     1      -3.298 -40.807 -21.088  1.00  0.00     0.703 A 
ATOM     23  H11 UNL     1      -5.060 -40.795 -22.224  1.00  0.00     0.205 HD
HETATM   24  N17 UNL     1      -2.087 -41.228 -21.415  1.00  0.00    -0.146 N 
ATOM     25  H17 UNL     1      -1.278 -41.197 -20.795  1.00  0.00     0.188 HD
BRANCH  22  26
HETATM   26  N12 UNL     1      -3.693 -40.291 -19.945  1.00  0.00    -0.153 N 
HETATM   27  C21 UNL     1      -2.839 -40.525 -18.834  1.00  0.00     0.288 C 
HETATM   28  O2  UNL     1      -2.039 -39.661 -18.460  1.00  0.00    -0.265 OA
ATOM     29  H12 UNL     1      -4.557 -39.756 -19.862  1.00  0.00     0.187 HD
BRANCH  27  30
HETATM   30  C22 UNL     1      -2.964 -41.831 -18.169  1.00  0.00     0.133 A 
HETATM   31  N13 UNL     1      -4.031 -42.169 -17.441  1.00  0.00    -0.302 N 
HETATM   32  C23 UNL     1      -4.112 -43.391 -16.852  1.00  0.00     0.326 A 
ATOM     33  H13 UNL     1      -4.796 -41.502 -17.327  1.00  0.00     0.171 HD
HETATM   34  O3  UNL     1      -5.110 -43.710 -16.172  1.00  0.00    -0.247 OA
HETATM   35  N14 UNL     1      -3.108 -44.283 -16.995  1.00  0.00    -0.293 N 
HETATM   36  C24 UNL     1      -2.018 -43.988 -17.714  1.00  0.00     0.130 A 
ATOM     37  H14 UNL     1      -3.182 -45.197 -16.547  1.00  0.00     0.172 HD
HETATM   38  C25 UNL     1      -1.949 -42.748 -18.306  1.00  0.00     0.122 A 
HETATM   39  N16 UNL     1      -0.802 -42.380 -19.080  1.00  0.00    -0.096 NA
BRANCH  36  40
HETATM   40  N15 UNL     1      -1.087 -44.853 -17.819  1.00  0.00    -0.384 N 
ATOM     41 2H15 UNL     1      -0.857 -45.308 -18.703  1.00  0.00     0.157 HD
ATOM     42 1H15 UNL     1      -0.540 -45.102 -16.995  1.00  0.00     0.157 HD
ENDBRANCH  36  40
ENDBRANCH  27  30
ENDBRANCH  22  26
ENDBRANCH  17  18
ENDBRANCH  13  17
BRANCH   1  43
HETATM   43  N1  UNL     1       0.007 -46.170 -21.072  1.00  0.00    -0.234 N 
ATOM     44  H12 UNL     1      -0.576 -46.991 -21.233  1.00  0.00     0.174 HD
ATOM     45  H11 UNL     1       0.165 -45.790 -20.138  1.00  0.00     0.174 HD
ENDBRANCH   1  43
BRANCH   5  46
HETATM   46  C3  UNL     1       3.925 -45.994 -25.556  1.00  0.00     0.062 C 
BRANCH  46  47
HETATM   47  C4  UNL     1       5.153 -46.789 -25.763  1.00  0.00     0.044 C 
BRANCH  47  48
HETATM   48  C5  UNL     1       5.303 -47.648 -26.951  1.00  0.00     0.005 C 
BRANCH  48  49
HETATM   49  C6  UNL     1       5.108 -47.029 -28.286  1.00  0.00     0.000 C 
BRANCH  49  50
HETATM   50  C7  UNL     1       4.033 -47.721 -29.097  1.00  0.00     0.002 C 
BRANCH  50  51
HETATM   51  C8  UNL     1       3.048 -46.729 -29.689  1.00  0.00     0.020 C 
BRANCH  51  52
HETATM   52  C9  UNL     1       1.989 -46.348 -28.709  1.00  0.00     0.123 C 
BRANCH  52  53
HETATM   53  N4  UNL     1       0.663 -46.503 -29.228  1.00  0.00    -0.356 N 
HETATM   54  C10 UNL     1      -0.504 -46.467 -28.419  1.00  0.00     0.256 C 
HETATM   55  O1  UNL     1      -0.295 -46.277 -27.161  1.00  0.00    -0.267 OA
ATOM     56  H4  UNL     1       0.551 -46.647 -30.232  1.00  0.00     0.162 HD
BRANCH  54  57
HETATM   57  C11 UNL     1      -1.890 -46.619 -28.884  1.00  0.00     0.160 C 
BRANCH  57  58
HETATM   58  N5  UNL     1      -2.522 -47.835 -28.749  1.00  0.00    -0.382 N 
HETATM   59  C12 UNL     1      -3.877 -48.025 -28.529  1.00  0.00     0.150 C 
HETATM   60  C13 UNL     1      -4.319 -49.214 -29.414  1.00  0.00     0.252 C 
HETATM   61  N6  UNL     1      -3.360 -49.426 -30.478  1.00  0.00    -0.072 N 
HETATM   62  C14 UNL     1      -2.039 -49.801 -29.969  1.00  0.00     0.252 C 
ATOM     63  H62 UNL     1      -3.703 -50.110 -31.152  1.00  0.00     0.277 HD
ATOM     64  H61 UNL     1      -3.301 -48.612 -31.090  1.00  0.00     0.277 HD
HETATM   65  C15 UNL     1      -1.751 -49.023 -28.680  1.00  0.00     0.150 C 
ENDBRANCH  57  58
ENDBRANCH  54  57
ENDBRANCH  52  53
ENDBRANCH  51  52
ENDBRANCH  50  51
ENDBRANCH  49  50
ENDBRANCH  48  49
ENDBRANCH  47  48
ENDBRANCH  46  47
ENDBRANCH   5  46
TORSDOF 16
ENDMDL
MODEL 3
REMARK VINA RESULT: -9.769203954      1.916      2.539
REMARK  16 active torsions:
REMARK  status: ('A' for Active; 'I' for Inactive)
REMARK    1  A    between atoms: N1_1  and  C1_4 
REMARK    2  A    between atoms: N3_8  and  C3_10 
REMARK    3  A    between atoms: C3_10  and  C4_11 
REMARK    4  A    between atoms: C4_11  and  C5_12 
REMARK    5  A    between atoms: C5_12  and  C6_13 
REMARK    6  A    between atoms: C6_13  and  C7_14 
REMARK    7  A    between atoms: C7_14  and  C8_15 
REMARK    8  A    between atoms: C8_15  and  C9_16 
REMARK    9  A    between atoms: C9_16  and  N4_17 
REMARK       I    between atoms: N4_17  and  C10_19 
REMARK   10  A    between atoms: C10_19  and  C11_21 
REMARK   11  A    between atoms: C11_21  and  N5_22 
REMARK   12  A    between atoms: C18_36  and  N9_37 
REMARK   13  A    between atoms: N9_37  and  C19_38 
REMARK   14  A    between atoms: C20_43  and  N12_44 
REMARK       I    between atoms: N12_44  and  C21_46 
REMARK   15  A    between atoms: C21_46  and  C22_48 
REMARK   16  A    between atoms: C24_55  and  N15_56 
ROOT
HETATM    1  C1  UNL     1       0.874 -45.292 -22.872  1.00  0.00     0.678 A 
HETATM    2  N2  UNL     1       1.893 -46.067 -23.252  1.00  0.00    -0.174 N 
ATOM      3  H2  UNL     1       2.073 -46.928 -22.735  1.00  0.00     0.186 HD
HETATM    4  C2  UNL     1       2.707 -45.752 -24.309  1.00  0.00     0.150 A 
HETATM    5  N3  UNL     1       3.670 -46.467 -24.641  1.00  0.00    -0.354 N 
ATOM      6  H3  UNL     1       3.726 -47.269 -24.012  1.00  0.00     0.166 HD
HETATM    7  C16 UNL     1       2.386 -44.556 -24.956  1.00  0.00     0.110 A 
HETATM    8  N7  UNL     1       3.091 -44.107 -25.994  1.00  0.00    -0.347 N 
ATOM      9  H7  UNL     1       3.881 -44.659 -26.329  1.00  0.00     0.167 HD
HETATM   10  C17 UNL     1       2.794 -42.954 -26.613  1.00  0.00     0.183 A 
HETATM   11  N8  UNL     1       1.774 -42.188 -26.227  1.00  0.00    -0.325 N 
ATOM     12  H8  UNL     1       1.581 -41.320 -26.725  1.00  0.00     0.169 HD
HETATM   13  C18 UNL     1       0.974 -42.552 -25.163  1.00  0.00     0.213 A 
HETATM   14  C26 UNL     1       1.332 -43.779 -24.545  1.00  0.00     0.138 A 
HETATM   15  N18 UNL     1       0.573 -44.140 -23.507  1.00  0.00    -0.185 N 
ATOM     16  H18 UNL     1      -0.211 -43.561 -23.203  1.00  0.00     0.184 HD
ENDROOT
BRANCH  13  17
HETATM   17  N9  UNL     1       0.054 -41.904 -24.776  1.00  0.00    -0.348 NA
BRANCH  17  18
HETATM   18  C19 UNL     1      -0.973 -41.180 -24.343  1.00  0.00     0.290 A 
HETATM   19  N10 UNL     1      -1.723 -40.271 -25.059  1.00  0.00    -0.244 N 
HETATM   20  N11 UNL     1      -2.643 -39.765 -24.285  1.00  0.00    -0.128 N 
ATOM     21  H10 UNL     1      -1.581 -40.031 -26.040  1.00  0.00     0.191 HD
HETATM   22  C20 UNL     1      -2.561 -40.289 -23.054  1.00  0.00     0.703 A 
ATOM     23  H11 UNL     1      -3.329 -39.068 -24.575  1.00  0.00     0.205 HD
HETATM   24  N17 UNL     1      -1.551 -41.144 -23.089  1.00  0.00    -0.146 N 
ATOM     25  H17 UNL     1      -1.242 -41.704 -22.295  1.00  0.00     0.188 HD
BRANCH  22  26
HETATM   26  N12 UNL     1      -3.341 -40.001 -22.036  1.00  0.00    -0.153 N 
HETATM   27  C21 UNL     1      -2.809 -39.087 -21.088  1.00  0.00     0.288 C 
HETATM   28  O2  UNL     1      -3.123 -37.893 -21.119  1.00  0.00    -0.265 OA
ATOM     29  H12 UNL     1      -4.270 -40.410 -21.933  1.00  0.00     0.187 HD
BRANCH  27  30
HETATM   30  C22 UNL     1      -1.881 -39.637 -20.089  1.00  0.00     0.133 A 
HETATM   31  N13 UNL     1      -0.613 -39.232 -19.983  1.00  0.00    -0.302 N 
HETATM   32  C23 UNL     1       0.209 -39.758 -19.037  1.00  0.00     0.326 A 
ATOM     33  H13 UNL     1      -0.256 -38.519 -20.620  1.00  0.00     0.171 HD
HETATM   34  O3  UNL     1       1.395 -39.381 -18.936  1.00  0.00    -0.247 OA
HETATM   35  N14 UNL     1      -0.249 -40.704 -18.188  1.00  0.00    -0.293 N 
HETATM   36  C24 UNL     1      -1.512 -41.141 -18.256  1.00  0.00     0.130 A 
ATOM     37  H14 UNL     1       0.378 -41.090 -17.482  1.00  0.00     0.172 HD
HETATM   38  C25 UNL     1      -2.334 -40.600 -19.217  1.00  0.00     0.122 A 
HETATM   39  N16 UNL     1      -3.692 -41.037 -19.337  1.00  0.00    -0.096 NA
BRANCH  36  40
HETATM   40  N15 UNL     1      -1.907 -42.040 -17.442  1.00  0.00    -0.384 N 
ATOM     41 2H15 UNL     1      -1.506 -42.153 -16.511  1.00  0.00     0.157 HD
ATOM     42 1H15 UNL     1      -2.656 -42.673 -17.722  1.00  0.00     0.157 HD
ENDBRANCH  36  40
ENDBRANCH  27  30
ENDBRANCH  22  26
ENDBRANCH  17  18
ENDBRANCH  13  17
BRANCH   1  43
HETATM   43  N1  UNL     1       0.108 -45.596 -21.871  1.00  0.00    -0.234 N 
ATOM     44  H12 UNL     1      -0.373 -46.493 -21.942  1.00  0.00     0.174 HD
ATOM     45  H11 UNL     1      -0.006 -44.981 -21.065  1.00  0.00     0.174 HD
ENDBRANCH   1  43
BRANCH   5  46
HETATM   46  C3  UNL     1       4.683 -46.544 -25.566  1.00  0.00     0.062 C 
BRANCH  46  47
HETATM   47  C4  UNL     1       5.346 -47.815 -25.923  1.00  0.00     0.044 C 
BRANCH  47  48
HETATM   48  C5  UNL     1       5.682 -48.122 -27.325  1.00  0.00     0.005 C 
BRANCH  48  49
HETATM   49  C6  UNL     1       5.170 -47.208 -28.378  1.00  0.00     0.000 C 
BRANCH  49  50
HETATM   50  C7  UNL     1       3.985 -47.786 -29.123  1.00  0.00     0.002 C 
BRANCH  50  51
HETATM   51  C8  UNL     1       3.063 -46.698 -29.644  1.00  0.00     0.020 C 
BRANCH  51  52
HETATM   52  C9  UNL     1       2.000 -46.353 -28.654  1.00  0.00     0.123 C 
BRANCH  52  53
HETATM   53  N4  UNL     1       0.675 -46.492 -29.182  1.00  0.00    -0.356 N 
HETATM   54  C10 UNL     1      -0.494 -46.468 -28.377  1.00  0.00     0.256 C 
HETATM   55  O1  UNL     1      -0.290 -46.305 -27.114  1.00  0.00    -0.267 OA
ATOM     56  H4  UNL     1       0.567 -46.614 -30.189  1.00  0.00     0.162 HD
BRANCH  54  57
HETATM   57  C11 UNL     1      -1.880 -46.604 -28.851  1.00  0.00     0.160 C 
BRANCH  57  58
HETATM   58  N5  UNL     1      -2.516 -47.820 -28.744  1.00  0.00    -0.382 N 
HETATM   59  C12 UNL     1      -3.874 -48.010 -28.535  1.00  0.00     0.150 C 
HETATM   60  C13 UNL     1      -4.315 -49.178 -29.446  1.00  0.00     0.252 C 
HETATM   61  N6  UNL     1      -3.351 -49.373 -30.509  1.00  0.00    -0.072 N 
HETATM   62  C14 UNL     1      -2.035 -49.764 -30.000  1.00  0.00     0.252 C 
ATOM     63  H62 UNL     1      -3.693 -50.043 -31.199  1.00  0.00     0.277 HD
ATOM     64  H61 UNL     1      -3.286 -48.547 -31.103  1.00  0.00     0.277 HD
HETATM   65  C15 UNL     1      -1.751 -49.013 -28.694  1.00  0.00     0.150 C 
ENDBRANCH  57  58
ENDBRANCH  54  57
ENDBRANCH  52  53
ENDBRANCH  51  52
ENDBRANCH  50  51
ENDBRANCH  49  50
ENDBRANCH  48  49
ENDBRANCH  47  48
ENDBRANCH  46  47
ENDBRANCH   5  46
TORSDOF 16
ENDMDL
MODEL 4
REMARK VINA RESULT: -9.738340306      2.279      2.844
REMARK  16 active torsions:
REMARK  status: ('A' for Active; 'I' for Inactive)
REMARK    1  A    between atoms: N1_1  and  C1_4 
REMARK    2  A    between atoms: N3_8  and  C3_10 
REMARK    3  A    between atoms: C3_10  and  C4_11 
REMARK    4  A    between atoms: C4_11  and  C5_12 
REMARK    5  A    between atoms: C5_12  and  C6_13 
REMARK    6  A    between atoms: C6_13  and  C7_14 
REMARK    7  A    between atoms: C7_14  and  C8_15 
REMARK    8  A    between atoms: C8_15  and  C9_16 
REMARK    9  A    between atoms: C9_16  and  N4_17 
REMARK       I    between atoms: N4_17  and  C10_19 
REMARK   10  A    between atoms: C10_19  and  C11_21 
REMARK   11  A    between atoms: C11_21  and  N5_22 
REMARK   12  A    between atoms: C18_36  and  N9_37 
REMARK   13  A    between atoms: N9_37  and  C19_38 
REMARK   14  A    between atoms: C20_43  and  N12_44 
REMARK       I    between atoms: N12_44  and  C21_46 
REMARK   15  A    between atoms: C21_46  and  C22_48 
REMARK   16  A    between atoms: C24_55  and  N15_56 
ROOT
HETATM    1  C1  UNL     1       0.523 -45.552 -22.216  1.00  0.00     0.678 A 
HETATM    2  N2  UNL     1       1.535 -46.196 -22.802  1.00  0.00    -0.174 N 
ATOM      3  H2  UNL     1       1.845 -47.084 -22.407  1.00  0.00     0.186 HD
HETATM    4  C2  UNL     1       2.174 -45.711 -23.914  1.00  0.00     0.150 A 
HETATM    5  N3  UNL     1       3.133 -46.306 -24.439  1.00  0.00    -0.354 N 
ATOM      6  H3  UNL     1       3.331 -47.156 -23.912  1.00  0.00     0.166 HD
HETATM    7  C16 UNL     1       1.683 -44.491 -24.384  1.00  0.00     0.110 A 
HETATM    8  N7  UNL     1       2.207 -43.885 -25.449  1.00  0.00    -0.347 N 
ATOM      9  H7  UNL     1       2.983 -44.331 -25.938  1.00  0.00     0.167 HD
HETATM   10  C17 UNL     1       1.746 -42.707 -25.898  1.00  0.00     0.183 A 
HETATM   11  N8  UNL     1       0.735 -42.073 -25.306  1.00  0.00    -0.325 N 
ATOM     12  H8  UNL     1       0.413 -41.180 -25.680  1.00  0.00     0.169 HD
HETATM   13  C18 UNL     1       0.114 -42.605 -24.195  1.00  0.00     0.213 A 
HETATM   14  C26 UNL     1       0.640 -43.851 -23.762  1.00  0.00     0.138 A 
HETATM   15  N18 UNL     1       0.056 -44.374 -22.680  1.00  0.00    -0.185 N 
ATOM     16  H18 UNL     1      -0.719 -43.897 -22.220  1.00  0.00     0.184 HD
ENDROOT
BRANCH  13  17
HETATM   17  N9  UNL     1      -0.790 -42.080 -23.628  1.00  0.00    -0.348 NA
BRANCH  17  18
HETATM   18  C19 UNL     1      -1.800 -41.493 -22.992  1.00  0.00     0.290 A 
HETATM   19  N10 UNL     1      -3.126 -41.870 -22.992  1.00  0.00    -0.244 N 
HETATM   20  N11 UNL     1      -3.810 -41.044 -22.248  1.00  0.00    -0.128 N 
ATOM     21  H10 UNL     1      -3.513 -42.669 -23.494  1.00  0.00     0.191 HD
HETATM   22  C20 UNL     1      -3.007 -40.105 -21.730  1.00  0.00     0.703 A 
ATOM     23  H11 UNL     1      -4.815 -41.104 -22.083  1.00  0.00     0.205 HD
HETATM   24  N17 UNL     1      -1.792 -40.376 -22.180  1.00  0.00    -0.146 N 
ATOM     25  H17 UNL     1      -0.958 -39.832 -21.956  1.00  0.00     0.188 HD
BRANCH  22  26
HETATM   26  N12 UNL     1      -3.373 -39.126 -20.933  1.00  0.00    -0.153 N 
HETATM   27  C21 UNL     1      -2.318 -38.344 -20.390  1.00  0.00     0.288 C 
HETATM   28  O2  UNL     1      -2.018 -37.255 -20.890  1.00  0.00    -0.265 OA
ATOM     29  H12 UNL     1      -4.352 -38.940 -20.718  1.00  0.00     0.187 HD
BRANCH  27  30
HETATM   30  C22 UNL     1      -1.621 -38.897 -19.219  1.00  0.00     0.133 A 
HETATM   31  N13 UNL     1      -2.251 -39.196 -18.081  1.00  0.00    -0.302 N 
HETATM   32  C23 UNL     1      -1.570 -39.718 -17.026  1.00  0.00     0.326 A 
ATOM     33  H13 UNL     1      -3.255 -39.032 -18.001  1.00  0.00     0.171 HD
HETATM   34  O3  UNL     1      -2.157 -39.998 -15.960  1.00  0.00    -0.247 OA
HETATM   35  N14 UNL     1      -0.241 -39.940 -17.116  1.00  0.00    -0.293 N 
HETATM   36  C24 UNL     1       0.433 -39.655 -18.237  1.00  0.00     0.130 A 
ATOM     37  H14 UNL     1       0.257 -40.331 -16.317  1.00  0.00     0.172 HD
HETATM   38  C25 UNL     1      -0.267 -39.129 -19.298  1.00  0.00     0.122 A 
HETATM   39  N16 UNL     1       0.407 -38.801 -20.518  1.00  0.00    -0.096 NA
BRANCH  36  40
HETATM   40  N15 UNL     1       1.689 -39.871 -18.282  1.00  0.00    -0.384 N 
ATOM     41 2H15 UNL     1       2.090 -40.682 -18.754  1.00  0.00     0.157 HD
ATOM     42 1H15 UNL     1       2.326 -39.210 -17.838  1.00  0.00     0.157 HD
ENDBRANCH  36  40
ENDBRANCH  27  30
ENDBRANCH  22  26
ENDBRANCH  17  18
ENDBRANCH  13  17
BRANCH   1  43
HETATM   43  N1  UNL     1      -0.077 -46.016 -21.164  1.00  0.00    -0.234 N 
ATOM     44  H12 UNL     1       0.409 -45.867 -20.280  1.00  0.00     0.174 HD
ATOM     45  H11 UNL     1      -0.975 -46.497 -21.216  1.00  0.00     0.174 HD
ENDBRANCH   1  43
BRANCH   5  46
HETATM   46  C3  UNL     1       4.016 -46.205 -25.488  1.00  0.00     0.062 C 
BRANCH  46  47
HETATM   47  C4  UNL     1       5.172 -47.110 -25.650  1.00  0.00     0.044 C 
BRANCH  47  48
HETATM   48  C5  UNL     1       5.672 -47.462 -26.991  1.00  0.00     0.005 C 
BRANCH  48  49
HETATM   49  C6  UNL     1       5.066 -46.776 -28.160  1.00  0.00     0.000 C 
BRANCH  49  50
HETATM   50  C7  UNL     1       4.113 -47.668 -28.929  1.00  0.00     0.002 C 
BRANCH  50  51
HETATM   51  C8  UNL     1       3.042 -46.863 -29.644  1.00  0.00     0.020 C 
BRANCH  51  52
HETATM   52  C9  UNL     1       2.013 -46.346 -28.694  1.00  0.00     0.123 C 
BRANCH  52  53
HETATM   53  N4  UNL     1       0.675 -46.480 -29.190  1.00  0.00    -0.356 N 
HETATM   54  C10 UNL     1      -0.474 -46.460 -28.356  1.00  0.00     0.256 C 
HETATM   55  O1  UNL     1      -0.238 -46.306 -27.097  1.00  0.00    -0.267 OA
ATOM     56  H4  UNL     1       0.541 -46.596 -30.195  1.00  0.00     0.162 HD
BRANCH  54  57
HETATM   57  C11 UNL     1      -1.871 -46.593 -28.796  1.00  0.00     0.160 C 
BRANCH  57  58
HETATM   58  N5  UNL     1      -2.493 -47.819 -28.718  1.00  0.00    -0.382 N 
HETATM   59  C12 UNL     1      -3.858 -48.030 -28.591  1.00  0.00     0.150 C 
HETATM   60  C13 UNL     1      -4.223 -49.212 -29.518  1.00  0.00     0.252 C 
HETATM   61  N6  UNL     1      -3.192 -49.398 -30.518  1.00  0.00    -0.072 N 
HETATM   62  C14 UNL     1      -1.904 -49.763 -29.925  1.00  0.00     0.252 C 
ATOM     63  H62 UNL     1      -3.479 -50.079 -31.222  1.00  0.00     0.277 HD
ATOM     64  H61 UNL     1      -3.104 -48.576 -31.114  1.00  0.00     0.277 HD
HETATM   65  C15 UNL     1      -1.713 -48.997 -28.611  1.00  0.00     0.150 C 
ENDBRANCH  57  58
ENDBRANCH  54  57
ENDBRANCH  52  53
ENDBRANCH  51  52
ENDBRANCH  50  51
ENDBRANCH  49  50
ENDBRANCH  48  49
ENDBRANCH  47  48
ENDBRANCH  46  47
ENDBRANCH   5  46
TORSDOF 16
ENDMDL
MODEL 5
REMARK VINA RESULT: -9.713589177      2.864      3.507
REMARK  16 active torsions:
REMARK  status: ('A' for Active; 'I' for Inactive)
REMARK    1  A    between atoms: N1_1  and  C1_4 
REMARK    2  A    between atoms: N3_8  and  C3_10 
REMARK    3  A    between atoms: C3_10  and  C4_11 
REMARK    4  A    between atoms: C4_11  and  C5_12 
REMARK    5  A    between atoms: C5_12  and  C6_13 
REMARK    6  A    between atoms: C6_13  and  C7_14 
REMARK    7  A    between atoms: C7_14  and  C8_15 
REMARK    8  A    between atoms: C8_15  and  C9_16 
REMARK    9  A    between atoms: C9_16  and  N4_17 
REMARK       I    between atoms: N4_17  and  C10_19 
REMARK   10  A    between atoms: C10_19  and  C11_21 
REMARK   11  A    between atoms: C11_21  and  N5_22 
REMARK   12  A    between atoms: C18_36  and  N9_37 
REMARK   13  A    between atoms: N9_37  and  C19_38 
REMARK   14  A    between atoms: C20_43  and  N12_44 
REMARK       I    between atoms: N12_44  and  C21_46 
REMARK   15  A    between atoms: C21_46  and  C22_48 
REMARK   16  A    between atoms: C24_55  and  N15_56 
ROOT
HETATM    1  C1  UNL     1       0.396 -45.433 -22.324  1.00  0.00     0.678 A 
HETATM    2  N2  UNL     1       1.432 -46.089 -22.853  1.00  0.00    -0.174 N 
ATOM      3  H2  UNL     1       1.756 -46.941 -22.395  1.00  0.00     0.186 HD
HETATM    4  C2  UNL     1       2.075 -45.664 -23.986  1.00  0.00     0.150 A 
HETATM    5  N3  UNL     1       3.055 -46.269 -24.458  1.00  0.00    -0.354 N 
ATOM      6  H3  UNL     1       3.266 -47.077 -23.873  1.00  0.00     0.166 HD
HETATM    7  C16 UNL     1       1.562 -44.490 -24.543  1.00  0.00     0.110 A 
HETATM    8  N7  UNL     1       2.087 -43.943 -25.639  1.00  0.00    -0.347 N 
ATOM      9  H7  UNL     1       2.880 -44.402 -26.087  1.00  0.00     0.167 HD
HETATM   10  C17 UNL     1       1.605 -42.809 -26.172  1.00  0.00     0.183 A 
HETATM   11  N8  UNL     1       0.570 -42.163 -25.637  1.00  0.00    -0.325 N 
ATOM     12  H8  UNL     1       0.234 -41.305 -26.074  1.00  0.00     0.169 HD
HETATM   13  C18 UNL     1      -0.053 -42.634 -24.501  1.00  0.00     0.213 A 
HETATM   14  C26 UNL     1       0.495 -43.835 -23.979  1.00  0.00     0.138 A 
HETATM   15  N18 UNL     1      -0.092 -44.299 -22.872  1.00  0.00    -0.185 N 
ATOM     16  H18 UNL     1      -0.884 -43.812 -22.454  1.00  0.00     0.184 HD
ENDROOT
BRANCH  13  17
HETATM   17  N9  UNL     1      -0.978 -42.095 -23.981  1.00  0.00    -0.348 NA
BRANCH  17  18
HETATM   18  C19 UNL     1      -2.009 -41.491 -23.400  1.00  0.00     0.290 A 
HETATM   19  N10 UNL     1      -3.147 -42.076 -22.886  1.00  0.00    -0.244 N 
HETATM   20  N11 UNL     1      -3.927 -41.150 -22.398  1.00  0.00    -0.128 N 
ATOM     21  H10 UNL     1      -3.349 -43.075 -22.888  1.00  0.00     0.191 HD
HETATM   22  C20 UNL     1      -3.372 -39.940 -22.553  1.00  0.00     0.703 A 
ATOM     23  H11 UNL     1      -4.831 -41.323 -21.960  1.00  0.00     0.205 HD
HETATM   24  N17 UNL     1      -2.213 -40.146 -23.159  1.00  0.00    -0.146 N 
ATOM     25  H17 UNL     1      -1.557 -39.408 -23.413  1.00  0.00     0.188 HD
BRANCH  22  26
HETATM   26  N12 UNL     1      -3.890 -38.796 -22.167  1.00  0.00    -0.153 N 
HETATM   27  C21 UNL     1      -2.980 -37.709 -22.065  1.00  0.00     0.288 C 
HETATM   28  O2  UNL     1      -2.889 -36.875 -22.971  1.00  0.00    -0.265 OA
ATOM     29  H12 UNL     1      -4.882 -38.694 -21.955  1.00  0.00     0.187 HD
BRANCH  27  30
HETATM   30  C22 UNL     1      -2.172 -37.638 -20.838  1.00  0.00     0.133 A 
HETATM   31  N13 UNL     1      -0.920 -38.100 -20.773  1.00  0.00    -0.302 N 
HETATM   32  C23 UNL     1      -0.203 -38.004 -19.622  1.00  0.00     0.326 A 
ATOM     33  H13 UNL     1      -0.497 -38.529 -21.597  1.00  0.00     0.171 HD
HETATM   34  O3  UNL     1       0.967 -38.435 -19.559  1.00  0.00    -0.247 OA
HETATM   35  N14 UNL     1      -0.750 -37.439 -18.524  1.00  0.00    -0.293 N 
HETATM   36  C24 UNL     1      -2.002 -36.964 -18.542  1.00  0.00     0.130 A 
ATOM     37  H14 UNL     1      -0.201 -37.374 -17.668  1.00  0.00     0.172 HD
HETATM   38  C25 UNL     1      -2.717 -37.065 -19.713  1.00  0.00     0.122 A 
HETATM   39  N16 UNL     1      -4.061 -36.578 -19.784  1.00  0.00    -0.096 NA
BRANCH  36  40
HETATM   40  N15 UNL     1      -2.487 -36.444 -17.483  1.00  0.00    -0.384 N 
ATOM     41 2H15 UNL     1      -1.920 -36.245 -16.659  1.00  0.00     0.157 HD
ATOM     42 1H15 UNL     1      -3.479 -36.209 -17.452  1.00  0.00     0.157 HD
ENDBRANCH  36  40
ENDBRANCH  27  30
ENDBRANCH  22  26
ENDBRANCH  17  18
ENDBRANCH  13  17
BRANCH   1  43
HETATM   43  N1  UNL     1      -0.208 -45.840 -21.251  1.00  0.00    -0.234 N 
ATOM     44  H12 UNL     1      -0.503 -46.816 -21.257  1.00  0.00     0.174 HD
ATOM     45  H11 UNL     1      -0.377 -45.226 -20.454  1.00  0.00     0.174 HD
ENDBRANCH   1  43
BRANCH   5  46
HETATM   46  C3  UNL     1       3.950 -46.217 -25.500  1.00  0.00     0.062 C 
BRANCH  46  47
HETATM   47  C4  UNL     1       5.090 -47.148 -25.623  1.00  0.00     0.044 C 
BRANCH  47  48
HETATM   48  C5  UNL     1       5.389 -47.808 -26.906  1.00  0.00     0.005 C 
BRANCH  48  49
HETATM   49  C6  UNL     1       5.106 -47.058 -28.156  1.00  0.00     0.000 C 
BRANCH  49  50
HETATM   50  C7  UNL     1       4.030 -47.713 -28.997  1.00  0.00     0.002 C 
BRANCH  50  51
HETATM   51  C8  UNL     1       3.093 -46.688 -29.610  1.00  0.00     0.020 C 
BRANCH  51  52
HETATM   52  C9  UNL     1       2.029 -46.268 -28.650  1.00  0.00     0.123 C 
BRANCH  52  53
HETATM   53  N4  UNL     1       0.705 -46.454 -29.165  1.00  0.00    -0.356 N 
HETATM   54  C10 UNL     1      -0.466 -46.349 -28.368  1.00  0.00     0.256 C 
HETATM   55  O1  UNL     1      -0.263 -46.066 -27.127  1.00  0.00    -0.267 OA
ATOM     56  H4  UNL     1       0.598 -46.673 -30.156  1.00  0.00     0.162 HD
BRANCH  54  57
HETATM   57  C11 UNL     1      -1.851 -46.528 -28.829  1.00  0.00     0.160 C 
BRANCH  57  58
HETATM   58  N5  UNL     1      -2.449 -47.763 -28.718  1.00  0.00    -0.382 N 
HETATM   59  C12 UNL     1      -3.800 -47.994 -28.508  1.00  0.00     0.150 C 
HETATM   60  C13 UNL     1      -4.204 -49.179 -29.415  1.00  0.00     0.252 C 
HETATM   61  N6  UNL     1      -3.235 -49.347 -30.478  1.00  0.00    -0.072 N 
HETATM   62  C14 UNL     1      -1.907 -49.694 -29.968  1.00  0.00     0.252 C 
ATOM     63  H62 UNL     1      -3.556 -50.029 -31.166  1.00  0.00     0.277 HD
ATOM     64  H61 UNL     1      -3.196 -48.521 -31.075  1.00  0.00     0.277 HD
HETATM   65  C15 UNL     1      -1.646 -48.930 -28.665  1.00  0.00     0.150 C 
ENDBRANCH  57  58
ENDBRANCH  54  57
ENDBRANCH  52  53
ENDBRANCH  51  52
ENDBRANCH  50  51
ENDBRANCH  49  50
ENDBRANCH  48  49
ENDBRANCH  47  48
ENDBRANCH  46  47
ENDBRANCH   5  46
TORSDOF 16
ENDMDL
