MODEL 1
REMARK VINA RESULT: -7.149458460      0.000      0.000
REMARK  4 active torsions:
REMARK  status: ('A' for Active; 'I' for Inactive)
REMARK    1  A    between atoms: C1_2  and  C2_3 
REMARK       I    between atoms: C1_2  and  N3_19 
REMARK    2  A    between atoms: C2_3  and  S1_4 
REMARK    3  A    between atoms: S1_4  and  C3_5 
REMARK    4  A    between atoms: N3_19  and  C14_21 
ROOT
HETATM    1  C3  UNL     1      14.536  16.133  16.331  1.00  0.00     0.030 A 
HETATM    2  C4  UNL     1      15.119  14.951  15.796  1.00  0.00     0.030 A 
HETATM    3  C5  UNL     1      14.331  14.000  15.280  1.00  0.00    -0.032 A 
HETATM    4  C6  UNL     1      12.972  14.183  15.275  1.00  0.00     0.041 A 
HETATM    5  N1  UNL     1      12.390  15.304  15.779  1.00  0.00    -0.259 N 
HETATM    6  N2  UNL     1      11.113  15.670  15.853  1.00  0.00    -0.305 N 
ATOM      7  H2  UNL     1      10.328  15.108  15.524  1.00  0.00     0.186 HD
HETATM    8  C7  UNL     1      11.003  16.860  16.411  1.00  0.00     0.110 A 
HETATM    9  C8  UNL     1      12.306  17.274  16.710  1.00  0.00     0.051 A 
HETATM   10  C9  UNL     1      13.167  16.277  16.305  1.00  0.00     0.074 A 
HETATM   11  C10 UNL     1      12.119  13.123  14.705  1.00  0.00     0.060 C 
HETATM   12  C11 UNL     1      12.685  12.458  13.492  1.00  0.00     0.006 C 
HETATM   13  C12 UNL     1      14.164  12.635  13.336  1.00  0.00     0.005 C 
HETATM   14  C13 UNL     1      14.864  12.714  14.688  1.00  0.00     0.040 C 
ENDROOT
BRANCH   1  15
HETATM   15  S1  UNL     1      15.627  17.319  16.960  1.00  0.00    -0.118 SA
BRANCH  15  16
HETATM   16  C2  UNL     1      17.351  17.115  16.994  1.00  0.00     0.182 C 
BRANCH  16  17
HETATM   17  C1  UNL     1      18.018  17.158  15.647  1.00  0.00     0.227 C 
HETATM   18  O1  UNL     1      18.351  16.072  15.142  1.00  0.00    -0.273 OA
HETATM   19  N3  UNL     1      18.268  18.359  14.961  1.00  0.00    -0.353 N 
ATOM     20  H3  UNL     1      17.982  19.231  15.405  1.00  0.00     0.163 HD
BRANCH  19  21
HETATM   21  C14 UNL     1      18.900  18.435  13.678  1.00  0.00     0.118 C 
HETATM   22  C15 UNL     1      20.390  18.519  13.841  1.00  0.00     0.028 C 
HETATM   23  C16 UNL     1      21.063  19.239  12.712  1.00  0.00     0.002 C 
HETATM   24  C17 UNL     1      20.701  20.713  12.706  1.00  0.00     0.003 C 
HETATM   25  C18 UNL     1      19.299  20.869  13.272  1.00  0.00     0.039 C 
HETATM   26  C19 UNL     1      18.438  19.673  12.938  1.00  0.00     0.192 C 
HETATM   27  F1  UNL     1      17.142  19.959  13.314  1.00  0.00    -0.247 F 
ENDBRANCH  19  21
ENDBRANCH  16  17
ENDBRANCH  15  16
ENDBRANCH   1  15
TORSDOF 4
ENDMDL
MODEL 2
REMARK VINA RESULT: -7.032612050      3.177      7.649
REMARK  4 active torsions:
REMARK  status: ('A' for Active; 'I' for Inactive)
REMARK    1  A    between atoms: C1_2  and  C2_3 
REMARK       I    between atoms: C1_2  and  N3_19 
REMARK    2  A    between atoms: C2_3  and  S1_4 
REMARK    3  A    between atoms: S1_4  and  C3_5 
REMARK    4  A    between atoms: N3_19  and  C14_21 
ROOT
HETATM    1  C3  UNL     1      15.361  17.241  14.167  1.00  0.00     0.030 A 
HETATM    2  C4  UNL     1      14.108  17.442  14.808  1.00  0.00     0.030 A 
HETATM    3  C5  UNL     1      14.069  17.679  16.124  1.00  0.00    -0.032 A 
HETATM    4  C6  UNL     1      15.241  17.726  16.834  1.00  0.00     0.041 A 
HETATM    5  N1  UNL     1      16.452  17.540  16.246  1.00  0.00    -0.259 N 
HETATM    6  N2  UNL     1      17.684  17.560  16.748  1.00  0.00    -0.305 N 
ATOM      7  H2  UNL     1      17.907  17.722  17.731  1.00  0.00     0.186 HD
HETATM    8  C7  UNL     1      18.575  17.343  15.803  1.00  0.00     0.110 A 
HETATM    9  C8  UNL     1      17.854  17.172  14.616  1.00  0.00     0.051 A 
HETATM   10  C9  UNL     1      16.515  17.298  14.917  1.00  0.00     0.074 A 
HETATM   11  C10 UNL     1      15.179  17.986  18.285  1.00  0.00     0.060 C 
HETATM   12  C11 UNL     1      14.138  18.978  18.692  1.00  0.00     0.006 C 
HETATM   13  C12 UNL     1      13.061  19.183  17.671  1.00  0.00     0.005 C 
HETATM   14  C13 UNL     1      12.782  17.906  16.888  1.00  0.00     0.040 C 
ENDROOT
BRANCH   1  15
HETATM   15  S1  UNL     1      15.323  16.960  12.461  1.00  0.00    -0.118 SA
BRANCH  15  16
HETATM   16  C2  UNL     1      14.096  16.020  11.670  1.00  0.00     0.182 C 
BRANCH  16  17
HETATM   17  C1  UNL     1      13.805  14.694  12.314  1.00  0.00     0.227 C 
HETATM   18  O1  UNL     1      14.758  13.907  12.454  1.00  0.00    -0.273 OA
HETATM   19  N3  UNL     1      12.521  14.328  12.753  1.00  0.00    -0.353 N 
ATOM     20  H3  UNL     1      11.763  14.997  12.623  1.00  0.00     0.163 HD
BRANCH  19  21
HETATM   21  C14 UNL     1      12.209  13.074  13.371  1.00  0.00     0.118 C 
HETATM   22  C15 UNL     1      10.937  12.519  12.799  1.00  0.00     0.028 C 
HETATM   23  C16 UNL     1      10.197  11.639  13.761  1.00  0.00     0.002 C 
HETATM   24  C17 UNL     1       9.652  12.437  14.930  1.00  0.00     0.003 C 
HETATM   25  C18 UNL     1      10.582  13.610  15.191  1.00  0.00     0.039 C 
HETATM   26  C19 UNL     1      12.014  13.257  14.861  1.00  0.00     0.192 C 
HETATM   27  F1  UNL     1      12.820  14.289  15.293  1.00  0.00    -0.247 F 
ENDBRANCH  19  21
ENDBRANCH  16  17
ENDBRANCH  15  16
ENDBRANCH   1  15
TORSDOF 4
ENDMDL
MODEL 3
REMARK VINA RESULT: -7.023163277      2.382      3.863
REMARK  4 active torsions:
REMARK  status: ('A' for Active; 'I' for Inactive)
REMARK    1  A    between atoms: C1_2  and  C2_3 
REMARK       I    between atoms: C1_2  and  N3_19 
REMARK    2  A    between atoms: C2_3  and  S1_4 
REMARK    3  A    between atoms: S1_4  and  C3_5 
REMARK    4  A    between atoms: N3_19  and  C14_21 
ROOT
HETATM    1  C3  UNL     1      12.571  15.417  15.629  1.00  0.00     0.030 A 
HETATM    2  C4  UNL     1      11.244  15.266  15.140  1.00  0.00     0.030 A 
HETATM    3  C5  UNL     1      10.942  14.222  14.359  1.00  0.00    -0.032 A 
HETATM    4  C6  UNL     1      11.918  13.312  14.045  1.00  0.00     0.041 A 
HETATM    5  N1  UNL     1      13.194  13.432  14.501  1.00  0.00    -0.259 N 
HETATM    6  N2  UNL     1      14.264  12.662  14.323  1.00  0.00    -0.305 N 
ATOM      7  H2  UNL     1      14.279  11.809  13.765  1.00  0.00     0.186 HD
HETATM    8  C7  UNL     1      15.302  13.154  14.969  1.00  0.00     0.110 A 
HETATM    9  C8  UNL     1      14.855  14.320  15.600  1.00  0.00     0.051 A 
HETATM   10  C9  UNL     1      13.522  14.479  15.290  1.00  0.00     0.074 A 
HETATM   11  C10 UNL     1      11.568  12.169  13.181  1.00  0.00     0.060 C 
HETATM   12  C11 UNL     1      10.211  11.597  13.432  1.00  0.00     0.006 C 
HETATM   13  C12 UNL     1       9.283  12.525  14.155  1.00  0.00     0.005 C 
HETATM   14  C13 UNL     1       9.558  13.981  13.796  1.00  0.00     0.040 C 
ENDROOT
BRANCH   1  15
HETATM   15  S1  UNL     1      12.871  16.783  16.647  1.00  0.00    -0.118 SA
BRANCH  15  16
HETATM   16  C2  UNL     1      13.171  18.382  16.043  1.00  0.00     0.182 C 
BRANCH  16  17
HETATM   17  C1  UNL     1      14.615  18.800  16.052  1.00  0.00     0.227 C 
HETATM   18  O1  UNL     1      14.895  19.866  16.628  1.00  0.00    -0.273 OA
HETATM   19  N3  UNL     1      15.630  18.040  15.446  1.00  0.00    -0.353 N 
ATOM     20  H3  UNL     1      15.364  17.171  14.983  1.00  0.00     0.163 HD
BRANCH  19  21
HETATM   21  C14 UNL     1      17.014  18.409  15.438  1.00  0.00     0.118 C 
HETATM   22  C15 UNL     1      17.541  18.400  14.032  1.00  0.00     0.028 C 
HETATM   23  C16 UNL     1      19.011  18.113  13.960  1.00  0.00     0.002 C 
HETATM   24  C17 UNL     1      19.314  16.688  14.379  1.00  0.00     0.003 C 
HETATM   25  C18 UNL     1      18.281  16.253  15.405  1.00  0.00     0.039 C 
HETATM   26  C19 UNL     1      17.825  17.421  16.250  1.00  0.00     0.192 C 
HETATM   27  F1  UNL     1      17.038  16.930  17.270  1.00  0.00    -0.247 F 
ENDBRANCH  19  21
ENDBRANCH  16  17
ENDBRANCH  15  16
ENDBRANCH   1  15
TORSDOF 4
ENDMDL
MODEL 4
REMARK VINA RESULT: -6.997466440      2.824      4.111
REMARK  4 active torsions:
REMARK  status: ('A' for Active; 'I' for Inactive)
REMARK    1  A    between atoms: C1_2  and  C2_3 
REMARK       I    between atoms: C1_2  and  N3_19 
REMARK    2  A    between atoms: C2_3  and  S1_4 
REMARK    3  A    between atoms: S1_4  and  C3_5 
REMARK    4  A    between atoms: N3_19  and  C14_21 
ROOT
HETATM    1  C3  UNL     1      12.653  13.970  13.939  1.00  0.00     0.030 A 
HETATM    2  C4  UNL     1      11.774  12.925  13.543  1.00  0.00     0.030 A 
HETATM    3  C5  UNL     1      10.671  12.682  14.259  1.00  0.00    -0.032 A 
HETATM    4  C6  UNL     1      10.405  13.447  15.365  1.00  0.00     0.041 A 
HETATM    5  N1  UNL     1      11.228  14.453  15.766  1.00  0.00    -0.259 N 
HETATM    6  N2  UNL     1      11.141  15.304  16.784  1.00  0.00    -0.305 N 
ATOM      7  H2  UNL     1      10.386  15.313  17.470  1.00  0.00     0.186 HD
HETATM    8  C7  UNL     1      12.165  16.134  16.785  1.00  0.00     0.110 A 
HETATM    9  C8  UNL     1      12.956  15.780  15.686  1.00  0.00     0.051 A 
HETATM   10  C9  UNL     1      12.349  14.716  15.056  1.00  0.00     0.074 A 
HETATM   11  C10 UNL     1       9.185  13.163  16.145  1.00  0.00     0.060 C 
HETATM   12  C11 UNL     1       7.997  12.787  15.320  1.00  0.00     0.006 C 
HETATM   13  C12 UNL     1       8.339  12.319  13.939  1.00  0.00     0.005 C 
HETATM   14  C13 UNL     1       9.679  11.593  13.910  1.00  0.00     0.040 C 
ENDROOT
BRANCH   1  15
HETATM   15  S1  UNL     1      14.046  14.230  12.947  1.00  0.00    -0.118 SA
BRANCH  15  16
HETATM   16  C2  UNL     1      14.343  15.702  12.076  1.00  0.00     0.182 C 
BRANCH  16  17
HETATM   17  C1  UNL     1      15.441  16.559  12.641  1.00  0.00     0.227 C 
HETATM   18  O1  UNL     1      16.231  17.078  11.833  1.00  0.00    -0.273 OA
HETATM   19  N3  UNL     1      15.595  16.786  14.019  1.00  0.00    -0.353 N 
ATOM     20  H3  UNL     1      14.929  16.345  14.654  1.00  0.00     0.163 HD
BRANCH  19  21
HETATM   21  C14 UNL     1      16.629  17.597  14.590  1.00  0.00     0.118 C 
HETATM   22  C15 UNL     1      17.785  16.737  15.012  1.00  0.00     0.028 C 
HETATM   23  C16 UNL     1      18.563  17.321  16.152  1.00  0.00     0.002 C 
HETATM   24  C17 UNL     1      17.744  17.333  17.429  1.00  0.00     0.003 C 
HETATM   25  C18 UNL     1      16.278  17.487  17.063  1.00  0.00     0.039 C 
HETATM   26  C19 UNL     1      16.111  18.322  15.814  1.00  0.00     0.192 C 
HETATM   27  F1  UNL     1      14.766  18.577  15.646  1.00  0.00    -0.247 F 
ENDBRANCH  19  21
ENDBRANCH  16  17
ENDBRANCH  15  16
ENDBRANCH   1  15
TORSDOF 4
ENDMDL
MODEL 5
REMARK VINA RESULT: -6.975708993      3.958      8.972
REMARK  4 active torsions:
REMARK  status: ('A' for Active; 'I' for Inactive)
REMARK    1  A    between atoms: C1_2  and  C2_3 
REMARK       I    between atoms: C1_2  and  N3_19 
REMARK    2  A    between atoms: C2_3  and  S1_4 
REMARK    3  A    between atoms: S1_4  and  C3_5 
REMARK    4  A    between atoms: N3_19  and  C14_21 
ROOT
HETATM    1  C3  UNL     1      13.286  16.132  16.440  1.00  0.00     0.030 A 
HETATM    2  C4  UNL     1      14.044  17.229  16.934  1.00  0.00     0.030 A 
HETATM    3  C5  UNL     1      15.370  17.252  16.753  1.00  0.00    -0.032 A 
HETATM    4  C6  UNL     1      15.976  16.215  16.092  1.00  0.00     0.041 A 
HETATM    5  N1  UNL     1      15.275  15.155  15.609  1.00  0.00    -0.259 N 
HETATM    6  N2  UNL     1      15.668  14.076  14.939  1.00  0.00    -0.305 N 
ATOM      7  H2  UNL     1      16.635  13.872  14.683  1.00  0.00     0.186 HD
HETATM    8  C7  UNL     1      14.638  13.306  14.651  1.00  0.00     0.110 A 
HETATM    9  C8  UNL     1      13.511  13.947  15.179  1.00  0.00     0.051 A 
HETATM   10  C9  UNL     1      13.934  15.112  15.780  1.00  0.00     0.074 A 
HETATM   11  C10 UNL     1      17.439  16.255  15.904  1.00  0.00     0.060 C 
HETATM   12  C11 UNL     1      17.989  17.614  15.614  1.00  0.00     0.006 C 
HETATM   13  C12 UNL     1      17.079  18.736  16.011  1.00  0.00     0.005 C 
HETATM   14  C13 UNL     1      16.254  18.379  17.242  1.00  0.00     0.040 C 
ENDROOT
BRANCH   1  15
HETATM   15  S1  UNL     1      11.577  16.192  16.699  1.00  0.00    -0.118 SA
BRANCH  15  16
HETATM   16  C2  UNL     1      10.431  16.582  15.455  1.00  0.00     0.182 C 
BRANCH  16  17
HETATM   17  C1  UNL     1       9.929  15.404  14.668  1.00  0.00     0.227 C 
HETATM   18  O1  UNL     1      10.498  15.155  13.590  1.00  0.00    -0.273 OA
HETATM   19  N3  UNL     1       8.864  14.597  15.103  1.00  0.00    -0.353 N 
ATOM     20  H3  UNL     1       8.421  14.829  15.992  1.00  0.00     0.163 HD
BRANCH  19  21
HETATM   21  C14 UNL     1       8.362  13.467  14.379  1.00  0.00     0.118 C 
HETATM   22  C15 UNL     1       6.861  13.459  14.414  1.00  0.00     0.028 C 
HETATM   23  C16 UNL     1       6.281  12.081  14.300  1.00  0.00     0.002 C 
HETATM   24  C17 UNL     1       6.593  11.250  15.530  1.00  0.00     0.003 C 
HETATM   25  C18 UNL     1       7.924  11.708  16.101  1.00  0.00     0.039 C 
HETATM   26  C19 UNL     1       8.854  12.180  15.007  1.00  0.00     0.192 C 
HETATM   27  F1  UNL     1      10.095  12.403  15.566  1.00  0.00    -0.247 F 
ENDBRANCH  19  21
ENDBRANCH  16  17
ENDBRANCH  15  16
ENDBRANCH   1  15
TORSDOF 4
ENDMDL
