MODEL 1
REMARK VINA RESULT: -6.756288650      0.000      0.000
REMARK  5 active torsions:
REMARK  status: ('A' for Active; 'I' for Inactive)
REMARK    1  A    between atoms: C2_2  and  C4_4 
REMARK    2  A    between atoms: C2_2  and  O1_12 
REMARK    3  A    between atoms: C4_4  and  N1_5 
REMARK    4  A    between atoms: O1_12  and  C8_13 
REMARK       I    between atoms: C8_13  and  N3_15 
REMARK    5  A    between atoms: N3_15  and  C9_17 
ROOT
HETATM    1  C8  UNL     1      14.044  14.828  15.401  1.00  0.00     0.362 C 
HETATM    2  O2  UNL     1      13.251  15.677  15.881  1.00  0.00    -0.238 OA
HETATM    3  N3  UNL     1      15.438  15.065  15.294  1.00  0.00    -0.328 N 
ATOM      4  H3  UNL     1      16.007  14.320  14.894  1.00  0.00     0.165 HD
ENDROOT
BRANCH   1   5
HETATM    5  O1  UNL     1      13.475  13.636  14.977  1.00  0.00    -0.292 OA
BRANCH   5   6
HETATM    6  C2  UNL     1      13.303  13.306  13.636  1.00  0.00     0.083 C 
HETATM    7  C1  UNL     1      13.419  14.496  12.742  1.00  0.00     0.048 C 
HETATM    8  C3  UNL     1      14.475  12.384  13.270  1.00  0.00     0.048 C 
BRANCH   6   9
HETATM    9  C4  UNL     1      12.036  12.511  13.461  1.00  0.00     0.186 C 
BRANCH   9  10
HETATM   10  N1  UNL     1      10.967  12.983  14.300  1.00  0.00    -0.299 N 
HETATM   11  C5  UNL     1       9.991  12.210  14.802  1.00  0.00     0.135 A 
HETATM   12  C6  UNL     1       9.157  12.983  15.545  1.00  0.00     0.068 A 
HETATM   13 CL1  UNL     1       7.708  12.540  16.444  1.00  0.00    -0.081 Cl
HETATM   14  C7  UNL     1       9.650  14.266  15.489  1.00  0.00     0.132 A 
HETATM   15  N2  UNL     1      10.741  14.216  14.727  1.00  0.00    -0.308 N 
ATOM     16  H2  UNL     1      11.326  15.022  14.503  1.00  0.00     0.186 HD
ENDBRANCH   9  10
ENDBRANCH   6   9
ENDBRANCH   5   6
ENDBRANCH   1   5
BRANCH   3  17
HETATM   17  C9  UNL     1      16.113  16.252  15.698  1.00  0.00     0.036 C 
HETATM   18  C10 UNL     1      15.799  16.664  17.117  1.00  0.00     0.035 C 
HETATM   19  C11 UNL     1      16.553  17.924  17.439  1.00  0.00    -0.012 C 
HETATM   20  C12 UNL     1      18.049  17.728  17.348  1.00  0.00     0.009 C 
HETATM   21  C16 UNL     1      16.192  19.050  16.502  1.00  0.00     0.009 C 
HETATM   22  C13 UNL     1      18.370  17.310  15.941  1.00  0.00    -0.012 C 
HETATM   23  C14 UNL     1      17.969  18.362  14.924  1.00  0.00     0.009 C 
HETATM   24  C18 UNL     1      17.614  16.056  15.626  1.00  0.00     0.035 C 
HETATM   25  C15 UNL     1      16.515  18.655  15.075  1.00  0.00    -0.012 C 
HETATM   26  C17 UNL     1      15.731  17.389  14.786  1.00  0.00     0.035 C 
ENDBRANCH   3  17
TORSDOF 5
ENDMDL
MODEL 2
REMARK VINA RESULT: -6.693868722      0.132      1.487
REMARK  5 active torsions:
REMARK  status: ('A' for Active; 'I' for Inactive)
REMARK    1  A    between atoms: C2_2  and  C4_4 
REMARK    2  A    between atoms: C2_2  and  O1_12 
REMARK    3  A    between atoms: C4_4  and  N1_5 
REMARK    4  A    between atoms: O1_12  and  C8_13 
REMARK       I    between atoms: C8_13  and  N3_15 
REMARK    5  A    between atoms: N3_15  and  C9_17 
ROOT
HETATM    1  C8  UNL     1      14.003  14.900  15.373  1.00  0.00     0.362 C 
HETATM    2  O2  UNL     1      13.204  15.758  15.826  1.00  0.00    -0.238 OA
HETATM    3  N3  UNL     1      15.396  15.146  15.253  1.00  0.00    -0.328 N 
ATOM      4  H3  UNL     1      15.970  14.392  14.876  1.00  0.00     0.165 HD
ENDROOT
BRANCH   1   5
HETATM    5  O1  UNL     1      13.445  13.689  14.991  1.00  0.00    -0.292 OA
BRANCH   5   6
HETATM    6  C2  UNL     1      13.245  13.324  13.663  1.00  0.00     0.083 C 
HETATM    7  C1  UNL     1      13.331  14.492  12.737  1.00  0.00     0.048 C 
HETATM    8  C3  UNL     1      14.416  12.402  13.294  1.00  0.00     0.048 C 
BRANCH   6   9
HETATM    9  C4  UNL     1      11.980  12.516  13.537  1.00  0.00     0.186 C 
BRANCH   9  10
HETATM   10  N1  UNL     1      10.918  13.020  14.366  1.00  0.00    -0.299 N 
HETATM   11  C5  UNL     1       9.932  12.269  14.884  1.00  0.00     0.135 A 
HETATM   12  C6  UNL     1       9.108  13.069  15.610  1.00  0.00     0.068 A 
HETATM   13 CL1  UNL     1       7.654  12.664  16.519  1.00  0.00    -0.081 Cl
HETATM   14  C7  UNL     1       9.617  14.344  15.526  1.00  0.00     0.132 A 
HETATM   15  N2  UNL     1      10.707  14.264  14.765  1.00  0.00    -0.308 N 
ATOM     16  H2  UNL     1      11.301  15.057  14.523  1.00  0.00     0.186 HD
ENDBRANCH   9  10
ENDBRANCH   6   9
ENDBRANCH   5   6
ENDBRANCH   1   5
BRANCH   3  17
HETATM   17  C9  UNL     1      16.061  16.352  15.614  1.00  0.00     0.036 C 
HETATM   18  C10 UNL     1      15.649  17.536  14.772  1.00  0.00     0.035 C 
HETATM   19  C11 UNL     1      16.409  18.749  15.228  1.00  0.00    -0.012 C 
HETATM   20  C12 UNL     1      16.114  19.096  16.669  1.00  0.00     0.009 C 
HETATM   21  C16 UNL     1      17.901  18.553  15.113  1.00  0.00     0.009 C 
HETATM   22  C13 UNL     1      16.514  17.919  17.513  1.00  0.00    -0.012 C 
HETATM   23  C14 UNL     1      17.994  17.608  17.397  1.00  0.00     0.009 C 
HETATM   24  C18 UNL     1      15.754  16.714  17.053  1.00  0.00     0.035 C 
HETATM   25  C15 UNL     1      18.332  17.375  15.964  1.00  0.00    -0.012 C 
HETATM   26  C17 UNL     1      17.550  16.172  15.469  1.00  0.00     0.035 C 
ENDBRANCH   3  17
TORSDOF 5
ENDMDL
MODEL 3
REMARK VINA RESULT: -6.657622331      0.132      1.506
REMARK  5 active torsions:
REMARK  status: ('A' for Active; 'I' for Inactive)
REMARK    1  A    between atoms: C2_2  and  C4_4 
REMARK    2  A    between atoms: C2_2  and  O1_12 
REMARK    3  A    between atoms: C4_4  and  N1_5 
REMARK    4  A    between atoms: O1_12  and  C8_13 
REMARK       I    between atoms: C8_13  and  N3_15 
REMARK    5  A    between atoms: N3_15  and  C9_17 
ROOT
HETATM    1  C8  UNL     1      14.046  14.881  15.375  1.00  0.00     0.362 C 
HETATM    2  O2  UNL     1      13.282  15.778  15.812  1.00  0.00    -0.238 OA
HETATM    3  N3  UNL     1      15.449  15.063  15.268  1.00  0.00    -0.328 N 
ATOM      4  H3  UNL     1      15.993  14.281  14.904  1.00  0.00     0.165 HD
ENDROOT
BRANCH   1   5
HETATM    5  O1  UNL     1      13.437  13.694  14.997  1.00  0.00    -0.292 OA
BRANCH   5   6
HETATM    6  C2  UNL     1      13.221  13.334  13.670  1.00  0.00     0.083 C 
HETATM    7  C1  UNL     1      13.317  14.502  12.745  1.00  0.00     0.048 C 
HETATM    8  C3  UNL     1      14.376  12.395  13.290  1.00  0.00     0.048 C 
BRANCH   6   9
HETATM    9  C4  UNL     1      11.944  12.544  13.552  1.00  0.00     0.186 C 
BRANCH   9  10
HETATM   10  N1  UNL     1      10.897  13.060  14.393  1.00  0.00    -0.299 N 
HETATM   11  C5  UNL     1       9.906  12.322  14.920  1.00  0.00     0.135 A 
HETATM   12  C6  UNL     1       9.100  13.130  15.656  1.00  0.00     0.068 A 
HETATM   13 CL1  UNL     1       7.650  12.742  16.578  1.00  0.00    -0.081 Cl
HETATM   14  C7  UNL     1       9.625  14.399  15.569  1.00  0.00     0.132 A 
HETATM   15  N2  UNL     1      10.707  14.307  14.797  1.00  0.00    -0.308 N 
ATOM     16  H2  UNL     1      11.309  15.092  14.551  1.00  0.00     0.186 HD
ENDBRANCH   9  10
ENDBRANCH   6   9
ENDBRANCH   5   6
ENDBRANCH   1   5
BRANCH   3  17
HETATM   17  C9  UNL     1      16.165  16.241  15.627  1.00  0.00     0.036 C 
HETATM   18  C10 UNL     1      17.664  16.076  15.542  1.00  0.00     0.035 C 
HETATM   19  C11 UNL     1      18.321  17.367  15.944  1.00  0.00    -0.012 C 
HETATM   20  C12 UNL     1      17.940  18.507  15.027  1.00  0.00     0.009 C 
HETATM   21  C16 UNL     1      17.944  17.776  17.346  1.00  0.00     0.009 C 
HETATM   22  C13 UNL     1      16.449  18.672  15.099  1.00  0.00    -0.012 C 
HETATM   23  C14 UNL     1      15.976  19.015  16.499  1.00  0.00     0.009 C 
HETATM   24  C18 UNL     1      15.801  17.382  14.700  1.00  0.00     0.035 C 
HETATM   25  C15 UNL     1      16.442  17.959  17.442  1.00  0.00    -0.012 C 
HETATM   26  C17 UNL     1      15.817  16.636  17.038  1.00  0.00     0.035 C 
ENDBRANCH   3  17
TORSDOF 5
ENDMDL
MODEL 4
REMARK VINA RESULT: -6.506460672      3.489      7.900
REMARK  5 active torsions:
REMARK  status: ('A' for Active; 'I' for Inactive)
REMARK    1  A    between atoms: C2_2  and  C4_4 
REMARK    2  A    between atoms: C2_2  and  O1_12 
REMARK    3  A    between atoms: C4_4  and  N1_5 
REMARK    4  A    between atoms: O1_12  and  C8_13 
REMARK       I    between atoms: C8_13  and  N3_15 
REMARK    5  A    between atoms: N3_15  and  C9_17 
ROOT
HETATM    1  C8  UNL     1      14.475  14.746  14.290  1.00  0.00     0.362 C 
HETATM    2  O2  UNL     1      14.530  14.800  13.035  1.00  0.00    -0.238 OA
HETATM    3  N3  UNL     1      13.343  14.241  14.980  1.00  0.00    -0.328 N 
ATOM      4  H3  UNL     1      13.385  14.233  15.999  1.00  0.00     0.165 HD
ENDROOT
BRANCH   1   5
HETATM    5  O1  UNL     1      15.591  15.211  14.968  1.00  0.00    -0.292 OA
BRANCH   5   6
HETATM    6  C2  UNL     1      15.605  16.402  15.689  1.00  0.00     0.083 C 
HETATM    7  C1  UNL     1      15.110  17.557  14.884  1.00  0.00     0.048 C 
HETATM    8  C3  UNL     1      14.598  16.219  16.834  1.00  0.00     0.048 C 
BRANCH   6   9
HETATM    9  C4  UNL     1      16.960  16.608  16.314  1.00  0.00     0.186 C 
BRANCH   9  10
HETATM   10  N1  UNL     1      17.981  16.883  15.339  1.00  0.00    -0.299 N 
HETATM   11  C5  UNL     1      18.338  18.113  14.932  1.00  0.00     0.135 A 
HETATM   12  C6  UNL     1      19.328  18.000  14.009  1.00  0.00     0.068 A 
HETATM   13 CL1  UNL     1      20.194  19.253  13.123  1.00  0.00    -0.081 Cl
HETATM   14  C7  UNL     1      19.575  16.656  13.855  1.00  0.00     0.132 A 
HETATM   15  N2  UNL     1      18.739  16.023  14.677  1.00  0.00    -0.308 N 
ATOM     16  H2  UNL     1      18.690  15.010  14.782  1.00  0.00     0.186 HD
ENDBRANCH   9  10
ENDBRANCH   6   9
ENDBRANCH   5   6
ENDBRANCH   1   5
BRANCH   3  17
HETATM   17  C9  UNL     1      12.153  13.744  14.376  1.00  0.00     0.036 C 
HETATM   18  C10 UNL     1      12.398  12.579  13.446  1.00  0.00     0.035 C 
HETATM   19  C11 UNL     1      11.086  12.137  12.860  1.00  0.00    -0.012 C 
HETATM   20  C12 UNL     1      10.119  11.670  13.923  1.00  0.00     0.009 C 
HETATM   21  C16 UNL     1      10.409  13.249  12.097  1.00  0.00     0.009 C 
HETATM   22  C13 UNL     1       9.876  12.821  14.858  1.00  0.00    -0.012 C 
HETATM   23  C14 UNL     1       9.260  14.013  14.151  1.00  0.00     0.009 C 
HETATM   24  C18 UNL     1      11.186  13.257  15.436  1.00  0.00     0.035 C 
HETATM   25  C15 UNL     1      10.144  14.420  13.022  1.00  0.00    -0.012 C 
HETATM   26  C17 UNL     1      11.489  14.842  13.585  1.00  0.00     0.035 C 
ENDBRANCH   3  17
TORSDOF 5
ENDMDL
MODEL 5
REMARK VINA RESULT: -6.429027280      3.652      7.717
REMARK  5 active torsions:
REMARK  status: ('A' for Active; 'I' for Inactive)
REMARK    1  A    between atoms: C2_2  and  C4_4 
REMARK    2  A    between atoms: C2_2  and  O1_12 
REMARK    3  A    between atoms: C4_4  and  N1_5 
REMARK    4  A    between atoms: O1_12  and  C8_13 
REMARK       I    between atoms: C8_13  and  N3_15 
REMARK    5  A    between atoms: N3_15  and  C9_17 
ROOT
HETATM    1  C8  UNL     1      15.218  15.543  15.724  1.00  0.00     0.362 C 
HETATM    2  O2  UNL     1      15.563  15.102  14.599  1.00  0.00    -0.238 OA
HETATM    3  N3  UNL     1      13.874  15.496  16.179  1.00  0.00    -0.328 N 
ATOM      4  H3  UNL     1      13.684  15.875  17.107  1.00  0.00     0.165 HD
ENDROOT
BRANCH   1   5
HETATM    5  O1  UNL     1      16.230  16.083  16.503  1.00  0.00    -0.292 OA
BRANCH   5   6
HETATM    6  C2  UNL     1      16.442  17.452  16.639  1.00  0.00     0.083 C 
HETATM    7  C1  UNL     1      15.444  18.091  17.546  1.00  0.00     0.048 C 
HETATM    8  C3  UNL     1      17.805  17.605  17.331  1.00  0.00     0.048 C 
BRANCH   6   9
HETATM    9  C4  UNL     1      16.554  18.091  15.280  1.00  0.00     0.186 C 
BRANCH   9  10
HETATM   10  N1  UNL     1      17.819  17.828  14.648  1.00  0.00    -0.299 N 
HETATM   11  C5  UNL     1      18.644  18.772  14.165  1.00  0.00     0.135 A 
HETATM   12  C6  UNL     1      19.742  18.168  13.641  1.00  0.00     0.068 A 
HETATM   13 CL1  UNL     1      21.159  18.875  12.869  1.00  0.00    -0.081 Cl
HETATM   14  C7  UNL     1      19.572  16.814  13.815  1.00  0.00     0.132 A 
HETATM   15  N2  UNL     1      18.399  16.658  14.426  1.00  0.00    -0.308 N 
ATOM     16  H2  UNL     1      18.000  15.757  14.688  1.00  0.00     0.186 HD
ENDBRANCH   9  10
ENDBRANCH   6   9
ENDBRANCH   5   6
ENDBRANCH   1   5
BRANCH   3  17
HETATM   17  C9  UNL     1      12.769  14.965  15.456  1.00  0.00     0.036 C 
HETATM   18  C10 UNL     1      12.585  15.600  14.098  1.00  0.00     0.035 C 
HETATM   19  C11 UNL     1      11.395  14.977  13.423  1.00  0.00    -0.012 C 
HETATM   20  C12 UNL     1      11.580  13.492  13.205  1.00  0.00     0.009 C 
HETATM   21  C16 UNL     1      10.133  15.156  14.232  1.00  0.00     0.009 C 
HETATM   22  C13 UNL     1      11.772  12.854  14.551  1.00  0.00    -0.012 C 
HETATM   23  C14 UNL     1      10.571  13.052  15.457  1.00  0.00     0.009 C 
HETATM   24  C18 UNL     1      12.957  13.480  15.219  1.00  0.00     0.035 C 
HETATM   25  C15 UNL     1      10.299  14.511  15.593  1.00  0.00    -0.012 C 
HETATM   26  C17 UNL     1      11.501  15.171  16.244  1.00  0.00     0.035 C 
ENDBRANCH   3  17
TORSDOF 5
ENDMDL
