MODEL 1
REMARK VINA RESULT: -7.518201790      0.000      0.000
REMARK  4 active torsions:
REMARK  status: ('A' for Active; 'I' for Inactive)
REMARK    1  A    between atoms: C3_6  and  C4_7 
REMARK    2  A    between atoms: C4_7  and  C5_8 
REMARK    3  A    between atoms: C5_8  and  N3_9 
REMARK    4  A    between atoms: N3_9  and  C6_12 
ROOT
HETATM    1  C6  UNL     1      12.421  13.010  13.999  1.00  0.00     0.186 C 
HETATM    2  C7  UNL     1      13.913  12.888  14.169  1.00  0.00     0.036 C 
HETATM    3  C8  UNL     1      14.468  13.735  15.267  1.00  0.00     0.041 C 
HETATM    4  C9  UNL     1      14.118  15.210  15.096  1.00  0.00     0.077 C 
HETATM    5  C10 UNL     1      13.154  15.641  16.252  1.00  0.00     0.118 C 
HETATM    6  C11 UNL     1      13.909  16.491  17.060  1.00  0.00    -0.175 C 
HETATM    7  C12 UNL     1      14.839  17.318  17.738  1.00  0.00     0.121 C 
HETATM    8  C13 UNL     1      16.112  17.218  16.863  1.00  0.00    -0.014 A 
HETATM    9  C14 UNL     1      17.153  17.836  17.476  1.00  0.00     0.014 A 
HETATM   10  C15 UNL     1      18.380  17.864  16.863  1.00  0.00     0.043 A 
HETATM   11  C16 UNL     1      18.531  17.253  15.614  1.00  0.00     0.119 A 
HETATM   12  F1  UNL     1      19.721  17.260  14.974  1.00  0.00    -0.206 F 
HETATM   13  C17 UNL     1      17.482  16.626  14.991  1.00  0.00     0.079 A 
HETATM   14  C18 UNL     1      16.263  16.612  15.628  1.00  0.00     0.080 A 
HETATM   15  O1  UNL     1      15.241  15.967  14.962  1.00  0.00    -0.339 OA
HETATM   16  C19 UNL     1      13.314  15.360  13.815  1.00  0.00     0.041 C 
HETATM   17  C20 UNL     1      12.091  14.489  13.862  1.00  0.00     0.036 C 
ENDROOT
BRANCH   1  18
HETATM   18  N3  UNL     1      12.059  12.371  12.717  1.00  0.00    -0.071 N 
ATOM     19  H32 UNL     1      12.468  11.443  12.605  1.00  0.00     0.277 HD
ATOM     20  H31 UNL     1      12.506  12.809  11.912  1.00  0.00     0.277 HD
BRANCH  18  21
HETATM   21  C5  UNL     1      10.609  12.369  12.634  1.00  0.00     0.235 C 
BRANCH  21  22
HETATM   22  C4  UNL     1       9.994  11.554  13.742  1.00  0.00     0.054 C 
BRANCH  22  23
HETATM   23  C3  UNL     1       8.893  12.264  14.481  1.00  0.00     0.101 C 
HETATM   24  N2  UNL     1       9.316  12.699  15.779  1.00  0.00    -0.380 N 
HETATM   25  C2  UNL     1       8.983  13.909  16.026  1.00  0.00     0.173 C 
ATOM     26  H2  UNL     1       9.828  12.108  16.435  1.00  0.00     0.160 HD
HETATM   27  N1  UNL     1       8.289  14.431  14.903  1.00  0.00    -0.380 N 
HETATM   28  C1  UNL     1       7.530  15.670  14.869  1.00  0.00     0.150 C 
HETATM   29  C21 UNL     1       8.461  13.522  13.792  1.00  0.00     0.148 C 
ENDBRANCH  22  23
ENDBRANCH  21  22
ENDBRANCH  18  21
ENDBRANCH   1  18
TORSDOF 4
ENDMDL
MODEL 2
REMARK VINA RESULT: -7.183326728      2.659      4.462
REMARK  4 active torsions:
REMARK  status: ('A' for Active; 'I' for Inactive)
REMARK    1  A    between atoms: C3_6  and  C4_7 
REMARK    2  A    between atoms: C4_7  and  C5_8 
REMARK    3  A    between atoms: C5_8  and  N3_9 
REMARK    4  A    between atoms: N3_9  and  C6_12 
ROOT
HETATM    1  C6  UNL     1      14.042  16.135  16.425  1.00  0.00     0.186 C 
HETATM    2  C7  UNL     1      14.095  17.088  15.260  1.00  0.00     0.036 C 
HETATM    3  C8  UNL     1      15.419  17.127  14.570  1.00  0.00     0.041 C 
HETATM    4  C9  UNL     1      16.562  17.461  15.525  1.00  0.00     0.077 C 
HETATM    5  C10 UNL     1      17.498  16.212  15.656  1.00  0.00     0.118 C 
HETATM    6  C11 UNL     1      18.679  16.571  15.008  1.00  0.00    -0.175 C 
HETATM    7  C12 UNL     1      19.780  17.126  14.311  1.00  0.00     0.121 C 
HETATM    8  C13 UNL     1      19.288  18.545  13.937  1.00  0.00    -0.014 A 
HETATM    9  C14 UNL     1      20.183  19.152  13.117  1.00  0.00     0.014 A 
HETATM   10  C15 UNL     1      19.937  20.425  12.669  1.00  0.00     0.043 A 
HETATM   11  C16 UNL     1      18.764  21.072  13.069  1.00  0.00     0.119 A 
HETATM   12  F1  UNL     1      18.484  22.327  12.653  1.00  0.00    -0.206 F 
HETATM   13  C17 UNL     1      17.856  20.463  13.897  1.00  0.00     0.079 A 
HETATM   14  C18 UNL     1      18.127  19.187  14.331  1.00  0.00     0.080 A 
HETATM   15  O1  UNL     1      17.182  18.617  15.160  1.00  0.00    -0.339 OA
HETATM   16  C19 UNL     1      15.974  17.680  16.909  1.00  0.00     0.041 C 
HETATM   17  C20 UNL     1      15.206  16.465  17.347  1.00  0.00     0.036 C 
ENDROOT
BRANCH   1  18
HETATM   18  N3  UNL     1      12.805  16.416  17.181  1.00  0.00    -0.071 N 
ATOM     19  H32 UNL     1      12.889  17.223  17.799  1.00  0.00     0.277 HD
ATOM     20  H31 UNL     1      12.609  15.719  17.901  1.00  0.00     0.277 HD
BRANCH  18  21
HETATM   21  C5  UNL     1      11.731  16.550  16.212  1.00  0.00     0.235 C 
BRANCH  21  22
HETATM   22  C4  UNL     1      10.621  15.565  16.479  1.00  0.00     0.054 C 
BRANCH  22  23
HETATM   23  C3  UNL     1      10.970  14.146  16.123  1.00  0.00     0.101 C 
HETATM   24  N2  UNL     1       9.826  13.285  16.180  1.00  0.00    -0.380 N 
HETATM   25  C2  UNL     1       9.730  12.525  15.157  1.00  0.00     0.173 C 
ATOM     26  H2  UNL     1       9.160  13.279  16.953  1.00  0.00     0.160 HD
HETATM   27  N1  UNL     1      10.815  12.795  14.282  1.00  0.00    -0.380 N 
HETATM   28  C1  UNL     1      11.215  11.987  13.142  1.00  0.00     0.150 C 
HETATM   29  C21 UNL     1      11.464  14.012  14.716  1.00  0.00     0.148 C 
ENDBRANCH  22  23
ENDBRANCH  21  22
ENDBRANCH  18  21
ENDBRANCH   1  18
TORSDOF 4
ENDMDL
MODEL 3
REMARK VINA RESULT: -7.179604553      2.280      3.168
REMARK  4 active torsions:
REMARK  status: ('A' for Active; 'I' for Inactive)
REMARK    1  A    between atoms: C3_6  and  C4_7 
REMARK    2  A    between atoms: C4_7  and  C5_8 
REMARK    3  A    between atoms: C5_8  and  N3_9 
REMARK    4  A    between atoms: N3_9  and  C6_12 
ROOT
HETATM    1  C6  UNL     1      14.139  13.509  13.430  1.00  0.00     0.186 C 
HETATM    2  C7  UNL     1      13.374  14.797  13.577  1.00  0.00     0.036 C 
HETATM    3  C8  UNL     1      14.175  15.911  14.167  1.00  0.00     0.041 C 
HETATM    4  C9  UNL     1      14.773  15.543  15.522  1.00  0.00     0.077 C 
HETATM    5  C10 UNL     1      16.332  15.479  15.389  1.00  0.00     0.118 C 
HETATM    6  C11 UNL     1      16.805  16.577  16.107  1.00  0.00    -0.175 C 
HETATM    7  C12 UNL     1      17.075  17.735  16.878  1.00  0.00     0.121 C 
HETATM    8  C13 UNL     1      15.667  18.218  17.303  1.00  0.00    -0.014 A 
HETATM    9  C14 UNL     1      15.751  19.423  17.921  1.00  0.00     0.014 A 
HETATM   10  C15 UNL     1      14.610  20.029  18.381  1.00  0.00     0.043 A 
HETATM   11  C16 UNL     1      13.379  19.388  18.203  1.00  0.00     0.119 A 
HETATM   12  F1  UNL     1      12.232  19.949  18.643  1.00  0.00    -0.206 F 
HETATM   13  C17 UNL     1      13.289  18.171  17.578  1.00  0.00     0.079 A 
HETATM   14  C18 UNL     1      14.449  17.586  17.126  1.00  0.00     0.080 A 
HETATM   15  O1  UNL     1      14.305  16.363  16.503  1.00  0.00    -0.339 OA
HETATM   16  C19 UNL     1      14.333  14.129  15.865  1.00  0.00     0.041 C 
HETATM   17  C20 UNL     1      14.752  13.176  14.782  1.00  0.00     0.036 C 
ENDROOT
BRANCH   1  18
HETATM   18  N3  UNL     1      13.165  12.439  13.127  1.00  0.00    -0.071 N 
ATOM     19  H32 UNL     1      13.294  11.607  13.703  1.00  0.00     0.277 HD
ATOM     20  H31 UNL     1      13.325  11.998  12.221  1.00  0.00     0.277 HD
BRANCH  18  21
HETATM   21  C5  UNL     1      11.839  13.018  13.252  1.00  0.00     0.235 C 
BRANCH  21  22
HETATM   22  C4  UNL     1      10.954  12.182  14.142  1.00  0.00     0.054 C 
BRANCH  22  23
HETATM   23  C3  UNL     1      10.195  12.980  15.166  1.00  0.00     0.101 C 
HETATM   24  N2  UNL     1      11.058  13.487  16.193  1.00  0.00    -0.380 N 
HETATM   25  C2  UNL     1      10.845  14.721  16.449  1.00  0.00     0.173 C 
ATOM     26  H2  UNL     1      11.765  12.925  16.667  1.00  0.00     0.160 HD
HETATM   27  N1  UNL     1       9.801  15.191  15.609  1.00  0.00    -0.380 N 
HETATM   28  C1  UNL     1       9.090  16.450  15.753  1.00  0.00     0.150 C 
HETATM   29  C21 UNL     1       9.556  14.202  14.583  1.00  0.00     0.148 C 
ENDBRANCH  22  23
ENDBRANCH  21  22
ENDBRANCH  18  21
ENDBRANCH   1  18
TORSDOF 4
ENDMDL
MODEL 4
REMARK VINA RESULT: -7.151986448      4.235      8.861
REMARK  4 active torsions:
REMARK  status: ('A' for Active; 'I' for Inactive)
REMARK    1  A    between atoms: C3_6  and  C4_7 
REMARK    2  A    between atoms: C4_7  and  C5_8 
REMARK    3  A    between atoms: C5_8  and  N3_9 
REMARK    4  A    between atoms: N3_9  and  C6_12 
ROOT
HETATM    1  C6  UNL     1      15.009  15.062  14.474  1.00  0.00     0.186 C 
HETATM    2  C7  UNL     1      14.139  14.893  15.692  1.00  0.00     0.036 C 
HETATM    3  C8  UNL     1      13.103  13.827  15.551  1.00  0.00     0.041 C 
HETATM    4  C9  UNL     1      12.204  14.047  14.338  1.00  0.00     0.077 C 
HETATM    5  C10 UNL     1      12.461  12.902  13.300  1.00  0.00     0.118 C 
HETATM    6  C11 UNL     1      11.303  12.127  13.317  1.00  0.00    -0.175 C 
HETATM    7  C12 UNL     1      10.053  11.480  13.484  1.00  0.00     0.121 C 
HETATM    8  C13 UNL     1       9.336  12.355  14.541  1.00  0.00    -0.014 A 
HETATM    9  C14 UNL     1       8.176  11.767  14.929  1.00  0.00     0.014 A 
HETATM   10  C15 UNL     1       7.382  12.384  15.862  1.00  0.00     0.043 A 
HETATM   11  C16 UNL     1       7.788  13.612  16.395  1.00  0.00     0.119 A 
HETATM   12  F1  UNL     1       7.036  14.255  17.314  1.00  0.00    -0.206 F 
HETATM   13  C17 UNL     1       8.960  14.210  16.007  1.00  0.00     0.079 A 
HETATM   14  C18 UNL     1       9.736  13.569  15.070  1.00  0.00     0.080 A 
HETATM   15  O1  UNL     1      10.905  14.210  14.715  1.00  0.00    -0.339 OA
HETATM   16  C19 UNL     1      12.641  15.329  13.651  1.00  0.00     0.041 C 
HETATM   17  C20 UNL     1      14.094  15.249  13.273  1.00  0.00     0.036 C 
ENDROOT
BRANCH   1  18
HETATM   18  N3  UNL     1      15.767  16.321  14.633  1.00  0.00    -0.071 N 
ATOM     19  H32 UNL     1      15.169  17.127  14.813  1.00  0.00     0.277 HD
ATOM     20  H31 UNL     1      16.176  16.653  13.760  1.00  0.00     0.277 HD
BRANCH  18  21
HETATM   21  C5  UNL     1      16.754  16.098  15.676  1.00  0.00     0.235 C 
BRANCH  21  22
HETATM   22  C4  UNL     1      17.784  17.198  15.704  1.00  0.00     0.054 C 
BRANCH  22  23
HETATM   23  C3  UNL     1      18.286  17.596  14.344  1.00  0.00     0.101 C 
HETATM   24  N2  UNL     1      17.931  18.946  14.017  1.00  0.00    -0.380 N 
HETATM   25  C2  UNL     1      18.912  19.611  13.539  1.00  0.00     0.173 C 
ATOM     26  H2  UNL     1      16.997  19.334  14.153  1.00  0.00     0.160 HD
HETATM   27  N1  UNL     1      20.056  18.771  13.491  1.00  0.00    -0.380 N 
HETATM   28  C1  UNL     1      21.297  19.056  12.789  1.00  0.00     0.150 C 
HETATM   29  C21 UNL     1      19.781  17.576  14.256  1.00  0.00     0.148 C 
ENDBRANCH  22  23
ENDBRANCH  21  22
ENDBRANCH  18  21
ENDBRANCH   1  18
TORSDOF 4
ENDMDL
MODEL 5
REMARK VINA RESULT: -7.073443185      2.164      3.138
REMARK  4 active torsions:
REMARK  status: ('A' for Active; 'I' for Inactive)
REMARK    1  A    between atoms: C3_6  and  C4_7 
REMARK    2  A    between atoms: C4_7  and  C5_8 
REMARK    3  A    between atoms: C5_8  and  N3_9 
REMARK    4  A    between atoms: N3_9  and  C6_12 
ROOT
HETATM    1  C6  UNL     1      14.214  13.338  13.427  1.00  0.00     0.186 C 
HETATM    2  C7  UNL     1      13.442  14.627  13.528  1.00  0.00     0.036 C 
HETATM    3  C8  UNL     1      14.228  15.758  14.107  1.00  0.00     0.041 C 
HETATM    4  C9  UNL     1      14.800  15.424  15.482  1.00  0.00     0.077 C 
HETATM    5  C10 UNL     1      16.362  15.363  15.382  1.00  0.00     0.118 C 
HETATM    6  C11 UNL     1      16.817  16.479  16.082  1.00  0.00    -0.175 C 
HETATM    7  C12 UNL     1      17.068  17.657  16.830  1.00  0.00     0.121 C 
HETATM    8  C13 UNL     1      15.651  18.145  17.215  1.00  0.00    -0.014 A 
HETATM    9  C14 UNL     1      15.718  19.365  17.805  1.00  0.00     0.014 A 
HETATM   10  C15 UNL     1      14.566  19.979  18.227  1.00  0.00     0.043 A 
HETATM   11  C16 UNL     1      13.342  19.329  18.039  1.00  0.00     0.119 A 
HETATM   12  F1  UNL     1      12.184  19.896  18.443  1.00  0.00    -0.206 F 
HETATM   13  C17 UNL     1      13.268  18.096  17.443  1.00  0.00     0.079 A 
HETATM   14  C18 UNL     1      14.438  17.504  17.029  1.00  0.00     0.080 A 
HETATM   15  O1  UNL     1      14.311  16.267  16.433  1.00  0.00    -0.339 OA
HETATM   16  C19 UNL     1      14.357  14.018  15.850  1.00  0.00     0.041 C 
HETATM   17  C20 UNL     1      14.801  13.040  14.799  1.00  0.00     0.036 C 
ENDROOT
BRANCH   1  18
HETATM   18  N3  UNL     1      13.250  12.258  13.131  1.00  0.00    -0.071 N 
ATOM     19  H32 UNL     1      13.505  11.367  13.558  1.00  0.00     0.277 HD
ATOM     20  H31 UNL     1      13.280  11.951  12.159  1.00  0.00     0.277 HD
BRANCH  18  21
HETATM   21  C5  UNL     1      11.938  12.730  13.539  1.00  0.00     0.235 C 
BRANCH  21  22
HETATM   22  C4  UNL     1      10.847  11.799  13.073  1.00  0.00     0.054 C 
BRANCH  22  23
HETATM   23  C3  UNL     1       9.479  12.164  13.580  1.00  0.00     0.101 C 
HETATM   24  N2  UNL     1       8.976  11.189  14.503  1.00  0.00    -0.380 N 
HETATM   25  C2  UNL     1       8.478  11.718  15.555  1.00  0.00     0.173 C 
ATOM     26  H2  UNL     1       9.012  10.183  14.338  1.00  0.00     0.160 HD
HETATM   27  N1  UNL     1       8.594  13.130  15.456  1.00  0.00    -0.380 N 
HETATM   28  C1  UNL     1       7.933  14.103  16.311  1.00  0.00     0.150 C 
HETATM   29  C21 UNL     1       9.479  13.443  14.357  1.00  0.00     0.148 C 
ENDBRANCH  22  23
ENDBRANCH  21  22
ENDBRANCH  18  21
ENDBRANCH   1  18
TORSDOF 4
ENDMDL
