MODEL 1
REMARK VINA RESULT: -5.964472672      0.000      0.000
REMARK  4 active torsions:
REMARK  status: ('A' for Active; 'I' for Inactive)
REMARK    1  A    between atoms: C4_4  and  C6_6 
REMARK    2  A    between atoms: C9_11  and  S2_12 
REMARK    3  A    between atoms: S2_12  and  N1_15 
REMARK    4  A    between atoms: N1_15  and  C10_17 
ROOT
HETATM    1  C6  UNL     1      14.109  15.917  15.132  1.00  0.00     0.002 A 
HETATM    2  C7  UNL     1      12.785  16.159  15.481  1.00  0.00     0.065 A 
HETATM    3  S1  UNL     1      12.886  17.273  16.743  1.00  0.00    -0.087 SA
HETATM    4  C8  UNL     1      14.573  17.435  16.830  1.00  0.00     0.098 A 
HETATM    5 CL1  UNL     1      15.524  18.473  17.919  1.00  0.00    -0.075 Cl
HETATM    6  C9  UNL     1      15.045  16.593  15.848  1.00  0.00     0.119 A 
ENDROOT
BRANCH   6   7
HETATM    7  S2  UNL     1      16.809  16.452  15.561  1.00  0.00     0.262 S 
HETATM    8  O1  UNL     1      17.138  14.965  15.322  1.00  0.00    -0.200 OA
HETATM    9  O2  UNL     1      17.614  16.944  16.706  1.00  0.00    -0.200 OA
BRANCH   7  10
HETATM   10  N1  UNL     1      17.242  17.226  14.103  1.00  0.00    -0.310 N 
ATOM     11  H1  UNL     1      16.734  17.102  13.227  1.00  0.00     0.172 HD
BRANCH  10  12
HETATM   12  C10 UNL     1      18.382  18.060  14.237  1.00  0.00     0.097 C 
HETATM   13  C11 UNL     1      19.690  17.322  14.001  1.00  0.00     0.052 C 
HETATM   14  C12 UNL     1      20.656  18.127  13.164  1.00  0.00     0.169 C 
HETATM   15  O3  UNL     1      20.640  19.475  13.503  1.00  0.00    -0.391 OA
HETATM   16  C13 UNL     1      19.427  20.073  13.172  1.00  0.00     0.169 C 
HETATM   17  C14 UNL     1      18.300  19.095  13.112  1.00  0.00     0.052 C 
ENDBRANCH  10  12
ENDBRANCH   7  10
ENDBRANCH   6   7
BRANCH   1  18
HETATM   18  C4  UNL     1      14.306  14.894  14.058  1.00  0.00    -0.048 C 
HETATM   19  C2  UNL     1      14.359  13.620  14.371  1.00  0.00    -0.081 C 
HETATM   20  C1  UNL     1      14.466  12.591  13.322  1.00  0.00     0.043 C 
HETATM   21  C3  UNL     1      14.316  13.210  15.787  1.00  0.00     0.043 C 
HETATM   22  C5  UNL     1      14.358  15.244  12.631  1.00  0.00     0.049 C 
ENDBRANCH   1  18
TORSDOF 4
ENDMDL
MODEL 2
REMARK VINA RESULT: -5.858238257      3.552      6.828
REMARK  4 active torsions:
REMARK  status: ('A' for Active; 'I' for Inactive)
REMARK    1  A    between atoms: C4_4  and  C6_6 
REMARK    2  A    between atoms: C9_11  and  S2_12 
REMARK    3  A    between atoms: S2_12  and  N1_15 
REMARK    4  A    between atoms: N1_15  and  C10_17 
ROOT
HETATM    1  C6  UNL     1      14.807  17.163  14.917  1.00  0.00     0.002 A 
HETATM    2  C7  UNL     1      14.536  18.464  14.509  1.00  0.00     0.065 A 
HETATM    3  S1  UNL     1      13.645  18.276  13.089  1.00  0.00    -0.087 SA
HETATM    4  C8  UNL     1      13.611  16.582  13.010  1.00  0.00     0.098 A 
HETATM    5 CL1  UNL     1      12.823  15.552  11.790  1.00  0.00    -0.075 Cl
HETATM    6  C9  UNL     1      14.316  16.177  14.121  1.00  0.00     0.119 A 
ENDROOT
BRANCH   6   7
HETATM    7  S2  UNL     1      14.526  14.428  14.460  1.00  0.00     0.262 S 
HETATM    8  O1  UNL     1      15.864  14.243  15.204  1.00  0.00    -0.200 OA
HETATM    9  O2  UNL     1      14.544  13.607  13.226  1.00  0.00    -0.200 OA
BRANCH   7  10
HETATM   10  N1  UNL     1      13.344  13.887  15.566  1.00  0.00    -0.310 N 
ATOM     11  H1  UNL     1      13.566  13.477  16.472  1.00  0.00     0.172 HD
BRANCH  10  12
HETATM   12  C10 UNL     1      12.019  14.069  15.090  1.00  0.00     0.097 C 
HETATM   13  C11 UNL     1      11.364  12.772  14.644  1.00  0.00     0.052 C 
HETATM   14  C12 UNL     1       9.930  12.668  15.107  1.00  0.00     0.169 C 
HETATM   15  O3  UNL     1       9.262  13.884  15.010  1.00  0.00    -0.391 OA
HETATM   16  C13 UNL     1       9.772  14.823  15.903  1.00  0.00     0.169 C 
HETATM   17  C14 UNL     1      11.189  14.545  16.285  1.00  0.00     0.052 C 
ENDBRANCH  10  12
ENDBRANCH   7  10
ENDBRANCH   6   7
BRANCH   1  18
HETATM   18  C4  UNL     1      15.658  17.045  16.141  1.00  0.00    -0.048 C 
HETATM   19  C2  UNL     1      16.959  17.199  16.050  1.00  0.00    -0.081 C 
HETATM   20  C1  UNL     1      17.807  17.173  17.255  1.00  0.00     0.043 C 
HETATM   21  C3  UNL     1      17.584  17.396  14.729  1.00  0.00     0.043 C 
HETATM   22  C5  UNL     1      15.092  16.848  17.483  1.00  0.00     0.049 C 
ENDBRANCH   1  18
TORSDOF 4
ENDMDL
MODEL 3
REMARK VINA RESULT: -5.816170900      3.478      6.869
REMARK  4 active torsions:
REMARK  status: ('A' for Active; 'I' for Inactive)
REMARK    1  A    between atoms: C4_4  and  C6_6 
REMARK    2  A    between atoms: C9_11  and  S2_12 
REMARK    3  A    between atoms: S2_12  and  N1_15 
REMARK    4  A    between atoms: N1_15  and  C10_17 
ROOT
HETATM    1  C6  UNL     1      16.017  17.529  14.480  1.00  0.00     0.002 A 
HETATM    2  C7  UNL     1      16.445  18.507  13.589  1.00  0.00     0.065 A 
HETATM    3  S1  UNL     1      15.817  18.016  12.103  1.00  0.00    -0.087 SA
HETATM    4  C8  UNL     1      15.024  16.599  12.596  1.00  0.00     0.098 A 
HETATM    5 CL1  UNL     1      14.068  15.471  11.605  1.00  0.00    -0.075 Cl
HETATM    6  C9  UNL     1      15.269  16.527  13.949  1.00  0.00     0.119 A 
ENDROOT
BRANCH   6   7
HETATM    7  S2  UNL     1      14.595  15.172  14.911  1.00  0.00     0.262 S 
HETATM    8  O1  UNL     1      14.836  15.478  16.402  1.00  0.00    -0.200 OA
HETATM    9  O2  UNL     1      15.224  13.870  14.579  1.00  0.00    -0.200 OA
BRANCH   7  10
HETATM   10  N1  UNL     1      12.897  15.114  14.755  1.00  0.00    -0.310 N 
ATOM     11  H1  UNL     1      12.308  15.945  14.698  1.00  0.00     0.172 HD
BRANCH  10  12
HETATM   12  C10 UNL     1      12.391  13.789  14.712  1.00  0.00     0.097 C 
HETATM   13  C11 UNL     1      11.191  13.580  15.621  1.00  0.00     0.052 C 
HETATM   14  C12 UNL     1      10.108  12.762  14.958  1.00  0.00     0.169 C 
HETATM   15  O3  UNL     1      10.632  11.717  14.206  1.00  0.00    -0.391 OA
HETATM   16  C13 UNL     1      11.339  12.184  13.101  1.00  0.00     0.169 C 
HETATM   17  C14 UNL     1      11.859  13.571  13.293  1.00  0.00     0.052 C 
ENDBRANCH  10  12
ENDBRANCH   7  10
ENDBRANCH   6   7
BRANCH   1  18
HETATM   18  C4  UNL     1      16.502  17.695  15.886  1.00  0.00    -0.048 C 
HETATM   19  C2  UNL     1      17.616  17.112  16.266  1.00  0.00    -0.081 C 
HETATM   20  C1  UNL     1      18.157  17.332  17.618  1.00  0.00     0.043 C 
HETATM   21  C3  UNL     1      18.334  16.224  15.333  1.00  0.00     0.043 C 
HETATM   22  C5  UNL     1      15.828  18.566  16.859  1.00  0.00     0.049 C 
ENDBRANCH   1  18
TORSDOF 4
ENDMDL
MODEL 4
REMARK VINA RESULT: -5.796889613      3.223      6.058
REMARK  4 active torsions:
REMARK  status: ('A' for Active; 'I' for Inactive)
REMARK    1  A    between atoms: C4_4  and  C6_6 
REMARK    2  A    between atoms: C9_11  and  S2_12 
REMARK    3  A    between atoms: S2_12  and  N1_15 
REMARK    4  A    between atoms: N1_15  and  C10_17 
ROOT
HETATM    1  C6  UNL     1      16.257  18.184  15.930  1.00  0.00     0.002 A 
HETATM    2  C7  UNL     1      17.632  18.373  15.991  1.00  0.00     0.065 A 
HETATM    3  S1  UNL     1      18.145  18.198  14.393  1.00  0.00    -0.087 SA
HETATM    4  C8  UNL     1      16.647  17.893  13.658  1.00  0.00     0.098 A 
HETATM    5 CL1  UNL     1      16.304  17.614  11.934  1.00  0.00    -0.075 Cl
HETATM    6  C9  UNL     1      15.745  17.931  14.697  1.00  0.00     0.119 A 
ENDROOT
BRANCH   6   7
HETATM    7  S2  UNL     1      13.999  17.674  14.379  1.00  0.00     0.262 S 
HETATM    8  O1  UNL     1      13.793  17.631  12.851  1.00  0.00    -0.200 OA
HETATM    9  O2  UNL     1      13.152  18.749  14.949  1.00  0.00    -0.200 OA
BRANCH   7  10
HETATM   10  N1  UNL     1      13.514  16.129  14.919  1.00  0.00    -0.310 N 
ATOM     11  H1  UNL     1      12.710  15.972  15.527  1.00  0.00     0.172 HD
BRANCH  10  12
HETATM   12  C10 UNL     1      14.347  15.088  14.433  1.00  0.00     0.097 C 
HETATM   13  C11 UNL     1      15.021  14.298  15.544  1.00  0.00     0.052 C 
HETATM   14  C12 UNL     1      15.001  12.811  15.280  1.00  0.00     0.169 C 
HETATM   15  O3  UNL     1      15.235  12.517  13.942  1.00  0.00    -0.391 OA
HETATM   16  C13 UNL     1      14.192  12.954  13.130  1.00  0.00     0.169 C 
HETATM   17  C14 UNL     1      13.426  14.085  13.733  1.00  0.00     0.052 C 
ENDBRANCH  10  12
ENDBRANCH   7  10
ENDBRANCH   6   7
BRANCH   1  18
HETATM   18  C4  UNL     1      15.552  18.224  17.249  1.00  0.00    -0.048 C 
HETATM   19  C2  UNL     1      15.110  19.367  17.720  1.00  0.00    -0.081 C 
HETATM   20  C1  UNL     1      14.338  19.417  18.974  1.00  0.00     0.043 C 
HETATM   21  C3  UNL     1      15.389  20.618  16.991  1.00  0.00     0.043 C 
HETATM   22  C5  UNL     1      15.247  17.011  18.021  1.00  0.00     0.049 C 
ENDBRANCH   1  18
TORSDOF 4
ENDMDL
MODEL 5
REMARK VINA RESULT: -5.789458823      3.903      5.219
REMARK  4 active torsions:
REMARK  status: ('A' for Active; 'I' for Inactive)
REMARK    1  A    between atoms: C4_4  and  C6_6 
REMARK    2  A    between atoms: C9_11  and  S2_12 
REMARK    3  A    between atoms: S2_12  and  N1_15 
REMARK    4  A    between atoms: N1_15  and  C10_17 
ROOT
HETATM    1  C6  UNL     1      11.435  14.179  12.746  1.00  0.00     0.002 A 
HETATM    2  C7  UNL     1      10.594  14.853  11.868  1.00  0.00     0.065 A 
HETATM    3  S1  UNL     1      11.586  16.016  11.155  1.00  0.00    -0.087 SA
HETATM    4  C8  UNL     1      13.042  15.658  11.949  1.00  0.00     0.098 A 
HETATM    5 CL1  UNL     1      14.630  16.434  11.740  1.00  0.00    -0.075 Cl
HETATM    6  C9  UNL     1      12.723  14.610  12.783  1.00  0.00     0.119 A 
ENDROOT
BRANCH   6   7
HETATM    7  S2  UNL     1      13.986  13.878  13.825  1.00  0.00     0.262 S 
HETATM    8  O1  UNL     1      14.775  12.860  12.977  1.00  0.00    -0.200 OA
HETATM    9  O2  UNL     1      13.418  13.183  15.005  1.00  0.00    -0.200 OA
BRANCH   7  10
HETATM   10  N1  UNL     1      15.144  15.049  14.274  1.00  0.00    -0.310 N 
ATOM     11  H1  UNL     1      15.856  15.409  13.639  1.00  0.00     0.172 HD
BRANCH  10  12
HETATM   12  C10 UNL     1      15.010  15.468  15.623  1.00  0.00     0.097 C 
HETATM   13  C11 UNL     1      16.235  16.203  16.142  1.00  0.00     0.052 C 
HETATM   14  C12 UNL     1      15.868  17.420  16.958  1.00  0.00     0.169 C 
HETATM   15  O3  UNL     1      14.768  17.185  17.775  1.00  0.00    -0.391 OA
HETATM   16  C13 UNL     1      13.607  16.993  17.031  1.00  0.00     0.169 C 
HETATM   17  C14 UNL     1      13.883  16.504  15.647  1.00  0.00     0.052 C 
ENDBRANCH  10  12
ENDBRANCH   7  10
ENDBRANCH   6   7
BRANCH   1  18
HETATM   18  C4  UNL     1      10.775  13.119  13.569  1.00  0.00    -0.048 C 
HETATM   19  C2  UNL     1      10.167  13.443  14.688  1.00  0.00    -0.081 C 
HETATM   20  C1  UNL     1       9.437  12.430  15.469  1.00  0.00     0.043 C 
HETATM   21  C3  UNL     1      10.215  14.835  15.172  1.00  0.00     0.043 C 
HETATM   22  C5  UNL     1      10.696  11.716  13.139  1.00  0.00     0.049 C 
ENDBRANCH   1  18
TORSDOF 4
ENDMDL
