MODEL 1
REMARK VINA RESULT: -5.191120160      0.000      0.000
REMARK  8 active torsions:
REMARK  status: ('A' for Active; 'I' for Inactive)
REMARK    1  A    between atoms: C2_2  and  C3_3 
REMARK    2  A    between atoms: C3_3  and  O1_4 
REMARK    3  A    between atoms: O1_4  and  C4_5 
REMARK    4  A    between atoms: C4_5  and  C5_6 
REMARK    5  A    between atoms: C5_6  and  C7_8 
REMARK    6  A    between atoms: C7_8  and  O2_9 
REMARK    7  A    between atoms: O2_9  and  C8_10 
REMARK    8  A    between atoms: C8_10  and  C9_11 
ROOT
HETATM    1  O2  UNL     1      -2.801   3.401  12.970  1.00  0.00    -0.383 OA
ENDROOT
BRANCH   1   2
HETATM    2  C7  UNL     1      -3.645   4.307  13.476  1.00  0.00     0.174 C 
BRANCH   2   3
HETATM    3  C5  UNL     1      -4.638   3.936  14.514  1.00  0.00     0.029 C 
HETATM    4  C6  UNL     1      -5.987   3.556  14.020  1.00  0.00     0.014 C 
BRANCH   3   5
HETATM    5  C4  UNL     1      -4.112   2.737  15.348  1.00  0.00     0.174 C 
BRANCH   5   6
HETATM    6  O1  UNL     1      -4.887   1.659  15.001  1.00  0.00    -0.387 OA
BRANCH   6   7
HETATM    7  C3  UNL     1      -4.951   0.665  15.949  1.00  0.00     0.194 C 
BRANCH   7   8
HETATM    8  C2  UNL     1      -5.771   0.973  17.112  1.00  0.00    -0.011 C 
HETATM    9  C1  UNL     1      -7.079   1.109  16.985  1.00  0.00     0.009 C 
ENDBRANCH   7   8
ENDBRANCH   6   7
ENDBRANCH   5   6
ENDBRANCH   3   5
ENDBRANCH   2   3
ENDBRANCH   1   2
BRANCH   1  10
HETATM   10  C8  UNL     1      -2.784   2.959  11.716  1.00  0.00     0.243 C 
BRANCH  10  11
HETATM   11  C9  UNL     1      -3.112   1.491  11.545  1.00  0.00     0.105 A 
HETATM   12  N1  UNL     1      -4.072   0.767  12.124  1.00  0.00    -0.353 N 
HETATM   13  C10 UNL     1      -4.017  -0.506  11.694  1.00  0.00     0.106 A 
ATOM     14  H1  UNL     1      -4.750   1.127  12.797  1.00  0.00     0.166 HD
HETATM   15  C11 UNL     1      -2.963  -0.564  10.801  1.00  0.00     0.106 A 
HETATM   16  N2  UNL     1      -2.440   0.647  10.732  1.00  0.00    -0.353 N 
ATOM     17  H2  UNL     1      -1.644   0.909  10.150  1.00  0.00     0.166 HD
ENDBRANCH  10  11
ENDBRANCH   1  10
TORSDOF 8
ENDMDL
MODEL 2
REMARK VINA RESULT: -5.178923086      0.853      1.029
REMARK  8 active torsions:
REMARK  status: ('A' for Active; 'I' for Inactive)
REMARK    1  A    between atoms: C2_2  and  C3_3 
REMARK    2  A    between atoms: C3_3  and  O1_4 
REMARK    3  A    between atoms: O1_4  and  C4_5 
REMARK    4  A    between atoms: C4_5  and  C5_6 
REMARK    5  A    between atoms: C5_6  and  C7_8 
REMARK    6  A    between atoms: C7_8  and  O2_9 
REMARK    7  A    between atoms: O2_9  and  C8_10 
REMARK    8  A    between atoms: C8_10  and  C9_11 
ROOT
HETATM    1  O2  UNL     1      -2.737   3.967  13.173  1.00  0.00    -0.383 OA
ENDROOT
BRANCH   1   2
HETATM    2  C7  UNL     1      -3.669   4.710  13.779  1.00  0.00     0.174 C 
BRANCH   2   3
HETATM    3  C5  UNL     1      -4.698   4.090  14.650  1.00  0.00     0.029 C 
HETATM    4  C6  UNL     1      -5.942   3.642  13.972  1.00  0.00     0.014 C 
BRANCH   3   5
HETATM    5  C4  UNL     1      -4.107   2.847  15.368  1.00  0.00     0.174 C 
BRANCH   5   6
HETATM    6  O1  UNL     1      -4.854   1.773  14.956  1.00  0.00    -0.387 OA
BRANCH   6   7
HETATM    7  C3  UNL     1      -4.900   0.725  15.845  1.00  0.00     0.194 C 
BRANCH   7   8
HETATM    8  C2  UNL     1      -5.709   0.960  17.033  1.00  0.00    -0.011 C 
HETATM    9  C1  UNL     1      -7.014   1.128  16.926  1.00  0.00     0.009 C 
ENDBRANCH   7   8
ENDBRANCH   6   7
ENDBRANCH   5   6
ENDBRANCH   3   5
ENDBRANCH   2   3
ENDBRANCH   1   2
BRANCH   1  10
HETATM   10  C8  UNL     1      -2.730   3.610  11.891  1.00  0.00     0.243 C 
BRANCH  10  11
HETATM   11  C9  UNL     1      -3.482   2.335  11.574  1.00  0.00     0.105 A 
HETATM   12  N1  UNL     1      -4.388   2.103  10.622  1.00  0.00    -0.353 N 
HETATM   13  C10 UNL     1      -4.811   0.828  10.685  1.00  0.00     0.106 A 
ATOM     14  H1  UNL     1      -4.713   2.793   9.945  1.00  0.00     0.166 HD
HETATM   15  C11 UNL     1      -4.126   0.247  11.736  1.00  0.00     0.106 A 
HETATM   16  N2  UNL     1      -3.336   1.174  12.249  1.00  0.00    -0.353 N 
ATOM     17  H2  UNL     1      -2.708   1.034  13.040  1.00  0.00     0.166 HD
ENDBRANCH  10  11
ENDBRANCH   1  10
TORSDOF 8
ENDMDL
MODEL 3
REMARK VINA RESULT: -5.106657532      0.770      1.103
REMARK  8 active torsions:
REMARK  status: ('A' for Active; 'I' for Inactive)
REMARK    1  A    between atoms: C2_2  and  C3_3 
REMARK    2  A    between atoms: C3_3  and  O1_4 
REMARK    3  A    between atoms: O1_4  and  C4_5 
REMARK    4  A    between atoms: C4_5  and  C5_6 
REMARK    5  A    between atoms: C5_6  and  C7_8 
REMARK    6  A    between atoms: C7_8  and  O2_9 
REMARK    7  A    between atoms: O2_9  and  C8_10 
REMARK    8  A    between atoms: C8_10  and  C9_11 
ROOT
HETATM    1  O2  UNL     1      -2.571   3.236  12.779  1.00  0.00    -0.383 OA
ENDROOT
BRANCH   1   2
HETATM    2  C7  UNL     1      -3.373   4.125  13.375  1.00  0.00     0.174 C 
BRANCH   2   3
HETATM    3  C5  UNL     1      -4.223   3.740  14.529  1.00  0.00     0.029 C 
HETATM    4  C6  UNL     1      -5.489   4.501  14.688  1.00  0.00     0.014 C 
BRANCH   3   5
HETATM    5  C4  UNL     1      -4.612   2.241  14.425  1.00  0.00     0.174 C 
BRANCH   5   6
HETATM    6  O1  UNL     1      -4.012   1.613  15.486  1.00  0.00    -0.387 OA
BRANCH   6   7
HETATM    7  C3  UNL     1      -4.815   0.725  16.163  1.00  0.00     0.194 C 
BRANCH   7   8
HETATM    8  C2  UNL     1      -5.748   1.331  17.103  1.00  0.00    -0.011 C 
HETATM    9  C1  UNL     1      -7.047   1.132  16.970  1.00  0.00     0.009 C 
ENDBRANCH   7   8
ENDBRANCH   6   7
ENDBRANCH   5   6
ENDBRANCH   3   5
ENDBRANCH   2   3
ENDBRANCH   1   2
BRANCH   1  10
HETATM   10  C8  UNL     1      -2.529   2.966  11.477  1.00  0.00     0.243 C 
BRANCH  10  11
HETATM   11  C9  UNL     1      -3.050   1.599  11.086  1.00  0.00     0.105 A 
HETATM   12  N1  UNL     1      -2.376   0.466  10.880  1.00  0.00    -0.353 N 
HETATM   13  C10 UNL     1      -3.223  -0.524  10.546  1.00  0.00     0.106 A 
ATOM     14  H1  UNL     1      -1.364   0.365  10.962  1.00  0.00     0.166 HD
HETATM   15  C11 UNL     1      -4.488   0.036  10.548  1.00  0.00     0.106 A 
HETATM   16  N2  UNL     1      -4.352   1.309  10.875  1.00  0.00    -0.353 N 
ATOM     17  H2  UNL     1      -5.119   1.976  10.957  1.00  0.00     0.166 HD
ENDBRANCH  10  11
ENDBRANCH   1  10
TORSDOF 8
ENDMDL
MODEL 4
REMARK VINA RESULT: -5.005687865      2.418      5.359
REMARK  8 active torsions:
REMARK  status: ('A' for Active; 'I' for Inactive)
REMARK    1  A    between atoms: C2_2  and  C3_3 
REMARK    2  A    between atoms: C3_3  and  O1_4 
REMARK    3  A    between atoms: O1_4  and  C4_5 
REMARK    4  A    between atoms: C4_5  and  C5_6 
REMARK    5  A    between atoms: C5_6  and  C7_8 
REMARK    6  A    between atoms: C7_8  and  O2_9 
REMARK    7  A    between atoms: O2_9  and  C8_10 
REMARK    8  A    between atoms: C8_10  and  C9_11 
ROOT
HETATM    1  O2  UNL     1      -3.731   2.334  14.048  1.00  0.00    -0.383 OA
ENDROOT
BRANCH   1   2
HETATM    2  C7  UNL     1      -4.430   1.552  13.220  1.00  0.00     0.174 C 
BRANCH   2   3
HETATM    3  C5  UNL     1      -4.784   2.004  11.851  1.00  0.00     0.029 C 
HETATM    4  C6  UNL     1      -3.913   3.056  11.267  1.00  0.00     0.014 C 
BRANCH   3   5
HETATM    5  C4  UNL     1      -4.752   0.801  10.871  1.00  0.00     0.174 C 
BRANCH   5   6
HETATM    6  O1  UNL     1      -3.500   0.794  10.311  1.00  0.00    -0.387 OA
BRANCH   6   7
HETATM    7  C3  UNL     1      -2.903  -0.443  10.247  1.00  0.00     0.194 C 
BRANCH   7   8
HETATM    8  C2  UNL     1      -3.387  -1.414  11.219  1.00  0.00    -0.011 C 
HETATM    9  C1  UNL     1      -2.931  -2.653  11.205  1.00  0.00     0.009 C 
ENDBRANCH   7   8
ENDBRANCH   6   7
ENDBRANCH   5   6
ENDBRANCH   3   5
ENDBRANCH   2   3
ENDBRANCH   1   2
BRANCH   1  10
HETATM   10  C8  UNL     1      -4.171   2.858  15.190  1.00  0.00     0.243 C 
BRANCH  10  11
HETATM   11  C9  UNL     1      -5.099   1.969  15.990  1.00  0.00     0.105 A 
HETATM   12  N1  UNL     1      -4.841   0.812  16.603  1.00  0.00    -0.353 N 
HETATM   13  C10 UNL     1      -5.950   0.348  17.205  1.00  0.00     0.106 A 
ATOM     14  H1  UNL     1      -3.933   0.347  16.613  1.00  0.00     0.166 HD
HETATM   15  C11 UNL     1      -6.944   1.274  16.946  1.00  0.00     0.106 A 
HETATM   16  N2  UNL     1      -6.404   2.234  16.216  1.00  0.00    -0.353 N 
ATOM     17  H2  UNL     1      -6.900   3.056  15.873  1.00  0.00     0.166 HD
ENDBRANCH  10  11
ENDBRANCH   1  10
TORSDOF 8
ENDMDL
MODEL 5
REMARK VINA RESULT: -4.958766839      2.200      4.145
REMARK  8 active torsions:
REMARK  status: ('A' for Active; 'I' for Inactive)
REMARK    1  A    between atoms: C2_2  and  C3_3 
REMARK    2  A    between atoms: C3_3  and  O1_4 
REMARK    3  A    between atoms: O1_4  and  C4_5 
REMARK    4  A    between atoms: C4_5  and  C5_6 
REMARK    5  A    between atoms: C5_6  and  C7_8 
REMARK    6  A    between atoms: C7_8  and  O2_9 
REMARK    7  A    between atoms: O2_9  and  C8_10 
REMARK    8  A    between atoms: C8_10  and  C9_11 
ROOT
HETATM    1  O2  UNL     1      -1.699   1.268   9.961  1.00  0.00    -0.383 OA
ENDROOT
BRANCH   1   2
HETATM    2  C7  UNL     1      -2.122   0.371  10.859  1.00  0.00     0.174 C 
BRANCH   2   3
HETATM    3  C5  UNL     1      -3.517  -0.134  10.842  1.00  0.00     0.029 C 
HETATM    4  C6  UNL     1      -3.728  -1.488  11.414  1.00  0.00     0.014 C 
BRANCH   3   5
HETATM    5  C4  UNL     1      -4.440   0.834  11.631  1.00  0.00     0.174 C 
BRANCH   5   6
HETATM    6  O1  UNL     1      -3.720   1.248  12.722  1.00  0.00    -0.387 OA
BRANCH   6   7
HETATM    7  C3  UNL     1      -4.465   1.836  13.717  1.00  0.00     0.194 C 
BRANCH   7   8
HETATM    8  C2  UNL     1      -4.483   1.115  14.982  1.00  0.00    -0.011 C 
HETATM    9  C1  UNL     1      -4.589   1.774  16.122  1.00  0.00     0.009 C 
ENDBRANCH   7   8
ENDBRANCH   6   7
ENDBRANCH   5   6
ENDBRANCH   3   5
ENDBRANCH   2   3
ENDBRANCH   1   2
BRANCH   1  10
HETATM   10  C8  UNL     1      -0.902   2.304  10.204  1.00  0.00     0.243 C 
BRANCH  10  11
HETATM   11  C9  UNL     1      -1.403   3.269  11.258  1.00  0.00     0.105 A 
HETATM   12  N1  UNL     1      -0.835   3.630  12.410  1.00  0.00    -0.353 N 
HETATM   13  C10 UNL     1      -1.615   4.516  13.054  1.00  0.00     0.106 A 
ATOM     14  H1  UNL     1       0.061   3.284  12.754  1.00  0.00     0.166 HD
HETATM   15  C11 UNL     1      -2.724   4.708  12.250  1.00  0.00     0.106 A 
HETATM   16  N2  UNL     1      -2.568   3.948  11.181  1.00  0.00    -0.353 N 
ATOM     17  H2  UNL     1      -3.231   3.882  10.408  1.00  0.00     0.166 HD
ENDBRANCH  10  11
ENDBRANCH   1  10
TORSDOF 8
ENDMDL
