MODEL 1
REMARK VINA RESULT: -5.738017995      0.000      0.000
REMARK  11 active torsions:
REMARK  status: ('A' for Active; 'I' for Inactive)
REMARK    1  A    between atoms: C2_2  and  O1_3 
REMARK    2  A    between atoms: O1_3  and  N1_4 
REMARK    3  A    between atoms: N1_4  and  C3_5 
REMARK    4  A    between atoms: C5_8  and  C6_9 
REMARK    5  A    between atoms: C6_9  and  N2_10 
REMARK    6  A    between atoms: N2_10  and  C7_13 
REMARK    7  A    between atoms: C7_13  and  C8_14 
REMARK    8  A    between atoms: C8_14  and  S1_15 
REMARK    9  A    between atoms: S1_15  and  C9_17 
REMARK   10  A    between atoms: C9_17  and  C10_18 
REMARK   11  A    between atoms: C10_18  and  N3_19 
ROOT
HETATM    1  N2  UNL     1      -3.584   4.023  11.424  1.00  0.00    -0.072 N 
ATOM      2  H21 UNL     1      -2.752   3.868  11.993  1.00  0.00     0.277 HD
ATOM      3  H22 UNL     1      -3.780   4.994  11.662  1.00  0.00     0.277 HD
ENDROOT
BRANCH   1   4
HETATM    4  C6  UNL     1      -4.658   3.173  11.864  1.00  0.00     0.264 C 
BRANCH   4   5
HETATM    5  C5  UNL     1      -4.805   3.239  13.348  1.00  0.00     0.148 C 
HETATM    6  O2  UNL     1      -3.931   4.062  13.952  1.00  0.00    -0.382 OA
HETATM    7  C4  UNL     1      -3.477   3.565  15.148  1.00  0.00     0.192 C 
HETATM    8  C3  UNL     1      -4.409   2.423  15.465  1.00  0.00     0.132 C 
HETATM    9  C13 UNL     1      -4.689   1.889  14.045  1.00  0.00     0.059 C 
BRANCH   8  10
HETATM   10  N1  UNL     1      -3.824   1.443  16.320  1.00  0.00    -0.094 NA
BRANCH  10  11
HETATM   11  O1  UNL     1      -4.772   0.590  16.737  1.00  0.00    -0.286 OA
BRANCH  11  12
HETATM   12  C2  UNL     1      -5.740   1.258  17.507  1.00  0.00     0.191 C 
HETATM   13  C1  UNL     1      -7.124   0.922  17.062  1.00  0.00     0.035 C 
ENDBRANCH  11  12
ENDBRANCH  10  11
ENDBRANCH   8  10
ENDBRANCH   4   5
ENDBRANCH   1   4
BRANCH   1  14
HETATM   14  C7  UNL     1      -3.274   3.906  10.067  1.00  0.00     0.245 C 
BRANCH  14  15
HETATM   15  C8  UNL     1      -1.756   4.233   9.935  1.00  0.00     0.136 C 
BRANCH  15  16
HETATM   16  S1  UNL     1      -0.875   2.787  10.570  1.00  0.00     0.021 S 
HETATM   17  O3  UNL     1      -1.179   2.804  12.242  1.00  0.00    -0.258 OA
BRANCH  16  18
HETATM   18  C9  UNL     1      -1.614   1.310   9.949  1.00  0.00     0.153 C 
BRANCH  18  19
HETATM   19  C10 UNL     1      -2.285   0.523  11.044  1.00  0.00     0.069 C 
BRANCH  19  20
HETATM   20  N3  UNL     1      -3.194  -0.480  10.658  1.00  0.00    -0.401 N 
HETATM   21  C11 UNL     1      -4.562  -0.100  10.563  1.00  0.00     0.148 C 
HETATM   22  C12 UNL     1      -2.986  -1.774  11.226  1.00  0.00     0.148 C 
ENDBRANCH  19  20
ENDBRANCH  18  19
ENDBRANCH  16  18
ENDBRANCH  15  16
ENDBRANCH  14  15
ENDBRANCH   1  14
TORSDOF 11
ENDMDL
MODEL 2
REMARK VINA RESULT: -5.525631779      2.706      5.372
REMARK  11 active torsions:
REMARK  status: ('A' for Active; 'I' for Inactive)
REMARK    1  A    between atoms: C2_2  and  O1_3 
REMARK    2  A    between atoms: O1_3  and  N1_4 
REMARK    3  A    between atoms: N1_4  and  C3_5 
REMARK    4  A    between atoms: C5_8  and  C6_9 
REMARK    5  A    between atoms: C6_9  and  N2_10 
REMARK    6  A    between atoms: N2_10  and  C7_13 
REMARK    7  A    between atoms: C7_13  and  C8_14 
REMARK    8  A    between atoms: C8_14  and  S1_15 
REMARK    9  A    between atoms: S1_15  and  C9_17 
REMARK   10  A    between atoms: C9_17  and  C10_18 
REMARK   11  A    between atoms: C10_18  and  N3_19 
ROOT
HETATM    1  N2  UNL     1      -4.445   5.319  11.587  1.00  0.00    -0.072 N 
ATOM      2  H21 UNL     1      -5.259   4.708  11.644  1.00  0.00     0.277 HD
ATOM      3  H22 UNL     1      -4.594   5.724  10.663  1.00  0.00     0.277 HD
ENDROOT
BRANCH   1   4
HETATM    4  C6  UNL     1      -3.233   4.545  11.606  1.00  0.00     0.264 C 
BRANCH   4   5
HETATM    5  C5  UNL     1      -3.501   3.141  11.175  1.00  0.00     0.148 C 
HETATM    6  O2  UNL     1      -4.755   2.928  10.742  1.00  0.00    -0.382 OA
HETATM    7  C4  UNL     1      -5.248   1.707  11.134  1.00  0.00     0.192 C 
HETATM    8  C3  UNL     1      -4.042   0.948  11.624  1.00  0.00     0.132 C 
HETATM    9  C13 UNL     1      -3.223   2.097  12.249  1.00  0.00     0.059 C 
BRANCH   8  10
HETATM   10  N1  UNL     1      -4.367  -0.075  12.563  1.00  0.00    -0.094 NA
BRANCH  10  11
HETATM   11  O1  UNL     1      -4.452  -1.254  11.927  1.00  0.00    -0.286 OA
BRANCH  11  12
HETATM   12  C2  UNL     1      -3.291  -1.501  11.175  1.00  0.00     0.191 C 
HETATM   13  C1  UNL     1      -2.921  -2.945  11.194  1.00  0.00     0.035 C 
ENDBRANCH  11  12
ENDBRANCH  10  11
ENDBRANCH   8  10
ENDBRANCH   4   5
ENDBRANCH   1   4
BRANCH   1  14
HETATM   14  C7  UNL     1      -4.512   6.311  12.569  1.00  0.00     0.245 C 
BRANCH  14  15
HETATM   15  C8  UNL     1      -4.210   5.605  13.926  1.00  0.00     0.136 C 
BRANCH  15  16
HETATM   16  S1  UNL     1      -5.800   5.005  14.543  1.00  0.00     0.021 S 
HETATM   17  O3  UNL     1      -6.915   5.433  13.333  1.00  0.00    -0.258 OA
BRANCH  16  18
HETATM   18  C9  UNL     1      -5.795   3.242  14.608  1.00  0.00     0.153 C 
BRANCH  18  19
HETATM   19  C10 UNL     1      -6.289   2.734  15.937  1.00  0.00     0.069 C 
BRANCH  19  20
HETATM   20  N3  UNL     1      -5.474   1.812  16.623  1.00  0.00    -0.401 N 
HETATM   21  C11 UNL     1      -4.333   1.328  15.926  1.00  0.00     0.148 C 
HETATM   22  C12 UNL     1      -6.154   0.819  17.391  1.00  0.00     0.148 C 
ENDBRANCH  19  20
ENDBRANCH  18  19
ENDBRANCH  16  18
ENDBRANCH  15  16
ENDBRANCH  14  15
ENDBRANCH   1  14
TORSDOF 11
ENDMDL
MODEL 3
REMARK VINA RESULT: -5.460173143      2.627      5.570
REMARK  11 active torsions:
REMARK  status: ('A' for Active; 'I' for Inactive)
REMARK    1  A    between atoms: C2_2  and  O1_3 
REMARK    2  A    between atoms: O1_3  and  N1_4 
REMARK    3  A    between atoms: N1_4  and  C3_5 
REMARK    4  A    between atoms: C5_8  and  C6_9 
REMARK    5  A    between atoms: C6_9  and  N2_10 
REMARK    6  A    between atoms: N2_10  and  C7_13 
REMARK    7  A    between atoms: C7_13  and  C8_14 
REMARK    8  A    between atoms: C8_14  and  S1_15 
REMARK    9  A    between atoms: S1_15  and  C9_17 
REMARK   10  A    between atoms: C9_17  and  C10_18 
REMARK   11  A    between atoms: C10_18  and  N3_19 
ROOT
HETATM    1  N2  UNL     1      -4.062   5.328  12.145  1.00  0.00    -0.072 N 
ATOM      2  H21 UNL     1      -4.781   4.605  12.121  1.00  0.00     0.277 HD
ATOM      3  H22 UNL     1      -4.080   5.625  11.170  1.00  0.00     0.277 HD
ENDROOT
BRANCH   1   4
HETATM    4  C6  UNL     1      -2.784   4.753  12.469  1.00  0.00     0.264 C 
BRANCH   4   5
HETATM    5  C5  UNL     1      -2.834   3.265  12.357  1.00  0.00     0.148 C 
HETATM    6  O2  UNL     1      -1.695   2.708  11.911  1.00  0.00    -0.382 OA
HETATM    7  C4  UNL     1      -1.921   1.653  11.062  1.00  0.00     0.192 C 
HETATM    8  C3  UNL     1      -3.384   1.332  11.234  1.00  0.00     0.132 C 
HETATM    9  C13 UNL     1      -3.955   2.746  11.467  1.00  0.00     0.059 C 
BRANCH   8  10
HETATM   10  N1  UNL     1      -3.952   0.685  10.097  1.00  0.00    -0.094 NA
BRANCH  10  11
HETATM   11  O1  UNL     1      -3.461  -0.561  10.000  1.00  0.00    -0.286 OA
BRANCH  11  12
HETATM   12  C2  UNL     1      -3.826  -1.330  11.118  1.00  0.00     0.191 C 
HETATM   13  C1  UNL     1      -2.967  -2.541  11.257  1.00  0.00     0.035 C 
ENDBRANCH  11  12
ENDBRANCH  10  11
ENDBRANCH   8  10
ENDBRANCH   4   5
ENDBRANCH   1   4
BRANCH   1  14
HETATM   14  C7  UNL     1      -4.453   6.377  12.981  1.00  0.00     0.245 C 
BRANCH  14  15
HETATM   15  C8  UNL     1      -4.396   5.820  14.436  1.00  0.00     0.136 C 
BRANCH  15  16
HETATM   16  S1  UNL     1      -5.984   5.001  14.721  1.00  0.00     0.021 S 
HETATM   17  O3  UNL     1      -6.914   5.389  13.352  1.00  0.00    -0.258 OA
BRANCH  16  18
HETATM   18  C9  UNL     1      -5.772   3.250  14.693  1.00  0.00     0.153 C 
BRANCH  18  19
HETATM   19  C10 UNL     1      -6.182   2.620  15.998  1.00  0.00     0.069 C 
BRANCH  19  20
HETATM   20  N3  UNL     1      -5.429   1.519  16.452  1.00  0.00    -0.401 N 
HETATM   21  C11 UNL     1      -4.598   0.876  15.494  1.00  0.00     0.148 C 
HETATM   22  C12 UNL     1      -6.096   0.623  17.342  1.00  0.00     0.148 C 
ENDBRANCH  19  20
ENDBRANCH  18  19
ENDBRANCH  16  18
ENDBRANCH  15  16
ENDBRANCH  14  15
ENDBRANCH   1  14
TORSDOF 11
ENDMDL
MODEL 4
REMARK VINA RESULT: -5.457170753      1.887      2.120
REMARK  11 active torsions:
REMARK  status: ('A' for Active; 'I' for Inactive)
REMARK    1  A    between atoms: C2_2  and  O1_3 
REMARK    2  A    between atoms: O1_3  and  N1_4 
REMARK    3  A    between atoms: N1_4  and  C3_5 
REMARK    4  A    between atoms: C5_8  and  C6_9 
REMARK    5  A    between atoms: C6_9  and  N2_10 
REMARK    6  A    between atoms: N2_10  and  C7_13 
REMARK    7  A    between atoms: C7_13  and  C8_14 
REMARK    8  A    between atoms: C8_14  and  S1_15 
REMARK    9  A    between atoms: S1_15  and  C9_17 
REMARK   10  A    between atoms: C9_17  and  C10_18 
REMARK   11  A    between atoms: C10_18  and  N3_19 
ROOT
HETATM    1  N2  UNL     1      -1.304   4.326  13.395  1.00  0.00    -0.072 N 
ATOM      2  H21 UNL     1      -1.676   3.381  13.309  1.00  0.00     0.277 HD
ATOM      3  H22 UNL     1      -0.499   4.144  13.993  1.00  0.00     0.277 HD
ENDROOT
BRANCH   1   4
HETATM    4  C6  UNL     1      -2.248   5.176  14.071  1.00  0.00     0.264 C 
BRANCH   4   5
HETATM    5  C5  UNL     1      -3.634   4.642  13.924  1.00  0.00     0.148 C 
HETATM    6  O2  UNL     1      -4.600   5.555  14.126  1.00  0.00    -0.382 OA
HETATM    7  C4  UNL     1      -5.681   5.039  14.796  1.00  0.00     0.192 C 
HETATM    8  C3  UNL     1      -5.484   3.545  14.747  1.00  0.00     0.132 C 
HETATM    9  C13 UNL     1      -3.946   3.463  14.836  1.00  0.00     0.059 C 
BRANCH   8  10
HETATM   10  N1  UNL     1      -6.139   2.858  15.811  1.00  0.00    -0.094 NA
BRANCH  10  11
HETATM   11  O1  UNL     1      -5.240   2.132  16.495  1.00  0.00    -0.286 OA
BRANCH  11  12
HETATM   12  C2  UNL     1      -5.855   1.026  17.106  1.00  0.00     0.191 C 
HETATM   13  C1  UNL     1      -7.342   1.111  17.029  1.00  0.00     0.035 C 
ENDBRANCH  11  12
ENDBRANCH  10  11
ENDBRANCH   8  10
ENDBRANCH   4   5
ENDBRANCH   1   4
BRANCH   1  14
HETATM   14  C7  UNL     1      -0.888   4.802  12.149  1.00  0.00     0.245 C 
BRANCH  14  15
HETATM   15  C8  UNL     1      -0.283   3.578  11.394  1.00  0.00     0.136 C 
BRANCH  15  16
HETATM   16  S1  UNL     1      -1.673   2.757  10.577  1.00  0.00     0.021 S 
HETATM   17  O3  UNL     1      -1.248   2.739   8.931  1.00  0.00    -0.258 OA
BRANCH  16  18
HETATM   18  C9  UNL     1      -1.759   1.070  11.084  1.00  0.00     0.153 C 
BRANCH  18  19
HETATM   19  C10 UNL     1      -2.910   0.352  10.430  1.00  0.00     0.069 C 
BRANCH  19  20
HETATM   20  N3  UNL     1      -3.937  -0.125  11.268  1.00  0.00    -0.401 N 
HETATM   21  C11 UNL     1      -4.308   0.708  12.359  1.00  0.00     0.148 C 
HETATM   22  C12 UNL     1      -3.899  -1.518  11.583  1.00  0.00     0.148 C 
ENDBRANCH  19  20
ENDBRANCH  18  19
ENDBRANCH  16  18
ENDBRANCH  15  16
ENDBRANCH  14  15
ENDBRANCH   1  14
TORSDOF 11
ENDMDL
MODEL 5
REMARK VINA RESULT: -5.399908049      1.909      2.172
REMARK  11 active torsions:
REMARK  status: ('A' for Active; 'I' for Inactive)
REMARK    1  A    between atoms: C2_2  and  O1_3 
REMARK    2  A    between atoms: O1_3  and  N1_4 
REMARK    3  A    between atoms: N1_4  and  C3_5 
REMARK    4  A    between atoms: C5_8  and  C6_9 
REMARK    5  A    between atoms: C6_9  and  N2_10 
REMARK    6  A    between atoms: N2_10  and  C7_13 
REMARK    7  A    between atoms: C7_13  and  C8_14 
REMARK    8  A    between atoms: C8_14  and  S1_15 
REMARK    9  A    between atoms: S1_15  and  C9_17 
REMARK   10  A    between atoms: C9_17  and  C10_18 
REMARK   11  A    between atoms: C10_18  and  N3_19 
ROOT
HETATM    1  N2  UNL     1      -5.053   6.399  12.873  1.00  0.00    -0.072 N 
ATOM      2  H21 UNL     1      -4.170   6.267  13.365  1.00  0.00     0.277 HD
ATOM      3  H22 UNL     1      -5.207   7.390  13.051  1.00  0.00     0.277 HD
ENDROOT
BRANCH   1   4
HETATM    4  C6  UNL     1      -6.090   5.613  13.485  1.00  0.00     0.264 C 
BRANCH   4   5
HETATM    5  C5  UNL     1      -5.532   4.772  14.584  1.00  0.00     0.148 C 
HETATM    6  O2  UNL     1      -4.207   4.911  14.765  1.00  0.00    -0.382 OA
HETATM    7  C4  UNL     1      -3.589   3.722  15.067  1.00  0.00     0.192 C 
HETATM    8  C3  UNL     1      -4.716   2.780  15.402  1.00  0.00     0.132 C 
HETATM    9  C13 UNL     1      -5.800   3.281  14.425  1.00  0.00     0.059 C 
BRANCH   8  10
HETATM   10  N1  UNL     1      -4.379   1.409  15.201  1.00  0.00    -0.094 NA
BRANCH  10  11
HETATM   11  O1  UNL     1      -5.416   0.636  15.560  1.00  0.00    -0.286 OA
BRANCH  11  12
HETATM   12  C2  UNL     1      -5.722   0.812  16.920  1.00  0.00     0.191 C 
HETATM   13  C1  UNL     1      -7.177   1.064  17.128  1.00  0.00     0.035 C 
ENDBRANCH  11  12
ENDBRANCH  10  11
ENDBRANCH   8  10
ENDBRANCH   4   5
ENDBRANCH   1   4
BRANCH   1  14
HETATM   14  C7  UNL     1      -4.886   6.170  11.504  1.00  0.00     0.245 C 
BRANCH  14  15
HETATM   15  C8  UNL     1      -3.542   5.394  11.351  1.00  0.00     0.136 C 
BRANCH  15  16
HETATM   16  S1  UNL     1      -3.974   3.776  10.665  1.00  0.00     0.021 S 
HETATM   17  O3  UNL     1      -3.022   3.642   9.263  1.00  0.00    -0.258 OA
BRANCH  16  18
HETATM   18  C9  UNL     1      -3.434   2.497  11.753  1.00  0.00     0.153 C 
BRANCH  18  19
HETATM   19  C10 UNL     1      -4.209   1.223  11.539  1.00  0.00     0.069 C 
BRANCH  19  20
HETATM   20  N3  UNL     1      -3.518   0.130  10.981  1.00  0.00    -0.401 N 
HETATM   21  C11 UNL     1      -3.903  -1.164  11.430  1.00  0.00     0.148 C 
HETATM   22  C12 UNL     1      -2.109   0.293  10.811  1.00  0.00     0.148 C 
ENDBRANCH  19  20
ENDBRANCH  18  19
ENDBRANCH  16  18
ENDBRANCH  15  16
ENDBRANCH  14  15
ENDBRANCH   1  14
TORSDOF 11
ENDMDL
