MODEL 1
REMARK VINA RESULT: -6.671907617      0.000      0.000
REMARK  13 active torsions:
REMARK  status: ('A' for Active; 'I' for Inactive)
REMARK    1  A    between atoms: C2_2  and  C3_3 
REMARK    2  A    between atoms: C3_3  and  C4_4 
REMARK    3  A    between atoms: C4_4  and  N1_5 
REMARK    4  A    between atoms: C4_4  and  C11_15 
REMARK    5  A    between atoms: N1_5  and  C5_8 
REMARK    6  A    between atoms: C5_8  and  C6_9 
REMARK    7  A    between atoms: C6_9  and  N2_10 
REMARK    8  A    between atoms: N2_10  and  C8_12 
REMARK    9  A    between atoms: C11_15  and  C12_17 
REMARK   10  A    between atoms: C12_17  and  O3_19 
REMARK   11  A    between atoms: O3_19  and  C13_20 
REMARK   12  A    between atoms: C13_20  and  C15_22 
REMARK   13  A    between atoms: C15_22  and  O4_23 
ROOT
HETATM    1  C4  UNL     1      -4.911   3.095  15.580  1.00  0.00     0.269 C 
ENDROOT
BRANCH   1   2
HETATM    2  C3  UNL     1      -6.386   2.921  15.817  1.00  0.00     0.068 C 
BRANCH   2   3
HETATM    3  C2  UNL     1      -6.649   2.204  17.096  1.00  0.00    -0.034 C 
HETATM    4  C1  UNL     1      -7.336   1.093  17.182  1.00  0.00     0.007 C 
ENDBRANCH   2   3
ENDBRANCH   1   2
BRANCH   1   5
HETATM    5  N1  UNL     1      -4.616   3.793  14.361  1.00  0.00    -0.062 N 
ATOM      6  H12 UNL     1      -3.951   4.548  14.525  1.00  0.00     0.278 HD
ATOM      7  H11 UNL     1      -4.059   3.213  13.734  1.00  0.00     0.278 HD
BRANCH   5   8
HETATM    8  C5  UNL     1      -5.808   4.287  13.687  1.00  0.00     0.263 C 
BRANCH   8   9
HETATM    9  C6  UNL     1      -5.690   5.764  13.529  1.00  0.00     0.299 C 
BRANCH   9  10
HETATM   10  N2  UNL     1      -5.141   6.286  12.349  1.00  0.00     0.089 N 
HETATM   11  C7  UNL     1      -3.881   6.966  12.708  1.00  0.00     0.310 C 
BRANCH  10  12
HETATM   12  C8  UNL     1      -5.874   7.177  11.537  1.00  0.00     0.214 C 
HETATM   13  C9  UNL     1      -7.263   7.516  11.942  1.00  0.00     0.042 C 
HETATM   14  C10 UNL     1      -5.105   8.490  11.342  1.00  0.00     0.042 C 
ENDBRANCH  10  12
ENDBRANCH   9  10
ENDBRANCH   8   9
ENDBRANCH   5   8
ENDBRANCH   1   5
BRANCH   1  15
HETATM   15  C11 UNL     1      -4.283   1.762  15.526  1.00  0.00     0.254 C 
HETATM   16  O1  UNL     1      -3.340   1.508  16.330  1.00  0.00    -0.284 OA
BRANCH  15  17
HETATM   17  C12 UNL     1      -4.662   0.693  14.614  1.00  0.00     0.332 C 
HETATM   18  O2  UNL     1      -4.738  -0.471  15.063  1.00  0.00    -0.256 OA
BRANCH  17  19
HETATM   19  O3  UNL     1      -4.938   0.893  13.286  1.00  0.00    -0.308 OA
BRANCH  19  20
HETATM   20  C13 UNL     1      -4.018   0.742  12.220  1.00  0.00     0.151 C 
HETATM   21  C14 UNL     1      -4.003  -0.631  11.618  1.00  0.00     0.042 C 
BRANCH  20  22
HETATM   22  C15 UNL     1      -4.367   1.739  11.144  1.00  0.00     0.196 C 
BRANCH  22  23
HETATM   23  O4  UNL     1      -5.746   1.775  10.995  1.00  0.00    -0.398 OA
ATOM     24  H4  UNL     1      -5.966   1.523  10.105  1.00  0.00     0.209 HD
ENDBRANCH  22  23
ENDBRANCH  20  22
ENDBRANCH  19  20
ENDBRANCH  17  19
ENDBRANCH  15  17
ENDBRANCH   1  15
TORSDOF 13
ENDMDL
MODEL 2
REMARK VINA RESULT: -6.441706030      1.492      2.057
REMARK  13 active torsions:
REMARK  status: ('A' for Active; 'I' for Inactive)
REMARK    1  A    between atoms: C2_2  and  C3_3 
REMARK    2  A    between atoms: C3_3  and  C4_4 
REMARK    3  A    between atoms: C4_4  and  N1_5 
REMARK    4  A    between atoms: C4_4  and  C11_15 
REMARK    5  A    between atoms: N1_5  and  C5_8 
REMARK    6  A    between atoms: C5_8  and  C6_9 
REMARK    7  A    between atoms: C6_9  and  N2_10 
REMARK    8  A    between atoms: N2_10  and  C8_12 
REMARK    9  A    between atoms: C11_15  and  C12_17 
REMARK   10  A    between atoms: C12_17  and  O3_19 
REMARK   11  A    between atoms: O3_19  and  C13_20 
REMARK   12  A    between atoms: C13_20  and  C15_22 
REMARK   13  A    between atoms: C15_22  and  O4_23 
ROOT
HETATM    1  C4  UNL     1      -4.550   2.209  15.483  1.00  0.00     0.269 C 
ENDROOT
BRANCH   1   2
HETATM    2  C3  UNL     1      -5.923   2.804  15.635  1.00  0.00     0.068 C 
BRANCH   2   3
HETATM    3  C2  UNL     1      -6.589   2.323  16.878  1.00  0.00    -0.034 C 
HETATM    4  C1  UNL     1      -7.337   1.251  16.937  1.00  0.00     0.007 C 
ENDBRANCH   2   3
ENDBRANCH   1   2
BRANCH   1   5
HETATM    5  N1  UNL     1      -3.556   3.176  15.113  1.00  0.00    -0.062 N 
ATOM      6  H12 UNL     1      -2.817   3.225  15.813  1.00  0.00     0.278 HD
ATOM      7  H11 UNL     1      -3.010   2.851  14.315  1.00  0.00     0.278 HD
BRANCH   5   8
HETATM    8  C5  UNL     1      -4.116   4.495  14.856  1.00  0.00     0.263 C 
BRANCH   8   9
HETATM    9  C6  UNL     1      -3.769   4.900  13.465  1.00  0.00     0.299 C 
BRANCH   9  10
HETATM   10  N2  UNL     1      -4.797   5.131  12.540  1.00  0.00     0.089 N 
HETATM   11  C7  UNL     1      -4.229   4.951  11.190  1.00  0.00     0.310 C 
BRANCH  10  12
HETATM   12  C8  UNL     1      -5.505   6.351  12.531  1.00  0.00     0.214 C 
HETATM   13  C9  UNL     1      -5.674   7.056  11.234  1.00  0.00     0.042 C 
HETATM   14  C10 UNL     1      -6.895   6.176  13.158  1.00  0.00     0.042 C 
ENDBRANCH  10  12
ENDBRANCH   9  10
ENDBRANCH   8   9
ENDBRANCH   5   8
ENDBRANCH   1   5
BRANCH   1  15
HETATM   15  C11 UNL     1      -4.603   1.163  14.444  1.00  0.00     0.254 C 
HETATM   16  O1  UNL     1      -4.828  -0.028  14.802  1.00  0.00    -0.284 OA
BRANCH  15  17
HETATM   17  C12 UNL     1      -4.418   1.389  13.018  1.00  0.00     0.332 C 
HETATM   18  O2  UNL     1      -5.423   1.660  12.326  1.00  0.00    -0.256 OA
BRANCH  17  19
HETATM   19  O3  UNL     1      -3.201   1.318  12.392  1.00  0.00    -0.308 OA
BRANCH  19  20
HETATM   20  C13 UNL     1      -2.997   1.207  10.995  1.00  0.00     0.151 C 
HETATM   21  C14 UNL     1      -1.563   1.331  10.577  1.00  0.00     0.042 C 
BRANCH  20  22
HETATM   22  C15 UNL     1      -3.521  -0.132  10.540  1.00  0.00     0.196 C 
BRANCH  22  23
HETATM   23  O4  UNL     1      -4.674   0.066   9.793  1.00  0.00    -0.398 OA
ATOM     24  H4  UNL     1      -5.417  -0.273  10.279  1.00  0.00     0.209 HD
ENDBRANCH  22  23
ENDBRANCH  20  22
ENDBRANCH  19  20
ENDBRANCH  17  19
ENDBRANCH  15  17
ENDBRANCH   1  15
TORSDOF 13
ENDMDL
MODEL 3
REMARK VINA RESULT: -6.433321670      1.316      1.768
REMARK  13 active torsions:
REMARK  status: ('A' for Active; 'I' for Inactive)
REMARK    1  A    between atoms: C2_2  and  C3_3 
REMARK    2  A    between atoms: C3_3  and  C4_4 
REMARK    3  A    between atoms: C4_4  and  N1_5 
REMARK    4  A    between atoms: C4_4  and  C11_15 
REMARK    5  A    between atoms: N1_5  and  C5_8 
REMARK    6  A    between atoms: C5_8  and  C6_9 
REMARK    7  A    between atoms: C6_9  and  N2_10 
REMARK    8  A    between atoms: N2_10  and  C8_12 
REMARK    9  A    between atoms: C11_15  and  C12_17 
REMARK   10  A    between atoms: C12_17  and  O3_19 
REMARK   11  A    between atoms: O3_19  and  C13_20 
REMARK   12  A    between atoms: C13_20  and  C15_22 
REMARK   13  A    between atoms: C15_22  and  O4_23 
ROOT
HETATM    1  C4  UNL     1      -4.969   2.746  15.274  1.00  0.00     0.269 C 
ENDROOT
BRANCH   1   2
HETATM    2  C3  UNL     1      -5.194   2.051  16.588  1.00  0.00     0.068 C 
BRANCH   2   3
HETATM    3  C2  UNL     1      -6.624   2.116  17.000  1.00  0.00    -0.034 C 
HETATM    4  C1  UNL     1      -7.410   1.073  17.076  1.00  0.00     0.007 C 
ENDBRANCH   2   3
ENDBRANCH   1   2
BRANCH   1   5
HETATM    5  N1  UNL     1      -6.088   3.546  14.863  1.00  0.00    -0.062 N 
ATOM      6  H12 UNL     1      -6.433   3.250  13.951  1.00  0.00     0.278 HD
ATOM      7  H11 UNL     1      -6.911   3.339  15.428  1.00  0.00     0.278 HD
BRANCH   5   8
HETATM    8  C5  UNL     1      -5.799   4.973  14.871  1.00  0.00     0.263 C 
BRANCH   8   9
HETATM    9  C6  UNL     1      -6.385   5.586  13.647  1.00  0.00     0.299 C 
BRANCH   9  10
HETATM   10  N2  UNL     1      -5.547   5.896  12.566  1.00  0.00     0.089 N 
HETATM   11  C7  UNL     1      -4.203   6.171  13.110  1.00  0.00     0.310 C 
BRANCH  10  12
HETATM   12  C8  UNL     1      -5.859   6.952  11.684  1.00  0.00     0.214 C 
HETATM   13  C9  UNL     1      -7.157   7.655  11.858  1.00  0.00     0.042 C 
HETATM   14  C10 UNL     1      -4.745   8.008  11.687  1.00  0.00     0.042 C 
ENDBRANCH  10  12
ENDBRANCH   9  10
ENDBRANCH   8   9
ENDBRANCH   5   8
ENDBRANCH   1   5
BRANCH   1  15
HETATM   15  C11 UNL     1      -4.714   1.725  14.240  1.00  0.00     0.254 C 
HETATM   16  O1  UNL     1      -4.749   0.507  14.577  1.00  0.00    -0.284 OA
BRANCH  15  17
HETATM   17  C12 UNL     1      -4.421   2.003  12.841  1.00  0.00     0.332 C 
HETATM   18  O2  UNL     1      -5.320   2.514  12.138  1.00  0.00    -0.256 OA
BRANCH  17  19
HETATM   19  O3  UNL     1      -3.213   1.734  12.253  1.00  0.00    -0.308 OA
BRANCH  19  20
HETATM   20  C13 UNL     1      -3.026   1.282  10.923  1.00  0.00     0.151 C 
HETATM   21  C14 UNL     1      -1.592   1.046  10.556  1.00  0.00     0.042 C 
BRANCH  20  22
HETATM   22  C15 UNL     1      -3.791  -0.005  10.745  1.00  0.00     0.196 C 
BRANCH  22  23
HETATM   23  O4  UNL     1      -4.892   0.235   9.935  1.00  0.00    -0.398 OA
ATOM     24  H4  UNL     1      -5.202   1.119  10.091  1.00  0.00     0.209 HD
ENDBRANCH  22  23
ENDBRANCH  20  22
ENDBRANCH  19  20
ENDBRANCH  17  19
ENDBRANCH  15  17
ENDBRANCH   1  15
TORSDOF 13
ENDMDL
MODEL 4
REMARK VINA RESULT: -6.381315367      0.751      1.629
REMARK  13 active torsions:
REMARK  status: ('A' for Active; 'I' for Inactive)
REMARK    1  A    between atoms: C2_2  and  C3_3 
REMARK    2  A    between atoms: C3_3  and  C4_4 
REMARK    3  A    between atoms: C4_4  and  N1_5 
REMARK    4  A    between atoms: C4_4  and  C11_15 
REMARK    5  A    between atoms: N1_5  and  C5_8 
REMARK    6  A    between atoms: C5_8  and  C6_9 
REMARK    7  A    between atoms: C6_9  and  N2_10 
REMARK    8  A    between atoms: N2_10  and  C8_12 
REMARK    9  A    between atoms: C11_15  and  C12_17 
REMARK   10  A    between atoms: C12_17  and  O3_19 
REMARK   11  A    between atoms: O3_19  and  C13_20 
REMARK   12  A    between atoms: C13_20  and  C15_22 
REMARK   13  A    between atoms: C15_22  and  O4_23 
ROOT
HETATM    1  C4  UNL     1      -4.802   3.105  15.516  1.00  0.00     0.269 C 
ENDROOT
BRANCH   1   2
HETATM    2  C3  UNL     1      -6.299   3.029  15.634  1.00  0.00     0.068 C 
BRANCH   2   3
HETATM    3  C2  UNL     1      -6.711   2.413  16.927  1.00  0.00    -0.034 C 
HETATM    4  C1  UNL     1      -7.374   1.289  17.021  1.00  0.00     0.007 C 
ENDBRANCH   2   3
ENDBRANCH   1   2
BRANCH   1   5
HETATM    5  N1  UNL     1      -4.366   3.779  14.326  1.00  0.00    -0.062 N 
ATOM      6  H12 UNL     1      -3.592   4.411  14.528  1.00  0.00     0.278 HD
ATOM      7  H11 UNL     1      -3.894   3.133  13.693  1.00  0.00     0.278 HD
BRANCH   5   8
HETATM    8  C5  UNL     1      -5.444   4.480  13.643  1.00  0.00     0.263 C 
BRANCH   8   9
HETATM    9  C6  UNL     1      -4.859   5.313  12.555  1.00  0.00     0.299 C 
BRANCH   9  10
HETATM   10  N2  UNL     1      -4.560   6.660  12.808  1.00  0.00     0.089 N 
HETATM   11  C7  UNL     1      -5.135   7.456  11.706  1.00  0.00     0.310 C 
BRANCH  10  12
HETATM   12  C8  UNL     1      -3.227   7.090  12.976  1.00  0.00     0.214 C 
HETATM   13  C9  UNL     1      -2.705   7.237  14.360  1.00  0.00     0.042 C 
HETATM   14  C10 UNL     1      -2.263   6.183  12.201  1.00  0.00     0.042 C 
ENDBRANCH  10  12
ENDBRANCH   9  10
ENDBRANCH   8   9
ENDBRANCH   5   8
ENDBRANCH   1   5
BRANCH   1  15
HETATM   15  C11 UNL     1      -4.260   1.733  15.508  1.00  0.00     0.254 C 
HETATM   16  O1  UNL     1      -3.389   1.426  16.371  1.00  0.00    -0.284 OA
BRANCH  15  17
HETATM   17  C12 UNL     1      -4.650   0.683  14.578  1.00  0.00     0.332 C 
HETATM   18  O2  UNL     1      -4.735  -0.488  15.008  1.00  0.00    -0.256 OA
BRANCH  17  19
HETATM   19  O3  UNL     1      -4.928   0.908  13.255  1.00  0.00    -0.308 OA
BRANCH  19  20
HETATM   20  C13 UNL     1      -4.020   0.742  12.181  1.00  0.00     0.151 C 
HETATM   21  C14 UNL     1      -4.005  -0.643  11.606  1.00  0.00     0.042 C 
BRANCH  20  22
HETATM   22  C15 UNL     1      -4.387   1.716  11.090  1.00  0.00     0.196 C 
BRANCH  22  23
HETATM   23  O4  UNL     1      -5.768   1.841  11.045  1.00  0.00    -0.398 OA
ATOM     24  H4  UNL     1      -6.025   2.114  10.171  1.00  0.00     0.209 HD
ENDBRANCH  22  23
ENDBRANCH  20  22
ENDBRANCH  19  20
ENDBRANCH  17  19
ENDBRANCH  15  17
ENDBRANCH   1  15
TORSDOF 13
ENDMDL
MODEL 5
REMARK VINA RESULT: -6.354493566      1.645      2.555
REMARK  13 active torsions:
REMARK  status: ('A' for Active; 'I' for Inactive)
REMARK    1  A    between atoms: C2_2  and  C3_3 
REMARK    2  A    between atoms: C3_3  and  C4_4 
REMARK    3  A    between atoms: C4_4  and  N1_5 
REMARK    4  A    between atoms: C4_4  and  C11_15 
REMARK    5  A    between atoms: N1_5  and  C5_8 
REMARK    6  A    between atoms: C5_8  and  C6_9 
REMARK    7  A    between atoms: C6_9  and  N2_10 
REMARK    8  A    between atoms: N2_10  and  C8_12 
REMARK    9  A    between atoms: C11_15  and  C12_17 
REMARK   10  A    between atoms: C12_17  and  O3_19 
REMARK   11  A    between atoms: O3_19  and  C13_20 
REMARK   12  A    between atoms: C13_20  and  C15_22 
REMARK   13  A    between atoms: C15_22  and  O4_23 
ROOT
HETATM    1  C4  UNL     1      -4.984   2.747  15.225  1.00  0.00     0.269 C 
ENDROOT
BRANCH   1   2
HETATM    2  C3  UNL     1      -5.233   2.087  16.553  1.00  0.00     0.068 C 
BRANCH   2   3
HETATM    3  C2  UNL     1      -6.675   2.136  16.922  1.00  0.00    -0.034 C 
HETATM    4  C1  UNL     1      -7.439   1.078  17.025  1.00  0.00     0.007 C 
ENDBRANCH   2   3
ENDBRANCH   1   2
BRANCH   1   5
HETATM    5  N1  UNL     1      -6.094   3.539  14.774  1.00  0.00    -0.062 N 
ATOM      6  H12 UNL     1      -6.361   3.284  13.824  1.00  0.00     0.278 HD
ATOM      7  H11 UNL     1      -6.950   3.278  15.264  1.00  0.00     0.278 HD
BRANCH   5   8
HETATM    8  C5  UNL     1      -5.851   4.970  14.879  1.00  0.00     0.263 C 
BRANCH   8   9
HETATM    9  C6  UNL     1      -5.540   5.502  13.523  1.00  0.00     0.299 C 
BRANCH   9  10
HETATM   10  N2  UNL     1      -4.288   6.085  13.284  1.00  0.00     0.089 N 
HETATM   11  C7  UNL     1      -3.766   5.517  12.026  1.00  0.00     0.310 C 
BRANCH  10  12
HETATM   12  C8  UNL     1      -3.251   5.998  14.237  1.00  0.00     0.214 C 
HETATM   13  C9  UNL     1      -2.197   4.970  14.038  1.00  0.00     0.042 C 
HETATM   14  C10 UNL     1      -2.560   7.357  14.412  1.00  0.00     0.042 C 
ENDBRANCH  10  12
ENDBRANCH   9  10
ENDBRANCH   8   9
ENDBRANCH   5   8
ENDBRANCH   1   5
BRANCH   1  15
HETATM   15  C11 UNL     1      -4.712   1.700  14.222  1.00  0.00     0.254 C 
HETATM   16  O1  UNL     1      -4.720   0.493  14.597  1.00  0.00    -0.284 OA
BRANCH  15  17
HETATM   17  C12 UNL     1      -4.433   1.940  12.814  1.00  0.00     0.332 C 
HETATM   18  O2  UNL     1      -5.359   2.365  12.090  1.00  0.00    -0.256 OA
BRANCH  17  19
HETATM   19  O3  UNL     1      -3.208   1.723  12.237  1.00  0.00    -0.308 OA
BRANCH  19  20
HETATM   20  C13 UNL     1      -2.989   1.285  10.908  1.00  0.00     0.151 C 
HETATM   21  C14 UNL     1      -1.542   1.100  10.559  1.00  0.00     0.042 C 
BRANCH  20  22
HETATM   22  C15 UNL     1      -3.706  -0.027  10.713  1.00  0.00     0.196 C 
BRANCH  22  23
HETATM   23  O4  UNL     1      -4.813   0.182   9.902  1.00  0.00    -0.398 OA
ATOM     24  H4  UNL     1      -4.760  -0.400   9.153  1.00  0.00     0.209 HD
ENDBRANCH  22  23
ENDBRANCH  20  22
ENDBRANCH  19  20
ENDBRANCH  17  19
ENDBRANCH  15  17
ENDBRANCH   1  15
TORSDOF 13
ENDMDL
