MODEL 1
REMARK VINA RESULT: -6.408565975      0.000      0.000
REMARK  12 active torsions:
REMARK  status: ('A' for Active; 'I' for Inactive)
REMARK    1  A    between atoms: C2_2  and  C3_3 
REMARK    2  A    between atoms: C3_3  and  N1_4 
REMARK    3  A    between atoms: N1_4  and  C4_7 
REMARK    4  A    between atoms: C4_7  and  C5_8 
REMARK    5  A    between atoms: C5_8  and  O1_9 
REMARK    6  A    between atoms: O1_9  and  C6_10 
REMARK    7  A    between atoms: C6_10  and  C7_12 
REMARK    8  A    between atoms: C7_12  and  O3_13 
REMARK    9  A    between atoms: O3_13  and  C8_14 
REMARK   10  A    between atoms: C9_15  and  O4_16 
REMARK   11  A    between atoms: C12_19  and  C13_20 
REMARK   12  A    between atoms: N2_21  and  O5_23 
ROOT
HETATM    1  C8  UNL     1      -2.913   2.158  11.632  1.00  0.00     0.178 A 
HETATM    2  C9  UNL     1      -3.940   1.569  12.335  1.00  0.00     0.120 A 
HETATM    3  C11 UNL     1      -4.221   0.204  12.174  1.00  0.00     0.055 A 
HETATM    4  C12 UNL     1      -3.443  -0.518  11.299  1.00  0.00    -0.000 A 
HETATM    5  C14 UNL     1      -2.424   0.121  10.615  1.00  0.00     0.105 A 
HETATM    6  N3  UNL     1      -2.149   1.418  10.761  1.00  0.00    -0.339 N 
HETATM    7  C15 UNL     1      -1.083   2.090  10.047  1.00  0.00     0.158 C 
ENDROOT
BRANCH   1   8
HETATM    8  O3  UNL     1      -2.610   3.458  11.763  1.00  0.00    -0.324 OA
BRANCH   8   9
HETATM    9  C7  UNL     1      -1.793   4.245  12.495  1.00  0.00     0.288 C 
BRANCH   9  10
HETATM   10  C6  UNL     1      -2.253   4.703  13.821  1.00  0.00     0.283 C 
HETATM   11  O2  UNL     1      -1.770   4.198  14.864  1.00  0.00    -0.263 OA
BRANCH  10  12
HETATM   12  O1  UNL     1      -3.211   5.682  14.000  1.00  0.00    -0.318 OA
BRANCH  12  13
HETATM   13  C5  UNL     1      -4.400   5.514  14.720  1.00  0.00     0.206 C 
BRANCH  13  14
HETATM   14  C4  UNL     1      -5.535   5.752  13.713  1.00  0.00     0.259 C 
BRANCH  14  15
HETATM   15  N1  UNL     1      -5.091   5.398  12.377  1.00  0.00    -0.070 N 
ATOM     16  H12 UNL     1      -5.517   4.529  12.058  1.00  0.00     0.277 HD
ATOM     17  H11 UNL     1      -4.114   5.105  12.373  1.00  0.00     0.277 HD
BRANCH  15  18
HETATM   18  C3  UNL     1      -5.325   6.474  11.448  1.00  0.00     0.259 C 
BRANCH  18  19
HETATM   19  C2  UNL     1      -6.526   7.226  11.870  1.00  0.00    -0.010 C 
HETATM   20  C1  UNL     1      -6.742   8.492  11.476  1.00  0.00     0.008 C 
ENDBRANCH  18  19
ENDBRANCH  15  18
ENDBRANCH  14  15
ENDBRANCH  13  14
ENDBRANCH  12  13
ENDBRANCH  10  12
ENDBRANCH   9  10
ENDBRANCH   8   9
ENDBRANCH   1   8
BRANCH   2  21
HETATM   21  O4  UNL     1      -4.724   2.317  13.215  1.00  0.00    -0.352 OA
HETATM   22  C10 UNL     1      -4.758   1.948  14.579  1.00  0.00     0.210 C 
ENDBRANCH   2  21
BRANCH   4  23
HETATM   23  C13 UNL     1      -3.683  -1.937  11.088  1.00  0.00     0.126 C 
HETATM   24  N2  UNL     1      -2.763  -2.804  11.336  1.00  0.00    -0.280 N 
ATOM     25  H2  UNL     1      -1.862  -2.479  11.686  1.00  0.00     0.193 HD
BRANCH  24  26
HETATM   26  O5  UNL     1      -2.954  -4.142  11.148  1.00  0.00    -0.290 OA
ATOM     27  H5  UNL     1      -2.616  -4.793  11.753  1.00  0.00     0.244 HD
ENDBRANCH  24  26
ENDBRANCH   4  23
TORSDOF 12
ENDMDL
MODEL 2
REMARK VINA RESULT: -6.384869828      2.047      3.811
REMARK  12 active torsions:
REMARK  status: ('A' for Active; 'I' for Inactive)
REMARK    1  A    between atoms: C2_2  and  C3_3 
REMARK    2  A    between atoms: C3_3  and  N1_4 
REMARK    3  A    between atoms: N1_4  and  C4_7 
REMARK    4  A    between atoms: C4_7  and  C5_8 
REMARK    5  A    between atoms: C5_8  and  O1_9 
REMARK    6  A    between atoms: O1_9  and  C6_10 
REMARK    7  A    between atoms: C6_10  and  C7_12 
REMARK    8  A    between atoms: C7_12  and  O3_13 
REMARK    9  A    between atoms: O3_13  and  C8_14 
REMARK   10  A    between atoms: C9_15  and  O4_16 
REMARK   11  A    between atoms: C12_19  and  C13_20 
REMARK   12  A    between atoms: N2_21  and  O5_23 
ROOT
HETATM    1  C8  UNL     1      -3.080   2.310  11.511  1.00  0.00     0.178 A 
HETATM    2  C9  UNL     1      -1.964   1.661  11.035  1.00  0.00     0.120 A 
HETATM    3  C11 UNL     1      -2.007   0.288  10.751  1.00  0.00     0.055 A 
HETATM    4  C12 UNL     1      -3.190  -0.380  10.963  1.00  0.00    -0.000 A 
HETATM    5  C14 UNL     1      -4.284   0.318  11.444  1.00  0.00     0.105 A 
HETATM    6  N3  UNL     1      -4.253   1.623  11.717  1.00  0.00    -0.339 N 
HETATM    7  C15 UNL     1      -5.395   2.358  12.220  1.00  0.00     0.158 C 
ENDROOT
BRANCH   1   8
HETATM    8  O3  UNL     1      -3.080   3.623  11.788  1.00  0.00    -0.324 OA
BRANCH   8   9
HETATM    9  C7  UNL     1      -2.469   4.488  12.626  1.00  0.00     0.288 C 
BRANCH   9  10
HETATM   10  C6  UNL     1      -2.686   4.338  14.078  1.00  0.00     0.283 C 
HETATM   11  O2  UNL     1      -1.706   4.327  14.863  1.00  0.00    -0.263 OA
BRANCH  10  12
HETATM   12  O1  UNL     1      -3.934   4.203  14.654  1.00  0.00    -0.318 OA
BRANCH  12  13
HETATM   13  C5  UNL     1      -4.890   5.223  14.734  1.00  0.00     0.206 C 
BRANCH  13  14
HETATM   14  C4  UNL     1      -6.214   4.528  15.086  1.00  0.00     0.259 C 
BRANCH  14  15
HETATM   15  N1  UNL     1      -5.950   3.194  15.595  1.00  0.00    -0.070 N 
ATOM     16  H12 UNL     1      -4.965   3.071  15.829  1.00  0.00     0.277 HD
ATOM     17  H11 UNL     1      -6.024   2.492  14.859  1.00  0.00     0.277 HD
BRANCH  15  18
HETATM   18  C3  UNL     1      -6.804   2.883  16.712  1.00  0.00     0.259 C 
BRANCH  18  19
HETATM   19  C2  UNL     1      -7.001   1.419  16.779  1.00  0.00    -0.010 C 
HETATM   20  C1  UNL     1      -6.096   0.610  17.353  1.00  0.00     0.008 C 
ENDBRANCH  18  19
ENDBRANCH  15  18
ENDBRANCH  14  15
ENDBRANCH  13  14
ENDBRANCH  12  13
ENDBRANCH  10  12
ENDBRANCH   9  10
ENDBRANCH   8   9
ENDBRANCH   1   8
BRANCH   2  21
HETATM   21  O4  UNL     1      -0.768   2.352  10.830  1.00  0.00    -0.352 OA
HETATM   22  C10 UNL     1      -0.511   2.906   9.556  1.00  0.00     0.210 C 
ENDBRANCH   2  21
BRANCH   4  23
HETATM   23  C13 UNL     1      -3.300  -1.804  10.689  1.00  0.00     0.126 C 
HETATM   24  N2  UNL     1      -2.692  -2.666  11.430  1.00  0.00    -0.280 N 
ATOM     25  H2  UNL     1      -2.131  -2.332  12.214  1.00  0.00     0.193 HD
BRANCH  24  26
HETATM   26  O5  UNL     1      -2.773  -4.009  11.200  1.00  0.00    -0.290 OA
ATOM     27  H5  UNL     1      -3.283  -4.588  11.755  1.00  0.00     0.244 HD
ENDBRANCH  24  26
ENDBRANCH   4  23
TORSDOF 12
ENDMDL
MODEL 3
REMARK VINA RESULT: -6.304314891      2.136      2.843
REMARK  12 active torsions:
REMARK  status: ('A' for Active; 'I' for Inactive)
REMARK    1  A    between atoms: C2_2  and  C3_3 
REMARK    2  A    between atoms: C3_3  and  N1_4 
REMARK    3  A    between atoms: N1_4  and  C4_7 
REMARK    4  A    between atoms: C4_7  and  C5_8 
REMARK    5  A    between atoms: C5_8  and  O1_9 
REMARK    6  A    between atoms: O1_9  and  C6_10 
REMARK    7  A    between atoms: C6_10  and  C7_12 
REMARK    8  A    between atoms: C7_12  and  O3_13 
REMARK    9  A    between atoms: O3_13  and  C8_14 
REMARK   10  A    between atoms: C9_15  and  O4_16 
REMARK   11  A    between atoms: C12_19  and  C13_20 
REMARK   12  A    between atoms: N2_21  and  O5_23 
ROOT
HETATM    1  C8  UNL     1      -2.938   2.115  11.738  1.00  0.00     0.178 A 
HETATM    2  C9  UNL     1      -4.035   1.534  12.333  1.00  0.00     0.120 A 
HETATM    3  C11 UNL     1      -4.315   0.174  12.134  1.00  0.00     0.055 A 
HETATM    4  C12 UNL     1      -3.465  -0.551  11.331  1.00  0.00    -0.000 A 
HETATM    5  C14 UNL     1      -2.377   0.080  10.755  1.00  0.00     0.105 A 
HETATM    6  N3  UNL     1      -2.103   1.372  10.938  1.00  0.00    -0.339 N 
HETATM    7  C15 UNL     1      -0.965   2.037  10.336  1.00  0.00     0.158 C 
ENDROOT
BRANCH   1   8
HETATM    8  O3  UNL     1      -2.634   3.410  11.909  1.00  0.00    -0.324 OA
BRANCH   8   9
HETATM    9  C7  UNL     1      -3.005   4.617  11.429  1.00  0.00     0.288 C 
BRANCH   9  10
HETATM   10  C6  UNL     1      -3.861   4.667  10.227  1.00  0.00     0.283 C 
HETATM   11  O2  UNL     1      -3.473   4.139   9.156  1.00  0.00    -0.263 OA
BRANCH  10  12
HETATM   12  O1  UNL     1      -5.101   5.275  10.198  1.00  0.00    -0.318 OA
BRANCH  12  13
HETATM   13  C5  UNL     1      -5.341   6.614  10.526  1.00  0.00     0.206 C 
BRANCH  13  14
HETATM   14  C4  UNL     1      -6.076   7.215   9.319  1.00  0.00     0.259 C 
BRANCH  14  15
HETATM   15  N1  UNL     1      -6.540   6.152   8.446  1.00  0.00    -0.070 N 
ATOM     16  H12 UNL     1      -6.649   5.274   8.951  1.00  0.00     0.277 HD
ATOM     17  H11 UNL     1      -5.816   5.866   7.787  1.00  0.00     0.277 HD
BRANCH  15  18
HETATM   18  C3  UNL     1      -7.755   6.527   7.768  1.00  0.00     0.259 C 
BRANCH  18  19
HETATM   19  C2  UNL     1      -8.355   7.690   8.458  1.00  0.00    -0.010 C 
HETATM   20  C1  UNL     1      -9.220   8.510   7.838  1.00  0.00     0.008 C 
ENDBRANCH  18  19
ENDBRANCH  15  18
ENDBRANCH  14  15
ENDBRANCH  13  14
ENDBRANCH  12  13
ENDBRANCH  10  12
ENDBRANCH   9  10
ENDBRANCH   8   9
ENDBRANCH   1   8
BRANCH   2  21
HETATM   21  O4  UNL     1      -4.891   2.284  13.141  1.00  0.00    -0.352 OA
HETATM   22  C10 UNL     1      -4.714   2.246  14.543  1.00  0.00     0.210 C 
ENDBRANCH   2  21
BRANCH   4  23
HETATM   23  C13 UNL     1      -3.701  -1.965  11.085  1.00  0.00     0.126 C 
HETATM   24  N2  UNL     1      -2.823  -2.847  11.422  1.00  0.00    -0.280 N 
ATOM     25  H2  UNL     1      -1.959  -2.537  11.866  1.00  0.00     0.193 HD
BRANCH  24  26
HETATM   26  O5  UNL     1      -3.011  -4.181  11.204  1.00  0.00    -0.290 OA
ATOM     27  H5  UNL     1      -2.381  -4.711  10.730  1.00  0.00     0.244 HD
ENDBRANCH  24  26
ENDBRANCH   4  23
TORSDOF 12
ENDMDL
MODEL 4
REMARK VINA RESULT: -6.289323013      1.067      2.312
REMARK  12 active torsions:
REMARK  status: ('A' for Active; 'I' for Inactive)
REMARK    1  A    between atoms: C2_2  and  C3_3 
REMARK    2  A    between atoms: C3_3  and  N1_4 
REMARK    3  A    between atoms: N1_4  and  C4_7 
REMARK    4  A    between atoms: C4_7  and  C5_8 
REMARK    5  A    between atoms: C5_8  and  O1_9 
REMARK    6  A    between atoms: O1_9  and  C6_10 
REMARK    7  A    between atoms: C6_10  and  C7_12 
REMARK    8  A    between atoms: C7_12  and  O3_13 
REMARK    9  A    between atoms: O3_13  and  C8_14 
REMARK   10  A    between atoms: C9_15  and  O4_16 
REMARK   11  A    between atoms: C12_19  and  C13_20 
REMARK   12  A    between atoms: N2_21  and  O5_23 
ROOT
HETATM    1  C8  UNL     1      -2.930   2.230  11.712  1.00  0.00     0.178 A 
HETATM    2  C9  UNL     1      -2.002   1.511  10.995  1.00  0.00     0.120 A 
HETATM    3  C11 UNL     1      -2.187   0.140  10.765  1.00  0.00     0.055 A 
HETATM    4  C12 UNL     1      -3.317  -0.454  11.276  1.00  0.00    -0.000 A 
HETATM    5  C14 UNL     1      -4.221   0.312  11.991  1.00  0.00     0.105 A 
HETATM    6  N3  UNL     1      -4.053   1.616  12.215  1.00  0.00    -0.339 N 
HETATM    7  C15 UNL     1      -4.995   2.422  12.962  1.00  0.00     0.158 C 
ENDROOT
BRANCH   1   8
HETATM    8  O3  UNL     1      -2.791   3.544  11.948  1.00  0.00    -0.324 OA
BRANCH   8   9
HETATM    9  C7  UNL     1      -1.956   4.379  12.603  1.00  0.00     0.288 C 
BRANCH   9  10
HETATM   10  C6  UNL     1      -2.286   4.764  13.990  1.00  0.00     0.283 C 
HETATM   11  O2  UNL     1      -1.805   4.117  14.953  1.00  0.00    -0.263 OA
BRANCH  10  12
HETATM   12  O1  UNL     1      -3.113   5.822  14.312  1.00  0.00    -0.318 OA
BRANCH  12  13
HETATM   13  C5  UNL     1      -4.496   5.724  14.505  1.00  0.00     0.206 C 
BRANCH  13  14
HETATM   14  C4  UNL     1      -5.133   6.052  13.146  1.00  0.00     0.259 C 
BRANCH  14  15
HETATM   15  N1  UNL     1      -6.579   5.990  13.252  1.00  0.00    -0.070 N 
ATOM     16  H12 UNL     1      -6.884   6.013  14.225  1.00  0.00     0.277 HD
ATOM     17  H11 UNL     1      -6.933   5.067  12.999  1.00  0.00     0.277 HD
BRANCH  15  18
HETATM   18  C3  UNL     1      -7.204   7.029  12.475  1.00  0.00     0.259 C 
BRANCH  18  19
HETATM   19  C2  UNL     1      -6.171   7.726  11.679  1.00  0.00    -0.010 C 
HETATM   20  C1  UNL     1      -6.357   8.974  11.219  1.00  0.00     0.008 C 
ENDBRANCH  18  19
ENDBRANCH  15  18
ENDBRANCH  14  15
ENDBRANCH  13  14
ENDBRANCH  12  13
ENDBRANCH  10  12
ENDBRANCH   9  10
ENDBRANCH   8   9
ENDBRANCH   1   8
BRANCH   2  21
HETATM   21  O4  UNL     1      -0.856   2.128  10.488  1.00  0.00    -0.352 OA
HETATM   22  C10 UNL     1      -0.934   2.793   9.244  1.00  0.00     0.210 C 
ENDBRANCH   2  21
BRANCH   4  23
HETATM   23  C13 UNL     1      -3.568  -1.873  11.072  1.00  0.00     0.126 C 
HETATM   24  N2  UNL     1      -2.702  -2.754  11.439  1.00  0.00    -0.280 N 
ATOM     25  H2  UNL     1      -1.836  -2.440  11.876  1.00  0.00     0.193 HD
BRANCH  24  26
HETATM   26  O5  UNL     1      -2.905  -4.092  11.263  1.00  0.00    -0.290 OA
ATOM     27  H5  UNL     1      -3.160  -4.460  10.424  1.00  0.00     0.244 HD
ENDBRANCH  24  26
ENDBRANCH   4  23
TORSDOF 12
ENDMDL
MODEL 5
REMARK VINA RESULT: -6.228487497      2.292      3.600
REMARK  12 active torsions:
REMARK  status: ('A' for Active; 'I' for Inactive)
REMARK    1  A    between atoms: C2_2  and  C3_3 
REMARK    2  A    between atoms: C3_3  and  N1_4 
REMARK    3  A    between atoms: N1_4  and  C4_7 
REMARK    4  A    between atoms: C4_7  and  C5_8 
REMARK    5  A    between atoms: C5_8  and  O1_9 
REMARK    6  A    between atoms: O1_9  and  C6_10 
REMARK    7  A    between atoms: C6_10  and  C7_12 
REMARK    8  A    between atoms: C7_12  and  O3_13 
REMARK    9  A    between atoms: O3_13  and  C8_14 
REMARK   10  A    between atoms: C9_15  and  O4_16 
REMARK   11  A    between atoms: C12_19  and  C13_20 
REMARK   12  A    between atoms: N2_21  and  O5_23 
ROOT
HETATM    1  C8  UNL     1      -2.957   2.249  11.757  1.00  0.00     0.178 A 
HETATM    2  C9  UNL     1      -2.018   1.520  11.064  1.00  0.00     0.120 A 
HETATM    3  C11 UNL     1      -2.209   0.150  10.833  1.00  0.00     0.055 A 
HETATM    4  C12 UNL     1      -3.355  -0.434  11.319  1.00  0.00    -0.000 A 
HETATM    5  C14 UNL     1      -4.268   0.342  12.011  1.00  0.00     0.105 A 
HETATM    6  N3  UNL     1      -4.095   1.645  12.236  1.00  0.00    -0.339 N 
HETATM    7  C15 UNL     1      -5.049   2.461  12.959  1.00  0.00     0.158 C 
ENDROOT
BRANCH   1   8
HETATM    8  O3  UNL     1      -2.813   3.562  11.992  1.00  0.00    -0.324 OA
BRANCH   8   9
HETATM    9  C7  UNL     1      -2.921   4.734  11.329  1.00  0.00     0.288 C 
BRANCH   9  10
HETATM   10  C6  UNL     1      -3.935   4.853  10.263  1.00  0.00     0.283 C 
HETATM   11  O2  UNL     1      -3.684   4.435   9.106  1.00  0.00    -0.263 OA
BRANCH  10  12
HETATM   12  O1  UNL     1      -5.184   5.410  10.456  1.00  0.00    -0.318 OA
BRANCH  12  13
HETATM   13  C5  UNL     1      -5.437   6.783  10.563  1.00  0.00     0.206 C 
BRANCH  13  14
HETATM   14  C4  UNL     1      -5.929   7.226   9.177  1.00  0.00     0.259 C 
BRANCH  14  15
HETATM   15  N1  UNL     1      -6.504   6.094   8.473  1.00  0.00    -0.070 N 
ATOM     16  H12 UNL     1      -6.566   5.273   9.074  1.00  0.00     0.277 HD
ATOM     17  H11 UNL     1      -5.864   5.727   7.769  1.00  0.00     0.277 HD
BRANCH  15  18
HETATM   18  C3  UNL     1      -7.783   6.430   7.902  1.00  0.00     0.259 C 
BRANCH  18  19
HETATM   19  C2  UNL     1      -8.245   7.715   8.471  1.00  0.00    -0.010 C 
HETATM   20  C1  UNL     1      -9.402   8.280   8.091  1.00  0.00     0.008 C 
ENDBRANCH  18  19
ENDBRANCH  15  18
ENDBRANCH  14  15
ENDBRANCH  13  14
ENDBRANCH  12  13
ENDBRANCH  10  12
ENDBRANCH   9  10
ENDBRANCH   8   9
ENDBRANCH   1   8
BRANCH   2  21
HETATM   21  O4  UNL     1      -0.856   2.127  10.581  1.00  0.00    -0.352 OA
HETATM   22  C10 UNL     1      -0.804   2.518   9.224  1.00  0.00     0.210 C 
ENDBRANCH   2  21
BRANCH   4  23
HETATM   23  C13 UNL     1      -3.612  -1.851  11.114  1.00  0.00     0.126 C 
HETATM   24  N2  UNL     1      -2.754  -2.737  11.487  1.00  0.00    -0.280 N 
ATOM     25  H2  UNL     1      -1.889  -2.427  11.930  1.00  0.00     0.193 HD
BRANCH  24  26
HETATM   26  O5  UNL     1      -2.963  -4.074  11.309  1.00  0.00    -0.290 OA
ATOM     27  H5  UNL     1      -2.500  -4.731  11.816  1.00  0.00     0.244 HD
ENDBRANCH  24  26
ENDBRANCH   4  23
TORSDOF 12
ENDMDL
