MODEL 1
REMARK VINA RESULT: -5.901257674      0.000      0.000
REMARK  11 active torsions:
REMARK  status: ('A' for Active; 'I' for Inactive)
REMARK    1  A    between atoms: O1_2  and  C2_3 
REMARK    2  A    between atoms: C2_3  and  O2_4 
REMARK    3  A    between atoms: O2_4  and  C3_5 
REMARK    4  A    between atoms: C3_5  and  C5_7 
REMARK    5  A    between atoms: C3_5  and  C6_10 
REMARK    6  A    between atoms: C6_10  and  C7_11 
REMARK    7  A    between atoms: C6_10  and  N2_16 
REMARK    8  A    between atoms: C7_11  and  C8_12 
REMARK    9  A    between atoms: C8_12  and  N1_13 
REMARK   10  A    between atoms: N2_16  and  C9_18 
REMARK   11  A    between atoms: C9_18  and  C10_19 
ROOT
HETATM    1  C6  UNL     1      -4.052   3.407  13.055  1.00  0.00     0.150 C 
ENDROOT
BRANCH   1   2
HETATM    2  C3  UNL     1      -3.726   2.543  11.898  1.00  0.00     0.171 C 
HETATM    3  C4  UNL     1      -3.742   3.336  10.591  1.00  0.00     0.061 C 
BRANCH   2   4
HETATM    4  O2  UNL     1      -2.469   2.013  12.134  1.00  0.00    -0.343 OA
BRANCH   4   5
HETATM    5  C2  UNL     1      -1.523   2.137  11.177  1.00  0.00     0.339 C 
BRANCH   5   6
HETATM    6  O1  UNL     1      -0.419   2.806  11.781  1.00  0.00    -0.372 OA
HETATM    7  C1  UNL     1      -0.030   3.814  10.899  1.00  0.00     0.204 C 
ENDBRANCH   5   6
ENDBRANCH   4   5
ENDBRANCH   2   4
BRANCH   2   8
HETATM    8  C5  UNL     1      -4.794   1.529  11.691  1.00  0.00     0.211 C 
HETATM    9  O3  UNL     1      -4.655   0.485  12.433  1.00  0.00    -0.646 OA
HETATM   10  O4  UNL     1      -5.855   1.586  10.848  1.00  0.00    -0.646 OA
ENDBRANCH   2   8
ENDBRANCH   1   2
BRANCH   1  11
HETATM   11  C7  UNL     1      -3.451   4.800  12.883  1.00  0.00     0.018 C 
BRANCH  11  12
HETATM   12  C8  UNL     1      -2.295   5.222  13.583  1.00  0.00     0.078 C 
BRANCH  12  13
HETATM   13  N1  UNL     1      -1.506   4.360  14.186  1.00  0.00    -0.408 N 
ATOM     14  H12 UNL     1      -1.139   3.578  13.644  1.00  0.00     0.155 HD
ATOM     15  H11 UNL     1      -1.262   4.462  15.172  1.00  0.00     0.155 HD
ENDBRANCH  12  13
ENDBRANCH  11  12
ENDBRANCH   1  11
BRANCH   1  16
HETATM   16  N2  UNL     1      -5.394   3.573  13.479  1.00  0.00    -0.384 N 
ATOM     17  H2  UNL     1      -6.148   3.468  12.800  1.00  0.00     0.159 HD
BRANCH  16  18
HETATM   18  C9  UNL     1      -5.701   3.872  14.783  1.00  0.00     0.132 C 
BRANCH  18  19
HETATM   19  C10 UNL     1      -5.761   2.660  15.673  1.00  0.00     0.122 A 
HETATM   20  N3  UNL     1      -5.080   1.558  15.363  1.00  0.00    -0.351 N 
HETATM   21  C11 UNL     1      -5.139   0.451  16.169  1.00  0.00     0.091 A 
ATOM     22  H3  UNL     1      -4.510   1.538  14.518  1.00  0.00     0.166 HD
HETATM   23  C12 UNL     1      -5.905   0.470  17.308  1.00  0.00     0.034 A 
HETATM   24  C13 UNL     1      -6.602   1.626  17.608  1.00  0.00     0.093 A 
HETATM   25  N4  UNL     1      -6.511   2.710  16.769  1.00  0.00    -0.346 N 
HETATM   26  C14 UNL     1      -7.229   3.906  17.074  1.00  0.00     0.157 C 
ENDBRANCH  18  19
ENDBRANCH  16  18
ENDBRANCH   1  16
TORSDOF 11
ENDMDL
MODEL 2
REMARK VINA RESULT: -5.763566158      2.183      4.301
REMARK  11 active torsions:
REMARK  status: ('A' for Active; 'I' for Inactive)
REMARK    1  A    between atoms: O1_2  and  C2_3 
REMARK    2  A    between atoms: C2_3  and  O2_4 
REMARK    3  A    between atoms: O2_4  and  C3_5 
REMARK    4  A    between atoms: C3_5  and  C5_7 
REMARK    5  A    between atoms: C3_5  and  C6_10 
REMARK    6  A    between atoms: C6_10  and  C7_11 
REMARK    7  A    between atoms: C6_10  and  N2_16 
REMARK    8  A    between atoms: C7_11  and  C8_12 
REMARK    9  A    between atoms: C8_12  and  N1_13 
REMARK   10  A    between atoms: N2_16  and  C9_18 
REMARK   11  A    between atoms: C9_18  and  C10_19 
ROOT
HETATM    1  C6  UNL     1      -2.929   1.535  11.796  1.00  0.00     0.150 C 
ENDROOT
BRANCH   1   2
HETATM    2  C3  UNL     1      -4.040   0.561  11.891  1.00  0.00     0.171 C 
HETATM    3  C4  UNL     1      -3.534  -0.873  11.731  1.00  0.00     0.061 C 
BRANCH   2   4
HETATM    4  O2  UNL     1      -4.625   0.738  13.132  1.00  0.00    -0.343 OA
BRANCH   4   5
HETATM    5  C2  UNL     1      -4.289  -0.104  14.134  1.00  0.00     0.339 C 
BRANCH   5   6
HETATM    6  O1  UNL     1      -5.067   0.278  15.265  1.00  0.00    -0.372 OA
HETATM    7  C1  UNL     1      -4.332   1.244  15.951  1.00  0.00     0.204 C 
ENDBRANCH   5   6
ENDBRANCH   4   5
ENDBRANCH   2   4
BRANCH   2   8
HETATM    8  C5  UNL     1      -4.969   0.722  10.741  1.00  0.00     0.211 C 
HETATM    9  O3  UNL     1      -5.792   1.703  10.887  1.00  0.00    -0.646 OA
HETATM   10  O4  UNL     1      -5.036  -0.015   9.605  1.00  0.00    -0.646 OA
ENDBRANCH   2   8
ENDBRANCH   1   2
BRANCH   1  11
HETATM   11  C7  UNL     1      -1.918   1.111  10.734  1.00  0.00     0.018 C 
BRANCH  11  12
HETATM   12  C8  UNL     1      -0.871   1.957  10.298  1.00  0.00     0.078 C 
BRANCH  12  13
HETATM   13  N1  UNL     1      -0.940   2.599   9.152  1.00  0.00    -0.408 N 
ATOM     14  H12 UNL     1      -1.638   2.298   8.471  1.00  0.00     0.155 HD
ATOM     15  H11 UNL     1      -0.317   3.379   8.940  1.00  0.00     0.155 HD
ENDBRANCH  12  13
ENDBRANCH  11  12
ENDBRANCH   1  11
BRANCH   1  16
HETATM   16  N2  UNL     1      -3.191   2.915  11.606  1.00  0.00    -0.384 N 
ATOM     17  H2  UNL     1      -3.646   3.222  10.747  1.00  0.00     0.159 HD
BRANCH  16  18
HETATM   18  C9  UNL     1      -2.845   3.846  12.553  1.00  0.00     0.132 C 
BRANCH  18  19
HETATM   19  C10 UNL     1      -4.013   4.322  13.375  1.00  0.00     0.122 A 
HETATM   20  N3  UNL     1      -5.161   3.645  13.375  1.00  0.00    -0.351 N 
HETATM   21  C11 UNL     1      -6.228   4.080  14.117  1.00  0.00     0.091 A 
ATOM     22  H3  UNL     1      -5.246   2.796  12.817  1.00  0.00     0.166 HD
HETATM   23  C12 UNL     1      -6.121   5.224  14.869  1.00  0.00     0.034 A 
HETATM   24  C13 UNL     1      -4.919   5.907  14.853  1.00  0.00     0.093 A 
HETATM   25  N4  UNL     1      -3.878   5.432  14.094  1.00  0.00    -0.346 N 
HETATM   26  C14 UNL     1      -2.635   6.134  14.073  1.00  0.00     0.157 C 
ENDBRANCH  18  19
ENDBRANCH  16  18
ENDBRANCH   1  16
TORSDOF 11
ENDMDL
MODEL 3
REMARK VINA RESULT: -5.712975300      2.933      5.427
REMARK  11 active torsions:
REMARK  status: ('A' for Active; 'I' for Inactive)
REMARK    1  A    between atoms: O1_2  and  C2_3 
REMARK    2  A    between atoms: C2_3  and  O2_4 
REMARK    3  A    between atoms: O2_4  and  C3_5 
REMARK    4  A    between atoms: C3_5  and  C5_7 
REMARK    5  A    between atoms: C3_5  and  C6_10 
REMARK    6  A    between atoms: C6_10  and  C7_11 
REMARK    7  A    between atoms: C6_10  and  N2_16 
REMARK    8  A    between atoms: C7_11  and  C8_12 
REMARK    9  A    between atoms: C8_12  and  N1_13 
REMARK   10  A    between atoms: N2_16  and  C9_18 
REMARK   11  A    between atoms: C9_18  and  C10_19 
ROOT
HETATM    1  C6  UNL     1      -3.391   3.387  11.498  1.00  0.00     0.150 C 
ENDROOT
BRANCH   1   2
HETATM    2  C3  UNL     1      -3.431   1.919  11.684  1.00  0.00     0.171 C 
HETATM    3  C4  UNL     1      -2.183   1.253  11.105  1.00  0.00     0.061 C 
BRANCH   2   4
HETATM    4  O2  UNL     1      -3.522   1.689  13.045  1.00  0.00    -0.343 OA
BRANCH   4   5
HETATM    5  C2  UNL     1      -4.487   2.323  13.747  1.00  0.00     0.339 C 
BRANCH   5   6
HETATM    6  O1  UNL     1      -3.895   2.730  14.978  1.00  0.00    -0.372 OA
HETATM    7  C1  UNL     1      -4.432   1.911  15.971  1.00  0.00     0.204 C 
ENDBRANCH   5   6
ENDBRANCH   4   5
ENDBRANCH   2   4
BRANCH   2   8
HETATM    8  C5  UNL     1      -4.534   1.326  10.883  1.00  0.00     0.211 C 
HETATM    9  O3  UNL     1      -4.147   0.364  10.117  1.00  0.00    -0.646 OA
HETATM   10  O4  UNL     1      -5.846   1.669  10.876  1.00  0.00    -0.646 OA
ENDBRANCH   2   8
ENDBRANCH   1   2
BRANCH   1  11
HETATM   11  C7  UNL     1      -1.953   3.900  11.503  1.00  0.00     0.018 C 
BRANCH  11  12
HETATM   12  C8  UNL     1      -1.395   4.592  12.604  1.00  0.00     0.078 C 
BRANCH  12  13
HETATM   13  N1  UNL     1      -1.524   4.143  13.833  1.00  0.00    -0.408 N 
ATOM     14  H12 UNL     1      -1.952   3.227  13.971  1.00  0.00     0.155 HD
ATOM     15  H11 UNL     1      -1.208   4.689  14.635  1.00  0.00     0.155 HD
ENDBRANCH  12  13
ENDBRANCH  11  12
ENDBRANCH   1  11
BRANCH   1  16
HETATM   16  N2  UNL     1      -4.055   3.997  10.404  1.00  0.00    -0.384 N 
ATOM     17  H2  UNL     1      -4.726   3.453   9.862  1.00  0.00     0.159 HD
BRANCH  16  18
HETATM   18  C9  UNL     1      -3.814   5.303  10.058  1.00  0.00     0.132 C 
BRANCH  18  19
HETATM   19  C10 UNL     1      -5.068   6.125   9.927  1.00  0.00     0.122 A 
HETATM   20  N3  UNL     1      -5.802   6.068   8.817  1.00  0.00    -0.351 N 
HETATM   21  C11 UNL     1      -6.940   6.821   8.692  1.00  0.00     0.091 A 
ATOM     22  H3  UNL     1      -5.513   5.458   8.052  1.00  0.00     0.166 HD
HETATM   23  C12 UNL     1      -7.334   7.645   9.717  1.00  0.00     0.034 A 
HETATM   24  C13 UNL     1      -6.556   7.685  10.860  1.00  0.00     0.093 A 
HETATM   25  N4  UNL     1      -5.423   6.912  10.937  1.00  0.00    -0.346 N 
HETATM   26  C14 UNL     1      -4.616   6.951  12.114  1.00  0.00     0.157 C 
ENDBRANCH  18  19
ENDBRANCH  16  18
ENDBRANCH   1  16
TORSDOF 11
ENDMDL
MODEL 4
REMARK VINA RESULT: -5.684552835      2.813      5.374
REMARK  11 active torsions:
REMARK  status: ('A' for Active; 'I' for Inactive)
REMARK    1  A    between atoms: O1_2  and  C2_3 
REMARK    2  A    between atoms: C2_3  and  O2_4 
REMARK    3  A    between atoms: O2_4  and  C3_5 
REMARK    4  A    between atoms: C3_5  and  C5_7 
REMARK    5  A    between atoms: C3_5  and  C6_10 
REMARK    6  A    between atoms: C6_10  and  C7_11 
REMARK    7  A    between atoms: C6_10  and  N2_16 
REMARK    8  A    between atoms: C7_11  and  C8_12 
REMARK    9  A    between atoms: C8_12  and  N1_13 
REMARK   10  A    between atoms: N2_16  and  C9_18 
REMARK   11  A    between atoms: C9_18  and  C10_19 
ROOT
HETATM    1  C6  UNL     1      -3.446   3.219  11.228  1.00  0.00     0.150 C 
ENDROOT
BRANCH   1   2
HETATM    2  C3  UNL     1      -3.547   1.772  11.521  1.00  0.00     0.171 C 
HETATM    3  C4  UNL     1      -2.334   1.012  10.984  1.00  0.00     0.061 C 
BRANCH   2   4
HETATM    4  O2  UNL     1      -3.635   1.645  12.896  1.00  0.00    -0.343 OA
BRANCH   4   5
HETATM    5  C2  UNL     1      -4.469   2.467  13.571  1.00  0.00     0.339 C 
BRANCH   5   6
HETATM    6  O1  UNL     1      -3.803   2.820  14.780  1.00  0.00    -0.372 OA
HETATM    7  C1  UNL     1      -4.402   2.078  15.798  1.00  0.00     0.204 C 
ENDBRANCH   5   6
ENDBRANCH   4   5
ENDBRANCH   2   4
BRANCH   2   8
HETATM    8  C5  UNL     1      -4.681   1.170  10.771  1.00  0.00     0.211 C 
HETATM    9  O3  UNL     1      -5.815   1.721  11.038  1.00  0.00    -0.646 OA
HETATM   10  O4  UNL     1      -4.651   0.153   9.875  1.00  0.00    -0.646 OA
ENDBRANCH   2   8
ENDBRANCH   1   2
BRANCH   1  11
HETATM   11  C7  UNL     1      -1.987   3.652  11.099  1.00  0.00     0.018 C 
BRANCH  11  12
HETATM   12  C8  UNL     1      -1.314   4.372  12.113  1.00  0.00     0.078 C 
BRANCH  12  13
HETATM   13  N1  UNL     1      -1.349   3.983  13.369  1.00  0.00    -0.408 N 
ATOM     14  H12 UNL     1      -2.127   4.296  13.951  1.00  0.00     0.155 HD
ATOM     15  H11 UNL     1      -0.622   3.385  13.762  1.00  0.00     0.155 HD
ENDBRANCH  12  13
ENDBRANCH  11  12
ENDBRANCH   1  11
BRANCH   1  16
HETATM   16  N2  UNL     1      -4.156   3.790  10.141  1.00  0.00    -0.384 N 
ATOM     17  H2  UNL     1      -4.814   3.213   9.619  1.00  0.00     0.159 HD
BRANCH  16  18
HETATM   18  C9  UNL     1      -3.975   5.100   9.778  1.00  0.00     0.132 C 
BRANCH  18  19
HETATM   19  C10 UNL     1      -5.015   6.026  10.350  1.00  0.00     0.122 A 
HETATM   20  N3  UNL     1      -5.186   6.120  11.667  1.00  0.00    -0.351 N 
HETATM   21  C11 UNL     1      -6.137   6.957  12.190  1.00  0.00     0.091 A 
ATOM     22  H3  UNL     1      -4.603   5.564  12.293  1.00  0.00     0.166 HD
HETATM   23  C12 UNL     1      -6.926   7.707  11.354  1.00  0.00     0.034 A 
HETATM   24  C13 UNL     1      -6.729   7.592   9.990  1.00  0.00     0.093 A 
HETATM   25  N4  UNL     1      -5.763   6.740   9.514  1.00  0.00    -0.346 N 
HETATM   26  C14 UNL     1      -5.556   6.617   8.107  1.00  0.00     0.157 C 
ENDBRANCH  18  19
ENDBRANCH  16  18
ENDBRANCH   1  16
TORSDOF 11
ENDMDL
MODEL 5
REMARK VINA RESULT: -5.678138087      1.340      1.545
REMARK  11 active torsions:
REMARK  status: ('A' for Active; 'I' for Inactive)
REMARK    1  A    between atoms: O1_2  and  C2_3 
REMARK    2  A    between atoms: C2_3  and  O2_4 
REMARK    3  A    between atoms: O2_4  and  C3_5 
REMARK    4  A    between atoms: C3_5  and  C5_7 
REMARK    5  A    between atoms: C3_5  and  C6_10 
REMARK    6  A    between atoms: C6_10  and  C7_11 
REMARK    7  A    between atoms: C6_10  and  N2_16 
REMARK    8  A    between atoms: C7_11  and  C8_12 
REMARK    9  A    between atoms: C8_12  and  N1_13 
REMARK   10  A    between atoms: N2_16  and  C9_18 
REMARK   11  A    between atoms: C9_18  and  C10_19 
ROOT
HETATM    1  C6  UNL     1      -3.129   2.909  12.122  1.00  0.00     0.150 C 
ENDROOT
BRANCH   1   2
HETATM    2  C3  UNL     1      -3.644   2.715  10.748  1.00  0.00     0.171 C 
HETATM    3  C4  UNL     1      -4.405   3.948  10.261  1.00  0.00     0.061 C 
BRANCH   2   4
HETATM    4  O2  UNL     1      -2.549   2.465   9.940  1.00  0.00    -0.343 OA
BRANCH   4   5
HETATM    5  C2  UNL     1      -1.497   1.795  10.462  1.00  0.00     0.339 C 
BRANCH   5   6
HETATM    6  O1  UNL     1      -0.330   2.534  10.114  1.00  0.00    -0.372 OA
HETATM    7  C1  UNL     1      -0.644   3.265   8.969  1.00  0.00     0.204 C 
ENDBRANCH   5   6
ENDBRANCH   4   5
ENDBRANCH   2   4
BRANCH   2   8
HETATM    8  C5  UNL     1      -4.681   1.648  10.729  1.00  0.00     0.211 C 
HETATM    9  O3  UNL     1      -5.784   2.003  11.291  1.00  0.00    -0.646 OA
HETATM   10  O4  UNL     1      -4.594   0.402  10.203  1.00  0.00    -0.646 OA
ENDBRANCH   2   8
ENDBRANCH   1   2
BRANCH   1  11
HETATM   11  C7  UNL     1      -2.933   4.392  12.428  1.00  0.00     0.018 C 
BRANCH  11  12
HETATM   12  C8  UNL     1      -1.667   5.021  12.366  1.00  0.00     0.078 C 
BRANCH  12  13
HETATM   13  N1  UNL     1      -0.561   4.364  12.641  1.00  0.00    -0.408 N 
ATOM     14  H12 UNL     1      -0.273   3.616  12.010  1.00  0.00     0.155 HD
ATOM     15  H11 UNL     1       0.002   4.589  13.462  1.00  0.00     0.155 HD
ENDBRANCH  12  13
ENDBRANCH  11  12
ENDBRANCH   1  11
BRANCH   1  16
HETATM   16  N2  UNL     1      -3.794   2.331  13.232  1.00  0.00    -0.384 N 
ATOM     17  H2  UNL     1      -4.190   1.396  13.145  1.00  0.00     0.159 HD
BRANCH  16  18
HETATM   18  C9  UNL     1      -3.916   3.003  14.423  1.00  0.00     0.132 C 
BRANCH  18  19
HETATM   19  C10 UNL     1      -4.904   2.371  15.365  1.00  0.00     0.122 A 
HETATM   20  N3  UNL     1      -4.675   1.161  15.874  1.00  0.00    -0.351 N 
HETATM   21  C11 UNL     1      -5.577   0.580  16.727  1.00  0.00     0.091 A 
ATOM     22  H3  UNL     1      -3.821   0.663  15.626  1.00  0.00     0.166 HD
HETATM   23  C12 UNL     1      -6.730   1.245  17.064  1.00  0.00     0.034 A 
HETATM   24  C13 UNL     1      -6.944   2.500  16.523  1.00  0.00     0.093 A 
HETATM   25  N4  UNL     1      -6.011   3.040  15.673  1.00  0.00    -0.346 N 
HETATM   26  C14 UNL     1      -6.227   4.335  15.111  1.00  0.00     0.157 C 
ENDBRANCH  18  19
ENDBRANCH  16  18
ENDBRANCH   1  16
TORSDOF 11
ENDMDL
