MODEL 1
REMARK VINA RESULT: -6.095754909      0.000      0.000
REMARK  12 active torsions:
REMARK  status: ('A' for Active; 'I' for Inactive)
REMARK    1  A    between atoms: C2_2  and  N1_3 
REMARK    2  A    between atoms: N1_3  and  C3_4 
REMARK    3  A    between atoms: N1_3  and  C11_18 
REMARK    4  A    between atoms: C3_4  and  C4_5 
REMARK    5  A    between atoms: C4_5  and  O1_6 
REMARK    6  A    between atoms: C4_5  and  C5_8 
REMARK    7  A    between atoms: C5_8  and  O2_9 
REMARK    8  A    between atoms: O2_9  and  C6_10 
REMARK    9  A    between atoms: C6_10  and  C7_11 
REMARK   10  A    between atoms: C7_11  and  O3_12 
REMARK   11  A    between atoms: C7_11  and  C8_14 
REMARK   12  A    between atoms: C8_14  and  N2_15 
ROOT
HETATM    1  C4  UNL     1      -3.262   5.156  13.944  1.00  0.00     0.170 C 
ENDROOT
BRANCH   1   2
HETATM    2  C3  UNL     1      -3.889   4.130  14.853  1.00  0.00     0.306 C 
BRANCH   2   3
HETATM    3  N1  UNL     1      -5.292   4.072  14.910  1.00  0.00     0.095 N 
BRANCH   3   4
HETATM    4  C2  UNL     1      -6.028   4.364  13.713  1.00  0.00     0.268 C 
HETATM    5  C1  UNL     1      -6.699   5.701  13.713  1.00  0.00     0.037 C 
ENDBRANCH   3   4
BRANCH   3   6
HETATM    6  C11 UNL     1      -5.689   2.725  15.316  1.00  0.00     0.227 C 
HETATM    7  C12 UNL     1      -6.704   2.769  16.405  1.00  0.00     0.062 C 
HETATM    8  C13 UNL     1      -6.818   1.465  17.150  1.00  0.00     0.169 C 
HETATM    9  O4  UNL     1      -6.344   0.416  16.345  1.00  0.00    -0.391 OA
HETATM   10  C14 UNL     1      -4.959   0.575  16.332  1.00  0.00     0.169 C 
HETATM   11  C15 UNL     1      -4.526   1.865  15.711  1.00  0.00     0.062 C 
ENDBRANCH   3   6
ENDBRANCH   2   3
ENDBRANCH   1   2
BRANCH   1  12
HETATM   12  O1  UNL     1      -3.176   6.424  14.469  1.00  0.00    -0.392 OA
ATOM     13  H1  UNL     1      -3.096   7.120  13.827  1.00  0.00     0.210 HD
ENDBRANCH   1  12
BRANCH   1  14
HETATM   14  C5  UNL     1      -2.027   4.659  13.270  1.00  0.00     0.201 C 
BRANCH  14  15
HETATM   15  O2  UNL     1      -2.171   3.776  12.245  1.00  0.00    -0.386 OA
BRANCH  15  16
HETATM   16  C6  UNL     1      -3.142   3.968  11.321  1.00  0.00     0.201 C 
BRANCH  16  17
HETATM   17  C7  UNL     1      -3.745   2.651  10.830  1.00  0.00     0.170 C 
BRANCH  17  18
HETATM   18  O3  UNL     1      -5.018   2.930  10.338  1.00  0.00    -0.392 OA
ATOM     19  H3  UNL     1      -5.021   3.836  10.051  1.00  0.00     0.210 HD
ENDBRANCH  17  18
BRANCH  17  20
HETATM   20  C8  UNL     1      -3.831   1.670  11.963  1.00  0.00     0.305 C 
BRANCH  20  21
HETATM   21  N2  UNL     1      -3.243   0.402  11.671  1.00  0.00     0.082 N 
HETATM   22  C9  UNL     1      -4.200  -0.556  11.178  1.00  0.00     0.309 C 
HETATM   23  C10 UNL     1      -2.061   0.489  10.845  1.00  0.00     0.309 C 
ENDBRANCH  20  21
ENDBRANCH  17  20
ENDBRANCH  16  17
ENDBRANCH  15  16
ENDBRANCH  14  15
ENDBRANCH   1  14
TORSDOF 12
ENDMDL
MODEL 2
REMARK VINA RESULT: -5.970022153      1.257      1.475
REMARK  12 active torsions:
REMARK  status: ('A' for Active; 'I' for Inactive)
REMARK    1  A    between atoms: C2_2  and  N1_3 
REMARK    2  A    between atoms: N1_3  and  C3_4 
REMARK    3  A    between atoms: N1_3  and  C11_18 
REMARK    4  A    between atoms: C3_4  and  C4_5 
REMARK    5  A    between atoms: C4_5  and  O1_6 
REMARK    6  A    between atoms: C4_5  and  C5_8 
REMARK    7  A    between atoms: C5_8  and  O2_9 
REMARK    8  A    between atoms: O2_9  and  C6_10 
REMARK    9  A    between atoms: C6_10  and  C7_11 
REMARK   10  A    between atoms: C7_11  and  O3_12 
REMARK   11  A    between atoms: C7_11  and  C8_14 
REMARK   12  A    between atoms: C8_14  and  N2_15 
ROOT
HETATM    1  C4  UNL     1      -2.526   4.561  14.253  1.00  0.00     0.170 C 
ENDROOT
BRANCH   1   2
HETATM    2  C3  UNL     1      -3.884   3.926  14.101  1.00  0.00     0.306 C 
BRANCH   2   3
HETATM    3  N1  UNL     1      -4.799   4.069  15.159  1.00  0.00     0.095 N 
BRANCH   3   4
HETATM    4  C2  UNL     1      -5.888   4.988  14.989  1.00  0.00     0.268 C 
HETATM    5  C1  UNL     1      -6.114   5.421  13.575  1.00  0.00     0.037 C 
ENDBRANCH   3   4
BRANCH   3   6
HETATM    6  C11 UNL     1      -5.402   2.766  15.437  1.00  0.00     0.227 C 
HETATM    7  C12 UNL     1      -6.577   2.899  16.343  1.00  0.00     0.062 C 
HETATM    8  C13 UNL     1      -6.955   1.601  17.003  1.00  0.00     0.169 C 
HETATM    9  O4  UNL     1      -6.466   0.523  16.246  1.00  0.00    -0.391 OA
HETATM   10  C14 UNL     1      -5.090   0.526  16.470  1.00  0.00     0.169 C 
HETATM   11  C15 UNL     1      -4.421   1.772  15.984  1.00  0.00     0.062 C 
ENDBRANCH   3   6
ENDBRANCH   2   3
ENDBRANCH   1   2
BRANCH   1  12
HETATM   12  O1  UNL     1      -1.727   4.003  15.223  1.00  0.00    -0.392 OA
ATOM     13  H1  UNL     1      -1.064   3.403  14.903  1.00  0.00     0.210 HD
ENDBRANCH   1  12
BRANCH   1  14
HETATM   14  C5  UNL     1      -1.855   4.819  12.946  1.00  0.00     0.201 C 
BRANCH  14  15
HETATM   15  O2  UNL     1      -2.015   3.900  11.954  1.00  0.00    -0.386 OA
BRANCH  15  16
HETATM   16  C6  UNL     1      -0.945   3.205  11.501  1.00  0.00     0.201 C 
BRANCH  16  17
HETATM   17  C7  UNL     1      -1.331   2.170  10.444  1.00  0.00     0.170 C 
BRANCH  17  18
HETATM   18  O3  UNL     1      -2.334   2.728   9.656  1.00  0.00    -0.392 OA
ATOM     19  H3  UNL     1      -2.174   3.663   9.610  1.00  0.00     0.210 HD
ENDBRANCH  17  18
BRANCH  17  20
HETATM   20  C8  UNL     1      -1.830   0.918  11.108  1.00  0.00     0.305 C 
BRANCH  20  21
HETATM   21  N2  UNL     1      -3.232   0.702  10.947  1.00  0.00     0.082 N 
HETATM   22  C9  UNL     1      -3.533  -0.543  10.288  1.00  0.00     0.309 C 
HETATM   23  C10 UNL     1      -3.989   0.890  12.163  1.00  0.00     0.309 C 
ENDBRANCH  20  21
ENDBRANCH  17  20
ENDBRANCH  16  17
ENDBRANCH  15  16
ENDBRANCH  14  15
ENDBRANCH   1  14
TORSDOF 12
ENDMDL
MODEL 3
REMARK VINA RESULT: -5.914525258      2.317      3.626
REMARK  12 active torsions:
REMARK  status: ('A' for Active; 'I' for Inactive)
REMARK    1  A    between atoms: C2_2  and  N1_3 
REMARK    2  A    between atoms: N1_3  and  C3_4 
REMARK    3  A    between atoms: N1_3  and  C11_18 
REMARK    4  A    between atoms: C3_4  and  C4_5 
REMARK    5  A    between atoms: C4_5  and  O1_6 
REMARK    6  A    between atoms: C4_5  and  C5_8 
REMARK    7  A    between atoms: C5_8  and  O2_9 
REMARK    8  A    between atoms: O2_9  and  C6_10 
REMARK    9  A    between atoms: C6_10  and  C7_11 
REMARK   10  A    between atoms: C7_11  and  O3_12 
REMARK   11  A    between atoms: C7_11  and  C8_14 
REMARK   12  A    between atoms: C8_14  and  N2_15 
ROOT
HETATM    1  C4  UNL     1      -4.825   1.620  12.120  1.00  0.00     0.170 C 
ENDROOT
BRANCH   1   2
HETATM    2  C3  UNL     1      -4.483   2.881  12.872  1.00  0.00     0.306 C 
BRANCH   2   3
HETATM    3  N1  UNL     1      -4.096   2.759  14.217  1.00  0.00     0.095 N 
BRANCH   3   4
HETATM    4  C2  UNL     1      -3.915   3.962  14.979  1.00  0.00     0.268 C 
HETATM    5  C1  UNL     1      -3.230   5.065  14.236  1.00  0.00     0.037 C 
ENDBRANCH   3   4
BRANCH   3   6
HETATM    6  C11 UNL     1      -5.105   1.973  14.927  1.00  0.00     0.227 C 
HETATM    7  C12 UNL     1      -6.121   2.855  15.566  1.00  0.00     0.062 C 
HETATM    8  C13 UNL     1      -6.903   2.157  16.646  1.00  0.00     0.169 C 
HETATM    9  O4  UNL     1      -6.853   0.767  16.446  1.00  0.00    -0.391 OA
HETATM   10  C14 UNL     1      -5.555   0.403  16.802  1.00  0.00     0.169 C 
HETATM   11  C15 UNL     1      -4.513   1.032  15.933  1.00  0.00     0.062 C 
ENDBRANCH   3   6
ENDBRANCH   2   3
ENDBRANCH   1   2
BRANCH   1  12
HETATM   12  O1  UNL     1      -5.752   1.775  11.116  1.00  0.00    -0.392 OA
ATOM     13  H1  UNL     1      -6.659   1.700  11.390  1.00  0.00     0.210 HD
ENDBRANCH   1  12
BRANCH   1  14
HETATM   14  C5  UNL     1      -3.624   0.813  11.760  1.00  0.00     0.201 C 
BRANCH  14  15
HETATM   15  O2  UNL     1      -2.401   1.391  11.903  1.00  0.00    -0.386 OA
BRANCH  15  16
HETATM   16  C6  UNL     1      -1.617   1.587  10.817  1.00  0.00     0.201 C 
BRANCH  16  17
HETATM   17  C7  UNL     1      -0.667   2.773  10.992  1.00  0.00     0.170 C 
BRANCH  17  18
HETATM   18  O3  UNL     1      -0.853   3.273  12.278  1.00  0.00    -0.392 OA
ATOM     19  H3  UNL     1      -1.206   4.151  12.195  1.00  0.00     0.210 HD
ENDBRANCH  17  18
BRANCH  17  20
HETATM   20  C8  UNL     1      -0.976   3.834   9.974  1.00  0.00     0.305 C 
BRANCH  20  21
HETATM   21  N2  UNL     1       0.061   4.024   9.011  1.00  0.00     0.082 N 
HETATM   22  C9  UNL     1       1.347   3.570   9.478  1.00  0.00     0.309 C 
HETATM   23  C10 UNL     1      -0.269   3.520   7.699  1.00  0.00     0.309 C 
ENDBRANCH  20  21
ENDBRANCH  17  20
ENDBRANCH  16  17
ENDBRANCH  15  16
ENDBRANCH  14  15
ENDBRANCH   1  14
TORSDOF 12
ENDMDL
MODEL 4
REMARK VINA RESULT: -5.896538684      2.244      3.528
REMARK  12 active torsions:
REMARK  status: ('A' for Active; 'I' for Inactive)
REMARK    1  A    between atoms: C2_2  and  N1_3 
REMARK    2  A    between atoms: N1_3  and  C3_4 
REMARK    3  A    between atoms: N1_3  and  C11_18 
REMARK    4  A    between atoms: C3_4  and  C4_5 
REMARK    5  A    between atoms: C4_5  and  O1_6 
REMARK    6  A    between atoms: C4_5  and  C5_8 
REMARK    7  A    between atoms: C5_8  and  O2_9 
REMARK    8  A    between atoms: O2_9  and  C6_10 
REMARK    9  A    between atoms: C6_10  and  C7_11 
REMARK   10  A    between atoms: C7_11  and  O3_12 
REMARK   11  A    between atoms: C7_11  and  C8_14 
REMARK   12  A    between atoms: C8_14  and  N2_15 
ROOT
HETATM    1  C4  UNL     1      -4.897   1.713  11.931  1.00  0.00     0.170 C 
ENDROOT
BRANCH   1   2
HETATM    2  C3  UNL     1      -4.869   2.841  12.930  1.00  0.00     0.306 C 
BRANCH   2   3
HETATM    3  N1  UNL     1      -4.311   2.586  14.195  1.00  0.00     0.095 N 
BRANCH   3   4
HETATM    4  C2  UNL     1      -3.782   3.697  14.934  1.00  0.00     0.268 C 
HETATM    5  C1  UNL     1      -3.047   4.698  14.100  1.00  0.00     0.037 C 
ENDBRANCH   3   4
BRANCH   3   6
HETATM    6  C11 UNL     1      -5.334   1.979  15.045  1.00  0.00     0.227 C 
HETATM    7  C12 UNL     1      -6.175   3.019  15.701  1.00  0.00     0.062 C 
HETATM    8  C13 UNL     1      -6.928   2.495  16.894  1.00  0.00     0.169 C 
HETATM    9  O4  UNL     1      -7.061   1.100  16.796  1.00  0.00    -0.391 OA
HETATM   10  C14 UNL     1      -5.786   0.601  17.066  1.00  0.00     0.169 C 
HETATM   11  C15 UNL     1      -4.764   1.039  16.066  1.00  0.00     0.062 C 
ENDBRANCH   3   6
ENDBRANCH   2   3
ENDBRANCH   1   2
BRANCH   1  12
HETATM   12  O1  UNL     1      -5.376   2.048  10.687  1.00  0.00    -0.392 OA
ATOM     13  H1  UNL     1      -5.515   1.316  10.098  1.00  0.00     0.210 HD
ENDBRANCH   1  12
BRANCH   1  14
HETATM   14  C5  UNL     1      -3.645   0.901  11.935  1.00  0.00     0.201 C 
BRANCH  14  15
HETATM   15  O2  UNL     1      -2.458   1.560  11.848  1.00  0.00    -0.386 OA
BRANCH  15  16
HETATM   16  C6  UNL     1      -1.860   1.717  10.643  1.00  0.00     0.201 C 
BRANCH  16  17
HETATM   17  C7  UNL     1      -1.842   3.177  10.189  1.00  0.00     0.170 C 
BRANCH  17  18
HETATM   18  O3  UNL     1      -3.007   3.405   9.462  1.00  0.00    -0.392 OA
ATOM     19  H3  UNL     1      -2.800   4.034   8.780  1.00  0.00     0.210 HD
ENDBRANCH  17  18
BRANCH  17  20
HETATM   20  C8  UNL     1      -0.636   3.434   9.331  1.00  0.00     0.305 C 
BRANCH  20  21
HETATM   21  N2  UNL     1       0.586   3.512  10.066  1.00  0.00     0.082 N 
HETATM   22  C9  UNL     1       1.749   3.520   9.216  1.00  0.00     0.309 C 
HETATM   23  C10 UNL     1       0.602   4.570  11.049  1.00  0.00     0.309 C 
ENDBRANCH  20  21
ENDBRANCH  17  20
ENDBRANCH  16  17
ENDBRANCH  15  16
ENDBRANCH  14  15
ENDBRANCH   1  14
TORSDOF 12
ENDMDL
MODEL 5
REMARK VINA RESULT: -5.895824356      1.965      3.455
REMARK  12 active torsions:
REMARK  status: ('A' for Active; 'I' for Inactive)
REMARK    1  A    between atoms: C2_2  and  N1_3 
REMARK    2  A    between atoms: N1_3  and  C3_4 
REMARK    3  A    between atoms: N1_3  and  C11_18 
REMARK    4  A    between atoms: C3_4  and  C4_5 
REMARK    5  A    between atoms: C4_5  and  O1_6 
REMARK    6  A    between atoms: C4_5  and  C5_8 
REMARK    7  A    between atoms: C5_8  and  O2_9 
REMARK    8  A    between atoms: O2_9  and  C6_10 
REMARK    9  A    between atoms: C6_10  and  C7_11 
REMARK   10  A    between atoms: C7_11  and  O3_12 
REMARK   11  A    between atoms: C7_11  and  C8_14 
REMARK   12  A    between atoms: C8_14  and  N2_15 
ROOT
HETATM    1  C4  UNL     1      -4.829   1.586  12.084  1.00  0.00     0.170 C 
ENDROOT
BRANCH   1   2
HETATM    2  C3  UNL     1      -4.538   2.869  12.819  1.00  0.00     0.306 C 
BRANCH   2   3
HETATM    3  N1  UNL     1      -4.112   2.780  14.155  1.00  0.00     0.095 N 
BRANCH   3   4
HETATM    4  C2  UNL     1      -3.787   3.998  14.843  1.00  0.00     0.268 C 
HETATM    5  C1  UNL     1      -2.597   4.718  14.292  1.00  0.00     0.037 C 
ENDBRANCH   3   4
BRANCH   3   6
HETATM    6  C11 UNL     1      -5.163   2.134  14.941  1.00  0.00     0.227 C 
HETATM    7  C12 UNL     1      -6.059   3.143  15.572  1.00  0.00     0.062 C 
HETATM    8  C13 UNL     1      -6.860   2.579  16.715  1.00  0.00     0.169 C 
HETATM    9  O4  UNL     1      -6.956   1.184  16.584  1.00  0.00    -0.391 OA
HETATM   10  C14 UNL     1      -5.686   0.707  16.910  1.00  0.00     0.169 C 
HETATM   11  C15 UNL     1      -4.625   1.187  15.971  1.00  0.00     0.062 C 
ENDBRANCH   3   6
ENDBRANCH   2   3
ENDBRANCH   1   2
BRANCH   1  12
HETATM   12  O1  UNL     1      -5.762   1.689  11.080  1.00  0.00    -0.392 OA
ATOM     13  H1  UNL     1      -5.415   1.941  10.232  1.00  0.00     0.210 HD
ENDBRANCH   1  12
BRANCH   1  14
HETATM   14  C5  UNL     1      -3.596   0.823  11.734  1.00  0.00     0.201 C 
BRANCH  14  15
HETATM   15  O2  UNL     1      -2.396   1.446  11.887  1.00  0.00    -0.386 OA
BRANCH  15  16
HETATM   16  C6  UNL     1      -1.620   1.691  10.806  1.00  0.00     0.201 C 
BRANCH  16  17
HETATM   17  C7  UNL     1      -0.788   2.964  10.964  1.00  0.00     0.170 C 
BRANCH  17  18
HETATM   18  O3  UNL     1      -0.306   2.991  12.270  1.00  0.00    -0.392 OA
ATOM     19  H3  UNL     1      -0.888   3.546  12.778  1.00  0.00     0.210 HD
ENDBRANCH  17  18
BRANCH  17  20
HETATM   20  C8  UNL     1      -1.641   4.172  10.701  1.00  0.00     0.305 C 
BRANCH  20  21
HETATM   21  N2  UNL     1      -2.440   4.065   9.523  1.00  0.00     0.082 N 
HETATM   22  C9  UNL     1      -3.750   4.646   9.681  1.00  0.00     0.309 C 
HETATM   23  C10 UNL     1      -1.769   4.516   8.326  1.00  0.00     0.309 C 
ENDBRANCH  20  21
ENDBRANCH  17  20
ENDBRANCH  16  17
ENDBRANCH  15  16
ENDBRANCH  14  15
ENDBRANCH   1  14
TORSDOF 12
ENDMDL
