MODEL 1
REMARK VINA RESULT: -6.041273078      0.000      0.000
REMARK  15 active torsions:
REMARK  status: ('A' for Active; 'I' for Inactive)
REMARK    1  A    between atoms: C2_2  and  N1_3 
REMARK    2  A    between atoms: N1_3  and  C3_4 
REMARK    3  A    between atoms: N1_3  and  C11_17 
REMARK    4  A    between atoms: C4_5  and  C5_6 
REMARK    5  A    between atoms: C5_6  and  C6_7 
REMARK    6  A    between atoms: C6_7  and  N2_8 
REMARK    7  A    between atoms: N2_8  and  C7_10 
REMARK    8  A    between atoms: C7_10  and  C8_11 
REMARK    9  A    between atoms: C8_11  and  O2_13 
REMARK   10  A    between atoms: O2_13  and  C9_14 
REMARK   11  A    between atoms: C11_17  and  C12_18 
REMARK   12  A    between atoms: C12_18  and  O3_19 
REMARK   13  A    between atoms: C12_18  and  C13_21 
REMARK   14  A    between atoms: C13_21  and  N4_22 
REMARK   15  A    between atoms: N4_22  and  C15_24 
ROOT
HETATM    1  C9  UNL     1      -4.108   1.438  13.528  1.00  0.00     0.302 C 
HETATM    2  C10 UNL     1      -4.882   1.639  12.306  1.00  0.00     0.085 C 
HETATM    3  N3  UNL     1      -5.513   1.804  11.344  1.00  0.00    -0.195 NA
ENDROOT
BRANCH   1   4
HETATM    4  O2  UNL     1      -4.784   0.566  14.444  1.00  0.00    -0.306 OA
BRANCH   4   5
HETATM    5  C8  UNL     1      -4.633   0.741  15.819  1.00  0.00     0.277 C 
HETATM    6  O1  UNL     1      -3.474   0.974  16.243  1.00  0.00    -0.263 OA
BRANCH   5   7
HETATM    7  C7  UNL     1      -5.816   0.653  16.743  1.00  0.00     0.225 C 
BRANCH   7   8
HETATM    8  N2  UNL     1      -6.774   1.624  16.326  1.00  0.00    -0.412 N 
ATOM      9  H2  UNL     1      -7.715   1.366  16.027  1.00  0.00     0.153 HD
BRANCH   8  10
HETATM   10  C6  UNL     1      -6.331   2.982  16.357  1.00  0.00     0.118 C 
BRANCH  10  11
HETATM   11  C5  UNL     1      -6.531   3.735  15.089  1.00  0.00     0.047 C 
BRANCH  11  12
HETATM   12  C4  UNL     1      -5.444   4.611  14.674  1.00  0.00    -0.008 C 
HETATM   13  C3  UNL     1      -5.238   5.126  13.482  1.00  0.00     0.081 C 
BRANCH  13  14
HETATM   14  N1  UNL     1      -4.103   5.993  13.207  1.00  0.00    -0.388 N 
BRANCH  14  15
HETATM   15  C2  UNL     1      -4.365   7.023  12.237  1.00  0.00     0.118 C 
HETATM   16  C1  UNL     1      -5.771   7.093  11.782  1.00  0.00     0.026 C 
ENDBRANCH  14  15
BRANCH  14  17
HETATM   17  C11 UNL     1      -2.851   5.765  13.891  1.00  0.00     0.155 C 
BRANCH  17  18
HETATM   18  C12 UNL     1      -2.073   4.606  13.435  1.00  0.00     0.164 C 
BRANCH  18  19
HETATM   19  O3  UNL     1      -1.330   4.137  14.551  1.00  0.00    -0.392 OA
ATOM     20  H3  UNL     1      -0.772   3.434  14.239  1.00  0.00     0.210 HD
ENDBRANCH  18  19
BRANCH  18  21
HETATM   21  C13 UNL     1      -1.087   4.785  12.324  1.00  0.00     0.305 C 
BRANCH  21  22
HETATM   22  N4  UNL     1      -0.583   3.542  11.769  1.00  0.00     0.091 N 
HETATM   23  C14 UNL     1       0.474   3.959  10.760  1.00  0.00     0.310 C 
BRANCH  22  24
HETATM   24  C15 UNL     1      -1.568   2.842  10.929  1.00  0.00     0.222 A 
HETATM   25  C16 UNL     1      -1.442   1.300  10.973  1.00  0.00     0.038 A 
HETATM   26  C17 UNL     1      -1.247   2.073   9.738  1.00  0.00     0.038 A 
ENDBRANCH  22  24
ENDBRANCH  21  22
ENDBRANCH  18  21
ENDBRANCH  17  18
ENDBRANCH  14  17
ENDBRANCH  13  14
ENDBRANCH  11  12
ENDBRANCH  10  11
ENDBRANCH   8  10
ENDBRANCH   7   8
ENDBRANCH   5   7
ENDBRANCH   4   5
ENDBRANCH   1   4
TORSDOF 15
ENDMDL
MODEL 2
REMARK VINA RESULT: -5.977737810      2.021      4.005
REMARK  15 active torsions:
REMARK  status: ('A' for Active; 'I' for Inactive)
REMARK    1  A    between atoms: C2_2  and  N1_3 
REMARK    2  A    between atoms: N1_3  and  C3_4 
REMARK    3  A    between atoms: N1_3  and  C11_17 
REMARK    4  A    between atoms: C4_5  and  C5_6 
REMARK    5  A    between atoms: C5_6  and  C6_7 
REMARK    6  A    between atoms: C6_7  and  N2_8 
REMARK    7  A    between atoms: N2_8  and  C7_10 
REMARK    8  A    between atoms: C7_10  and  C8_11 
REMARK    9  A    between atoms: C8_11  and  O2_13 
REMARK   10  A    between atoms: O2_13  and  C9_14 
REMARK   11  A    between atoms: C11_17  and  C12_18 
REMARK   12  A    between atoms: C12_18  and  O3_19 
REMARK   13  A    between atoms: C12_18  and  C13_21 
REMARK   14  A    between atoms: C13_21  and  N4_22 
REMARK   15  A    between atoms: N4_22  and  C15_24 
ROOT
HETATM    1  C9  UNL     1      -4.032   1.420  13.271  1.00  0.00     0.302 C 
HETATM    2  C10 UNL     1      -4.842   1.477  12.057  1.00  0.00     0.085 C 
HETATM    3  N3  UNL     1      -5.502   1.527  11.101  1.00  0.00    -0.195 NA
ENDROOT
BRANCH   1   4
HETATM    4  O2  UNL     1      -4.639   0.591  14.272  1.00  0.00    -0.306 OA
BRANCH   4   5
HETATM    5  C8  UNL     1      -4.603   0.972  15.613  1.00  0.00     0.277 C 
HETATM    6  O1  UNL     1      -3.471   1.120  16.136  1.00  0.00    -0.263 OA
BRANCH   5   7
HETATM    7  C7  UNL     1      -5.873   1.194  16.387  1.00  0.00     0.225 C 
BRANCH   7   8
HETATM    8  N2  UNL     1      -6.082   2.601  16.498  1.00  0.00    -0.412 N 
ATOM      9  H2  UNL     1      -5.959   3.100  17.379  1.00  0.00     0.153 HD
BRANCH   8  10
HETATM   10  C6  UNL     1      -6.474   3.264  15.295  1.00  0.00     0.118 C 
BRANCH  10  11
HETATM   11  C5  UNL     1      -6.125   4.709  15.234  1.00  0.00     0.047 C 
BRANCH  11  12
HETATM   12  C4  UNL     1      -4.920   5.057  14.494  1.00  0.00    -0.008 C 
HETATM   13  C3  UNL     1      -4.712   4.949  13.200  1.00  0.00     0.081 C 
BRANCH  13  14
HETATM   14  N1  UNL     1      -3.450   5.338  12.591  1.00  0.00    -0.388 N 
BRANCH  14  15
HETATM   15  C2  UNL     1      -2.638   6.199  13.410  1.00  0.00     0.118 C 
HETATM   16  C1  UNL     1      -2.670   7.626  13.020  1.00  0.00     0.026 C 
ENDBRANCH  14  15
BRANCH  14  17
HETATM   17  C11 UNL     1      -3.120   4.859  11.269  1.00  0.00     0.155 C 
BRANCH  17  18
HETATM   18  C12 UNL     1      -4.233   4.800  10.313  1.00  0.00     0.164 C 
BRANCH  18  19
HETATM   19  O3  UNL     1      -3.962   3.724   9.424  1.00  0.00    -0.392 OA
ATOM     20  H3  UNL     1      -4.517   3.845   8.663  1.00  0.00     0.210 HD
ENDBRANCH  18  19
BRANCH  18  21
HETATM   21  C13 UNL     1      -4.515   5.989   9.452  1.00  0.00     0.305 C 
BRANCH  21  22
HETATM   22  N4  UNL     1      -5.781   6.642   9.733  1.00  0.00     0.091 N 
HETATM   23  C14 UNL     1      -6.036   7.544   8.537  1.00  0.00     0.310 C 
BRANCH  22  24
HETATM   24  C15 UNL     1      -5.701   7.603  10.846  1.00  0.00     0.222 A 
HETATM   25  C16 UNL     1      -6.901   7.528  11.822  1.00  0.00     0.038 A 
HETATM   26  C17 UNL     1      -6.597   8.731  11.034  1.00  0.00     0.038 A 
ENDBRANCH  22  24
ENDBRANCH  21  22
ENDBRANCH  18  21
ENDBRANCH  17  18
ENDBRANCH  14  17
ENDBRANCH  13  14
ENDBRANCH  11  12
ENDBRANCH  10  11
ENDBRANCH   8  10
ENDBRANCH   7   8
ENDBRANCH   5   7
ENDBRANCH   4   5
ENDBRANCH   1   4
TORSDOF 15
ENDMDL
MODEL 3
REMARK VINA RESULT: -5.935520882      2.095      5.065
REMARK  15 active torsions:
REMARK  status: ('A' for Active; 'I' for Inactive)
REMARK    1  A    between atoms: C2_2  and  N1_3 
REMARK    2  A    between atoms: N1_3  and  C3_4 
REMARK    3  A    between atoms: N1_3  and  C11_17 
REMARK    4  A    between atoms: C4_5  and  C5_6 
REMARK    5  A    between atoms: C5_6  and  C6_7 
REMARK    6  A    between atoms: C6_7  and  N2_8 
REMARK    7  A    between atoms: N2_8  and  C7_10 
REMARK    8  A    between atoms: C7_10  and  C8_11 
REMARK    9  A    between atoms: C8_11  and  O2_13 
REMARK   10  A    between atoms: O2_13  and  C9_14 
REMARK   11  A    between atoms: C11_17  and  C12_18 
REMARK   12  A    between atoms: C12_18  and  O3_19 
REMARK   13  A    between atoms: C12_18  and  C13_21 
REMARK   14  A    between atoms: C13_21  and  N4_22 
REMARK   15  A    between atoms: N4_22  and  C15_24 
ROOT
HETATM    1  C9  UNL     1      -4.434   2.093  15.157  1.00  0.00     0.302 C 
HETATM    2  C10 UNL     1      -5.054   0.954  15.828  1.00  0.00     0.085 C 
HETATM    3  N3  UNL     1      -5.531   0.036  16.357  1.00  0.00    -0.195 NA
ENDROOT
BRANCH   1   4
HETATM    4  O2  UNL     1      -3.969   1.746  13.845  1.00  0.00    -0.306 OA
BRANCH   4   5
HETATM    5  C8  UNL     1      -4.772   1.989  12.730  1.00  0.00     0.277 C 
HETATM    6  O1  UNL     1      -5.464   3.036  12.741  1.00  0.00    -0.263 OA
BRANCH   5   7
HETATM    7  C7  UNL     1      -4.797   1.029  11.574  1.00  0.00     0.225 C 
BRANCH   7   8
HETATM    8  N2  UNL     1      -4.132  -0.167  11.979  1.00  0.00    -0.412 N 
ATOM      9  H2  UNL     1      -4.314  -0.612  12.879  1.00  0.00     0.153 HD
BRANCH   8  10
HETATM   10  C6  UNL     1      -3.194  -0.701  11.042  1.00  0.00     0.118 C 
BRANCH  10  11
HETATM   11  C5  UNL     1      -1.889   0.012  10.987  1.00  0.00     0.047 C 
BRANCH  11  12
HETATM   12  C4  UNL     1      -1.816   1.170  10.107  1.00  0.00    -0.008 C 
HETATM   13  C3  UNL     1      -1.461   2.396  10.420  1.00  0.00     0.081 C 
BRANCH  13  14
HETATM   14  N1  UNL     1      -1.433   3.463   9.431  1.00  0.00    -0.388 N 
BRANCH  14  15
HETATM   15  C2  UNL     1      -0.163   3.629   8.775  1.00  0.00     0.118 C 
HETATM   16  C1  UNL     1       1.012   3.436   9.654  1.00  0.00     0.026 C 
ENDBRANCH  14  15
BRANCH  14  17
HETATM   17  C11 UNL     1      -2.624   4.244   9.193  1.00  0.00     0.155 C 
BRANCH  17  18
HETATM   18  C12 UNL     1      -3.350   4.686  10.391  1.00  0.00     0.164 C 
BRANCH  18  19
HETATM   19  O3  UNL     1      -4.733   4.475  10.142  1.00  0.00    -0.392 OA
ATOM     20  H3  UNL     1      -5.133   4.244  10.972  1.00  0.00     0.210 HD
ENDBRANCH  18  19
BRANCH  18  21
HETATM   21  C13 UNL     1      -3.220   6.109  10.835  1.00  0.00     0.305 C 
BRANCH  21  22
HETATM   22  N4  UNL     1      -2.513   6.280  12.091  1.00  0.00     0.091 N 
HETATM   23  C14 UNL     1      -1.040   6.254  11.724  1.00  0.00     0.310 C 
BRANCH  22  24
HETATM   24  C15 UNL     1      -2.640   5.119  12.988  1.00  0.00     0.222 A 
HETATM   25  C16 UNL     1      -3.331   5.444  14.335  1.00  0.00     0.038 A 
HETATM   26  C17 UNL     1      -1.942   4.970  14.254  1.00  0.00     0.038 A 
ENDBRANCH  22  24
ENDBRANCH  21  22
ENDBRANCH  18  21
ENDBRANCH  17  18
ENDBRANCH  14  17
ENDBRANCH  13  14
ENDBRANCH  11  12
ENDBRANCH  10  11
ENDBRANCH   8  10
ENDBRANCH   7   8
ENDBRANCH   5   7
ENDBRANCH   4   5
ENDBRANCH   1   4
TORSDOF 15
ENDMDL
MODEL 4
REMARK VINA RESULT: -5.920737530      2.411      4.854
REMARK  15 active torsions:
REMARK  status: ('A' for Active; 'I' for Inactive)
REMARK    1  A    between atoms: C2_2  and  N1_3 
REMARK    2  A    between atoms: N1_3  and  C3_4 
REMARK    3  A    between atoms: N1_3  and  C11_17 
REMARK    4  A    between atoms: C4_5  and  C5_6 
REMARK    5  A    between atoms: C5_6  and  C6_7 
REMARK    6  A    between atoms: C6_7  and  N2_8 
REMARK    7  A    between atoms: N2_8  and  C7_10 
REMARK    8  A    between atoms: C7_10  and  C8_11 
REMARK    9  A    between atoms: C8_11  and  O2_13 
REMARK   10  A    between atoms: O2_13  and  C9_14 
REMARK   11  A    between atoms: C11_17  and  C12_18 
REMARK   12  A    between atoms: C12_18  and  O3_19 
REMARK   13  A    between atoms: C12_18  and  C13_21 
REMARK   14  A    between atoms: C13_21  and  N4_22 
REMARK   15  A    between atoms: N4_22  and  C15_24 
ROOT
HETATM    1  C9  UNL     1      -4.929   1.744  12.175  1.00  0.00     0.302 C 
HETATM    2  C10 UNL     1      -4.852   0.983  10.931  1.00  0.00     0.085 C 
HETATM    3  N3  UNL     1      -4.792   0.361   9.951  1.00  0.00    -0.195 NA
ENDROOT
BRANCH   1   4
HETATM    4  O2  UNL     1      -3.997   1.257  13.151  1.00  0.00    -0.306 OA
BRANCH   4   5
HETATM    5  C8  UNL     1      -4.403   1.062  14.471  1.00  0.00     0.277 C 
HETATM    6  O1  UNL     1      -4.730  -0.105  14.802  1.00  0.00    -0.263 OA
BRANCH   5   7
HETATM    7  C7  UNL     1      -4.443   2.207  15.444  1.00  0.00     0.225 C 
BRANCH   7   8
HETATM    8  N2  UNL     1      -3.239   2.958  15.290  1.00  0.00    -0.412 N 
ATOM      9  H2  UNL     1      -2.326   2.575  15.536  1.00  0.00     0.153 HD
BRANCH   8  10
HETATM   10  C6  UNL     1      -3.397   4.279  14.770  1.00  0.00     0.118 C 
BRANCH  10  11
HETATM   11  C5  UNL     1      -2.204   4.820  14.064  1.00  0.00     0.047 C 
BRANCH  11  12
HETATM   12  C4  UNL     1      -2.180   4.668  12.615  1.00  0.00    -0.008 C 
HETATM   13  C3  UNL     1      -1.786   3.622  11.924  1.00  0.00     0.081 C 
BRANCH  13  14
HETATM   14  N1  UNL     1      -1.818   3.608  10.469  1.00  0.00    -0.388 N 
BRANCH  14  15
HETATM   15  C2  UNL     1      -1.433   2.353   9.881  1.00  0.00     0.118 C 
HETATM   16  C1  UNL     1      -1.257   1.249  10.850  1.00  0.00     0.026 C 
ENDBRANCH  14  15
BRANCH  14  17
HETATM   17  C11 UNL     1      -2.210   4.801   9.755  1.00  0.00     0.155 C 
BRANCH  17  18
HETATM   18  C12 UNL     1      -3.566   4.793   9.191  1.00  0.00     0.164 C 
BRANCH  18  19
HETATM   19  O3  UNL     1      -3.469   4.246   7.883  1.00  0.00    -0.392 OA
ATOM     20  H3  UNL     1      -3.714   3.331   7.945  1.00  0.00     0.210 HD
ENDBRANCH  18  19
BRANCH  18  21
HETATM   21  C13 UNL     1      -4.300   6.088   9.046  1.00  0.00     0.305 C 
BRANCH  21  22
HETATM   22  N4  UNL     1      -5.550   6.150   9.782  1.00  0.00     0.091 N 
HETATM   23  C14 UNL     1      -6.555   6.739   8.807  1.00  0.00     0.310 C 
BRANCH  22  24
HETATM   24  C15 UNL     1      -5.534   7.147  10.866  1.00  0.00     0.222 A 
HETATM   25  C16 UNL     1      -5.652   6.532  12.281  1.00  0.00     0.038 A 
HETATM   26  C17 UNL     1      -6.660   7.449  11.732  1.00  0.00     0.038 A 
ENDBRANCH  22  24
ENDBRANCH  21  22
ENDBRANCH  18  21
ENDBRANCH  17  18
ENDBRANCH  14  17
ENDBRANCH  13  14
ENDBRANCH  11  12
ENDBRANCH  10  11
ENDBRANCH   8  10
ENDBRANCH   7   8
ENDBRANCH   5   7
ENDBRANCH   4   5
ENDBRANCH   1   4
TORSDOF 15
ENDMDL
MODEL 5
REMARK VINA RESULT: -5.770949117      2.176      5.581
REMARK  15 active torsions:
REMARK  status: ('A' for Active; 'I' for Inactive)
REMARK    1  A    between atoms: C2_2  and  N1_3 
REMARK    2  A    between atoms: N1_3  and  C3_4 
REMARK    3  A    between atoms: N1_3  and  C11_17 
REMARK    4  A    between atoms: C4_5  and  C5_6 
REMARK    5  A    between atoms: C5_6  and  C6_7 
REMARK    6  A    between atoms: C6_7  and  N2_8 
REMARK    7  A    between atoms: N2_8  and  C7_10 
REMARK    8  A    between atoms: C7_10  and  C8_11 
REMARK    9  A    between atoms: C8_11  and  O2_13 
REMARK   10  A    between atoms: O2_13  and  C9_14 
REMARK   11  A    between atoms: C11_17  and  C12_18 
REMARK   12  A    between atoms: C12_18  and  O3_19 
REMARK   13  A    between atoms: C12_18  and  C13_21 
REMARK   14  A    between atoms: C13_21  and  N4_22 
REMARK   15  A    between atoms: N4_22  and  C15_24 
ROOT
HETATM    1  C9  UNL     1      -4.494   2.123  15.100  1.00  0.00     0.302 C 
HETATM    2  C10 UNL     1      -5.062   0.966  15.786  1.00  0.00     0.085 C 
HETATM    3  N3  UNL     1      -5.498   0.034  16.327  1.00  0.00    -0.195 NA
ENDROOT
BRANCH   1   4
HETATM    4  O2  UNL     1      -4.032   1.785  13.785  1.00  0.00    -0.306 OA
BRANCH   4   5
HETATM    5  C8  UNL     1      -4.767   2.170  12.664  1.00  0.00     0.277 C 
HETATM    6  O1  UNL     1      -5.272   3.320  12.678  1.00  0.00    -0.263 OA
BRANCH   5   7
HETATM    7  C7  UNL     1      -4.937   1.240  11.496  1.00  0.00     0.225 C 
BRANCH   7   8
HETATM    8  N2  UNL     1      -4.101   0.103  11.712  1.00  0.00    -0.412 N 
ATOM      9  H2  UNL     1      -4.177  -0.475  12.549  1.00  0.00     0.153 HD
BRANCH   8  10
HETATM   10  C6  UNL     1      -3.152  -0.172  10.680  1.00  0.00     0.118 C 
BRANCH  10  11
HETATM   11  C5  UNL     1      -1.762   0.267  10.974  1.00  0.00     0.047 C 
BRANCH  11  12
HETATM   12  C4  UNL     1      -1.391   1.602  10.525  1.00  0.00    -0.008 C 
HETATM   13  C3  UNL     1      -1.338   2.704  11.240  1.00  0.00     0.081 C 
BRANCH  13  14
HETATM   14  N1  UNL     1      -0.947   3.978  10.657  1.00  0.00    -0.388 N 
BRANCH  14  15
HETATM   15  C2  UNL     1       0.273   4.524  11.190  1.00  0.00     0.118 C 
HETATM   16  C1  UNL     1       1.504   4.033  10.532  1.00  0.00     0.026 C 
ENDBRANCH  14  15
BRANCH  14  17
HETATM   17  C11 UNL     1      -1.775   4.577   9.636  1.00  0.00     0.155 C 
BRANCH  17  18
HETATM   18  C12 UNL     1      -3.195   4.737   9.976  1.00  0.00     0.164 C 
BRANCH  18  19
HETATM   19  O3  UNL     1      -3.910   3.742   9.256  1.00  0.00    -0.392 OA
ATOM     20  H3  UNL     1      -3.878   2.946   9.773  1.00  0.00     0.210 HD
ENDBRANCH  18  19
BRANCH  18  21
HETATM   21  C13 UNL     1      -3.873   6.035   9.674  1.00  0.00     0.305 C 
BRANCH  21  22
HETATM   22  N4  UNL     1      -5.257   6.101  10.105  1.00  0.00     0.091 N 
HETATM   23  C14 UNL     1      -6.034   6.553   8.881  1.00  0.00     0.310 C 
BRANCH  22  24
HETATM   24  C15 UNL     1      -5.513   7.187  11.066  1.00  0.00     0.222 A 
HETATM   25  C16 UNL     1      -6.191   6.716  12.375  1.00  0.00     0.038 A 
HETATM   26  C17 UNL     1      -6.832   7.661  11.450  1.00  0.00     0.038 A 
ENDBRANCH  22  24
ENDBRANCH  21  22
ENDBRANCH  18  21
ENDBRANCH  17  18
ENDBRANCH  14  17
ENDBRANCH  13  14
ENDBRANCH  11  12
ENDBRANCH  10  11
ENDBRANCH   8  10
ENDBRANCH   7   8
ENDBRANCH   5   7
ENDBRANCH   4   5
ENDBRANCH   1   4
TORSDOF 15
ENDMDL
