MODEL 1
REMARK VINA RESULT: -6.034136978      0.000      0.000
REMARK  15 active torsions:
REMARK  status: ('A' for Active; 'I' for Inactive)
REMARK    1  A    between atoms: N1_2  and  C3_4 
REMARK    2  A    between atoms: C3_4  and  C4_5 
REMARK    3  A    between atoms: C4_5  and  N2_6 
REMARK    4  A    between atoms: N2_6  and  C5_7 
REMARK    5  A    between atoms: N2_6  and  C14_21 
REMARK    6  A    between atoms: C5_7  and  C6_8 
REMARK    7  A    between atoms: C6_8  and  N3_9 
REMARK    8  A    between atoms: N3_9  and  C7_10 
REMARK    9  A    between atoms: N3_9  and  C9_14 
REMARK   10  A    between atoms: C7_10  and  C8_11 
REMARK   11  A    between atoms: C8_11  and  O1_12 
REMARK   12  A    between atoms: C9_14  and  C10_15 
REMARK   13  A    between atoms: C10_15  and  N4_16 
REMARK   14  A    between atoms: N4_16  and  C11_18 
REMARK   15  A    between atoms: C14_21  and  C15_22 
ROOT
HETATM    1  C5  UNL     1      -4.258   0.763  12.834  1.00  0.00     0.303 C 
ENDROOT
BRANCH   1   2
HETATM    2  N2  UNL     1      -4.760   1.991  13.454  1.00  0.00     0.097 N 
BRANCH   2   3
HETATM    3  C4  UNL     1      -4.368   3.134  12.620  1.00  0.00     0.292 C 
BRANCH   3   4
HETATM    4  C3  UNL     1      -4.035   4.347  13.400  1.00  0.00     0.146 C 
BRANCH   4   5
HETATM    5  N1  UNL     1      -4.940   5.429  13.347  1.00  0.00    -0.419 N 
HETATM    6  C1  UNL     1      -4.868   6.285  12.217  1.00  0.00     0.142 C 
HETATM    7  C2  UNL     1      -6.191   5.336  13.985  1.00  0.00     0.142 C 
ENDBRANCH   4   5
ENDBRANCH   3   4
ENDBRANCH   2   3
BRANCH   2   8
HETATM    8  C14 UNL     1      -4.188   2.148  14.783  1.00  0.00     0.337 C 
BRANCH   8   9
HETATM    9  C15 UNL     1      -5.157   1.717  15.815  1.00  0.00     0.080 A 
HETATM   10  C16 UNL     1      -6.371   2.224  16.207  1.00  0.00     0.036 A 
HETATM   11  C17 UNL     1      -6.883   1.440  17.233  1.00  0.00     0.027 A 
HETATM   12  C18 UNL     1      -5.927   0.463  17.422  1.00  0.00     0.142 A 
HETATM   13  O2  UNL     1      -4.957   0.662  16.589  1.00  0.00    -0.325 OA
ENDBRANCH   8   9
ENDBRANCH   2   8
ENDBRANCH   1   2
BRANCH   1  14
HETATM   14  C6  UNL     1      -4.366   0.720  11.352  1.00  0.00     0.302 C 
BRANCH  14  15
HETATM   15  N3  UNL     1      -3.321  -0.098  10.750  1.00  0.00     0.093 N 
BRANCH  15  16
HETATM   16  C7  UNL     1      -3.526  -1.473  11.152  1.00  0.00     0.298 C 
BRANCH  16  17
HETATM   17  C8  UNL     1      -2.303  -2.339  11.110  1.00  0.00     0.194 C 
BRANCH  17  18
HETATM   18  O1  UNL     1      -2.755  -3.684  11.063  1.00  0.00    -0.399 OA
ATOM     19  H1  UNL     1      -2.464  -4.042  10.233  1.00  0.00     0.209 HD
ENDBRANCH  17  18
ENDBRANCH  16  17
ENDBRANCH  15  16
BRANCH  15  20
HETATM   20  C9  UNL     1      -2.001   0.315  11.105  1.00  0.00     0.291 C 
BRANCH  20  21
HETATM   21  C10 UNL     1      -1.552   1.631  10.570  1.00  0.00     0.144 C 
BRANCH  21  22
HETATM   22  N4  UNL     1      -1.010   2.552  11.500  1.00  0.00    -0.415 N 
ATOM     23  H4  UNL     1      -0.889   2.323  12.486  1.00  0.00     0.153 HD
BRANCH  22  24
HETATM   24  C11 UNL     1      -0.647   3.819  10.960  1.00  0.00     0.076 A 
HETATM   25  C12 UNL     1      -0.596   4.954  12.015  1.00  0.00     0.027 A 
HETATM   26  C13 UNL     1       0.598   4.520  11.148  1.00  0.00     0.027 A 
ENDBRANCH  22  24
ENDBRANCH  21  22
ENDBRANCH  20  21
ENDBRANCH  15  20
ENDBRANCH  14  15
ENDBRANCH   1  14
TORSDOF 15
ENDMDL
MODEL 2
REMARK VINA RESULT: -5.996002644      0.847      1.072
REMARK  15 active torsions:
REMARK  status: ('A' for Active; 'I' for Inactive)
REMARK    1  A    between atoms: N1_2  and  C3_4 
REMARK    2  A    between atoms: C3_4  and  C4_5 
REMARK    3  A    between atoms: C4_5  and  N2_6 
REMARK    4  A    between atoms: N2_6  and  C5_7 
REMARK    5  A    between atoms: N2_6  and  C14_21 
REMARK    6  A    between atoms: C5_7  and  C6_8 
REMARK    7  A    between atoms: C6_8  and  N3_9 
REMARK    8  A    between atoms: N3_9  and  C7_10 
REMARK    9  A    between atoms: N3_9  and  C9_14 
REMARK   10  A    between atoms: C7_10  and  C8_11 
REMARK   11  A    between atoms: C8_11  and  O1_12 
REMARK   12  A    between atoms: C9_14  and  C10_15 
REMARK   13  A    between atoms: C10_15  and  N4_16 
REMARK   14  A    between atoms: N4_16  and  C11_18 
REMARK   15  A    between atoms: C14_21  and  C15_22 
ROOT
HETATM    1  C5  UNL     1      -4.895   2.156  12.315  1.00  0.00     0.303 C 
ENDROOT
BRANCH   1   2
HETATM    2  N2  UNL     1      -4.733   2.594  13.703  1.00  0.00     0.097 N 
BRANCH   2   3
HETATM    3  C4  UNL     1      -3.699   3.635  13.750  1.00  0.00     0.292 C 
BRANCH   3   4
HETATM    4  C3  UNL     1      -4.180   4.921  14.303  1.00  0.00     0.146 C 
BRANCH   4   5
HETATM    5  N1  UNL     1      -5.034   5.704  13.497  1.00  0.00    -0.419 N 
HETATM    6  C1  UNL     1      -4.576   6.038  12.195  1.00  0.00     0.142 C 
HETATM    7  C2  UNL     1      -6.428   5.640  13.675  1.00  0.00     0.142 C 
ENDBRANCH   4   5
ENDBRANCH   3   4
ENDBRANCH   2   3
BRANCH   2   8
HETATM    8  C14 UNL     1      -4.323   1.473  14.535  1.00  0.00     0.337 C 
BRANCH   8   9
HETATM    9  C15 UNL     1      -5.208   1.357  15.715  1.00  0.00     0.080 A 
HETATM   10  C16 UNL     1      -6.192   2.174  16.213  1.00  0.00     0.036 A 
HETATM   11  C17 UNL     1      -6.725   1.601  17.360  1.00  0.00     0.027 A 
HETATM   12  C18 UNL     1      -6.020   0.424  17.509  1.00  0.00     0.142 A 
HETATM   13  O2  UNL     1      -5.162   0.327  16.546  1.00  0.00    -0.325 OA
ENDBRANCH   8   9
ENDBRANCH   2   8
ENDBRANCH   1   2
BRANCH   1  14
HETATM   14  C6  UNL     1      -4.308   0.827  12.005  1.00  0.00     0.302 C 
BRANCH  14  15
HETATM   15  N3  UNL     1      -3.675   0.800  10.692  1.00  0.00     0.093 N 
BRANCH  15  16
HETATM   16  C7  UNL     1      -3.054  -0.494  10.510  1.00  0.00     0.298 C 
BRANCH  16  17
HETATM   17  C8  UNL     1      -3.570  -1.581  11.405  1.00  0.00     0.194 C 
BRANCH  17  18
HETATM   18  O1  UNL     1      -2.617  -2.632  11.365  1.00  0.00    -0.399 OA
ATOM     19  H1  UNL     1      -2.716  -3.060  10.523  1.00  0.00     0.209 HD
ENDBRANCH  17  18
ENDBRANCH  16  17
ENDBRANCH  15  16
BRANCH  15  20
HETATM   20  C9  UNL     1      -2.702   1.830  10.509  1.00  0.00     0.291 C 
BRANCH  20  21
HETATM   21  C10 UNL     1      -1.328   1.539  11.006  1.00  0.00     0.144 C 
BRANCH  21  22
HETATM   22  N4  UNL     1      -0.616   2.612  11.594  1.00  0.00    -0.415 N 
ATOM     23  H4  UNL     1      -0.486   2.693  12.602  1.00  0.00     0.153 HD
BRANCH  22  24
HETATM   24  C11 UNL     1      -0.096   3.572  10.679  1.00  0.00     0.076 A 
HETATM   25  C12 UNL     1       1.365   3.993  10.981  1.00  0.00     0.027 A 
HETATM   26  C13 UNL     1       0.901   3.352   9.662  1.00  0.00     0.027 A 
ENDBRANCH  22  24
ENDBRANCH  21  22
ENDBRANCH  20  21
ENDBRANCH  15  20
ENDBRANCH  14  15
ENDBRANCH   1  14
TORSDOF 15
ENDMDL
MODEL 3
REMARK VINA RESULT: -5.921082237      2.138      3.772
REMARK  15 active torsions:
REMARK  status: ('A' for Active; 'I' for Inactive)
REMARK    1  A    between atoms: N1_2  and  C3_4 
REMARK    2  A    between atoms: C3_4  and  C4_5 
REMARK    3  A    between atoms: C4_5  and  N2_6 
REMARK    4  A    between atoms: N2_6  and  C5_7 
REMARK    5  A    between atoms: N2_6  and  C14_21 
REMARK    6  A    between atoms: C5_7  and  C6_8 
REMARK    7  A    between atoms: C6_8  and  N3_9 
REMARK    8  A    between atoms: N3_9  and  C7_10 
REMARK    9  A    between atoms: N3_9  and  C9_14 
REMARK   10  A    between atoms: C7_10  and  C8_11 
REMARK   11  A    between atoms: C8_11  and  O1_12 
REMARK   12  A    between atoms: C9_14  and  C10_15 
REMARK   13  A    between atoms: C10_15  and  N4_16 
REMARK   14  A    between atoms: N4_16  and  C11_18 
REMARK   15  A    between atoms: C14_21  and  C15_22 
ROOT
HETATM    1  C5  UNL     1      -4.049   3.029  12.851  1.00  0.00     0.303 C 
ENDROOT
BRANCH   1   2
HETATM    2  N2  UNL     1      -4.805   3.307  14.074  1.00  0.00     0.097 N 
BRANCH   2   3
HETATM    3  C4  UNL     1      -4.829   4.759  14.292  1.00  0.00     0.292 C 
BRANCH   3   4
HETATM    4  C3  UNL     1      -5.992   5.430  13.668  1.00  0.00     0.146 C 
BRANCH   4   5
HETATM    5  N1  UNL     1      -5.742   6.314  12.597  1.00  0.00    -0.419 N 
HETATM    6  C1  UNL     1      -6.824   7.116  12.146  1.00  0.00     0.142 C 
HETATM    7  C2  UNL     1      -4.450   6.835  12.398  1.00  0.00     0.142 C 
ENDBRANCH   4   5
ENDBRANCH   3   4
ENDBRANCH   2   3
BRANCH   2   8
HETATM    8  C14 UNL     1      -4.168   2.661  15.212  1.00  0.00     0.337 C 
BRANCH   8   9
HETATM    9  C15 UNL     1      -5.177   1.964  16.039  1.00  0.00     0.080 A 
HETATM   10  C16 UNL     1      -6.497   2.232  16.303  1.00  0.00     0.036 A 
HETATM   11  C17 UNL     1      -7.001   1.256  17.153  1.00  0.00     0.027 A 
HETATM   12  C18 UNL     1      -5.930   0.413  17.372  1.00  0.00     0.142 A 
HETATM   13  O2  UNL     1      -4.908   0.858  16.716  1.00  0.00    -0.325 OA
ENDBRANCH   8   9
ENDBRANCH   2   8
ENDBRANCH   1   2
BRANCH   1  14
HETATM   14  C6  UNL     1      -2.727   3.702  12.764  1.00  0.00     0.302 C 
BRANCH  14  15
HETATM   15  N3  UNL     1      -2.199   3.701  11.406  1.00  0.00     0.093 N 
BRANCH  15  16
HETATM   16  C7  UNL     1      -3.304   3.534  10.486  1.00  0.00     0.298 C 
BRANCH  16  17
HETATM   17  C8  UNL     1      -3.492   4.653   9.505  1.00  0.00     0.194 C 
BRANCH  17  18
HETATM   18  O1  UNL     1      -3.469   4.071   8.210  1.00  0.00    -0.399 OA
ATOM     19  H1  UNL     1      -2.731   4.454   7.750  1.00  0.00     0.209 HD
ENDBRANCH  17  18
ENDBRANCH  16  17
ENDBRANCH  15  16
BRANCH  15  20
HETATM   20  C9  UNL     1      -1.224   2.684  11.175  1.00  0.00     0.291 C 
BRANCH  20  21
HETATM   21  C10 UNL     1      -1.641   1.554  10.299  1.00  0.00     0.144 C 
BRANCH  21  22
HETATM   22  N4  UNL     1      -1.958   0.329  10.937  1.00  0.00    -0.415 N 
ATOM     23  H4  UNL     1      -1.409  -0.040  11.713  1.00  0.00     0.153 HD
BRANCH  22  24
HETATM   24  C11 UNL     1      -3.097  -0.350  10.417  1.00  0.00     0.076 A 
HETATM   25  C12 UNL     1      -3.865  -1.180  11.478  1.00  0.00     0.027 A 
HETATM   26  C13 UNL     1      -4.483  -0.035  10.658  1.00  0.00     0.027 A 
ENDBRANCH  22  24
ENDBRANCH  21  22
ENDBRANCH  20  21
ENDBRANCH  15  20
ENDBRANCH  14  15
ENDBRANCH   1  14
TORSDOF 15
ENDMDL
MODEL 4
REMARK VINA RESULT: -5.891283125      1.427      1.661
REMARK  15 active torsions:
REMARK  status: ('A' for Active; 'I' for Inactive)
REMARK    1  A    between atoms: N1_2  and  C3_4 
REMARK    2  A    between atoms: C3_4  and  C4_5 
REMARK    3  A    between atoms: C4_5  and  N2_6 
REMARK    4  A    between atoms: N2_6  and  C5_7 
REMARK    5  A    between atoms: N2_6  and  C14_21 
REMARK    6  A    between atoms: C5_7  and  C6_8 
REMARK    7  A    between atoms: C6_8  and  N3_9 
REMARK    8  A    between atoms: N3_9  and  C7_10 
REMARK    9  A    between atoms: N3_9  and  C9_14 
REMARK   10  A    between atoms: C7_10  and  C8_11 
REMARK   11  A    between atoms: C8_11  and  O1_12 
REMARK   12  A    between atoms: C9_14  and  C10_15 
REMARK   13  A    between atoms: C10_15  and  N4_16 
REMARK   14  A    between atoms: N4_16  and  C11_18 
REMARK   15  A    between atoms: C14_21  and  C15_22 
ROOT
HETATM    1  C5  UNL     1      -4.283   2.148  13.116  1.00  0.00     0.303 C 
ENDROOT
BRANCH   1   2
HETATM    2  N2  UNL     1      -4.382   3.012  14.294  1.00  0.00     0.097 N 
BRANCH   2   3
HETATM    3  C4  UNL     1      -3.537   4.194  14.083  1.00  0.00     0.292 C 
BRANCH   3   4
HETATM    4  C3  UNL     1      -4.177   5.460  14.509  1.00  0.00     0.146 C 
BRANCH   4   5
HETATM    5  N1  UNL     1      -5.048   6.093  13.599  1.00  0.00    -0.419 N 
HETATM    6  C1  UNL     1      -4.492   6.554  12.376  1.00  0.00     0.142 C 
HETATM    7  C2  UNL     1      -6.415   5.759  13.580  1.00  0.00     0.142 C 
ENDBRANCH   4   5
ENDBRANCH   3   4
ENDBRANCH   2   3
BRANCH   2   8
HETATM    8  C14 UNL     1      -3.921   2.298  15.476  1.00  0.00     0.337 C 
BRANCH   8   9
HETATM    9  C15 UNL     1      -5.072   1.736  16.218  1.00  0.00     0.080 A 
HETATM   10  C16 UNL     1      -6.377   2.142  16.339  1.00  0.00     0.036 A 
HETATM   11  C17 UNL     1      -7.057   1.254  17.164  1.00  0.00     0.027 A 
HETATM   12  C18 UNL     1      -6.103   0.320  17.515  1.00  0.00     0.142 A 
HETATM   13  O2  UNL     1      -4.982   0.637  16.952  1.00  0.00    -0.325 OA
ENDBRANCH   8   9
ENDBRANCH   2   8
ENDBRANCH   1   2
BRANCH   1  14
HETATM   14  C6  UNL     1      -4.231   2.865  11.815  1.00  0.00     0.302 C 
BRANCH  14  15
HETATM   15  N3  UNL     1      -3.504   2.112  10.802  1.00  0.00     0.093 N 
BRANCH  15  16
HETATM   16  C7  UNL     1      -3.240   0.786  11.319  1.00  0.00     0.298 C 
BRANCH  16  17
HETATM   17  C8  UNL     1      -3.660  -0.342  10.424  1.00  0.00     0.194 C 
BRANCH  17  18
HETATM   18  O1  UNL     1      -4.793   0.111   9.698  1.00  0.00    -0.399 OA
ATOM     19  H1  UNL     1      -4.523   0.889   9.225  1.00  0.00     0.209 HD
ENDBRANCH  17  18
ENDBRANCH  16  17
ENDBRANCH  15  16
BRANCH  15  20
HETATM   20  C9  UNL     1      -2.277   2.726  10.407  1.00  0.00     0.291 C 
BRANCH  20  21
HETATM   21  C10 UNL     1      -1.066   2.348  11.188  1.00  0.00     0.144 C 
BRANCH  21  22
HETATM   22  N4  UNL     1      -0.525   3.330  12.053  1.00  0.00    -0.415 N 
ATOM     23  H4  UNL     1      -0.254   3.121  13.014  1.00  0.00     0.153 HD
BRANCH  22  24
HETATM   24  C11 UNL     1      -0.389   4.630  11.488  1.00  0.00     0.076 A 
HETATM   25  C12 UNL     1      -0.629   5.778  12.502  1.00  0.00     0.027 A 
HETATM   26  C13 UNL     1       0.678   5.571  11.718  1.00  0.00     0.027 A 
ENDBRANCH  22  24
ENDBRANCH  21  22
ENDBRANCH  20  21
ENDBRANCH  15  20
ENDBRANCH  14  15
ENDBRANCH   1  14
TORSDOF 15
ENDMDL
MODEL 5
REMARK VINA RESULT: -5.884203412      2.245      3.849
REMARK  15 active torsions:
REMARK  status: ('A' for Active; 'I' for Inactive)
REMARK    1  A    between atoms: N1_2  and  C3_4 
REMARK    2  A    between atoms: C3_4  and  C4_5 
REMARK    3  A    between atoms: C4_5  and  N2_6 
REMARK    4  A    between atoms: N2_6  and  C5_7 
REMARK    5  A    between atoms: N2_6  and  C14_21 
REMARK    6  A    between atoms: C5_7  and  C6_8 
REMARK    7  A    between atoms: C6_8  and  N3_9 
REMARK    8  A    between atoms: N3_9  and  C7_10 
REMARK    9  A    between atoms: N3_9  and  C9_14 
REMARK   10  A    between atoms: C7_10  and  C8_11 
REMARK   11  A    between atoms: C8_11  and  O1_12 
REMARK   12  A    between atoms: C9_14  and  C10_15 
REMARK   13  A    between atoms: C10_15  and  N4_16 
REMARK   14  A    between atoms: N4_16  and  C11_18 
REMARK   15  A    between atoms: C14_21  and  C15_22 
ROOT
HETATM    1  C5  UNL     1      -4.852   3.468  13.232  1.00  0.00     0.303 C 
ENDROOT
BRANCH   1   2
HETATM    2  N2  UNL     1      -4.520   3.680  14.642  1.00  0.00     0.097 N 
BRANCH   2   3
HETATM    3  C4  UNL     1      -3.449   4.680  14.728  1.00  0.00     0.292 C 
BRANCH   3   4
HETATM    4  C3  UNL     1      -3.890   6.050  14.380  1.00  0.00     0.146 C 
BRANCH   4   5
HETATM    5  N1  UNL     1      -3.244   6.694  13.304  1.00  0.00    -0.419 N 
HETATM    6  C1  UNL     1      -1.884   6.361  13.066  1.00  0.00     0.142 C 
HETATM    7  C2  UNL     1      -3.988   7.128  12.191  1.00  0.00     0.142 C 
ENDBRANCH   4   5
ENDBRANCH   3   4
ENDBRANCH   2   3
BRANCH   2   8
HETATM    8  C14 UNL     1      -4.063   2.434  15.239  1.00  0.00     0.337 C 
BRANCH   8   9
HETATM    9  C15 UNL     1      -5.131   1.842  16.075  1.00  0.00     0.080 A 
HETATM   10  C16 UNL     1      -6.431   2.215  16.309  1.00  0.00     0.036 A 
HETATM   11  C17 UNL     1      -7.015   1.309  17.185  1.00  0.00     0.027 A 
HETATM   12  C18 UNL     1      -6.011   0.399  17.450  1.00  0.00     0.142 A 
HETATM   13  O2  UNL     1      -4.951   0.745  16.795  1.00  0.00    -0.325 OA
ENDBRANCH   8   9
ENDBRANCH   2   8
ENDBRANCH   1   2
BRANCH   1  14
HETATM   14  C6  UNL     1      -3.934   2.556  12.502  1.00  0.00     0.302 C 
BRANCH  14  15
HETATM   15  N3  UNL     1      -3.076   3.273  11.567  1.00  0.00     0.093 N 
BRANCH  15  16
HETATM   16  C7  UNL     1      -3.763   3.371  10.297  1.00  0.00     0.298 C 
BRANCH  16  17
HETATM   17  C8  UNL     1      -3.406   4.569   9.470  1.00  0.00     0.194 C 
BRANCH  17  18
HETATM   18  O1  UNL     1      -3.396   4.143   8.115  1.00  0.00    -0.399 OA
ATOM     19  H1  UNL     1      -3.042   4.861   7.604  1.00  0.00     0.209 HD
ENDBRANCH  17  18
ENDBRANCH  16  17
ENDBRANCH  15  16
BRANCH  15  20
HETATM   20  C9  UNL     1      -1.802   2.658  11.378  1.00  0.00     0.291 C 
BRANCH  20  21
HETATM   21  C10 UNL     1      -1.753   1.518  10.420  1.00  0.00     0.144 C 
BRANCH  21  22
HETATM   22  N4  UNL     1      -1.767   0.214  10.970  1.00  0.00    -0.415 N 
ATOM     23  H4  UNL     1      -1.015  -0.137  11.563  1.00  0.00     0.153 HD
BRANCH  22  24
HETATM   24  C11 UNL     1      -2.906  -0.574  10.638  1.00  0.00     0.076 A 
HETATM   25  C12 UNL     1      -2.823  -2.036  11.149  1.00  0.00     0.027 A 
HETATM   26  C13 UNL     1      -3.932  -1.043  11.535  1.00  0.00     0.027 A 
ENDBRANCH  22  24
ENDBRANCH  21  22
ENDBRANCH  20  21
ENDBRANCH  15  20
ENDBRANCH  14  15
ENDBRANCH   1  14
TORSDOF 15
ENDMDL
