MODEL 1
REMARK VINA RESULT: -6.441594413      0.000      0.000
REMARK  13 active torsions:
REMARK  status: ('A' for Active; 'I' for Inactive)
REMARK    1  A    between atoms: N1_2  and  C3_4 
REMARK    2  A    between atoms: C3_4  and  C4_5 
REMARK    3  A    between atoms: C4_5  and  N2_6 
REMARK    4  A    between atoms: N2_6  and  C5_9 
REMARK    5  A    between atoms: C5_9  and  C6_10 
REMARK    6  A    between atoms: C6_10  and  N3_11 
REMARK    7  A    between atoms: N3_11  and  C7_12 
REMARK    8  A    between atoms: N3_11  and  C15_25 
REMARK    9  A    between atoms: C7_12  and  C8_13 
REMARK   10  A    between atoms: C8_13  and  N4_14 
REMARK   11  A    between atoms: N4_14  and  C9_17 
REMARK   12  A    between atoms: C9_17  and  C10_18 
REMARK   13  A    between atoms: C15_25  and  C16_26 
ROOT
HETATM    1  N3  UNL     1      -4.500   1.838  14.150  1.00  0.00    -0.368 N 
ENDROOT
BRANCH   1   2
HETATM    2  C6  UNL     1      -4.299   0.845  13.110  1.00  0.00     0.154 C 
BRANCH   2   3
HETATM    3  C5  UNL     1      -4.843   1.392  11.777  1.00  0.00     0.252 C 
BRANCH   3   4
HETATM    4  N2  UNL     1      -4.027   0.946  10.696  1.00  0.00    -0.072 N 
ATOM      5  H22 UNL     1      -3.955   1.647   9.958  1.00  0.00     0.277 HD
ATOM      6  H21 UNL     1      -4.479   0.207  10.157  1.00  0.00     0.277 HD
BRANCH   4   7
HETATM    7  C4  UNL     1      -2.726   0.540  11.185  1.00  0.00     0.262 C 
BRANCH   7   8
HETATM    8  C3  UNL     1      -1.612   1.076  10.329  1.00  0.00     0.298 C 
BRANCH   8   9
HETATM    9  N1  UNL     1      -1.753   2.512  10.217  1.00  0.00     0.081 N 
HETATM   10  C1  UNL     1      -0.972   3.023   9.092  1.00  0.00     0.309 C 
HETATM   11  C2  UNL     1      -1.304   3.161  11.446  1.00  0.00     0.309 C 
ENDBRANCH   8   9
ENDBRANCH   7   8
ENDBRANCH   4   7
ENDBRANCH   3   4
ENDBRANCH   2   3
ENDBRANCH   1   2
BRANCH   1  12
HETATM   12  C7  UNL     1      -4.539   3.150  13.709  1.00  0.00     0.090 C 
BRANCH  12  13
HETATM   13  C8  UNL     1      -3.929   4.229  14.499  1.00  0.00     0.277 C 
BRANCH  13  14
HETATM   14  N4  UNL     1      -4.666   5.431  14.616  1.00  0.00    -0.066 N 
ATOM     15  H42 UNL     1      -4.714   5.751  15.583  1.00  0.00     0.277 HD
ATOM     16  H41 UNL     1      -4.162   6.223  14.216  1.00  0.00     0.277 HD
BRANCH  14  17
HETATM   17  C9  UNL     1      -6.010   5.286  14.025  1.00  0.00     0.289 C 
BRANCH  17  18
HETATM   18  C10 UNL     1      -6.088   6.353  12.962  1.00  0.00     0.034 A 
HETATM   19  C11 UNL     1      -7.332   6.871  12.705  1.00  0.00     0.027 A 
HETATM   20  C12 UNL     1      -7.422   7.878  11.743  1.00  0.00     0.003 A 
HETATM   21  C13 UNL     1      -6.261   8.276  11.123  1.00  0.00     0.017 A 
HETATM   22  C14 UNL     1      -5.021   7.744  11.394  1.00  0.00     0.088 A 
HETATM   23  N5  UNL     1      -4.971   6.763  12.339  1.00  0.00    -0.368 N 
ATOM     24  H5  UNL     1      -4.076   6.335  12.576  1.00  0.00     0.165 HD
ENDBRANCH  17  18
ENDBRANCH  14  17
ENDBRANCH  13  14
ENDBRANCH  12  13
ENDBRANCH   1  12
BRANCH   1  25
HETATM   25  C15 UNL     1      -4.255   1.402  15.435  1.00  0.00     0.095 C 
BRANCH  25  26
HETATM   26  C16 UNL     1      -5.361   1.341  16.436  1.00  0.00     0.161 C 
HETATM   27  C17 UNL     1      -6.515   2.256  16.354  1.00  0.00     0.063 C 
HETATM   28  C18 UNL     1      -7.140   1.078  17.135  1.00  0.00     0.171 C 
HETATM   29  O1  UNL     1      -6.203   0.276  16.454  1.00  0.00    -0.381 OA
ENDBRANCH  25  26
ENDBRANCH   1  25
TORSDOF 13
ENDMDL
MODEL 2
REMARK VINA RESULT: -6.376150505      2.800      4.224
REMARK  13 active torsions:
REMARK  status: ('A' for Active; 'I' for Inactive)
REMARK    1  A    between atoms: N1_2  and  C3_4 
REMARK    2  A    between atoms: C3_4  and  C4_5 
REMARK    3  A    between atoms: C4_5  and  N2_6 
REMARK    4  A    between atoms: N2_6  and  C5_9 
REMARK    5  A    between atoms: C5_9  and  C6_10 
REMARK    6  A    between atoms: C6_10  and  N3_11 
REMARK    7  A    between atoms: N3_11  and  C7_12 
REMARK    8  A    between atoms: N3_11  and  C15_25 
REMARK    9  A    between atoms: C7_12  and  C8_13 
REMARK   10  A    between atoms: C8_13  and  N4_14 
REMARK   11  A    between atoms: N4_14  and  C9_17 
REMARK   12  A    between atoms: C9_17  and  C10_18 
REMARK   13  A    between atoms: C15_25  and  C16_26 
ROOT
HETATM    1  N3  UNL     1      -4.297   2.500  14.810  1.00  0.00    -0.368 N 
ENDROOT
BRANCH   1   2
HETATM    2  C6  UNL     1      -4.344   1.675  13.615  1.00  0.00     0.154 C 
BRANCH   2   3
HETATM    3  C5  UNL     1      -4.660   2.566  12.398  1.00  0.00     0.252 C 
BRANCH   3   4
HETATM    4  N2  UNL     1      -5.297   1.796  11.381  1.00  0.00    -0.072 N 
ATOM      5  H22 UNL     1      -5.966   2.351  10.846  1.00  0.00     0.277 HD
ATOM      6  H21 UNL     1      -5.947   1.113  11.771  1.00  0.00     0.277 HD
BRANCH   4   7
HETATM    7  C4  UNL     1      -4.306   1.174  10.528  1.00  0.00     0.262 C 
BRANCH   7   8
HETATM    8  C3  UNL     1      -4.360  -0.327  10.606  1.00  0.00     0.298 C 
BRANCH   8   9
HETATM    9  N1  UNL     1      -3.020  -0.856  10.471  1.00  0.00     0.081 N 
HETATM   10  C1  UNL     1      -2.877  -2.102  11.220  1.00  0.00     0.309 C 
HETATM   11  C2  UNL     1      -2.043   0.114  10.961  1.00  0.00     0.309 C 
ENDBRANCH   8   9
ENDBRANCH   7   8
ENDBRANCH   4   7
ENDBRANCH   3   4
ENDBRANCH   2   3
ENDBRANCH   1   2
BRANCH   1  12
HETATM   12  C7  UNL     1      -3.972   3.828  14.593  1.00  0.00     0.090 C 
BRANCH  12  13
HETATM   13  C8  UNL     1      -2.630   4.336  14.910  1.00  0.00     0.277 C 
BRANCH  13  14
HETATM   14  N4  UNL     1      -1.613   4.096  13.955  1.00  0.00    -0.066 N 
ATOM     15  H42 UNL     1      -0.683   4.206  14.359  1.00  0.00     0.277 HD
ATOM     16  H41 UNL     1      -1.557   3.109  13.706  1.00  0.00     0.277 HD
BRANCH  14  17
HETATM   17  C9  UNL     1      -1.794   4.949  12.766  1.00  0.00     0.289 C 
BRANCH  17  18
HETATM   18  C10 UNL     1      -0.879   4.363  11.720  1.00  0.00     0.034 A 
HETATM   19  C11 UNL     1      -1.484   3.797  10.626  1.00  0.00     0.027 A 
HETATM   20  C12 UNL     1      -0.655   3.272   9.634  1.00  0.00     0.003 A 
HETATM   21  C13 UNL     1       0.705   3.356   9.825  1.00  0.00     0.017 A 
HETATM   22  C14 UNL     1       1.293   3.927  10.931  1.00  0.00     0.088 A 
HETATM   23  N5  UNL     1       0.452   4.430  11.878  1.00  0.00    -0.368 N 
ATOM     24  H5  UNL     1       0.839   4.863  12.718  1.00  0.00     0.165 HD
ENDBRANCH  17  18
ENDBRANCH  14  17
ENDBRANCH  13  14
ENDBRANCH  12  13
ENDBRANCH   1  12
BRANCH   1  25
HETATM   25  C15 UNL     1      -4.209   1.807  15.999  1.00  0.00     0.095 C 
BRANCH  25  26
HETATM   26  C16 UNL     1      -5.442   1.470  16.769  1.00  0.00     0.161 C 
HETATM   27  C17 UNL     1      -6.668   2.282  16.641  1.00  0.00     0.063 C 
HETATM   28  C18 UNL     1      -7.267   0.933  17.097  1.00  0.00     0.171 C 
HETATM   29  O1  UNL     1      -6.149   0.351  16.466  1.00  0.00    -0.381 OA
ENDBRANCH  25  26
ENDBRANCH   1  25
TORSDOF 13
ENDMDL
MODEL 3
REMARK VINA RESULT: -6.204790891      1.580      2.073
REMARK  13 active torsions:
REMARK  status: ('A' for Active; 'I' for Inactive)
REMARK    1  A    between atoms: N1_2  and  C3_4 
REMARK    2  A    between atoms: C3_4  and  C4_5 
REMARK    3  A    between atoms: C4_5  and  N2_6 
REMARK    4  A    between atoms: N2_6  and  C5_9 
REMARK    5  A    between atoms: C5_9  and  C6_10 
REMARK    6  A    between atoms: C6_10  and  N3_11 
REMARK    7  A    between atoms: N3_11  and  C7_12 
REMARK    8  A    between atoms: N3_11  and  C15_25 
REMARK    9  A    between atoms: C7_12  and  C8_13 
REMARK   10  A    between atoms: C8_13  and  N4_14 
REMARK   11  A    between atoms: N4_14  and  C9_17 
REMARK   12  A    between atoms: C9_17  and  C10_18 
REMARK   13  A    between atoms: C15_25  and  C16_26 
ROOT
HETATM    1  N3  UNL     1      -4.411   2.881  15.015  1.00  0.00    -0.368 N 
ENDROOT
BRANCH   1   2
HETATM    2  C6  UNL     1      -5.255   2.578  13.873  1.00  0.00     0.154 C 
BRANCH   2   3
HETATM    3  C5  UNL     1      -4.408   1.885  12.788  1.00  0.00     0.252 C 
BRANCH   3   4
HETATM    4  N2  UNL     1      -5.082   1.937  11.533  1.00  0.00    -0.072 N 
ATOM      5  H22 UNL     1      -5.285   2.895  11.249  1.00  0.00     0.277 HD
ATOM      6  H21 UNL     1      -6.041   1.594  11.601  1.00  0.00     0.277 HD
BRANCH   4   7
HETATM    7  C4  UNL     1      -4.323   1.223  10.526  1.00  0.00     0.262 C 
BRANCH   7   8
HETATM    8  C3  UNL     1      -4.355  -0.264  10.748  1.00  0.00     0.298 C 
BRANCH   8   9
HETATM    9  N1  UNL     1      -3.046  -0.811  10.463  1.00  0.00     0.081 N 
HETATM   10  C1  UNL     1      -2.828  -2.048  11.210  1.00  0.00     0.309 C 
HETATM   11  C2  UNL     1      -2.007   0.154  10.819  1.00  0.00     0.309 C 
ENDBRANCH   8   9
ENDBRANCH   7   8
ENDBRANCH   4   7
ENDBRANCH   3   4
ENDBRANCH   2   3
ENDBRANCH   1   2
BRANCH   1  12
HETATM   12  C7  UNL     1      -3.565   3.965  14.849  1.00  0.00     0.090 C 
BRANCH  12  13
HETATM   13  C8  UNL     1      -4.103   5.320  14.668  1.00  0.00     0.277 C 
BRANCH  13  14
HETATM   14  N4  UNL     1      -3.590   6.073  13.586  1.00  0.00    -0.066 N 
ATOM     15  H42 UNL     1      -3.707   7.075  13.735  1.00  0.00     0.277 HD
ATOM     16  H41 UNL     1      -2.571   6.040  13.554  1.00  0.00     0.277 HD
BRANCH  14  17
HETATM   17  C9  UNL     1      -4.189   5.640  12.310  1.00  0.00     0.289 C 
BRANCH  17  18
HETATM   18  C10 UNL     1      -4.994   6.822  11.832  1.00  0.00     0.034 A 
HETATM   19  C11 UNL     1      -6.338   6.798  12.106  1.00  0.00     0.027 A 
HETATM   20  C12 UNL     1      -7.096   7.896  11.695  1.00  0.00     0.003 A 
HETATM   21  C13 UNL     1      -6.444   8.918  11.046  1.00  0.00     0.017 A 
HETATM   22  C14 UNL     1      -5.093   8.924  10.780  1.00  0.00     0.088 A 
HETATM   23  N5  UNL     1      -4.385   7.836  11.197  1.00  0.00    -0.368 N 
ATOM     24  H5  UNL     1      -3.380   7.791  11.023  1.00  0.00     0.165 HD
ENDBRANCH  17  18
ENDBRANCH  14  17
ENDBRANCH  13  14
ENDBRANCH  12  13
ENDBRANCH   1  12
BRANCH   1  25
HETATM   25  C15 UNL     1      -4.286   1.865  15.938  1.00  0.00     0.095 C 
BRANCH  25  26
HETATM   26  C16 UNL     1      -5.453   1.455  16.773  1.00  0.00     0.161 C 
HETATM   27  C17 UNL     1      -6.669   2.288  16.845  1.00  0.00     0.063 C 
HETATM   28  C18 UNL     1      -7.253   0.902  17.199  1.00  0.00     0.171 C 
HETATM   29  O1  UNL     1      -6.206   0.384  16.411  1.00  0.00    -0.381 OA
ENDBRANCH  25  26
ENDBRANCH   1  25
TORSDOF 13
ENDMDL
MODEL 4
REMARK VINA RESULT: -6.161459987      2.778      3.497
REMARK  13 active torsions:
REMARK  status: ('A' for Active; 'I' for Inactive)
REMARK    1  A    between atoms: N1_2  and  C3_4 
REMARK    2  A    between atoms: C3_4  and  C4_5 
REMARK    3  A    between atoms: C4_5  and  N2_6 
REMARK    4  A    between atoms: N2_6  and  C5_9 
REMARK    5  A    between atoms: C5_9  and  C6_10 
REMARK    6  A    between atoms: C6_10  and  N3_11 
REMARK    7  A    between atoms: N3_11  and  C7_12 
REMARK    8  A    between atoms: N3_11  and  C15_25 
REMARK    9  A    between atoms: C7_12  and  C8_13 
REMARK   10  A    between atoms: C8_13  and  N4_14 
REMARK   11  A    between atoms: N4_14  and  C9_17 
REMARK   12  A    between atoms: C9_17  and  C10_18 
REMARK   13  A    between atoms: C15_25  and  C16_26 
ROOT
HETATM    1  N3  UNL     1      -4.470   2.699  14.468  1.00  0.00    -0.368 N 
ENDROOT
BRANCH   1   2
HETATM    2  C6  UNL     1      -5.023   2.275  13.193  1.00  0.00     0.154 C 
BRANCH   2   3
HETATM    3  C5  UNL     1      -4.338   3.063  12.059  1.00  0.00     0.252 C 
BRANCH   3   4
HETATM    4  N2  UNL     1      -4.600   2.439  10.804  1.00  0.00    -0.072 N 
ATOM      5  H22 UNL     1      -3.804   2.508  10.171  1.00  0.00     0.277 HD
ATOM      6  H21 UNL     1      -5.278   2.965  10.252  1.00  0.00     0.277 HD
BRANCH   4   7
HETATM    7  C4  UNL     1      -5.015   1.066  11.003  1.00  0.00     0.262 C 
BRANCH   7   8
HETATM    8  C3  UNL     1      -4.105   0.097  10.300  1.00  0.00     0.298 C 
BRANCH   8   9
HETATM    9  N1  UNL     1      -3.053  -0.306  11.209  1.00  0.00     0.081 N 
HETATM   10  C1  UNL     1      -1.799   0.367  10.878  1.00  0.00     0.309 C 
HETATM   11  C2  UNL     1      -2.854  -1.751  11.142  1.00  0.00     0.309 C 
ENDBRANCH   8   9
ENDBRANCH   7   8
ENDBRANCH   4   7
ENDBRANCH   3   4
ENDBRANCH   2   3
ENDBRANCH   1   2
BRANCH   1  12
HETATM   12  C7  UNL     1      -3.825   3.924  14.450  1.00  0.00     0.090 C 
BRANCH  12  13
HETATM   13  C8  UNL     1      -2.468   4.068  14.995  1.00  0.00     0.277 C 
BRANCH  13  14
HETATM   14  N4  UNL     1      -1.523   4.746  14.189  1.00  0.00    -0.066 N 
ATOM     15  H42 UNL     1      -0.775   5.156  14.748  1.00  0.00     0.277 HD
ATOM     16  H41 UNL     1      -0.965   4.095  13.636  1.00  0.00     0.277 HD
BRANCH  14  17
HETATM   17  C9  UNL     1      -2.182   5.756  13.339  1.00  0.00     0.289 C 
BRANCH  17  18
HETATM   18  C10 UNL     1      -1.658   7.082  13.829  1.00  0.00     0.034 A 
HETATM   19  C11 UNL     1      -2.322   7.651  14.886  1.00  0.00     0.027 A 
HETATM   20  C12 UNL     1      -1.836   8.867  15.370  1.00  0.00     0.003 A 
HETATM   21  C13 UNL     1      -0.731   9.406  14.754  1.00  0.00     0.017 A 
HETATM   22  C14 UNL     1      -0.078   8.820  13.693  1.00  0.00     0.088 A 
HETATM   23  N5  UNL     1      -0.580   7.634  13.247  1.00  0.00    -0.368 N 
ATOM     24  H5  UNL     1      -0.132   7.159  12.463  1.00  0.00     0.165 HD
ENDBRANCH  17  18
ENDBRANCH  14  17
ENDBRANCH  13  14
ENDBRANCH  12  13
ENDBRANCH   1  12
BRANCH   1  25
HETATM   25  C15 UNL     1      -4.328   1.700  15.408  1.00  0.00     0.095 C 
BRANCH  25  26
HETATM   26  C16 UNL     1      -5.389   1.471  16.432  1.00  0.00     0.161 C 
HETATM   27  C17 UNL     1      -6.601   2.311  16.476  1.00  0.00     0.063 C 
HETATM   28  C18 UNL     1      -7.121   1.026  17.159  1.00  0.00     0.171 C 
HETATM   29  O1  UNL     1      -6.161   0.355  16.375  1.00  0.00    -0.381 OA
ENDBRANCH  25  26
ENDBRANCH   1  25
TORSDOF 13
ENDMDL
MODEL 5
REMARK VINA RESULT: -6.092526878      1.499      5.474
REMARK  13 active torsions:
REMARK  status: ('A' for Active; 'I' for Inactive)
REMARK    1  A    between atoms: N1_2  and  C3_4 
REMARK    2  A    between atoms: C3_4  and  C4_5 
REMARK    3  A    between atoms: C4_5  and  N2_6 
REMARK    4  A    between atoms: N2_6  and  C5_9 
REMARK    5  A    between atoms: C5_9  and  C6_10 
REMARK    6  A    between atoms: C6_10  and  N3_11 
REMARK    7  A    between atoms: N3_11  and  C7_12 
REMARK    8  A    between atoms: N3_11  and  C15_25 
REMARK    9  A    between atoms: C7_12  and  C8_13 
REMARK   10  A    between atoms: C8_13  and  N4_14 
REMARK   11  A    between atoms: N4_14  and  C9_17 
REMARK   12  A    between atoms: C9_17  and  C10_18 
REMARK   13  A    between atoms: C15_25  and  C16_26 
ROOT
HETATM    1  N3  UNL     1      -4.455   3.301  14.499  1.00  0.00    -0.368 N 
ENDROOT
BRANCH   1   2
HETATM    2  C6  UNL     1      -5.428   3.889  13.595  1.00  0.00     0.154 C 
BRANCH   2   3
HETATM    3  C5  UNL     1      -6.094   5.096  14.284  1.00  0.00     0.252 C 
BRANCH   3   4
HETATM    4  N2  UNL     1      -6.528   6.039  13.307  1.00  0.00    -0.072 N 
ATOM      5  H22 UNL     1      -7.070   6.796  13.723  1.00  0.00     0.277 HD
ATOM      6  H21 UNL     1      -7.251   5.652  12.700  1.00  0.00     0.277 HD
BRANCH   4   7
HETATM    7  C4  UNL     1      -5.396   6.535  12.552  1.00  0.00     0.262 C 
BRANCH   7   8
HETATM    8  C3  UNL     1      -5.738   6.748  11.103  1.00  0.00     0.298 C 
BRANCH   8   9
HETATM    9  N1  UNL     1      -6.458   7.996  10.966  1.00  0.00     0.081 N 
HETATM   10  C1  UNL     1      -7.387   7.936   9.840  1.00  0.00     0.309 C 
HETATM   11  C2  UNL     1      -5.522   9.098  10.759  1.00  0.00     0.309 C 
ENDBRANCH   8   9
ENDBRANCH   7   8
ENDBRANCH   4   7
ENDBRANCH   3   4
ENDBRANCH   2   3
ENDBRANCH   1   2
BRANCH   1  12
HETATM   12  C7  UNL     1      -3.329   4.073  14.731  1.00  0.00     0.090 C 
BRANCH  12  13
HETATM   13  C8  UNL     1      -2.516   4.575  13.615  1.00  0.00     0.277 C 
BRANCH  13  14
HETATM   14  N4  UNL     1      -1.861   3.607  12.815  1.00  0.00    -0.066 N 
ATOM     15  H42 UNL     1      -0.852   3.753  12.798  1.00  0.00     0.277 HD
ATOM     16  H41 UNL     1      -1.877   2.685  13.251  1.00  0.00     0.277 HD
BRANCH  14  17
HETATM   17  C9  UNL     1      -2.429   3.576  11.454  1.00  0.00     0.289 C 
BRANCH  17  18
HETATM   18  C10 UNL     1      -2.775   2.129  11.207  1.00  0.00     0.034 A 
HETATM   19  C11 UNL     1      -4.075   1.861  10.859  1.00  0.00     0.027 A 
HETATM   20  C12 UNL     1      -4.408   0.531  10.601  1.00  0.00     0.003 A 
HETATM   21  C13 UNL     1      -3.415  -0.413  10.715  1.00  0.00     0.017 A 
HETATM   22  C14 UNL     1      -2.115  -0.124  11.067  1.00  0.00     0.088 A 
HETATM   23  N5  UNL     1      -1.826   1.185  11.311  1.00  0.00    -0.368 N 
ATOM     24  H5  UNL     1      -0.877   1.451  11.576  1.00  0.00     0.165 HD
ENDBRANCH  17  18
ENDBRANCH  14  17
ENDBRANCH  13  14
ENDBRANCH  12  13
ENDBRANCH   1  12
BRANCH   1  25
HETATM   25  C15 UNL     1      -4.588   1.944  14.704  1.00  0.00     0.095 C 
BRANCH  25  26
HETATM   26  C16 UNL     1      -4.999   1.419  16.039  1.00  0.00     0.161 C 
HETATM   27  C17 UNL     1      -6.251   1.863  16.681  1.00  0.00     0.063 C 
HETATM   28  C18 UNL     1      -6.057   0.487  17.356  1.00  0.00     0.171 C 
HETATM   29  O1  UNL     1      -5.387   0.125  16.171  1.00  0.00    -0.381 OA
ENDBRANCH  25  26
ENDBRANCH   1  25
TORSDOF 13
ENDMDL
