MODEL 1
REMARK VINA RESULT: -5.487090809      0.000      0.000
REMARK  10 active torsions:
REMARK  status: ('A' for Active; 'I' for Inactive)
REMARK    1  A    between atoms: C2_2  and  C3_3 
REMARK    2  A    between atoms: C3_3  and  C4_4 
REMARK    3  A    between atoms: C4_4  and  C5_5 
REMARK    4  A    between atoms: C5_5  and  C6_6 
REMARK    5  A    between atoms: C6_6  and  C7_7 
REMARK    6  A    between atoms: C7_7  and  C8_8 
REMARK    7  A    between atoms: C7_7  and  N1_12 
REMARK    8  A    between atoms: C8_8  and  O1_10 
REMARK    9  A    between atoms: N1_12  and  C11_14 
REMARK   10  A    between atoms: C11_14  and  C12_15 
ROOT
HETATM    1  C7  UNL     1      -4.654   2.692  14.003  1.00  0.00     0.250 C 
ENDROOT
BRANCH   1   2
HETATM    2  C6  UNL     1      -4.767   2.166  12.585  1.00  0.00     0.038 C 
BRANCH   2   3
HETATM    3  C5  UNL     1      -4.299   0.773  12.421  1.00  0.00     0.002 C 
BRANCH   3   4
HETATM    4  C4  UNL     1      -4.401   0.351  10.983  1.00  0.00     0.004 C 
BRANCH   4   5
HETATM    5  C3  UNL     1      -3.151  -0.296  10.490  1.00  0.00     0.026 C 
BRANCH   5   6
HETATM    6  C2  UNL     1      -1.993   0.516  11.033  1.00  0.00    -0.037 C 
HETATM    7  C1  UNL     1      -1.370   1.334  10.223  1.00  0.00     0.007 C 
ENDBRANCH   5   6
ENDBRANCH   4   5
ENDBRANCH   3   4
ENDBRANCH   2   3
ENDBRANCH   1   2
BRANCH   1   8
HETATM    8  C8  UNL     1      -3.695   3.813  14.074  1.00  0.00     0.147 C 
HETATM    9  C9  UNL     1      -2.965   3.997  12.756  1.00  0.00     0.041 C 
BRANCH   8  10
HETATM   10  O1  UNL     1      -2.722   3.689  15.037  1.00  0.00    -0.394 OA
ATOM     11  H1  UNL     1      -2.154   4.444  15.137  1.00  0.00     0.210 HD
ENDBRANCH   8  10
ENDBRANCH   1   8
BRANCH   1  12
HETATM   12  N1  UNL     1      -6.001   3.035  14.450  1.00  0.00     0.093 N 
HETATM   13  C10 UNL     1      -6.170   4.490  14.378  1.00  0.00     0.310 C 
BRANCH  12  14
HETATM   14  C11 UNL     1      -6.171   2.708  15.852  1.00  0.00     0.306 C 
BRANCH  14  15
HETATM   15  C12 UNL     1      -5.625   1.357  16.153  1.00  0.00     0.173 A 
HETATM   16  C13 UNL     1      -5.825   0.778  17.545  1.00  0.00     0.201 A 
HETATM   17  O2  UNL     1      -6.420   0.277  16.413  1.00  0.00    -0.379 OA
ENDBRANCH  14  15
ENDBRANCH  12  14
ENDBRANCH   1  12
TORSDOF 10
ENDMDL
MODEL 2
REMARK VINA RESULT: -5.433449776      2.461      5.354
REMARK  10 active torsions:
REMARK  status: ('A' for Active; 'I' for Inactive)
REMARK    1  A    between atoms: C2_2  and  C3_3 
REMARK    2  A    between atoms: C3_3  and  C4_4 
REMARK    3  A    between atoms: C4_4  and  C5_5 
REMARK    4  A    between atoms: C5_5  and  C6_6 
REMARK    5  A    between atoms: C6_6  and  C7_7 
REMARK    6  A    between atoms: C7_7  and  C8_8 
REMARK    7  A    between atoms: C7_7  and  N1_12 
REMARK    8  A    between atoms: C8_8  and  O1_10 
REMARK    9  A    between atoms: N1_12  and  C11_14 
REMARK   10  A    between atoms: C11_14  and  C12_15 
ROOT
HETATM    1  C7  UNL     1      -4.526   2.901  14.669  1.00  0.00     0.250 C 
ENDROOT
BRANCH   1   2
HETATM    2  C6  UNL     1      -5.866   3.527  14.336  1.00  0.00     0.038 C 
BRANCH   2   3
HETATM    3  C5  UNL     1      -5.963   4.962  14.683  1.00  0.00     0.002 C 
BRANCH   3   4
HETATM    4  C4  UNL     1      -6.558   5.738  13.542  1.00  0.00     0.004 C 
BRANCH   4   5
HETATM    5  C3  UNL     1      -5.526   6.472  12.755  1.00  0.00     0.026 C 
BRANCH   5   6
HETATM    6  C2  UNL     1      -6.249   7.149  11.607  1.00  0.00    -0.037 C 
HETATM    7  C1  UNL     1      -7.385   7.751  11.854  1.00  0.00     0.007 C 
ENDBRANCH   5   6
ENDBRANCH   4   5
ENDBRANCH   3   4
ENDBRANCH   2   3
ENDBRANCH   1   2
BRANCH   1   8
HETATM    8  C8  UNL     1      -4.697   1.723  15.542  1.00  0.00     0.147 C 
HETATM    9  C9  UNL     1      -5.754   1.974  16.602  1.00  0.00     0.041 C 
BRANCH   8  10
HETATM   10  O1  UNL     1      -3.565   1.326  16.215  1.00  0.00    -0.394 OA
ATOM     11  H1  UNL     1      -3.474   1.677  17.093  1.00  0.00     0.210 HD
ENDBRANCH   8  10
ENDBRANCH   1   8
BRANCH   1  12
HETATM   12  N1  UNL     1      -3.855   2.610  13.405  1.00  0.00     0.093 N 
HETATM   13  C10 UNL     1      -3.172   3.821  12.939  1.00  0.00     0.310 C 
BRANCH  12  14
HETATM   14  C11 UNL     1      -4.825   2.306  12.371  1.00  0.00     0.306 C 
BRANCH  14  15
HETATM   15  C12 UNL     1      -4.185   1.592  11.234  1.00  0.00     0.173 A 
HETATM   16  C13 UNL     1      -4.555   0.139  10.977  1.00  0.00     0.201 A 
HETATM   17  O2  UNL     1      -4.880   1.174  10.135  1.00  0.00    -0.379 OA
ENDBRANCH  14  15
ENDBRANCH  12  14
ENDBRANCH   1  12
TORSDOF 10
ENDMDL
MODEL 3
REMARK VINA RESULT: -5.346731151      2.293      5.262
REMARK  10 active torsions:
REMARK  status: ('A' for Active; 'I' for Inactive)
REMARK    1  A    between atoms: C2_2  and  C3_3 
REMARK    2  A    between atoms: C3_3  and  C4_4 
REMARK    3  A    between atoms: C4_4  and  C5_5 
REMARK    4  A    between atoms: C5_5  and  C6_6 
REMARK    5  A    between atoms: C6_6  and  C7_7 
REMARK    6  A    between atoms: C7_7  and  C8_8 
REMARK    7  A    between atoms: C7_7  and  N1_12 
REMARK    8  A    between atoms: C8_8  and  O1_10 
REMARK    9  A    between atoms: N1_12  and  C11_14 
REMARK   10  A    between atoms: C11_14  and  C12_15 
ROOT
HETATM    1  C7  UNL     1      -4.739   2.870  13.978  1.00  0.00     0.250 C 
ENDROOT
BRANCH   1   2
HETATM    2  C6  UNL     1      -3.856   2.940  15.209  1.00  0.00     0.038 C 
BRANCH   2   3
HETATM    3  C5  UNL     1      -3.833   1.693  16.003  1.00  0.00     0.002 C 
BRANCH   3   4
HETATM    4  C4  UNL     1      -5.113   0.929  15.818  1.00  0.00     0.004 C 
BRANCH   4   5
HETATM    5  C3  UNL     1      -5.809   0.663  17.111  1.00  0.00     0.026 C 
BRANCH   5   6
HETATM    6  C2  UNL     1      -7.129   1.406  17.059  1.00  0.00    -0.037 C 
HETATM    7  C1  UNL     1      -7.108   2.710  16.955  1.00  0.00     0.007 C 
ENDBRANCH   5   6
ENDBRANCH   4   5
ENDBRANCH   3   4
ENDBRANCH   2   3
ENDBRANCH   1   2
BRANCH   1   8
HETATM    8  C8  UNL     1      -5.363   4.180  13.703  1.00  0.00     0.147 C 
HETATM    9  C9  UNL     1      -4.958   5.211  14.740  1.00  0.00     0.041 C 
BRANCH   8  10
HETATM   10  O1  UNL     1      -6.738   4.178  13.681  1.00  0.00    -0.394 OA
ATOM     11  H1  UNL     1      -7.133   4.809  13.090  1.00  0.00     0.210 HD
ENDBRANCH   8  10
ENDBRANCH   1   8
BRANCH   1  12
HETATM   12  N1  UNL     1      -3.921   2.362  12.881  1.00  0.00     0.093 N 
HETATM   13  C10 UNL     1      -3.822   3.394  11.843  1.00  0.00     0.310 C 
BRANCH  12  14
HETATM   14  C11 UNL     1      -4.576   1.242  12.234  1.00  0.00     0.306 C 
BRANCH  14  15
HETATM   15  C12 UNL     1      -4.033   1.026  10.866  1.00  0.00     0.173 A 
HETATM   16  C13 UNL     1      -3.630  -0.380  10.449  1.00  0.00     0.201 A 
HETATM   17  O2  UNL     1      -4.692   0.304   9.911  1.00  0.00    -0.379 OA
ENDBRANCH  14  15
ENDBRANCH  12  14
ENDBRANCH   1  12
TORSDOF 10
ENDMDL
MODEL 4
REMARK VINA RESULT: -5.331483302      2.354      5.705
REMARK  10 active torsions:
REMARK  status: ('A' for Active; 'I' for Inactive)
REMARK    1  A    between atoms: C2_2  and  C3_3 
REMARK    2  A    between atoms: C3_3  and  C4_4 
REMARK    3  A    between atoms: C4_4  and  C5_5 
REMARK    4  A    between atoms: C5_5  and  C6_6 
REMARK    5  A    between atoms: C6_6  and  C7_7 
REMARK    6  A    between atoms: C7_7  and  C8_8 
REMARK    7  A    between atoms: C7_7  and  N1_12 
REMARK    8  A    between atoms: C8_8  and  O1_10 
REMARK    9  A    between atoms: N1_12  and  C11_14 
REMARK   10  A    between atoms: C11_14  and  C12_15 
ROOT
HETATM    1  C7  UNL     1      -4.546   2.692  14.456  1.00  0.00     0.250 C 
ENDROOT
BRANCH   1   2
HETATM    2  C6  UNL     1      -5.728   3.612  14.692  1.00  0.00     0.038 C 
BRANCH   2   3
HETATM    3  C5  UNL     1      -5.411   5.049  14.541  1.00  0.00     0.002 C 
BRANCH   3   4
HETATM    4  C4  UNL     1      -6.473   5.737  13.730  1.00  0.00     0.004 C 
BRANCH   4   5
HETATM    5  C3  UNL     1      -5.903   6.520  12.595  1.00  0.00     0.026 C 
BRANCH   5   6
HETATM    6  C2  UNL     1      -7.048   7.300  11.982  1.00  0.00    -0.037 C 
HETATM    7  C1  UNL     1      -6.780   8.431  11.380  1.00  0.00     0.007 C 
ENDBRANCH   5   6
ENDBRANCH   4   5
ENDBRANCH   3   4
ENDBRANCH   2   3
ENDBRANCH   1   2
BRANCH   1   8
HETATM    8  C8  UNL     1      -4.601   1.523  15.357  1.00  0.00     0.147 C 
HETATM    9  C9  UNL     1      -5.796   1.603  16.289  1.00  0.00     0.041 C 
BRANCH   8  10
HETATM   10  O1  UNL     1      -3.498   1.353  16.160  1.00  0.00    -0.394 OA
ATOM     11  H1  UNL     1      -2.821   0.790  15.803  1.00  0.00     0.210 HD
ENDBRANCH   8  10
ENDBRANCH   1   8
BRANCH   1  12
HETATM   12  N1  UNL     1      -4.537   2.346  13.038  1.00  0.00     0.093 N 
HETATM   13  C10 UNL     1      -4.331   0.901  12.901  1.00  0.00     0.310 C 
BRANCH  12  14
HETATM   14  C11 UNL     1      -3.399   2.951  12.374  1.00  0.00     0.306 C 
BRANCH  14  15
HETATM   15  C12 UNL     1      -2.718   1.971  11.486  1.00  0.00     0.173 A 
HETATM   16  C13 UNL     1      -1.745   2.483  10.435  1.00  0.00     0.201 A 
HETATM   17  O2  UNL     1      -1.373   1.740  11.528  1.00  0.00    -0.379 OA
ENDBRANCH  14  15
ENDBRANCH  12  14
ENDBRANCH   1  12
TORSDOF 10
ENDMDL
MODEL 5
REMARK VINA RESULT: -5.328821587      2.051      5.067
REMARK  10 active torsions:
REMARK  status: ('A' for Active; 'I' for Inactive)
REMARK    1  A    between atoms: C2_2  and  C3_3 
REMARK    2  A    between atoms: C3_3  and  C4_4 
REMARK    3  A    between atoms: C4_4  and  C5_5 
REMARK    4  A    between atoms: C5_5  and  C6_6 
REMARK    5  A    between atoms: C6_6  and  C7_7 
REMARK    6  A    between atoms: C7_7  and  C8_8 
REMARK    7  A    between atoms: C7_7  and  N1_12 
REMARK    8  A    between atoms: C8_8  and  O1_10 
REMARK    9  A    between atoms: N1_12  and  C11_14 
REMARK   10  A    between atoms: C11_14  and  C12_15 
ROOT
HETATM    1  C7  UNL     1      -4.259   3.970  13.128  1.00  0.00     0.250 C 
ENDROOT
BRANCH   1   2
HETATM    2  C6  UNL     1      -5.547   3.395  13.685  1.00  0.00     0.038 C 
BRANCH   2   3
HETATM    3  C5  UNL     1      -6.039   4.084  14.897  1.00  0.00     0.002 C 
BRANCH   3   4
HETATM    4  C4  UNL     1      -6.359   3.086  15.974  1.00  0.00     0.004 C 
BRANCH   4   5
HETATM    5  C3  UNL     1      -5.322   2.020  16.088  1.00  0.00     0.026 C 
BRANCH   5   6
HETATM    6  C2  UNL     1      -5.937   0.895  16.897  1.00  0.00    -0.037 C 
HETATM    7  C1  UNL     1      -7.225   0.922  17.126  1.00  0.00     0.007 C 
ENDBRANCH   5   6
ENDBRANCH   4   5
ENDBRANCH   3   4
ENDBRANCH   2   3
ENDBRANCH   1   2
BRANCH   1   8
HETATM    8  C8  UNL     1      -3.464   4.610  14.195  1.00  0.00     0.147 C 
HETATM    9  C9  UNL     1      -3.008   5.998  13.782  1.00  0.00     0.041 C 
BRANCH   8  10
HETATM   10  O1  UNL     1      -2.329   3.929  14.566  1.00  0.00    -0.394 OA
ATOM     11  H1  UNL     1      -2.441   3.322  15.289  1.00  0.00     0.210 HD
ENDBRANCH   8  10
ENDBRANCH   1   8
BRANCH   1  12
HETATM   12  N1  UNL     1      -3.561   2.889  12.437  1.00  0.00     0.093 N 
HETATM   13  C10 UNL     1      -3.139   3.365  11.116  1.00  0.00     0.310 C 
BRANCH  12  14
HETATM   14  C11 UNL     1      -4.466   1.790  12.166  1.00  0.00     0.306 C 
BRANCH  14  15
HETATM   15  C12 UNL     1      -4.072   1.068  10.927  1.00  0.00     0.173 A 
HETATM   16  C13 UNL     1      -4.270  -0.439  10.860  1.00  0.00     0.201 A 
HETATM   17  O2  UNL     1      -4.976   0.463  10.101  1.00  0.00    -0.379 OA
ENDBRANCH  14  15
ENDBRANCH  12  14
ENDBRANCH   1  12
TORSDOF 10
ENDMDL
