MODEL 1
REMARK VINA RESULT: -6.072181274      0.000      0.000
REMARK  10 active torsions:
REMARK  status: ('A' for Active; 'I' for Inactive)
REMARK    1  A    between atoms: C2_2  and  C3_3 
REMARK    2  A    between atoms: C3_3  and  C4_4 
REMARK    3  A    between atoms: C4_4  and  C5_5 
REMARK    4  A    between atoms: C5_5  and  C6_6 
REMARK    5  A    between atoms: C6_6  and  N1_7 
REMARK    6  A    between atoms: N1_7  and  C7_10 
REMARK    7  A    between atoms: C7_10  and  C8_11 
REMARK    8  A    between atoms: C8_11  and  C9_12 
REMARK    9  A    between atoms: C9_12  and  N2_13 
REMARK   10  A    between atoms: C10_15  and  C11_16 
ROOT
HETATM    1  C8  UNL     1      -2.242   4.691  13.872  1.00  0.00     0.072 C 
ENDROOT
BRANCH   1   2
HETATM    2  C7  UNL     1      -1.966   4.326  12.427  1.00  0.00     0.237 C 
BRANCH   2   3
HETATM    3  N1  UNL     1      -0.739   3.573  12.419  1.00  0.00    -0.075 N 
ATOM      4  H12 UNL     1      -0.642   3.006  13.261  1.00  0.00     0.277 HD
ATOM      5  H11 UNL     1       0.073   4.177  12.544  1.00  0.00     0.277 HD
BRANCH   3   6
HETATM    6  C6  UNL     1      -0.628   2.784  11.241  1.00  0.00     0.232 C 
BRANCH   6   7
HETATM    7  C5  UNL     1      -1.912   2.151  10.795  1.00  0.00     0.028 C 
BRANCH   7   8
HETATM    8  C4  UNL     1      -2.071   0.705  11.068  1.00  0.00     0.005 C 
BRANCH   8   9
HETATM    9  C3  UNL     1      -3.435   0.201  10.674  1.00  0.00     0.026 C 
BRANCH   9  10
HETATM   10  C2  UNL     1      -3.722  -1.040  11.410  1.00  0.00    -0.037 C 
HETATM   11  C1  UNL     1      -2.965  -2.134  11.262  1.00  0.00     0.007 C 
ENDBRANCH   9  10
ENDBRANCH   8   9
ENDBRANCH   7   8
ENDBRANCH   6   7
ENDBRANCH   3   6
ENDBRANCH   2   3
ENDBRANCH   1   2
BRANCH   1  12
HETATM   12  C9  UNL     1      -3.399   3.894  14.422  1.00  0.00     0.062 C 
BRANCH  12  13
HETATM   13  N2  UNL     1      -3.761   2.707  13.795  1.00  0.00    -0.377 N 
HETATM   14  C10 UNL     1      -4.490   1.741  14.122  1.00  0.00     0.116 C 
ATOM     15  H2  UNL     1      -3.343   2.599  12.871  1.00  0.00     0.164 HD
BRANCH  14  16
HETATM   16  C11 UNL     1      -5.197   1.635  15.370  1.00  0.00     0.047 A 
HETATM   17  C12 UNL     1      -6.131   2.632  15.688  1.00  0.00     0.031 A 
HETATM   18  C13 UNL     1      -6.835   2.569  16.845  1.00  0.00     0.004 A 
HETATM   19  C14 UNL     1      -6.618   1.496  17.713  1.00  0.00     0.017 A 
HETATM   20  C15 UNL     1      -5.701   0.521  17.395  1.00  0.00     0.088 A 
HETATM   21  N3  UNL     1      -5.032   0.629  16.243  1.00  0.00    -0.365 N 
ATOM     22  H3  UNL     1      -4.354  -0.098  16.012  1.00  0.00     0.165 HD
ENDBRANCH  14  16
ENDBRANCH  12  13
ENDBRANCH   1  12
TORSDOF 10
ENDMDL
MODEL 2
REMARK VINA RESULT: -6.042018810      1.216      1.643
REMARK  10 active torsions:
REMARK  status: ('A' for Active; 'I' for Inactive)
REMARK    1  A    between atoms: C2_2  and  C3_3 
REMARK    2  A    between atoms: C3_3  and  C4_4 
REMARK    3  A    between atoms: C4_4  and  C5_5 
REMARK    4  A    between atoms: C5_5  and  C6_6 
REMARK    5  A    between atoms: C6_6  and  N1_7 
REMARK    6  A    between atoms: N1_7  and  C7_10 
REMARK    7  A    between atoms: C7_10  and  C8_11 
REMARK    8  A    between atoms: C8_11  and  C9_12 
REMARK    9  A    between atoms: C9_12  and  N2_13 
REMARK   10  A    between atoms: C10_15  and  C11_16 
ROOT
HETATM    1  C8  UNL     1      -2.731   4.412  13.957  1.00  0.00     0.072 C 
ENDROOT
BRANCH   1   2
HETATM    2  C7  UNL     1      -2.784   4.232  12.453  1.00  0.00     0.237 C 
BRANCH   2   3
HETATM    3  N1  UNL     1      -1.877   3.161  12.134  1.00  0.00    -0.075 N 
ATOM      4  H12 UNL     1      -2.182   2.278  12.541  1.00  0.00     0.277 HD
ATOM      5  H11 UNL     1      -0.989   3.262  12.626  1.00  0.00     0.277 HD
BRANCH   3   6
HETATM    6  C6  UNL     1      -1.687   3.051  10.729  1.00  0.00     0.232 C 
BRANCH   6   7
HETATM    7  C5  UNL     1      -1.312   1.677  10.259  1.00  0.00     0.028 C 
BRANCH   7   8
HETATM    8  C4  UNL     1      -1.805   0.540  11.069  1.00  0.00     0.005 C 
BRANCH   8   9
HETATM    9  C3  UNL     1      -3.121   0.011  10.559  1.00  0.00     0.026 C 
BRANCH   9  10
HETATM   10  C2  UNL     1      -4.182   0.352  11.518  1.00  0.00    -0.037 C 
HETATM   11  C1  UNL     1      -4.991   1.402  11.325  1.00  0.00     0.007 C 
ENDBRANCH   9  10
ENDBRANCH   8   9
ENDBRANCH   7   8
ENDBRANCH   6   7
ENDBRANCH   3   6
ENDBRANCH   2   3
ENDBRANCH   1   2
BRANCH   1  12
HETATM   12  C9  UNL     1      -3.990   5.065  14.472  1.00  0.00     0.062 C 
BRANCH  12  13
HETATM   13  N2  UNL     1      -5.215   4.691  13.931  1.00  0.00    -0.377 N 
HETATM   14  C10 UNL     1      -6.021   3.760  14.171  1.00  0.00     0.116 C 
ATOM     15  H2  UNL     1      -5.524   5.304  13.178  1.00  0.00     0.164 HD
BRANCH  14  16
HETATM   16  C11 UNL     1      -5.830   2.752  15.179  1.00  0.00     0.047 A 
HETATM   17  C12 UNL     1      -6.612   2.823  16.342  1.00  0.00     0.031 A 
HETATM   18  C13 UNL     1      -6.482   1.888  17.315  1.00  0.00     0.004 A 
HETATM   19  C14 UNL     1      -5.560   0.853  17.141  1.00  0.00     0.017 A 
HETATM   20  C15 UNL     1      -4.796   0.789  15.999  1.00  0.00     0.088 A 
HETATM   21  N3  UNL     1      -4.962   1.735  15.069  1.00  0.00    -0.365 N 
ATOM     22  H3  UNL     1      -4.393   1.681  14.224  1.00  0.00     0.165 HD
ENDBRANCH  14  16
ENDBRANCH  12  13
ENDBRANCH   1  12
TORSDOF 10
ENDMDL
MODEL 3
REMARK VINA RESULT: -6.018468080      1.079      1.246
REMARK  10 active torsions:
REMARK  status: ('A' for Active; 'I' for Inactive)
REMARK    1  A    between atoms: C2_2  and  C3_3 
REMARK    2  A    between atoms: C3_3  and  C4_4 
REMARK    3  A    between atoms: C4_4  and  C5_5 
REMARK    4  A    between atoms: C5_5  and  C6_6 
REMARK    5  A    between atoms: C6_6  and  N1_7 
REMARK    6  A    between atoms: N1_7  and  C7_10 
REMARK    7  A    between atoms: C7_10  and  C8_11 
REMARK    8  A    between atoms: C8_11  and  C9_12 
REMARK    9  A    between atoms: C9_12  and  N2_13 
REMARK   10  A    between atoms: C10_15  and  C11_16 
ROOT
HETATM    1  C8  UNL     1      -1.896   4.719  14.129  1.00  0.00     0.072 C 
ENDROOT
BRANCH   1   2
HETATM    2  C7  UNL     1      -1.316   4.866  12.736  1.00  0.00     0.237 C 
BRANCH   2   3
HETATM    3  N1  UNL     1      -0.867   3.558  12.337  1.00  0.00    -0.075 N 
ATOM      4  H12 UNL     1      -0.836   2.914  13.127  1.00  0.00     0.277 HD
ATOM      5  H11 UNL     1       0.124   3.558  12.097  1.00  0.00     0.277 HD
BRANCH   3   6
HETATM    6  C6  UNL     1      -1.662   3.044  11.276  1.00  0.00     0.232 C 
BRANCH   6   7
HETATM    7  C5  UNL     1      -1.120   1.798  10.641  1.00  0.00     0.028 C 
BRANCH   7   8
HETATM    8  C4  UNL     1      -1.912   0.560  10.824  1.00  0.00     0.005 C 
BRANCH   8   9
HETATM    9  C3  UNL     1      -3.252   0.835  11.455  1.00  0.00     0.026 C 
BRANCH   9  10
HETATM   10  C2  UNL     1      -4.074  -0.383  11.391  1.00  0.00    -0.037 C 
HETATM   11  C1  UNL     1      -3.522  -1.603  11.414  1.00  0.00     0.007 C 
ENDBRANCH   9  10
ENDBRANCH   8   9
ENDBRANCH   7   8
ENDBRANCH   6   7
ENDBRANCH   3   6
ENDBRANCH   2   3
ENDBRANCH   1   2
BRANCH   1  12
HETATM   12  C9  UNL     1      -3.341   5.154  14.164  1.00  0.00     0.062 C 
BRANCH  12  13
HETATM   13  N2  UNL     1      -4.248   4.558  13.297  1.00  0.00    -0.377 N 
HETATM   14  C10 UNL     1      -5.004   3.561  13.383  1.00  0.00     0.116 C 
ATOM     15  H2  UNL     1      -4.311   5.033  12.396  1.00  0.00     0.164 HD
BRANCH  14  16
HETATM   16  C11 UNL     1      -5.110   2.713  14.540  1.00  0.00     0.047 A 
HETATM   17  C12 UNL     1      -6.130   2.980  15.465  1.00  0.00     0.031 A 
HETATM   18  C13 UNL     1      -6.282   2.199  16.563  1.00  0.00     0.004 A 
HETATM   19  C14 UNL     1      -5.410   1.125  16.757  1.00  0.00     0.017 A 
HETATM   20  C15 UNL     1      -4.413   0.868  15.846  1.00  0.00     0.088 A 
HETATM   21  N3  UNL     1      -4.304   1.667  14.780  1.00  0.00    -0.365 N 
ATOM     22  H3  UNL     1      -3.562   1.470  14.107  1.00  0.00     0.165 HD
ENDBRANCH  14  16
ENDBRANCH  12  13
ENDBRANCH   1  12
TORSDOF 10
ENDMDL
MODEL 4
REMARK VINA RESULT: -6.013317910      1.537      5.814
REMARK  10 active torsions:
REMARK  status: ('A' for Active; 'I' for Inactive)
REMARK    1  A    between atoms: C2_2  and  C3_3 
REMARK    2  A    between atoms: C3_3  and  C4_4 
REMARK    3  A    between atoms: C4_4  and  C5_5 
REMARK    4  A    between atoms: C5_5  and  C6_6 
REMARK    5  A    between atoms: C6_6  and  N1_7 
REMARK    6  A    between atoms: N1_7  and  C7_10 
REMARK    7  A    between atoms: C7_10  and  C8_11 
REMARK    8  A    between atoms: C8_11  and  C9_12 
REMARK    9  A    between atoms: C9_12  and  N2_13 
REMARK   10  A    between atoms: C10_15  and  C11_16 
ROOT
HETATM    1  C8  UNL     1      -3.477   0.718  10.916  1.00  0.00     0.072 C 
ENDROOT
BRANCH   1   2
HETATM    2  C7  UNL     1      -4.218   0.563  12.229  1.00  0.00     0.237 C 
BRANCH   2   3
HETATM    3  N1  UNL     1      -3.750   1.614  13.093  1.00  0.00    -0.075 N 
ATOM      4  H12 UNL     1      -3.045   2.190  12.635  1.00  0.00     0.277 HD
ATOM      5  H11 UNL     1      -3.181   1.247  13.856  1.00  0.00     0.277 HD
BRANCH   3   6
HETATM    6  C6  UNL     1      -4.831   2.400  13.579  1.00  0.00     0.232 C 
BRANCH   6   7
HETATM    7  C5  UNL     1      -4.686   2.840  15.005  1.00  0.00     0.028 C 
BRANCH   7   8
HETATM    8  C4  UNL     1      -4.103   1.859  15.948  1.00  0.00     0.005 C 
BRANCH   8   9
HETATM    9  C3  UNL     1      -5.063   0.743  16.268  1.00  0.00     0.026 C 
BRANCH   9  10
HETATM   10  C2  UNL     1      -6.038   1.216  17.262  1.00  0.00    -0.037 C 
HETATM   11  C1  UNL     1      -7.355   1.189  17.020  1.00  0.00     0.007 C 
ENDBRANCH   9  10
ENDBRANCH   8   9
ENDBRANCH   7   8
ENDBRANCH   6   7
ENDBRANCH   3   6
ENDBRANCH   2   3
ENDBRANCH   1   2
BRANCH   1  12
HETATM   12  C9  UNL     1      -1.983   0.702  11.130  1.00  0.00     0.062 C 
BRANCH  12  13
HETATM   13  N2  UNL     1      -1.183   1.549  10.372  1.00  0.00    -0.377 N 
HETATM   14  C10 UNL     1      -0.946   2.780  10.407  1.00  0.00     0.116 C 
ATOM     15  H2  UNL     1      -0.681   1.065   9.627  1.00  0.00     0.164 HD
BRANCH  14  16
HETATM   16  C11 UNL     1      -1.523   3.697  11.353  1.00  0.00     0.047 A 
HETATM   17  C12 UNL     1      -2.665   4.415  10.967  1.00  0.00     0.031 A 
HETATM   18  C13 UNL     1      -3.256   5.279  11.828  1.00  0.00     0.004 A 
HETATM   19  C14 UNL     1      -2.712   5.442  13.105  1.00  0.00     0.017 A 
HETATM   20  C15 UNL     1      -1.592   4.735  13.477  1.00  0.00     0.088 A 
HETATM   21  N3  UNL     1      -1.046   3.896  12.592  1.00  0.00    -0.365 N 
ATOM     22  H3  UNL     1      -0.216   3.374  12.874  1.00  0.00     0.165 HD
ENDBRANCH  14  16
ENDBRANCH  12  13
ENDBRANCH   1  12
TORSDOF 10
ENDMDL
MODEL 5
REMARK VINA RESULT: -5.984685283      0.698      1.142
REMARK  10 active torsions:
REMARK  status: ('A' for Active; 'I' for Inactive)
REMARK    1  A    between atoms: C2_2  and  C3_3 
REMARK    2  A    between atoms: C3_3  and  C4_4 
REMARK    3  A    between atoms: C4_4  and  C5_5 
REMARK    4  A    between atoms: C5_5  and  C6_6 
REMARK    5  A    between atoms: C6_6  and  N1_7 
REMARK    6  A    between atoms: N1_7  and  C7_10 
REMARK    7  A    between atoms: C7_10  and  C8_11 
REMARK    8  A    between atoms: C8_11  and  C9_12 
REMARK    9  A    between atoms: C9_12  and  N2_13 
REMARK   10  A    between atoms: C10_15  and  C11_16 
ROOT
HETATM    1  C8  UNL     1      -2.101   4.706  13.733  1.00  0.00     0.072 C 
ENDROOT
BRANCH   1   2
HETATM    2  C7  UNL     1      -1.764   4.360  12.296  1.00  0.00     0.237 C 
BRANCH   2   3
HETATM    3  N1  UNL     1      -0.626   3.480  12.339  1.00  0.00    -0.075 N 
ATOM      4  H12 UNL     1      -0.663   2.857  13.146  1.00  0.00     0.277 HD
ATOM      5  H11 UNL     1       0.230   3.984  12.571  1.00  0.00     0.277 HD
BRANCH   3   6
HETATM    6  C6  UNL     1      -0.491   2.754  11.124  1.00  0.00     0.232 C 
BRANCH   6   7
HETATM    7  C5  UNL     1      -1.754   2.098  10.649  1.00  0.00     0.028 C 
BRANCH   7   8
HETATM    8  C4  UNL     1      -1.971   0.695  11.067  1.00  0.00     0.005 C 
BRANCH   8   9
HETATM    9  C3  UNL     1      -3.332   0.189  10.662  1.00  0.00     0.026 C 
BRANCH   9  10
HETATM   10  C2  UNL     1      -3.647  -1.021  11.436  1.00  0.00    -0.037 C 
HETATM   11  C1  UNL     1      -2.979  -2.166  11.249  1.00  0.00     0.007 C 
ENDBRANCH   9  10
ENDBRANCH   8   9
ENDBRANCH   7   8
ENDBRANCH   6   7
ENDBRANCH   3   6
ENDBRANCH   2   3
ENDBRANCH   1   2
BRANCH   1  12
HETATM   12  C9  UNL     1      -3.402   4.069  14.155  1.00  0.00     0.062 C 
BRANCH  12  13
HETATM   13  N2  UNL     1      -3.769   2.850  13.598  1.00  0.00    -0.377 N 
HETATM   14  C10 UNL     1      -4.511   1.912  13.976  1.00  0.00     0.116 C 
ATOM     15  H2  UNL     1      -3.345   2.683  12.685  1.00  0.00     0.164 HD
BRANCH  14  16
HETATM   16  C11 UNL     1      -5.228   1.887  15.222  1.00  0.00     0.047 A 
HETATM   17  C12 UNL     1      -4.923   0.872  16.141  1.00  0.00     0.031 A 
HETATM   18  C13 UNL     1      -5.559   0.815  17.337  1.00  0.00     0.004 A 
HETATM   19  C14 UNL     1      -6.519   1.783  17.641  1.00  0.00     0.017 A 
HETATM   20  C15 UNL     1      -6.814   2.776  16.736  1.00  0.00     0.088 A 
HETATM   21  N3  UNL     1      -6.159   2.788  15.570  1.00  0.00    -0.365 N 
ATOM     22  H3  UNL     1      -6.381   3.528  14.903  1.00  0.00     0.165 HD
ENDBRANCH  14  16
ENDBRANCH  12  13
ENDBRANCH   1  12
TORSDOF 10
ENDMDL
