MODEL 1
REMARK VINA RESULT: -9.067220930      0.000      0.000
REMARK  11 active torsions:
REMARK  status: ('A' for Active; 'I' for Inactive)
REMARK    1  A    between atoms: O1_2  and  C2_3 
REMARK    2  A    between atoms: C2_3  and  C3_5 
REMARK    3  A    between atoms: C3_5  and  N1_7 
REMARK    4  A    between atoms: N1_7  and  N2_8 
REMARK    5  A    between atoms: N1_7  and  C12_23 
REMARK       I    between atoms: N2_8  and  C5_10 
REMARK    6  A    between atoms: C5_10  and  C6_12 
REMARK    7  A    between atoms: C8_14  and  O4_15 
REMARK    8  A    between atoms: C9_17  and  O5_18 
REMARK    9  A    between atoms: C13_28  and  C14_29 
REMARK   10  A    between atoms: C15_34  and  S2_35 
REMARK   11  A    between atoms: S2_35  and  C16_36 
ROOT
HETATM    1  C12 UNL     1     -30.556  11.305 -11.519  1.00  0.00     0.183 A 
HETATM    2  N3  UNL     1     -30.301  10.332 -12.386  1.00  0.00    -0.277 N 
ATOM      3  H3  UNL     1     -29.888   9.457 -12.064  1.00  0.00     0.189 HD
HETATM    4  N4  UNL     1     -30.570  10.491 -13.610  1.00  0.00    -0.289 N 
ATOM      5  H4  UNL     1     -30.374   9.743 -14.276  1.00  0.00     0.188 HD
HETATM    6  C13 UNL     1     -31.106  11.630 -14.030  1.00  0.00     0.138 A 
HETATM    7  S3  UNL     1     -31.217  12.498 -12.550  1.00  0.00    -0.028 SA
ENDROOT
BRANCH   1   8
HETATM    8  N1  UNL     1     -30.326  11.271 -10.102  1.00  0.00    -0.253 N 
BRANCH   8   9
HETATM    9  C3  UNL     1     -30.070  12.522  -9.389  1.00  0.00     0.206 C 
HETATM   10  C4  UNL     1     -28.605  12.936  -9.597  1.00  0.00     0.045 C 
BRANCH   9  11
HETATM   11  C2  UNL     1     -30.199  12.292  -7.931  1.00  0.00     0.283 C 
HETATM   12  O2  UNL     1     -29.217  11.873  -7.291  1.00  0.00    -0.263 OA
BRANCH  11  13
HETATM   13  O1  UNL     1     -31.385  12.536  -7.293  1.00  0.00    -0.325 OA
HETATM   14  C1  UNL     1     -31.771  13.827  -6.912  1.00  0.00     0.213 C 
ENDBRANCH  11  13
ENDBRANCH   9  11
ENDBRANCH   8   9
BRANCH   8  15
HETATM   15  N2  UNL     1     -30.357  10.099  -9.374  1.00  0.00    -0.261 N 
HETATM   16  C5  UNL     1     -29.259   9.218  -9.232  1.00  0.00     0.270 C 
HETATM   17  O3  UNL     1     -28.176   9.533  -9.815  1.00  0.00    -0.266 OA
ATOM     18  H2  UNL     1     -31.230   9.851  -8.908  1.00  0.00     0.190 HD
BRANCH  16  19
HETATM   19  C6  UNL     1     -29.326   7.981  -8.451  1.00  0.00     0.037 A 
HETATM   20  C7  UNL     1     -29.778   7.932  -7.157  1.00  0.00     0.056 A 
HETATM   21  C8  UNL     1     -29.821   6.714  -6.468  1.00  0.00     0.101 A 
HETATM   22  C9  UNL     1     -29.411   5.551  -7.079  1.00  0.00     0.116 A 
HETATM   23  C10 UNL     1     -28.951   5.594  -8.387  1.00  0.00     0.048 A 
HETATM   24  S1  UNL     1     -28.409   4.094  -9.214  1.00  0.00    -0.050 SA
HETATM   25  C11 UNL     1     -28.918   6.804  -9.046  1.00  0.00     0.039 A 
BRANCH  21  26
HETATM   26  O4  UNL     1     -30.280   6.695  -5.173  1.00  0.00    -0.358 OA
ATOM     27  H4  UNL     1     -31.193   6.893  -5.003  1.00  0.00     0.217 HD
ENDBRANCH  21  26
BRANCH  22  28
HETATM   28  O5  UNL     1     -29.423   4.320  -6.469  1.00  0.00    -0.357 OA
ATOM     29  H5  UNL     1     -28.784   3.639  -6.639  1.00  0.00     0.218 HD
ENDBRANCH  22  28
ENDBRANCH  16  19
ENDBRANCH   8  15
ENDBRANCH   1   8
BRANCH   6  30
HETATM   30  C14 UNL     1     -31.498  12.038 -15.386  1.00  0.00     0.158 A 
HETATM   31  N5  UNL     1     -32.415  11.386 -16.117  1.00  0.00    -0.281 N 
HETATM   32  N6  UNL     1     -32.530  11.994 -17.312  1.00  0.00    -0.278 N 
ATOM     33  H5  UNL     1     -32.940  10.565 -15.816  1.00  0.00     0.188 HD
HETATM   34  C15 UNL     1     -31.684  13.038 -17.344  1.00  0.00     0.165 A 
ATOM     35  H6  UNL     1     -33.154  11.710 -18.067  1.00  0.00     0.189 HD
HETATM   36  N8  UNL     1     -31.063  13.044 -16.151  1.00  0.00    -0.318 N 
ATOM     37  H8  UNL     1     -30.356  13.723 -15.869  1.00  0.00     0.169 HD
BRANCH  34  38
HETATM   38  S2  UNL     1     -31.440  14.198 -18.706  1.00  0.00    -0.064 SA
BRANCH  38  39
HETATM   39  C16 UNL     1     -31.732  13.379 -20.244  1.00  0.00     0.068 C 
HETATM   40  C17 UNL     1     -31.658  14.066 -21.366  1.00  0.00     0.049 C 
HETATM   41  C18 UNL     1     -31.889  13.445 -22.685  1.00  0.00     0.257 C 
HETATM   42  C20 UNL     1     -31.354  15.486 -21.595  1.00  0.00     0.147 C 
HETATM   43  O6  UNL     1     -31.997  12.211 -22.891  1.00  0.00    -0.267 OA
HETATM   44  N7  UNL     1     -31.963  14.496 -23.642  1.00  0.00    -0.292 N 
HETATM   45  C19 UNL     1     -31.790  15.745 -22.990  1.00  0.00     0.252 C 
ATOM     46  H7  UNL     1     -32.116  14.371 -24.643  1.00  0.00     0.172 HD
HETATM   47  O7  UNL     1     -31.958  16.903 -23.452  1.00  0.00    -0.271 OA
HETATM   48  C21 UNL     1     -29.857  15.700 -21.426  1.00  0.00     0.049 C 
HETATM   49 CL1  UNL     1     -32.236  16.582 -20.527  1.00  0.00    -0.104 Cl
ENDBRANCH  38  39
ENDBRANCH  34  38
ENDBRANCH   6  30
TORSDOF 11
ENDMDL
MODEL 2
REMARK VINA RESULT: -8.980429689      1.255      1.449
REMARK  11 active torsions:
REMARK  status: ('A' for Active; 'I' for Inactive)
REMARK    1  A    between atoms: O1_2  and  C2_3 
REMARK    2  A    between atoms: C2_3  and  C3_5 
REMARK    3  A    between atoms: C3_5  and  N1_7 
REMARK    4  A    between atoms: N1_7  and  N2_8 
REMARK    5  A    between atoms: N1_7  and  C12_23 
REMARK       I    between atoms: N2_8  and  C5_10 
REMARK    6  A    between atoms: C5_10  and  C6_12 
REMARK    7  A    between atoms: C8_14  and  O4_15 
REMARK    8  A    between atoms: C9_17  and  O5_18 
REMARK    9  A    between atoms: C13_28  and  C14_29 
REMARK   10  A    between atoms: C15_34  and  S2_35 
REMARK   11  A    between atoms: S2_35  and  C16_36 
ROOT
HETATM    1  C12 UNL     1     -30.494  11.643 -10.911  1.00  0.00     0.183 A 
HETATM    2  N3  UNL     1     -29.520  11.963 -11.756  1.00  0.00    -0.277 N 
ATOM      3  H3  UNL     1     -28.576  12.129 -11.407  1.00  0.00     0.189 HD
HETATM    4  N4  UNL     1     -29.763  12.062 -12.991  1.00  0.00    -0.289 N 
ATOM      5  H4  UNL     1     -29.015  12.307 -13.639  1.00  0.00     0.188 HD
HETATM    6  C13 UNL     1     -30.992  11.847 -13.445  1.00  0.00     0.138 A 
HETATM    7  S3  UNL     1     -31.817  11.484 -11.982  1.00  0.00    -0.028 SA
ENDROOT
BRANCH   1   8
HETATM    8  N1  UNL     1     -30.374  11.475  -9.490  1.00  0.00    -0.253 N 
BRANCH   8   9
HETATM    9  C3  UNL     1     -30.285  12.658  -8.635  1.00  0.00     0.206 C 
HETATM   10  C4  UNL     1     -30.504  13.919  -9.485  1.00  0.00     0.045 C 
BRANCH   9  11
HETATM   11  C2  UNL     1     -28.905  12.784  -8.111  1.00  0.00     0.283 C 
HETATM   12  O2  UNL     1     -27.951  12.814  -8.911  1.00  0.00    -0.263 OA
BRANCH  11  13
HETATM   13  O1  UNL     1     -28.678  12.863  -6.764  1.00  0.00    -0.325 OA
HETATM   14  C1  UNL     1     -28.014  13.953  -6.187  1.00  0.00     0.213 C 
ENDBRANCH  11  13
ENDBRANCH   9  11
ENDBRANCH   8   9
BRANCH   8  15
HETATM   15  N2  UNL     1     -30.358  10.233  -8.890  1.00  0.00    -0.261 N 
HETATM   16  C5  UNL     1     -29.316   9.287  -9.036  1.00  0.00     0.270 C 
HETATM   17  O3  UNL     1     -28.333   9.610  -9.771  1.00  0.00    -0.266 OA
ATOM     18  H2  UNL     1     -31.151   9.979  -8.300  1.00  0.00     0.190 HD
BRANCH  16  19
HETATM   19  C6  UNL     1     -29.331   7.977  -8.384  1.00  0.00     0.037 A 
HETATM   20  C7  UNL     1     -29.740   7.786  -7.088  1.00  0.00     0.056 A 
HETATM   21  C8  UNL     1     -29.735   6.504  -6.526  1.00  0.00     0.101 A 
HETATM   22  C9  UNL     1     -29.320   5.418  -7.264  1.00  0.00     0.116 A 
HETATM   23  C10 UNL     1     -28.904   5.605  -8.575  1.00  0.00     0.048 A 
HETATM   24  S1  UNL     1     -28.357   4.210  -9.566  1.00  0.00    -0.050 SA
HETATM   25  C11 UNL     1     -28.918   6.876  -9.108  1.00  0.00     0.039 A 
BRANCH  21  26
HETATM   26  O4  UNL     1     -30.150   6.343  -5.226  1.00  0.00    -0.358 OA
ATOM     27  H4  UNL     1     -29.540   6.526  -4.520  1.00  0.00     0.217 HD
ENDBRANCH  21  26
BRANCH  22  28
HETATM   28  O5  UNL     1     -29.287   4.133  -6.783  1.00  0.00    -0.357 OA
ATOM     29  H5  UNL     1     -28.740   3.446  -7.146  1.00  0.00     0.218 HD
ENDBRANCH  22  28
ENDBRANCH  16  19
ENDBRANCH   8  15
ENDBRANCH   1   8
BRANCH   6  30
HETATM   30  C14 UNL     1     -31.506  11.904 -14.821  1.00  0.00     0.158 A 
HETATM   31  N5  UNL     1     -32.361  11.003 -15.327  1.00  0.00    -0.281 N 
HETATM   32  N6  UNL     1     -32.619  11.323 -16.608  1.00  0.00    -0.278 N 
ATOM     33  H5  UNL     1     -32.751  10.207 -14.824  1.00  0.00     0.188 HD
HETATM   34  C15 UNL     1     -31.928  12.432 -16.921  1.00  0.00     0.165 A 
ATOM     35  H6  UNL     1     -33.237  10.809 -17.237  1.00  0.00     0.189 HD
HETATM   36  N8  UNL     1     -31.253  12.770 -15.808  1.00  0.00    -0.318 N 
ATOM     37  H8  UNL     1     -30.633  13.575 -15.728  1.00  0.00     0.169 HD
BRANCH  34  38
HETATM   38  S2  UNL     1     -31.918  13.296 -18.507  1.00  0.00    -0.064 SA
BRANCH  38  39
HETATM   39  C16 UNL     1     -32.073  12.127 -19.822  1.00  0.00     0.068 C 
HETATM   40  C17 UNL     1     -31.797  12.500 -21.055  1.00  0.00     0.049 C 
HETATM   41  C18 UNL     1     -31.905  11.574 -22.200  1.00  0.00     0.257 C 
HETATM   42  C20 UNL     1     -31.349  13.798 -21.578  1.00  0.00     0.147 C 
HETATM   43  O6  UNL     1     -32.087  10.335 -22.109  1.00  0.00    -0.267 OA
HETATM   44  N7  UNL     1     -31.766  12.348 -23.385  1.00  0.00    -0.292 N 
HETATM   45  C19 UNL     1     -31.577  13.713 -23.043  1.00  0.00     0.252 C 
ATOM     46  H7  UNL     1     -31.797  11.980 -24.336  1.00  0.00     0.172 HD
HETATM   47  O7  UNL     1     -31.587  14.722 -23.795  1.00  0.00    -0.271 OA
HETATM   48  C21 UNL     1     -29.874  13.977 -21.249  1.00  0.00     0.049 C 
HETATM   49 CL1  UNL     1     -32.269  15.171 -20.954  1.00  0.00    -0.104 Cl
ENDBRANCH  38  39
ENDBRANCH  34  38
ENDBRANCH   6  30
TORSDOF 11
ENDMDL
MODEL 3
REMARK VINA RESULT: -8.868663635      5.954     13.078
REMARK  11 active torsions:
REMARK  status: ('A' for Active; 'I' for Inactive)
REMARK    1  A    between atoms: O1_2  and  C2_3 
REMARK    2  A    between atoms: C2_3  and  C3_5 
REMARK    3  A    between atoms: C3_5  and  N1_7 
REMARK    4  A    between atoms: N1_7  and  N2_8 
REMARK    5  A    between atoms: N1_7  and  C12_23 
REMARK       I    between atoms: N2_8  and  C5_10 
REMARK    6  A    between atoms: C5_10  and  C6_12 
REMARK    7  A    between atoms: C8_14  and  O4_15 
REMARK    8  A    between atoms: C9_17  and  O5_18 
REMARK    9  A    between atoms: C13_28  and  C14_29 
REMARK   10  A    between atoms: C15_34  and  S2_35 
REMARK   11  A    between atoms: S2_35  and  C16_36 
ROOT
HETATM    1  C12 UNL     1     -29.430   8.986  -8.947  1.00  0.00     0.183 A 
HETATM    2  N3  UNL     1     -29.770   8.517  -7.752  1.00  0.00    -0.277 N 
ATOM      3  H3  UNL     1     -30.125   9.152  -7.036  1.00  0.00     0.189 HD
HETATM    4  N4  UNL     1     -29.655   7.285  -7.501  1.00  0.00    -0.289 N 
ATOM      5  H4  UNL     1     -29.917   6.925  -6.583  1.00  0.00     0.188 HD
HETATM    6  C13 UNL     1     -29.193   6.458  -8.431  1.00  0.00     0.138 A 
HETATM    7  S3  UNL     1     -28.920   7.553  -9.728  1.00  0.00    -0.028 SA
ENDROOT
BRANCH   1   8
HETATM    8  N1  UNL     1     -29.519  10.349  -9.389  1.00  0.00    -0.253 N 
BRANCH   8   9
HETATM    9  C3  UNL     1     -29.449  11.427  -8.403  1.00  0.00     0.206 C 
HETATM   10  C4  UNL     1     -30.862  11.965  -8.135  1.00  0.00     0.045 C 
BRANCH   9  11
HETATM   11  C2  UNL     1     -28.706  12.572  -8.979  1.00  0.00     0.283 C 
HETATM   12  O2  UNL     1     -27.464  12.519  -9.048  1.00  0.00    -0.263 OA
BRANCH  11  13
HETATM   13  O1  UNL     1     -29.375  13.678  -9.429  1.00  0.00    -0.325 OA
HETATM   14  C1  UNL     1     -28.954  14.391 -10.559  1.00  0.00     0.213 C 
ENDBRANCH  11  13
ENDBRANCH   9  11
ENDBRANCH   8   9
BRANCH   8  15
HETATM   15  N2  UNL     1     -29.650  10.689 -10.720  1.00  0.00    -0.261 N 
HETATM   16  C5  UNL     1     -30.888  10.824 -11.393  1.00  0.00     0.270 C 
HETATM   17  O3  UNL     1     -31.944  10.616 -10.720  1.00  0.00    -0.266 OA
ATOM     18  H2  UNL     1     -28.797  10.854 -11.256  1.00  0.00     0.190 HD
BRANCH  16  19
HETATM   19  C6  UNL     1     -30.991  11.186 -12.807  1.00  0.00     0.037 A 
HETATM   20  C7  UNL     1     -31.863  10.583 -13.678  1.00  0.00     0.056 A 
HETATM   21  C8  UNL     1     -31.915  10.982 -15.019  1.00  0.00     0.101 A 
HETATM   22  C9  UNL     1     -31.092  11.984 -15.482  1.00  0.00     0.116 A 
HETATM   23  C10 UNL     1     -30.207  12.597 -14.607  1.00  0.00     0.048 A 
HETATM   24  S1  UNL     1     -29.120  13.909 -15.179  1.00  0.00    -0.050 SA
HETATM   25  C11 UNL     1     -30.174  12.188 -13.291  1.00  0.00     0.039 A 
BRANCH  21  26
HETATM   26  O4  UNL     1     -32.799  10.360 -15.867  1.00  0.00    -0.358 OA
ATOM     27  H4  UNL     1     -32.460   9.819 -16.571  1.00  0.00     0.217 HD
ENDBRANCH  21  26
BRANCH  22  28
HETATM   28  O5  UNL     1     -31.085  12.429 -16.781  1.00  0.00    -0.357 OA
ATOM     29  H5  UNL     1     -30.493  13.096 -17.108  1.00  0.00     0.218 HD
ENDBRANCH  22  28
ENDBRANCH  16  19
ENDBRANCH   8  15
ENDBRANCH   1   8
BRANCH   6  30
HETATM   30  C14 UNL     1     -28.975   5.006  -8.370  1.00  0.00     0.158 A 
HETATM   31  N5  UNL     1     -29.170   4.276  -7.262  1.00  0.00    -0.281 N 
HETATM   32  N6  UNL     1     -28.864   2.993  -7.527  1.00  0.00    -0.278 N 
ATOM     33  H5  UNL     1     -29.498   4.635  -6.365  1.00  0.00     0.188 HD
HETATM   34  C15 UNL     1     -28.472   2.904  -8.810  1.00  0.00     0.165 A 
ATOM     35  H6  UNL     1     -28.920   2.219  -6.866  1.00  0.00     0.189 HD
HETATM   36  N8  UNL     1     -28.549   4.152  -9.305  1.00  0.00    -0.318 N 
ATOM     37  H8  UNL     1     -28.314   4.410 -10.263  1.00  0.00     0.169 HD
BRANCH  34  38
HETATM   38  S2  UNL     1     -27.959   1.412  -9.687  1.00  0.00    -0.064 SA
BRANCH  38  39
HETATM   39  C16 UNL     1     -28.578  -0.015  -8.849  1.00  0.00     0.068 C 
HETATM   40  C17 UNL     1     -27.976  -1.175  -9.015  1.00  0.00     0.049 C 
HETATM   41  C18 UNL     1     -28.440  -2.405  -8.345  1.00  0.00     0.257 C 
HETATM   42  C20 UNL     1     -26.799  -1.529  -9.822  1.00  0.00     0.147 C 
HETATM   43  O6  UNL     1     -29.309  -2.448  -7.440  1.00  0.00    -0.267 OA
HETATM   44  N7  UNL     1     -27.725  -3.495  -8.916  1.00  0.00    -0.292 N 
HETATM   45  C19 UNL     1     -26.837  -3.011  -9.911  1.00  0.00     0.252 C 
ATOM     46  H7  UNL     1     -27.834  -4.474  -8.651  1.00  0.00     0.172 HD
HETATM   47  O7  UNL     1     -26.166  -3.664 -10.753  1.00  0.00    -0.271 OA
HETATM   48  C21 UNL     1     -25.549  -1.041  -9.107  1.00  0.00     0.049 C 
HETATM   49 CL1  UNL     1     -26.841  -0.875 -11.463  1.00  0.00    -0.104 Cl
ENDBRANCH  38  39
ENDBRANCH  34  38
ENDBRANCH   6  30
TORSDOF 11
ENDMDL
MODEL 4
REMARK VINA RESULT: -8.866288380      7.382     14.275
REMARK  11 active torsions:
REMARK  status: ('A' for Active; 'I' for Inactive)
REMARK    1  A    between atoms: O1_2  and  C2_3 
REMARK    2  A    between atoms: C2_3  and  C3_5 
REMARK    3  A    between atoms: C3_5  and  N1_7 
REMARK    4  A    between atoms: N1_7  and  N2_8 
REMARK    5  A    between atoms: N1_7  and  C12_23 
REMARK       I    between atoms: N2_8  and  C5_10 
REMARK    6  A    between atoms: C5_10  and  C6_12 
REMARK    7  A    between atoms: C8_14  and  O4_15 
REMARK    8  A    between atoms: C9_17  and  O5_18 
REMARK    9  A    between atoms: C13_28  and  C14_29 
REMARK   10  A    between atoms: C15_34  and  S2_35 
REMARK   11  A    between atoms: S2_35  and  C16_36 
ROOT
HETATM    1  C12 UNL     1     -28.903   6.000  -9.242  1.00  0.00     0.183 A 
HETATM    2  N3  UNL     1     -27.893   5.349  -9.808  1.00  0.00    -0.277 N 
ATOM      3  H3  UNL     1     -27.230   5.850 -10.399  1.00  0.00     0.189 HD
HETATM    4  N4  UNL     1     -27.753   4.109  -9.613  1.00  0.00    -0.289 N 
ATOM      5  H4  UNL     1     -26.977   3.609 -10.048  1.00  0.00     0.188 HD
HETATM    6  C13 UNL     1     -28.616   3.455  -8.845  1.00  0.00     0.138 A 
HETATM    7  S3  UNL     1     -29.675   4.732  -8.392  1.00  0.00    -0.028 SA
ENDROOT
BRANCH   1   8
HETATM    8  N1  UNL     1     -29.186   7.403  -9.350  1.00  0.00    -0.253 N 
BRANCH   8   9
HETATM    9  C3  UNL     1     -28.949   8.272  -8.198  1.00  0.00     0.206 C 
HETATM   10  C4  UNL     1     -29.917   7.893  -7.067  1.00  0.00     0.045 C 
BRANCH   9  11
HETATM   11  C2  UNL     1     -29.300   9.666  -8.552  1.00  0.00     0.283 C 
HETATM   12  O2  UNL     1     -30.328  10.177  -8.068  1.00  0.00    -0.263 OA
BRANCH  11  13
HETATM   13  O1  UNL     1     -28.508  10.387  -9.404  1.00  0.00    -0.325 OA
HETATM   14  C1  UNL     1     -28.575  11.784  -9.476  1.00  0.00     0.213 C 
ENDBRANCH  11  13
ENDBRANCH   9  11
ENDBRANCH   8   9
BRANCH   8  15
HETATM   15  N2  UNL     1     -29.658   7.976 -10.514  1.00  0.00    -0.261 N 
HETATM   16  C5  UNL     1     -30.072   7.247 -11.653  1.00  0.00     0.270 C 
HETATM   17  O3  UNL     1     -30.001   5.980 -11.594  1.00  0.00    -0.266 OA
ATOM     18  H2  UNL     1     -29.712   8.994 -10.555  1.00  0.00     0.190 HD
BRANCH  16  19
HETATM   19  C6  UNL     1     -30.569   7.887 -12.872  1.00  0.00     0.037 A 
HETATM   20  C7  UNL     1     -31.069   9.165 -12.901  1.00  0.00     0.056 A 
HETATM   21  C8  UNL     1     -31.523   9.720 -14.103  1.00  0.00     0.101 A 
HETATM   22  C9  UNL     1     -31.476   8.993 -15.271  1.00  0.00     0.116 A 
HETATM   23  C10 UNL     1     -30.973   7.700 -15.248  1.00  0.00     0.048 A 
HETATM   24  S1  UNL     1     -30.896   6.724 -16.755  1.00  0.00    -0.050 SA
HETATM   25  C11 UNL     1     -30.530   7.174 -14.053  1.00  0.00     0.039 A 
BRANCH  21  26
HETATM   26  O4  UNL     1     -32.018  11.002 -14.101  1.00  0.00    -0.358 OA
ATOM     27  H4  UNL     1     -31.419  11.728 -14.231  1.00  0.00     0.217 HD
ENDBRANCH  21  26
BRANCH  22  28
HETATM   28  O5  UNL     1     -31.902   9.468 -16.486  1.00  0.00    -0.357 OA
ATOM     29  H5  UNL     1     -32.739   9.897 -16.622  1.00  0.00     0.218 HD
ENDBRANCH  22  28
ENDBRANCH  16  19
ENDBRANCH   8  15
ENDBRANCH   1   8
BRANCH   6  30
HETATM   30  C14 UNL     1     -28.656   2.032  -8.480  1.00  0.00     0.158 A 
HETATM   31  N5  UNL     1     -28.636   1.594  -7.212  1.00  0.00    -0.281 N 
HETATM   32  N6  UNL     1     -28.662   0.249  -7.217  1.00  0.00    -0.278 N 
ATOM     33  H5  UNL     1     -28.605   2.184  -6.381  1.00  0.00     0.188 HD
HETATM   34  C15 UNL     1     -28.700  -0.173  -8.492  1.00  0.00     0.165 A 
ATOM     35  H6  UNL     1     -28.654  -0.349  -6.391  1.00  0.00     0.189 HD
HETATM   36  N8  UNL     1     -28.696   0.939  -9.248  1.00  0.00    -0.318 N 
ATOM     37  H8  UNL     1     -28.720   0.947 -10.267  1.00  0.00     0.169 HD
BRANCH  34  38
HETATM   38  S2  UNL     1     -28.756  -1.883  -9.069  1.00  0.00    -0.064 SA
BRANCH  38  39
HETATM   39  C16 UNL     1     -28.017  -2.942  -7.864  1.00  0.00     0.068 C 
HETATM   40  C17 UNL     1     -26.759  -3.307  -8.008  1.00  0.00     0.049 C 
HETATM   41  C18 UNL     1     -26.081  -4.190  -7.038  1.00  0.00     0.257 C 
HETATM   42  C20 UNL     1     -25.785  -2.973  -9.057  1.00  0.00     0.147 C 
HETATM   43  O6  UNL     1     -26.547  -4.528  -5.923  1.00  0.00    -0.267 OA
HETATM   44  N7  UNL     1     -24.832  -4.565  -7.608  1.00  0.00    -0.292 N 
HETATM   45  C19 UNL     1     -24.693  -3.964  -8.887  1.00  0.00     0.252 C 
ATOM     46  H7  UNL     1     -24.142  -5.173  -7.166  1.00  0.00     0.172 HD
HETATM   47  O7  UNL     1     -23.824  -4.184  -9.769  1.00  0.00    -0.271 OA
HETATM   48  C21 UNL     1     -25.293  -1.551  -8.832  1.00  0.00     0.049 C 
HETATM   49 CL1  UNL     1     -26.425  -3.130 -10.696  1.00  0.00    -0.104 Cl
ENDBRANCH  38  39
ENDBRANCH  34  38
ENDBRANCH   6  30
TORSDOF 11
ENDMDL
MODEL 5
REMARK VINA RESULT: -8.853928802      6.006     13.049
REMARK  11 active torsions:
REMARK  status: ('A' for Active; 'I' for Inactive)
REMARK    1  A    between atoms: O1_2  and  C2_3 
REMARK    2  A    between atoms: C2_3  and  C3_5 
REMARK    3  A    between atoms: C3_5  and  N1_7 
REMARK    4  A    between atoms: N1_7  and  N2_8 
REMARK    5  A    between atoms: N1_7  and  C12_23 
REMARK       I    between atoms: N2_8  and  C5_10 
REMARK    6  A    between atoms: C5_10  and  C6_12 
REMARK    7  A    between atoms: C8_14  and  O4_15 
REMARK    8  A    between atoms: C9_17  and  O5_18 
REMARK    9  A    between atoms: C13_28  and  C14_29 
REMARK   10  A    between atoms: C15_34  and  S2_35 
REMARK   11  A    between atoms: S2_35  and  C16_36 
ROOT
HETATM    1  C12 UNL     1     -29.377   8.941  -8.924  1.00  0.00     0.183 A 
HETATM    2  N3  UNL     1     -29.716   8.470  -7.729  1.00  0.00    -0.277 N 
ATOM      3  H3  UNL     1     -30.057   9.106  -7.008  1.00  0.00     0.189 HD
HETATM    4  N4  UNL     1     -29.616   7.235  -7.486  1.00  0.00    -0.289 N 
ATOM      5  H4  UNL     1     -29.877   6.874  -6.568  1.00  0.00     0.188 HD
HETATM    6  C13 UNL     1     -29.171   6.407  -8.423  1.00  0.00     0.138 A 
HETATM    7  S3  UNL     1     -28.892   7.506  -9.716  1.00  0.00    -0.028 SA
ENDROOT
BRANCH   1   8
HETATM    8  N1  UNL     1     -29.451  10.308  -9.358  1.00  0.00    -0.253 N 
BRANCH   8   9
HETATM    9  C3  UNL     1     -29.345  11.379  -8.369  1.00  0.00     0.206 C 
HETATM   10  C4  UNL     1     -30.745  11.929  -8.061  1.00  0.00     0.045 C 
BRANCH   9  11
HETATM   11  C2  UNL     1     -28.606  12.520  -8.957  1.00  0.00     0.283 C 
HETATM   12  O2  UNL     1     -27.367  12.454  -9.064  1.00  0.00    -0.263 OA
BRANCH  11  13
HETATM   13  O1  UNL     1     -29.275  13.637  -9.379  1.00  0.00    -0.325 OA
HETATM   14  C1  UNL     1     -28.975  14.268 -10.593  1.00  0.00     0.213 C 
ENDBRANCH  11  13
ENDBRANCH   9  11
ENDBRANCH   8   9
BRANCH   8  15
HETATM   15  N2  UNL     1     -29.601  10.656 -10.685  1.00  0.00    -0.261 N 
HETATM   16  C5  UNL     1     -30.847  10.787 -11.342  1.00  0.00     0.270 C 
HETATM   17  O3  UNL     1     -31.894  10.568 -10.658  1.00  0.00    -0.266 OA
ATOM     18  H2  UNL     1     -28.756  10.832 -11.230  1.00  0.00     0.190 HD
BRANCH  16  19
HETATM   19  C6  UNL     1     -30.970  11.160 -12.752  1.00  0.00     0.037 A 
HETATM   20  C7  UNL     1     -30.956  12.460 -13.191  1.00  0.00     0.056 A 
HETATM   21  C8  UNL     1     -31.073  12.747 -14.557  1.00  0.00     0.101 A 
HETATM   22  C9  UNL     1     -31.202  11.730 -15.476  1.00  0.00     0.116 A 
HETATM   23  C10 UNL     1     -31.218  10.414 -15.038  1.00  0.00     0.048 A 
HETATM   24  S1  UNL     1     -31.384   9.064 -16.212  1.00  0.00    -0.050 SA
HETATM   25  C11 UNL     1     -31.101  10.155 -13.689  1.00  0.00     0.039 A 
BRANCH  21  26
HETATM   26  O4  UNL     1     -31.055  14.058 -14.967  1.00  0.00    -0.358 OA
ATOM     27  H4  UNL     1     -31.287  14.264 -15.865  1.00  0.00     0.217 HD
ENDBRANCH  21  26
BRANCH  22  28
HETATM   28  O5  UNL     1     -31.321  11.933 -16.829  1.00  0.00    -0.357 OA
ATOM     29  H5  UNL     1     -30.990  11.330 -17.485  1.00  0.00     0.218 HD
ENDBRANCH  22  28
ENDBRANCH  16  19
ENDBRANCH   8  15
ENDBRANCH   1   8
BRANCH   6  30
HETATM   30  C14 UNL     1     -28.972   4.952  -8.372  1.00  0.00     0.158 A 
HETATM   31  N5  UNL     1     -29.194   4.215  -7.274  1.00  0.00    -0.281 N 
HETATM   32  N6  UNL     1     -28.900   2.931  -7.546  1.00  0.00    -0.278 N 
ATOM     33  H5  UNL     1     -29.532   4.570  -6.379  1.00  0.00     0.188 HD
HETATM   34  C15 UNL     1     -28.489   2.848  -8.822  1.00  0.00     0.165 A 
ATOM     35  H6  UNL     1     -28.976   2.151  -6.892  1.00  0.00     0.189 HD
HETATM   36  N8  UNL     1     -28.541   4.100  -9.308  1.00  0.00    -0.318 N 
ATOM     37  H8  UNL     1     -28.288   4.365 -10.260  1.00  0.00     0.169 HD
BRANCH  34  38
HETATM   38  S2  UNL     1     -27.979   1.357  -9.705  1.00  0.00    -0.064 SA
BRANCH  38  39
HETATM   39  C16 UNL     1     -28.579  -0.072  -8.856  1.00  0.00     0.068 C 
HETATM   40  C17 UNL     1     -27.957  -1.223  -9.008  1.00  0.00     0.049 C 
HETATM   41  C18 UNL     1     -28.404  -2.455  -8.328  1.00  0.00     0.257 C 
HETATM   42  C20 UNL     1     -26.771  -1.566  -9.807  1.00  0.00     0.147 C 
HETATM   43  O6  UNL     1     -29.276  -2.503  -7.427  1.00  0.00    -0.267 OA
HETATM   44  N7  UNL     1     -27.669  -3.538  -8.886  1.00  0.00    -0.292 N 
HETATM   45  C19 UNL     1     -26.784  -3.049  -9.882  1.00  0.00     0.252 C 
ATOM     46  H7  UNL     1     -27.764  -4.516  -8.613  1.00  0.00     0.172 HD
HETATM   47  O7  UNL     1     -26.099  -3.699 -10.714  1.00  0.00    -0.271 OA
HETATM   48  C21 UNL     1     -25.532  -1.050  -9.091  1.00  0.00     0.049 C 
HETATM   49 CL1  UNL     1     -26.817  -0.928 -11.454  1.00  0.00    -0.104 Cl
ENDBRANCH  38  39
ENDBRANCH  34  38
ENDBRANCH   6  30
TORSDOF 11
ENDMDL
