MODEL 1
REMARK VINA RESULT: -9.610774404      0.000      0.000
REMARK  14 active torsions:
REMARK  status: ('A' for Active; 'I' for Inactive)
REMARK       I    between atoms: C1_2  and  N1_3 
REMARK    1  A    between atoms: C1_2  and  C9_32 
REMARK    2  A    between atoms: N1_3  and  O2_5 
REMARK    3  A    between atoms: O2_5  and  S1_6 
REMARK    4  A    between atoms: S1_6  and  C2_9 
REMARK    5  A    between atoms: N3_12  and  C3_13 
REMARK    6  A    between atoms: C3_13  and  O5_14 
REMARK    7  A    between atoms: C3_13  and  O6_16 
REMARK    8  A    between atoms: C4_18  and  N4_19 
REMARK    9  A    between atoms: N4_19  and  N5_21 
REMARK   10  A    between atoms: N5_21  and  C5_23 
REMARK   11  A    between atoms: C5_23  and  S3_25 
REMARK   12  A    between atoms: S3_25  and  S4_26 
REMARK   13  A    between atoms: S4_26  and  C6_27 
REMARK   14  A    between atoms: C13_37  and  N6_38 
ROOT
HETATM    1  C2  UNL     1     -29.517   8.364  -8.537  1.00  0.00     0.218 A 
HETATM    2  N2  UNL     1     -29.409   7.445  -9.451  1.00  0.00    -0.274 N 
ATOM      3  H2  UNL     1     -29.326   7.723 -10.429  1.00  0.00     0.189 HD
HETATM    4  N3  UNL     1     -29.402   6.196  -9.150  1.00  0.00    -0.214 N 
HETATM    5  C4  UNL     1     -29.513   5.866  -7.872  1.00  0.00     0.187 A 
HETATM    6  S6  UNL     1     -29.624   7.418  -7.119  1.00  0.00    -0.017 SA
ENDROOT
BRANCH   1   7
HETATM    7  S1  UNL     1     -29.534  10.135  -8.696  1.00  0.00     0.342 S 
HETATM    8  O3  UNL     1     -29.663  10.770  -7.360  1.00  0.00    -0.189 OA
HETATM    9  O4  UNL     1     -28.206  10.498  -9.295  1.00  0.00    -0.189 OA
BRANCH   7  10
HETATM   10  O2  UNL     1     -30.729  10.547  -9.765  1.00  0.00    -0.143 OA
BRANCH  10  11
HETATM   11  N1  UNL     1     -30.585  10.017 -10.994  1.00  0.00    -0.213 N 
HETATM   12  C1  UNL     1     -31.469  10.466 -12.006  1.00  0.00     0.276 C 
HETATM   13  O1  UNL     1     -32.353  11.347 -11.718  1.00  0.00    -0.265 OA
ATOM     14  H1  UNL     1     -29.867   9.319 -11.189  1.00  0.00     0.199 HD
BRANCH  12  15
HETATM   15  C9  UNL     1     -31.425   9.974 -13.379  1.00  0.00     0.038 A 
HETATM   16  C10 UNL     1     -31.874  10.786 -14.422  1.00  0.00     0.041 A 
HETATM   17  C11 UNL     1     -31.832  10.308 -15.711  1.00  0.00     0.037 A 
HETATM   18 CL1  UNL     1     -32.394  11.329 -17.016  1.00  0.00    -0.084 Cl
HETATM   19  C12 UNL     1     -31.351   9.035 -15.994  1.00  0.00     0.059 A 
HETATM   20  C13 UNL     1     -30.906   8.222 -14.983  1.00  0.00     0.105 A 
HETATM   21  C14 UNL     1     -30.959   8.725 -13.692  1.00  0.00     0.053 A 
BRANCH  20  22
HETATM   22  N6  UNL     1     -30.415   6.929 -15.275  1.00  0.00    -0.116 N 
HETATM   23  O7  UNL     1     -30.729   6.380 -16.336  1.00  0.00    -0.532 OA
HETATM   24  O8  UNL     1     -29.597   6.262 -14.404  1.00  0.00    -0.532 OA
ENDBRANCH  20  22
ENDBRANCH  12  15
ENDBRANCH  10  11
ENDBRANCH   7  10
ENDBRANCH   1   7
BRANCH   4  25
HETATM   25  C3  UNL     1     -29.238   5.187 -10.229  1.00  0.00     0.390 C 
BRANCH  25  26
HETATM   26  O5  UNL     1     -29.658   5.660 -11.429  1.00  0.00    -0.353 OA
ATOM     27  H5  UNL     1     -28.981   5.593 -12.091  1.00  0.00     0.214 HD
ENDBRANCH  25  26
BRANCH  25  28
HETATM   28  O6  UNL     1     -30.002   4.073  -9.816  1.00  0.00    -0.353 OA
ATOM     29  H6  UNL     1     -29.535   3.314 -10.145  1.00  0.00     0.214 HD
ENDBRANCH  25  28
ENDBRANCH   4  25
BRANCH   5  30
HETATM   30  N4  UNL     1     -29.563   4.698  -7.271  1.00  0.00    -0.277 N 
ATOM     31  H4  UNL     1     -30.389   4.391  -6.758  1.00  0.00     0.189 HD
BRANCH  30  32
HETATM   32  N5  UNL     1     -28.411   3.898  -7.374  1.00  0.00    -0.282 N 
ATOM     33  H5  UNL     1     -27.554   4.400  -7.604  1.00  0.00     0.188 HD
BRANCH  32  34
HETATM   34  C5  UNL     1     -28.266   2.525  -7.210  1.00  0.00     0.163 C 
HETATM   35  S2  UNL     1     -28.070   1.933  -5.644  1.00  0.00    -0.050 SA
BRANCH  34  36
HETATM   36  S3  UNL     1     -28.254   1.261  -8.450  1.00  0.00    -0.026 SA
BRANCH  36  37
HETATM   37  S4  UNL     1     -28.587  -0.638  -7.597  1.00  0.00    -0.084 SA
BRANCH  37  38
HETATM   38  C6  UNL     1     -27.620  -1.902  -8.488  1.00  0.00     0.077 C 
HETATM   39  C7  UNL     1     -26.629  -1.390  -9.482  1.00  0.00     0.090 C 
HETATM   40  S5  UNL     1     -27.633  -1.821 -10.902  1.00  0.00    -0.167 SA
HETATM   41  C8  UNL     1     -28.428  -2.665  -9.499  1.00  0.00     0.090 C 
ENDBRANCH  37  38
ENDBRANCH  36  37
ENDBRANCH  34  36
ENDBRANCH  32  34
ENDBRANCH  30  32
ENDBRANCH   5  30
TORSDOF 14
ENDMDL
MODEL 2
REMARK VINA RESULT: -9.271947359      1.483      1.940
REMARK  14 active torsions:
REMARK  status: ('A' for Active; 'I' for Inactive)
REMARK       I    between atoms: C1_2  and  N1_3 
REMARK    1  A    between atoms: C1_2  and  C9_32 
REMARK    2  A    between atoms: N1_3  and  O2_5 
REMARK    3  A    between atoms: O2_5  and  S1_6 
REMARK    4  A    between atoms: S1_6  and  C2_9 
REMARK    5  A    between atoms: N3_12  and  C3_13 
REMARK    6  A    between atoms: C3_13  and  O5_14 
REMARK    7  A    between atoms: C3_13  and  O6_16 
REMARK    8  A    between atoms: C4_18  and  N4_19 
REMARK    9  A    between atoms: N4_19  and  N5_21 
REMARK   10  A    between atoms: N5_21  and  C5_23 
REMARK   11  A    between atoms: C5_23  and  S3_25 
REMARK   12  A    between atoms: S3_25  and  S4_26 
REMARK   13  A    between atoms: S4_26  and  C6_27 
REMARK   14  A    between atoms: C13_37  and  N6_38 
ROOT
HETATM    1  C2  UNL     1     -29.497   8.631  -8.571  1.00  0.00     0.218 A 
HETATM    2  N2  UNL     1     -29.817   8.030  -7.465  1.00  0.00    -0.274 N 
ATOM      3  H2  UNL     1     -29.992   8.587  -6.627  1.00  0.00     0.189 HD
HETATM    4  N3  UNL     1     -29.919   6.750  -7.400  1.00  0.00    -0.214 N 
HETATM    5  C4  UNL     1     -29.686   6.054  -8.501  1.00  0.00     0.187 A 
HETATM    6  S6  UNL     1     -29.315   7.306  -9.634  1.00  0.00    -0.017 SA
ENDROOT
BRANCH   1   7
HETATM    7  S1  UNL     1     -29.311  10.366  -8.916  1.00  0.00     0.342 S 
HETATM    8  O3  UNL     1     -29.307  11.144  -7.651  1.00  0.00    -0.189 OA
HETATM    9  O4  UNL     1     -27.976  10.502  -9.588  1.00  0.00    -0.189 OA
BRANCH   7  10
HETATM   10  O2  UNL     1     -30.493  10.810  -9.986  1.00  0.00    -0.143 OA
BRANCH  10  11
HETATM   11  N1  UNL     1     -30.399  10.225 -11.195  1.00  0.00    -0.213 N 
HETATM   12  C1  UNL     1     -31.370  10.573 -12.166  1.00  0.00     0.276 C 
HETATM   13  O1  UNL     1     -32.281  11.420 -11.863  1.00  0.00    -0.265 OA
ATOM     14  H1  UNL     1     -29.658   9.555 -11.403  1.00  0.00     0.199 HD
BRANCH  12  15
HETATM   15  C9  UNL     1     -31.388  10.012 -13.513  1.00  0.00     0.038 A 
HETATM   16  C10 UNL     1     -31.911  10.759 -14.569  1.00  0.00     0.041 A 
HETATM   17  C11 UNL     1     -31.926  10.217 -15.833  1.00  0.00     0.037 A 
HETATM   18 CL1  UNL     1     -32.582  11.157 -17.155  1.00  0.00    -0.084 Cl
HETATM   19  C12 UNL     1     -31.432   8.942 -16.078  1.00  0.00     0.059 A 
HETATM   20  C13 UNL     1     -30.914   8.191 -15.053  1.00  0.00     0.105 A 
HETATM   21  C14 UNL     1     -30.909   8.759 -13.787  1.00  0.00     0.053 A 
BRANCH  20  22
HETATM   22  N6  UNL     1     -30.409   6.895 -15.305  1.00  0.00    -0.116 N 
HETATM   23  O7  UNL     1     -29.636   6.372 -14.496  1.00  0.00    -0.532 OA
HETATM   24  O8  UNL     1     -30.753   6.200 -16.433  1.00  0.00    -0.532 OA
ENDBRANCH  20  22
ENDBRANCH  12  15
ENDBRANCH  10  11
ENDBRANCH   7  10
ENDBRANCH   1   7
BRANCH   4  25
HETATM   25  C3  UNL     1     -30.325   6.116  -6.118  1.00  0.00     0.390 C 
BRANCH  25  26
HETATM   26  O5  UNL     1     -30.454   7.028  -5.123  1.00  0.00    -0.353 OA
ATOM     27  H5  UNL     1     -30.796   6.637  -4.328  1.00  0.00     0.214 HD
ENDBRANCH  25  26
BRANCH  25  28
HETATM   28  O6  UNL     1     -29.309   5.177  -5.831  1.00  0.00    -0.353 OA
ATOM     29  H6  UNL     1     -29.560   4.387  -6.294  1.00  0.00     0.214 HD
ENDBRANCH  25  28
ENDBRANCH   4  25
BRANCH   5  30
HETATM   30  N4  UNL     1     -29.686   4.761  -8.736  1.00  0.00    -0.277 N 
ATOM     31  H4  UNL     1     -30.464   4.299  -9.207  1.00  0.00     0.189 HD
BRANCH  30  32
HETATM   32  N5  UNL     1     -28.553   4.051  -8.300  1.00  0.00    -0.282 N 
ATOM     33  H5  UNL     1     -27.792   4.628  -7.944  1.00  0.00     0.188 HD
BRANCH  32  34
HETATM   34  C5  UNL     1     -28.315   2.682  -8.281  1.00  0.00     0.163 C 
HETATM   35  S2  UNL     1     -28.206   1.919  -6.782  1.00  0.00    -0.050 SA
BRANCH  34  36
HETATM   36  S3  UNL     1     -28.101   1.580  -9.652  1.00  0.00    -0.026 SA
BRANCH  36  37
HETATM   37  S4  UNL     1     -27.412  -0.305  -9.007  1.00  0.00    -0.084 SA
BRANCH  37  38
HETATM   38  C6  UNL     1     -28.531  -1.617  -9.600  1.00  0.00     0.077 C 
HETATM   39  C7  UNL     1     -28.634  -2.831  -8.736  1.00  0.00     0.090 C 
HETATM   40  S5  UNL     1     -27.624  -3.845  -9.814  1.00  0.00    -0.167 SA
HETATM   41  C8  UNL     1     -27.998  -2.357 -10.793  1.00  0.00     0.090 C 
ENDBRANCH  37  38
ENDBRANCH  36  37
ENDBRANCH  34  36
ENDBRANCH  32  34
ENDBRANCH  30  32
ENDBRANCH   5  30
TORSDOF 14
ENDMDL
MODEL 3
REMARK VINA RESULT: -9.099394694      1.781      2.171
REMARK  14 active torsions:
REMARK  status: ('A' for Active; 'I' for Inactive)
REMARK       I    between atoms: C1_2  and  N1_3 
REMARK    1  A    between atoms: C1_2  and  C9_32 
REMARK    2  A    between atoms: N1_3  and  O2_5 
REMARK    3  A    between atoms: O2_5  and  S1_6 
REMARK    4  A    between atoms: S1_6  and  C2_9 
REMARK    5  A    between atoms: N3_12  and  C3_13 
REMARK    6  A    between atoms: C3_13  and  O5_14 
REMARK    7  A    between atoms: C3_13  and  O6_16 
REMARK    8  A    between atoms: C4_18  and  N4_19 
REMARK    9  A    between atoms: N4_19  and  N5_21 
REMARK   10  A    between atoms: N5_21  and  C5_23 
REMARK   11  A    between atoms: C5_23  and  S3_25 
REMARK   12  A    between atoms: S3_25  and  S4_26 
REMARK   13  A    between atoms: S4_26  and  C6_27 
REMARK   14  A    between atoms: C13_37  and  N6_38 
ROOT
HETATM    1  C2  UNL     1     -29.513   8.392  -8.469  1.00  0.00     0.218 A 
HETATM    2  N2  UNL     1     -29.311   7.475  -9.367  1.00  0.00    -0.274 N 
ATOM      3  H2  UNL     1     -29.154   7.753 -10.336  1.00  0.00     0.189 HD
HETATM    4  N3  UNL     1     -29.305   6.226  -9.064  1.00  0.00    -0.214 N 
HETATM    5  C4  UNL     1     -29.514   5.895  -7.799  1.00  0.00     0.187 A 
HETATM    6  S6  UNL     1     -29.717   7.446  -7.061  1.00  0.00    -0.017 SA
ENDROOT
BRANCH   1   7
HETATM    7  S1  UNL     1     -29.551  10.163  -8.633  1.00  0.00     0.342 S 
HETATM    8  O3  UNL     1     -29.678  10.801  -7.298  1.00  0.00    -0.189 OA
HETATM    9  O4  UNL     1     -28.232  10.540  -9.241  1.00  0.00    -0.189 OA
BRANCH   7  10
HETATM   10  O2  UNL     1     -30.758  10.558  -9.694  1.00  0.00    -0.143 OA
BRANCH  10  11
HETATM   11  N1  UNL     1     -30.552  10.134 -10.956  1.00  0.00    -0.213 N 
HETATM   12  C1  UNL     1     -31.545  10.441 -11.918  1.00  0.00     0.276 C 
HETATM   13  O1  UNL     1     -32.582  11.102 -11.558  1.00  0.00    -0.265 OA
ATOM     14  H1  UNL     1     -29.713   9.612 -11.209  1.00  0.00     0.199 HD
BRANCH  12  15
HETATM   15  C9  UNL     1     -31.450  10.040 -13.318  1.00  0.00     0.038 A 
HETATM   16  C10 UNL     1     -31.050   8.744 -13.643  1.00  0.00     0.041 A 
HETATM   17  C11 UNL     1     -30.961   8.380 -14.966  1.00  0.00     0.037 A 
HETATM   18 CL1  UNL     1     -30.460   6.753 -15.371  1.00  0.00    -0.084 Cl
HETATM   19  C12 UNL     1     -31.262   9.277 -15.984  1.00  0.00     0.059 A 
HETATM   20  C13 UNL     1     -31.656  10.557 -15.685  1.00  0.00     0.105 A 
HETATM   21  C14 UNL     1     -31.739  10.900 -14.344  1.00  0.00     0.053 A 
BRANCH  20  22
HETATM   22  N6  UNL     1     -31.964  11.467 -16.722  1.00  0.00    -0.116 N 
HETATM   23  O7  UNL     1     -32.298  11.039 -17.832  1.00  0.00    -0.532 OA
HETATM   24  O8  UNL     1     -31.899  12.820 -16.529  1.00  0.00    -0.532 OA
ENDBRANCH  20  22
ENDBRANCH  12  15
ENDBRANCH  10  11
ENDBRANCH   7  10
ENDBRANCH   1   7
BRANCH   4  25
HETATM   25  C3  UNL     1     -29.032   5.221 -10.124  1.00  0.00     0.390 C 
BRANCH  25  26
HETATM   26  O5  UNL     1     -29.889   4.172 -10.056  1.00  0.00    -0.353 OA
ATOM     27  H5  UNL     1     -30.792   4.458  -9.976  1.00  0.00     0.214 HD
ENDBRANCH  25  26
BRANCH  25  28
HETATM   28  O6  UNL     1     -27.697   4.811  -9.912  1.00  0.00    -0.353 OA
ATOM     29  H6  UNL     1     -27.417   5.266  -9.126  1.00  0.00     0.214 HD
ENDBRANCH  25  28
ENDBRANCH   4  25
BRANCH   5  30
HETATM   30  N4  UNL     1     -29.590   4.728  -7.200  1.00  0.00    -0.277 N 
ATOM     31  H4  UNL     1     -30.441   4.417  -6.732  1.00  0.00     0.189 HD
BRANCH  30  32
HETATM   32  N5  UNL     1     -28.432   3.933  -7.243  1.00  0.00    -0.282 N 
ATOM     33  H5  UNL     1     -27.560   4.445  -7.375  1.00  0.00     0.188 HD
BRANCH  32  34
HETATM   34  C5  UNL     1     -28.296   2.554  -7.132  1.00  0.00     0.163 C 
HETATM   35  S2  UNL     1     -28.084   1.901  -5.592  1.00  0.00    -0.050 SA
BRANCH  34  36
HETATM   36  S3  UNL     1     -28.312   1.336  -8.419  1.00  0.00    -0.026 SA
BRANCH  36  37
HETATM   37  S4  UNL     1     -28.570  -0.600  -7.625  1.00  0.00    -0.084 SA
BRANCH  37  38
HETATM   38  C6  UNL     1     -27.520  -1.789  -8.524  1.00  0.00     0.077 C 
HETATM   39  C7  UNL     1     -26.576  -1.206  -9.524  1.00  0.00     0.090 C 
HETATM   40  S5  UNL     1     -27.556  -1.710 -10.937  1.00  0.00    -0.167 SA
HETATM   41  C8  UNL     1     -28.276  -2.610  -9.529  1.00  0.00     0.090 C 
ENDBRANCH  37  38
ENDBRANCH  36  37
ENDBRANCH  34  36
ENDBRANCH  32  34
ENDBRANCH  30  32
ENDBRANCH   5  30
TORSDOF 14
ENDMDL
MODEL 4
REMARK VINA RESULT: -8.895091098      1.910      2.329
REMARK  14 active torsions:
REMARK  status: ('A' for Active; 'I' for Inactive)
REMARK       I    between atoms: C1_2  and  N1_3 
REMARK    1  A    between atoms: C1_2  and  C9_32 
REMARK    2  A    between atoms: N1_3  and  O2_5 
REMARK    3  A    between atoms: O2_5  and  S1_6 
REMARK    4  A    between atoms: S1_6  and  C2_9 
REMARK    5  A    between atoms: N3_12  and  C3_13 
REMARK    6  A    between atoms: C3_13  and  O5_14 
REMARK    7  A    between atoms: C3_13  and  O6_16 
REMARK    8  A    between atoms: C4_18  and  N4_19 
REMARK    9  A    between atoms: N4_19  and  N5_21 
REMARK   10  A    between atoms: N5_21  and  C5_23 
REMARK   11  A    between atoms: C5_23  and  S3_25 
REMARK   12  A    between atoms: S3_25  and  S4_26 
REMARK   13  A    between atoms: S4_26  and  C6_27 
REMARK   14  A    between atoms: C13_37  and  N6_38 
ROOT
HETATM    1  C2  UNL     1     -29.517   8.354  -8.509  1.00  0.00     0.218 A 
HETATM    2  N2  UNL     1     -29.411   7.444  -9.431  1.00  0.00    -0.274 N 
ATOM      3  H2  UNL     1     -29.330   7.730 -10.407  1.00  0.00     0.189 HD
HETATM    4  N3  UNL     1     -29.407   6.192  -9.141  1.00  0.00    -0.214 N 
HETATM    5  C4  UNL     1     -29.516   5.850  -7.867  1.00  0.00     0.187 A 
HETATM    6  S6  UNL     1     -29.624   7.396  -7.099  1.00  0.00    -0.017 SA
ENDROOT
BRANCH   1   7
HETATM    7  S1  UNL     1     -29.532  10.127  -8.652  1.00  0.00     0.342 S 
HETATM    8  O3  UNL     1     -29.645  10.751  -7.308  1.00  0.00    -0.189 OA
HETATM    9  O4  UNL     1     -28.209  10.493  -9.261  1.00  0.00    -0.189 OA
BRANCH   7  10
HETATM   10  O2  UNL     1     -30.737  10.552  -9.704  1.00  0.00    -0.143 OA
BRANCH  10  11
HETATM   11  N1  UNL     1     -30.527  10.167 -10.977  1.00  0.00    -0.213 N 
HETATM   12  C1  UNL     1     -31.545  10.449 -11.920  1.00  0.00     0.276 C 
HETATM   13  O1  UNL     1     -32.607  11.052 -11.533  1.00  0.00    -0.265 OA
ATOM     14  H1  UNL     1     -29.668   9.690 -11.251  1.00  0.00     0.199 HD
BRANCH  12  15
HETATM   15  C9  UNL     1     -31.450  10.085 -13.330  1.00  0.00     0.038 A 
HETATM   16  C10 UNL     1     -31.082   8.787 -13.688  1.00  0.00     0.041 A 
HETATM   17  C11 UNL     1     -30.992   8.458 -15.020  1.00  0.00     0.037 A 
HETATM   18 CL1  UNL     1     -30.531   6.829 -15.466  1.00  0.00    -0.084 Cl
HETATM   19  C12 UNL     1     -31.259   9.391 -16.015  1.00  0.00     0.059 A 
HETATM   20  C13 UNL     1     -31.621  10.672 -15.684  1.00  0.00     0.105 A 
HETATM   21  C14 UNL     1     -31.706  10.980 -14.334  1.00  0.00     0.053 A 
BRANCH  20  22
HETATM   22  N6  UNL     1     -31.896  11.618 -16.697  1.00  0.00    -0.116 N 
HETATM   23  O7  UNL     1     -31.344  12.723 -16.667  1.00  0.00    -0.532 OA
HETATM   24  O8  UNL     1     -32.766  11.342 -17.716  1.00  0.00    -0.532 OA
ENDBRANCH  20  22
ENDBRANCH  12  15
ENDBRANCH  10  11
ENDBRANCH   7  10
ENDBRANCH   1   7
BRANCH   4  25
HETATM   25  C3  UNL     1     -29.245   5.193 -10.230  1.00  0.00     0.390 C 
BRANCH  25  26
HETATM   26  O5  UNL     1     -29.669   5.676 -11.424  1.00  0.00    -0.353 OA
ATOM     27  H5  UNL     1     -28.959   6.068 -11.919  1.00  0.00     0.214 HD
ENDBRANCH  25  26
BRANCH  25  28
HETATM   28  O6  UNL     1     -30.008   4.075  -9.825  1.00  0.00    -0.353 OA
ATOM     29  H6  UNL     1     -29.371   3.411  -9.586  1.00  0.00     0.214 HD
ENDBRANCH  25  28
ENDBRANCH   4  25
BRANCH   5  30
HETATM   30  N4  UNL     1     -29.567   4.678  -7.276  1.00  0.00    -0.277 N 
ATOM     31  H4  UNL     1     -30.392   4.369  -6.762  1.00  0.00     0.189 HD
BRANCH  30  32
HETATM   32  N5  UNL     1     -28.419   3.874  -7.393  1.00  0.00    -0.282 N 
ATOM     33  H5  UNL     1     -27.566   4.372  -7.645  1.00  0.00     0.188 HD
BRANCH  32  34
HETATM   34  C5  UNL     1     -28.273   2.503  -7.217  1.00  0.00     0.163 C 
HETATM   35  S2  UNL     1     -28.068   1.925  -5.647  1.00  0.00    -0.050 SA
BRANCH  34  36
HETATM   36  S3  UNL     1     -28.269   1.226  -8.446  1.00  0.00    -0.026 SA
BRANCH  36  37
HETATM   37  S4  UNL     1     -28.566  -0.668  -7.569  1.00  0.00    -0.084 SA
BRANCH  37  38
HETATM   38  C6  UNL     1     -28.177  -1.982  -8.772  1.00  0.00     0.077 C 
HETATM   39  C7  UNL     1     -28.691  -3.345  -8.443  1.00  0.00     0.090 C 
HETATM   40  S5  UNL     1     -27.089  -3.971  -7.940  1.00  0.00    -0.167 SA
HETATM   41  C8  UNL     1     -26.731  -2.387  -8.762  1.00  0.00     0.090 C 
ENDBRANCH  37  38
ENDBRANCH  36  37
ENDBRANCH  34  36
ENDBRANCH  32  34
ENDBRANCH  30  32
ENDBRANCH   5  30
TORSDOF 14
ENDMDL
MODEL 5
REMARK VINA RESULT: -8.728820895      2.427      2.834
REMARK  14 active torsions:
REMARK  status: ('A' for Active; 'I' for Inactive)
REMARK       I    between atoms: C1_2  and  N1_3 
REMARK    1  A    between atoms: C1_2  and  C9_32 
REMARK    2  A    between atoms: N1_3  and  O2_5 
REMARK    3  A    between atoms: O2_5  and  S1_6 
REMARK    4  A    between atoms: S1_6  and  C2_9 
REMARK    5  A    between atoms: N3_12  and  C3_13 
REMARK    6  A    between atoms: C3_13  and  O5_14 
REMARK    7  A    between atoms: C3_13  and  O6_16 
REMARK    8  A    between atoms: C4_18  and  N4_19 
REMARK    9  A    between atoms: N4_19  and  N5_21 
REMARK   10  A    between atoms: N5_21  and  C5_23 
REMARK   11  A    between atoms: C5_23  and  S3_25 
REMARK   12  A    between atoms: S3_25  and  S4_26 
REMARK   13  A    between atoms: S4_26  and  C6_27 
REMARK   14  A    between atoms: C13_37  and  N6_38 
ROOT
HETATM    1  C2  UNL     1     -29.442   8.666  -8.599  1.00  0.00     0.218 A 
HETATM    2  N2  UNL     1     -29.765   8.059  -7.496  1.00  0.00    -0.274 N 
ATOM      3  H2  UNL     1     -29.929   8.612  -6.653  1.00  0.00     0.189 HD
HETATM    4  N3  UNL     1     -29.882   6.781  -7.441  1.00  0.00    -0.214 N 
HETATM    5  C4  UNL     1     -29.662   6.091  -8.549  1.00  0.00     0.187 A 
HETATM    6  S6  UNL     1     -29.281   7.348  -9.674  1.00  0.00    -0.017 SA
ENDROOT
BRANCH   1   7
HETATM    7  S1  UNL     1     -29.237  10.401  -8.930  1.00  0.00     0.342 S 
HETATM    8  O3  UNL     1     -29.192  11.166  -7.658  1.00  0.00    -0.189 OA
HETATM    9  O4  UNL     1     -27.916  10.524  -9.632  1.00  0.00    -0.189 OA
BRANCH   7  10
HETATM   10  O2  UNL     1     -30.436  10.875  -9.968  1.00  0.00    -0.143 OA
BRANCH  10  11
HETATM   11  N1  UNL     1     -30.274  10.454 -11.237  1.00  0.00    -0.213 N 
HETATM   12  C1  UNL     1     -31.419  10.437 -12.071  1.00  0.00     0.276 C 
HETATM   13  O1  UNL     1     -32.545  10.819 -11.594  1.00  0.00    -0.265 OA
ATOM     14  H1  UNL     1     -29.361  10.159 -11.585  1.00  0.00     0.199 HD
BRANCH  12  15
HETATM   15  C9  UNL     1     -31.386  10.002 -13.463  1.00  0.00     0.038 A 
HETATM   16  C10 UNL     1     -31.004   8.695 -13.772  1.00  0.00     0.041 A 
HETATM   17  C11 UNL     1     -30.974   8.299 -15.089  1.00  0.00     0.037 A 
HETATM   18 CL1  UNL     1     -30.496   6.660 -15.474  1.00  0.00    -0.084 Cl
HETATM   19  C12 UNL     1     -31.315   9.172 -16.115  1.00  0.00     0.059 A 
HETATM   20  C13 UNL     1     -31.691  10.460 -15.831  1.00  0.00     0.105 A 
HETATM   21  C14 UNL     1     -31.715  10.837 -14.496  1.00  0.00     0.053 A 
BRANCH  20  22
HETATM   22  N6  UNL     1     -32.041  11.346 -16.876  1.00  0.00    -0.116 N 
HETATM   23  O7  UNL     1     -32.244  12.538 -16.625  1.00  0.00    -0.532 OA
HETATM   24  O8  UNL     1     -32.165  10.913 -18.168  1.00  0.00    -0.532 OA
ENDBRANCH  20  22
ENDBRANCH  12  15
ENDBRANCH  10  11
ENDBRANCH   7  10
ENDBRANCH   1   7
BRANCH   4  25
HETATM   25  C3  UNL     1     -30.290   6.141  -6.163  1.00  0.00     0.390 C 
BRANCH  25  26
HETATM   26  O5  UNL     1     -30.408   7.047  -5.161  1.00  0.00    -0.353 OA
ATOM     27  H5  UNL     1     -30.468   7.935  -5.493  1.00  0.00     0.214 HD
ENDBRANCH  25  26
BRANCH  25  28
HETATM   28  O6  UNL     1     -29.282   5.191  -5.885  1.00  0.00    -0.353 OA
ATOM     29  H6  UNL     1     -29.018   4.851  -6.732  1.00  0.00     0.214 HD
ENDBRANCH  25  28
ENDBRANCH   4  25
BRANCH   5  30
HETATM   30  N4  UNL     1     -29.679   4.800  -8.795  1.00  0.00    -0.277 N 
ATOM     31  H4  UNL     1     -30.466   4.350  -9.263  1.00  0.00     0.189 HD
BRANCH  30  32
HETATM   32  N5  UNL     1     -28.550   4.074  -8.375  1.00  0.00    -0.282 N 
ATOM     33  H5  UNL     1     -27.784   4.639  -8.009  1.00  0.00     0.188 HD
BRANCH  32  34
HETATM   34  C5  UNL     1     -28.321   2.703  -8.384  1.00  0.00     0.163 C 
HETATM   35  S2  UNL     1     -28.271   1.900  -6.903  1.00  0.00    -0.050 SA
BRANCH  34  36
HETATM   36  S3  UNL     1     -28.064   1.637  -9.776  1.00  0.00    -0.026 SA
BRANCH  36  37
HETATM   37  S4  UNL     1     -27.362  -0.254  -9.160  1.00  0.00    -0.084 SA
BRANCH  37  38
HETATM   38  C6  UNL     1     -28.500  -1.559  -9.731  1.00  0.00     0.077 C 
HETATM   39  C7  UNL     1     -28.658  -2.735  -8.823  1.00  0.00     0.090 C 
HETATM   40  S5  UNL     1     -27.648  -3.816  -9.834  1.00  0.00    -0.167 SA
HETATM   41  C8  UNL     1     -27.957  -2.360 -10.880  1.00  0.00     0.090 C 
ENDBRANCH  37  38
ENDBRANCH  36  37
ENDBRANCH  34  36
ENDBRANCH  32  34
ENDBRANCH  30  32
ENDBRANCH   5  30
TORSDOF 14
ENDMDL
