MODEL 1
REMARK VINA RESULT: -9.006480955      0.000      0.000
REMARK  10 active torsions:
REMARK  status: ('A' for Active; 'I' for Inactive)
REMARK    1  A    between atoms: C3_4  and  N1_5 
REMARK    2  A    between atoms: C5_7  and  C6_8 
REMARK    3  A    between atoms: C6_8  and  S1_9 
REMARK    4  A    between atoms: S1_9  and  C7_10 
REMARK    5  A    between atoms: C7_10  and  C8_11 
REMARK    6  A    between atoms: N2_12  and  C9_14 
REMARK    7  A    between atoms: N4_17  and  C10_18 
REMARK    8  A    between atoms: C15_24  and  O3_25 
REMARK    9  A    between atoms: C17_30  and  N6_31 
REMARK   10  A    between atoms: C20_41  and  N9_42 
ROOT
HETATM    1  C9  UNL     1     -30.287  12.739  -8.302  1.00  0.00     0.137 A 
HETATM    2  N3  UNL     1     -30.224  12.159  -9.538  1.00  0.00    -0.280 N 
ATOM      3  H3  UNL     1     -29.442  11.603  -9.883  1.00  0.00     0.189 HD
HETATM    4  N4  UNL     1     -31.322  12.422 -10.221  1.00  0.00    -0.264 N 
HETATM    5  C16 UNL     1     -32.157  13.182  -9.479  1.00  0.00     0.156 A 
HETATM    6  N5  UNL     1     -33.388  13.710  -9.714  1.00  0.00    -0.174 N 
ATOM      7  H5  UNL     1     -33.841  13.546 -10.613  1.00  0.00     0.186 HD
HETATM    8  C17 UNL     1     -34.016  14.444  -8.782  1.00  0.00     0.679 A 
HETATM    9  N7  UNL     1     -33.398  14.647  -7.605  1.00  0.00    -0.176 N 
ATOM     10  H7  UNL     1     -33.869  15.204  -6.892  1.00  0.00     0.186 HD
HETATM   11  C18 UNL     1     -32.175  14.138  -7.334  1.00  0.00     0.132 A 
HETATM   12  N8  UNL     1     -31.580  14.323  -6.212  1.00  0.00    -0.384 N 
ATOM     13  H81 UNL     1     -30.658  13.940  -6.008  1.00  0.00     0.157 HD
ATOM     14  H82 UNL     1     -32.071  14.882  -5.515  1.00  0.00     0.157 HD
HETATM   15  C19 UNL     1     -31.510  13.380  -8.278  1.00  0.00     0.099 A 
ENDROOT
BRANCH   1  16
HETATM   16  N2  UNL     1     -29.314  12.686  -7.278  1.00  0.00    -0.353 N 
HETATM   17  C8  UNL     1     -28.392  13.571  -7.227  1.00  0.00     0.073 C 
ATOM     18  H2  UNL     1     -29.346  11.942  -6.581  1.00  0.00     0.166 HD
BRANCH  17  19
HETATM   19  C7  UNL     1     -28.290  14.656  -8.191  1.00  0.00     0.118 C 
BRANCH  19  20
HETATM   20  S1  UNL     1     -27.111  15.939  -7.859  1.00  0.00    -0.159 SA
BRANCH  20  21
HETATM   21  C6  UNL     1     -26.176  15.766  -6.358  1.00  0.00     0.118 C 
BRANCH  21  22
HETATM   22  C5  UNL     1     -25.037  14.864  -6.477  1.00  0.00     0.016 A 
HETATM   23  C4  UNL     1     -24.507  14.307  -7.603  1.00  0.00     0.125 A 
HETATM   24  N1  UNL     1     -23.416  13.609  -7.229  1.00  0.00    -0.270 N 
HETATM   25  N12 UNL     1     -23.247  13.708  -5.942  1.00  0.00    -0.279 N 
HETATM   26  C20 UNL     1     -24.204  14.460  -5.435  1.00  0.00     0.160 A 
ATOM     27  H12 UNL     1     -22.494  13.272  -5.410  1.00  0.00     0.189 HD
BRANCH  24  28
HETATM   28  C3  UNL     1     -22.563  12.862  -8.127  1.00  0.00     0.267 C 
HETATM   29  O1  UNL     1     -22.925  12.973  -9.442  1.00  0.00    -0.352 OA
HETATM   30  C2  UNL     1     -23.443  11.845 -10.020  1.00  0.00     0.187 C 
HETATM   31  C1  UNL     1     -24.942  11.695  -9.736  1.00  0.00     0.045 C 
HETATM   32  C22 UNL     1     -22.693  10.585  -9.744  1.00  0.00     0.227 C 
HETATM   33  O4  UNL     1     -22.035  10.551  -8.543  1.00  0.00    -0.345 OA
HETATM   34  C23 UNL     1     -23.622   9.375  -9.861  1.00  0.00     0.087 C 
HETATM   35  F1  UNL     1     -21.727  10.391 -10.742  1.00  0.00    -0.209 F 
HETATM   36  C21 UNL     1     -22.465  11.462  -7.612  1.00  0.00     0.227 C 
ENDBRANCH  24  28
BRANCH  26  37
HETATM   37  N9  UNL     1     -24.442  14.854  -4.076  1.00  0.00    -0.180 N 
HETATM   38  N10 UNL     1     -24.400  15.929  -3.337  1.00  0.00    -0.219 N 
HETATM   39  N11 UNL     1     -24.776  15.385  -2.178  1.00  0.00    -0.025 NA
ATOM     40  H10 UNL     1     -24.156  16.891  -3.573  1.00  0.00     0.206 HD
HETATM   41  S2  UNL     1     -24.933  13.850  -2.811  1.00  0.00     0.106 SA
ENDBRANCH  26  37
ENDBRANCH  21  22
ENDBRANCH  20  21
ENDBRANCH  19  20
ENDBRANCH  17  19
ENDBRANCH   1  16
BRANCH   4  42
HETATM   42  C10 UNL     1     -31.659  11.998 -11.571  1.00  0.00     0.165 C 
HETATM   43  C11 UNL     1     -32.985  11.313 -11.661  1.00  0.00     0.199 C 
HETATM   44  O2  UNL     1     -32.784  10.077 -12.266  1.00  0.00    -0.376 OA
HETATM   45  C12 UNL     1     -31.635  10.160 -13.012  1.00  0.00     0.081 C 
HETATM   46  C13 UNL     1     -31.087   8.784 -13.313  1.00  0.00     0.048 C 
HETATM   47  C14 UNL     1     -31.816  11.000 -14.232  1.00  0.00     0.048 C 
HETATM   48  C15 UNL     1     -30.707  10.920 -12.059  1.00  0.00     0.178 C 
BRANCH  48  49
HETATM   49  O3  UNL     1     -30.401  10.068 -11.005  1.00  0.00    -0.390 OA
ATOM     50  H3  UNL     1     -29.594   9.606 -11.200  1.00  0.00     0.210 HD
ENDBRANCH  48  49
ENDBRANCH   4  42
BRANCH   8  51
HETATM   51  N6  UNL     1     -35.202  14.956  -9.005  1.00  0.00    -0.234 N 
ATOM     52  H62 UNL     1     -35.401  15.924  -8.750  1.00  0.00     0.174 HD
ATOM     53  H61 UNL     1     -35.943  14.404  -9.434  1.00  0.00     0.174 HD
ENDBRANCH   8  51
TORSDOF 10
ENDMDL
MODEL 2
REMARK VINA RESULT: -8.564222555      2.349      4.052
REMARK  10 active torsions:
REMARK  status: ('A' for Active; 'I' for Inactive)
REMARK    1  A    between atoms: C3_4  and  N1_5 
REMARK    2  A    between atoms: C5_7  and  C6_8 
REMARK    3  A    between atoms: C6_8  and  S1_9 
REMARK    4  A    between atoms: S1_9  and  C7_10 
REMARK    5  A    between atoms: C7_10  and  C8_11 
REMARK    6  A    between atoms: N2_12  and  C9_14 
REMARK    7  A    between atoms: N4_17  and  C10_18 
REMARK    8  A    between atoms: C15_24  and  O3_25 
REMARK    9  A    between atoms: C17_30  and  N6_31 
REMARK   10  A    between atoms: C20_41  and  N9_42 
ROOT
HETATM    1  C9  UNL     1     -30.386  13.828  -7.432  1.00  0.00     0.137 A 
HETATM    2  N3  UNL     1     -31.051  15.016  -7.560  1.00  0.00    -0.280 N 
ATOM      3  H3  UNL     1     -30.875  15.848  -6.998  1.00  0.00     0.189 HD
HETATM    4  N4  UNL     1     -31.955  14.931  -8.518  1.00  0.00    -0.264 N 
HETATM    5  C16 UNL     1     -31.933  13.696  -9.066  1.00  0.00     0.156 A 
HETATM    6  N5  UNL     1     -32.647  13.109 -10.063  1.00  0.00    -0.174 N 
ATOM      7  H5  UNL     1     -33.367  13.646 -10.547  1.00  0.00     0.186 HD
HETATM    8  C17 UNL     1     -32.419  11.836 -10.422  1.00  0.00     0.679 A 
HETATM    9  N7  UNL     1     -31.465  11.150  -9.770  1.00  0.00    -0.176 N 
ATOM     10  H7  UNL     1     -31.286  10.181 -10.036  1.00  0.00     0.186 HD
HETATM   11  C18 UNL     1     -30.735  11.698  -8.773  1.00  0.00     0.132 A 
HETATM   12  N8  UNL     1     -29.819  11.051  -8.147  1.00  0.00    -0.384 N 
ATOM     13  H81 UNL     1     -29.268  11.464  -7.395  1.00  0.00     0.157 HD
ATOM     14  H82 UNL     1     -29.658  10.085  -8.432  1.00  0.00     0.157 HD
HETATM   15  C19 UNL     1     -30.952  13.006  -8.386  1.00  0.00     0.099 A 
ENDROOT
BRANCH   1  16
HETATM   16  N2  UNL     1     -29.347  13.520  -6.524  1.00  0.00    -0.353 N 
HETATM   17  C8  UNL     1     -28.157  13.927  -6.755  1.00  0.00     0.073 C 
ATOM     18  H2  UNL     1     -29.546  12.974  -5.687  1.00  0.00     0.166 HD
BRANCH  17  19
HETATM   19  C7  UNL     1     -27.808  14.708  -7.931  1.00  0.00     0.118 C 
BRANCH  19  20
HETATM   20  S1  UNL     1     -26.868  16.192  -7.681  1.00  0.00    -0.159 SA
BRANCH  20  21
HETATM   21  C6  UNL     1     -25.719  16.163  -6.327  1.00  0.00     0.118 C 
BRANCH  21  22
HETATM   22  C5  UNL     1     -24.722  15.105  -6.425  1.00  0.00     0.016 A 
HETATM   23  C4  UNL     1     -24.165  14.562  -7.546  1.00  0.00     0.125 A 
HETATM   24  N1  UNL     1     -23.237  13.672  -7.141  1.00  0.00    -0.270 N 
HETATM   25  N12 UNL     1     -23.192  13.640  -5.841  1.00  0.00    -0.279 N 
HETATM   26  C20 UNL     1     -24.073  14.491  -5.355  1.00  0.00     0.160 A 
ATOM     27  H12 UNL     1     -22.573  13.049  -5.285  1.00  0.00     0.189 HD
BRANCH  24  28
HETATM   28  C3  UNL     1     -22.415  12.873  -8.024  1.00  0.00     0.267 C 
HETATM   29  O1  UNL     1     -22.754  12.996  -9.344  1.00  0.00    -0.352 OA
HETATM   30  C2  UNL     1     -23.327  11.894  -9.922  1.00  0.00     0.187 C 
HETATM   31  C1  UNL     1     -24.836  11.830  -9.657  1.00  0.00     0.045 C 
HETATM   32  C22 UNL     1     -22.652  10.597  -9.629  1.00  0.00     0.227 C 
HETATM   33  O4  UNL     1     -22.012  10.534  -8.420  1.00  0.00    -0.345 OA
HETATM   34  C23 UNL     1     -23.645   9.439  -9.751  1.00  0.00     0.087 C 
HETATM   35  F1  UNL     1     -21.686  10.343 -10.614  1.00  0.00    -0.209 F 
HETATM   36  C21 UNL     1     -22.402  11.473  -7.500  1.00  0.00     0.227 C 
ENDBRANCH  24  28
BRANCH  26  37
HETATM   37  N9  UNL     1     -24.390  14.809  -3.991  1.00  0.00    -0.180 N 
HETATM   38  N10 UNL     1     -24.390  15.840  -3.191  1.00  0.00    -0.219 N 
HETATM   39  N11 UNL     1     -24.837  15.233  -2.090  1.00  0.00    -0.025 NA
ATOM     40  H10 UNL     1     -24.129  16.812  -3.356  1.00  0.00     0.206 HD
HETATM   41  S2  UNL     1     -24.960  13.738  -2.819  1.00  0.00     0.106 SA
ENDBRANCH  26  37
ENDBRANCH  21  22
ENDBRANCH  20  21
ENDBRANCH  19  20
ENDBRANCH  17  19
ENDBRANCH   1  16
BRANCH   4  42
HETATM   42  C10 UNL     1     -32.873  15.961  -8.976  1.00  0.00     0.165 C 
HETATM   43  C11 UNL     1     -32.254  17.320  -9.037  1.00  0.00     0.199 C 
HETATM   44  O2  UNL     1     -33.047  18.182  -8.288  1.00  0.00    -0.376 OA
HETATM   45  C12 UNL     1     -34.309  17.647  -8.234  1.00  0.00     0.081 C 
HETATM   46  C13 UNL     1     -35.097  18.237  -7.087  1.00  0.00     0.048 C 
HETATM   47  C14 UNL     1     -35.017  17.745  -9.545  1.00  0.00     0.048 C 
HETATM   48  C15 UNL     1     -34.003  16.168  -7.981  1.00  0.00     0.178 C 
BRANCH  48  49
HETATM   49  O3  UNL     1     -33.502  16.059  -6.691  1.00  0.00    -0.390 OA
ATOM     50  H3  UNL     1     -34.220  15.906  -6.088  1.00  0.00     0.210 HD
ENDBRANCH  48  49
ENDBRANCH   4  42
BRANCH   8  51
HETATM   51  N6  UNL     1     -33.105  11.267 -11.383  1.00  0.00    -0.234 N 
ATOM     52  H62 UNL     1     -33.213  11.731 -12.284  1.00  0.00     0.174 HD
ATOM     53  H61 UNL     1     -33.542  10.355 -11.251  1.00  0.00     0.174 HD
ENDBRANCH   8  51
TORSDOF 10
ENDMDL
MODEL 3
REMARK VINA RESULT: -8.555904030      1.948      3.131
REMARK  10 active torsions:
REMARK  status: ('A' for Active; 'I' for Inactive)
REMARK    1  A    between atoms: C3_4  and  N1_5 
REMARK    2  A    between atoms: C5_7  and  C6_8 
REMARK    3  A    between atoms: C6_8  and  S1_9 
REMARK    4  A    between atoms: S1_9  and  C7_10 
REMARK    5  A    between atoms: C7_10  and  C8_11 
REMARK    6  A    between atoms: N2_12  and  C9_14 
REMARK    7  A    between atoms: N4_17  and  C10_18 
REMARK    8  A    between atoms: C15_24  and  O3_25 
REMARK    9  A    between atoms: C17_30  and  N6_31 
REMARK   10  A    between atoms: C20_41  and  N9_42 
ROOT
HETATM    1  C9  UNL     1     -31.210  12.958 -10.529  1.00  0.00     0.137 A 
HETATM    2  N3  UNL     1     -31.234  12.616 -11.852  1.00  0.00    -0.280 N 
ATOM      3  H3  UNL     1     -31.553  13.223 -12.607  1.00  0.00     0.189 HD
HETATM    4  N4  UNL     1     -30.784  11.386 -12.013  1.00  0.00    -0.264 N 
HETATM    5  C16 UNL     1     -30.443  10.858 -10.816  1.00  0.00     0.156 A 
HETATM    6  N5  UNL     1     -29.938   9.652 -10.443  1.00  0.00    -0.174 N 
ATOM      7  H5  UNL     1     -29.753   8.944 -11.153  1.00  0.00     0.186 HD
HETATM    8  C17 UNL     1     -29.681   9.379  -9.154  1.00  0.00     0.679 A 
HETATM    9  N7  UNL     1     -29.935  10.328  -8.236  1.00  0.00    -0.176 N 
ATOM     10  H7  UNL     1     -29.742  10.127  -7.255  1.00  0.00     0.186 HD
HETATM   11  C18 UNL     1     -30.436  11.538  -8.569  1.00  0.00     0.132 A 
HETATM   12  N8  UNL     1     -30.678  12.452  -7.699  1.00  0.00    -0.384 N 
ATOM     13  H81 UNL     1     -31.056  13.365  -7.950  1.00  0.00     0.157 HD
ATOM     14  H82 UNL     1     -30.476  12.227  -6.725  1.00  0.00     0.157 HD
HETATM   15  C19 UNL     1     -30.709  11.842  -9.888  1.00  0.00     0.099 A 
ENDROOT
BRANCH   1  16
HETATM   16  N2  UNL     1     -31.605  14.187  -9.953  1.00  0.00    -0.353 N 
HETATM   17  C8  UNL     1     -30.740  15.107  -9.755  1.00  0.00     0.073 C 
ATOM     18  H2  UNL     1     -32.580  14.340  -9.696  1.00  0.00     0.166 HD
BRANCH  17  19
HETATM   19  C7  UNL     1     -29.335  14.952 -10.099  1.00  0.00     0.118 C 
BRANCH  19  20
HETATM   20  S1  UNL     1     -28.178  16.065  -9.346  1.00  0.00    -0.159 SA
BRANCH  20  21
HETATM   21  C6  UNL     1     -27.604  15.610  -7.727  1.00  0.00     0.118 C 
BRANCH  21  22
HETATM   22  C5  UNL     1     -26.345  14.876  -7.736  1.00  0.00     0.016 A 
HETATM   23  C4  UNL     1     -25.771  14.184  -8.761  1.00  0.00     0.125 A 
HETATM   24  N1  UNL     1     -24.576  13.739  -8.324  1.00  0.00    -0.270 N 
HETATM   25  N12 UNL     1     -24.385  14.120  -7.094  1.00  0.00    -0.279 N 
HETATM   26  C20 UNL     1     -25.429  14.814  -6.687  1.00  0.00     0.160 A 
ATOM     27  H12 UNL     1     -23.558  13.913  -6.533  1.00  0.00     0.189 HD
BRANCH  24  28
HETATM   28  C3  UNL     1     -23.646  12.956  -9.108  1.00  0.00     0.267 C 
HETATM   29  O1  UNL     1     -24.086  12.697 -10.378  1.00  0.00    -0.352 OA
HETATM   30  C2  UNL     1     -24.420  11.396 -10.645  1.00  0.00     0.187 C 
HETATM   31  C1  UNL     1     -25.852  11.071 -10.203  1.00  0.00     0.045 C 
HETATM   32  C22 UNL     1     -23.442  10.376 -10.167  1.00  0.00     0.227 C 
HETATM   33  O4  UNL     1     -22.731  10.730  -9.052  1.00  0.00    -0.345 OA
HETATM   34  C23 UNL     1     -24.141   9.036  -9.932  1.00  0.00     0.087 C 
HETATM   35  F1  UNL     1     -22.507  10.118 -11.180  1.00  0.00    -0.209 F 
HETATM   36  C21 UNL     1     -23.272  11.749  -8.309  1.00  0.00     0.227 C 
ENDBRANCH  24  28
BRANCH  26  37
HETATM   37  N9  UNL     1     -25.682  15.437  -5.419  1.00  0.00    -0.180 N 
HETATM   38  N10 UNL     1     -26.400  15.241  -4.347  1.00  0.00    -0.219 N 
HETATM   39  N11 UNL     1     -26.023  16.319  -3.658  1.00  0.00    -0.025 NA
ATOM     40  H10 UNL     1     -27.051  14.492  -4.109  1.00  0.00     0.206 HD
HETATM   41  S2  UNL     1     -24.993  16.868  -4.849  1.00  0.00     0.106 SA
ENDBRANCH  26  37
ENDBRANCH  21  22
ENDBRANCH  20  21
ENDBRANCH  19  20
ENDBRANCH  17  19
ENDBRANCH   1  16
BRANCH   4  42
HETATM   42  C10 UNL     1     -30.644  10.638 -13.253  1.00  0.00     0.165 C 
HETATM   43  C11 UNL     1     -30.120  11.463 -14.384  1.00  0.00     0.199 C 
HETATM   44  O2  UNL     1     -31.014  11.349 -15.442  1.00  0.00    -0.376 OA
HETATM   45  C12 UNL     1     -31.703  10.172 -15.282  1.00  0.00     0.081 C 
HETATM   46  C13 UNL     1     -32.984  10.184 -16.083  1.00  0.00     0.048 C 
HETATM   47  C14 UNL     1     -30.849   8.979 -15.556  1.00  0.00     0.048 C 
HETATM   48  C15 UNL     1     -31.999  10.195 -13.779  1.00  0.00     0.178 C 
BRANCH  48  49
HETATM   49  O3  UNL     1     -32.930  11.201 -13.551  1.00  0.00    -0.390 OA
ATOM     50  H3  UNL     1     -33.687  10.833 -13.111  1.00  0.00     0.210 HD
ENDBRANCH  48  49
ENDBRANCH   4  42
BRANCH   8  51
HETATM   51  N6  UNL     1     -29.196   8.217  -8.789  1.00  0.00    -0.234 N 
ATOM     52  H62 UNL     1     -29.404   7.378  -9.331  1.00  0.00     0.174 HD
ATOM     53  H61 UNL     1     -28.604   8.127  -7.963  1.00  0.00     0.174 HD
ENDBRANCH   8  51
TORSDOF 10
ENDMDL
MODEL 4
REMARK VINA RESULT: -8.540767437      5.816      8.830
REMARK  10 active torsions:
REMARK  status: ('A' for Active; 'I' for Inactive)
REMARK    1  A    between atoms: C3_4  and  N1_5 
REMARK    2  A    between atoms: C5_7  and  C6_8 
REMARK    3  A    between atoms: C6_8  and  S1_9 
REMARK    4  A    between atoms: S1_9  and  C7_10 
REMARK    5  A    between atoms: C7_10  and  C8_11 
REMARK    6  A    between atoms: N2_12  and  C9_14 
REMARK    7  A    between atoms: N4_17  and  C10_18 
REMARK    8  A    between atoms: C15_24  and  O3_25 
REMARK    9  A    between atoms: C17_30  and  N6_31 
REMARK   10  A    between atoms: C20_41  and  N9_42 
ROOT
HETATM    1  C9  UNL     1     -31.846  11.160 -14.748  1.00  0.00     0.137 A 
HETATM    2  N3  UNL     1     -31.754  11.490 -13.425  1.00  0.00    -0.280 N 
ATOM      3  H3  UNL     1     -31.991  12.401 -13.032  1.00  0.00     0.189 HD
HETATM    4  N4  UNL     1     -31.314  10.459 -12.728  1.00  0.00    -0.264 N 
HETATM    5  C16 UNL     1     -31.097   9.407 -13.547  1.00  0.00     0.156 A 
HETATM    6  N5  UNL     1     -30.655   8.139 -13.332  1.00  0.00    -0.174 N 
ATOM      7  H5  UNL     1     -30.416   7.845 -12.385  1.00  0.00     0.186 HD
HETATM    8  C17 UNL     1     -30.528   7.269 -14.346  1.00  0.00     0.679 A 
HETATM    9  N7  UNL     1     -30.848   7.680 -15.585  1.00  0.00    -0.176 N 
ATOM     10  H7  UNL     1     -30.754   7.025 -16.361  1.00  0.00     0.186 HD
HETATM   11  C18 UNL     1     -31.291   8.932 -15.838  1.00  0.00     0.132 A 
HETATM   12  N8  UNL     1     -31.603   9.332 -17.018  1.00  0.00    -0.384 N 
ATOM     13  H81 UNL     1     -31.937  10.277 -17.209  1.00  0.00     0.157 HD
ATOM     14  H82 UNL     1     -31.501   8.659 -17.776  1.00  0.00     0.157 HD
HETATM   15  C19 UNL     1     -31.429   9.845 -14.811  1.00  0.00     0.099 A 
ENDROOT
BRANCH   1  16
HETATM   16  N2  UNL     1     -32.279  11.986 -15.811  1.00  0.00    -0.353 N 
HETATM   17  C8  UNL     1     -31.462  12.804 -16.356  1.00  0.00     0.073 C 
ATOM     18  H2  UNL     1     -33.242  11.930 -16.141  1.00  0.00     0.166 HD
BRANCH  17  19
HETATM   19  C7  UNL     1     -30.077  12.932 -15.931  1.00  0.00     0.118 C 
BRANCH  19  20
HETATM   20  S1  UNL     1     -29.098  14.201 -16.693  1.00  0.00    -0.159 SA
BRANCH  20  21
HETATM   21  C6  UNL     1     -28.764  15.630 -15.691  1.00  0.00     0.118 C 
BRANCH  21  22
HETATM   22  C5  UNL     1     -29.409  15.594 -14.385  1.00  0.00     0.016 A 
HETATM   23  C4  UNL     1     -30.633  16.075 -14.026  1.00  0.00     0.125 A 
HETATM   24  N1  UNL     1     -30.832  15.743 -12.735  1.00  0.00    -0.270 N 
HETATM   25  N12 UNL     1     -29.803  15.086 -12.283  1.00  0.00    -0.279 N 
HETATM   26  C20 UNL     1     -28.909  14.967 -13.244  1.00  0.00     0.160 A 
ATOM     27  H12 UNL     1     -29.704  14.721 -11.336  1.00  0.00     0.189 HD
BRANCH  24  28
HETATM   28  C3  UNL     1     -32.014  16.069 -11.968  1.00  0.00     0.267 C 
HETATM   29  O1  UNL     1     -31.789  16.993 -10.985  1.00  0.00    -0.352 OA
HETATM   30  C2  UNL     1     -31.860  16.531  -9.698  1.00  0.00     0.187 C 
HETATM   31  C1  UNL     1     -30.540  15.894  -9.247  1.00  0.00     0.045 C 
HETATM   32  C22 UNL     1     -33.032  15.659  -9.397  1.00  0.00     0.227 C 
HETATM   33  O4  UNL     1     -33.505  14.933 -10.458  1.00  0.00    -0.345 OA
HETATM   34  C23 UNL     1     -32.716  14.723  -8.229  1.00  0.00     0.087 C 
HETATM   35  F1  UNL     1     -34.096  16.451  -8.941  1.00  0.00    -0.209 F 
HETATM   36  C21 UNL     1     -32.632  14.788 -11.505  1.00  0.00     0.227 C 
ENDBRANCH  24  28
BRANCH  26  37
HETATM   37  N9  UNL     1     -27.622  14.330 -13.230  1.00  0.00    -0.180 N 
HETATM   38  N10 UNL     1     -27.091  13.168 -13.504  1.00  0.00    -0.219 N 
HETATM   39  N11 UNL     1     -25.824  13.457 -13.204  1.00  0.00    -0.025 NA
ATOM     40  H10 UNL     1     -27.515  12.305 -13.843  1.00  0.00     0.206 HD
HETATM   41  S2  UNL     1     -26.160  15.032 -12.769  1.00  0.00     0.106 SA
ENDBRANCH  26  37
ENDBRANCH  21  22
ENDBRANCH  20  21
ENDBRANCH  19  20
ENDBRANCH  17  19
ENDBRANCH   1  16
BRANCH   4  42
HETATM   42  C10 UNL     1     -31.075  10.384 -11.295  1.00  0.00     0.165 C 
HETATM   43  C11 UNL     1     -31.968  11.280 -10.499  1.00  0.00     0.199 C 
HETATM   44  O2  UNL     1     -31.161  12.086  -9.703  1.00  0.00    -0.376 OA
HETATM   45  C12 UNL     1     -29.964  11.436  -9.530  1.00  0.00     0.081 C 
HETATM   46  C13 UNL     1     -28.884  12.401  -9.099  1.00  0.00     0.048 C 
HETATM   47  C14 UNL     1     -30.091  10.254  -8.627  1.00  0.00     0.048 C 
HETATM   48  C15 UNL     1     -29.694  10.913 -10.944  1.00  0.00     0.178 C 
BRANCH  48  49
HETATM   49  O3  UNL     1     -29.406  12.008 -11.748  1.00  0.00    -0.390 OA
ATOM     50  H3  UNL     1     -28.669  11.799 -12.311  1.00  0.00     0.210 HD
ENDBRANCH  48  49
ENDBRANCH   4  42
BRANCH   8  51
HETATM   51  N6  UNL     1     -30.101   6.046 -14.144  1.00  0.00    -0.234 N 
ATOM     52  H62 UNL     1     -30.764   5.274 -14.074  1.00  0.00     0.174 HD
ATOM     53  H61 UNL     1     -29.106   5.842 -14.053  1.00  0.00     0.174 HD
ENDBRANCH   8  51
TORSDOF 10
ENDMDL
MODEL 5
REMARK VINA RESULT: -8.493006058      5.459      8.908
REMARK  10 active torsions:
REMARK  status: ('A' for Active; 'I' for Inactive)
REMARK    1  A    between atoms: C3_4  and  N1_5 
REMARK    2  A    between atoms: C5_7  and  C6_8 
REMARK    3  A    between atoms: C6_8  and  S1_9 
REMARK    4  A    between atoms: S1_9  and  C7_10 
REMARK    5  A    between atoms: C7_10  and  C8_11 
REMARK    6  A    between atoms: N2_12  and  C9_14 
REMARK    7  A    between atoms: N4_17  and  C10_18 
REMARK    8  A    between atoms: C15_24  and  O3_25 
REMARK    9  A    between atoms: C17_30  and  N6_31 
REMARK   10  A    between atoms: C20_41  and  N9_42 
ROOT
HETATM    1  C9  UNL     1     -31.786  11.234 -14.591  1.00  0.00     0.137 A 
HETATM    2  N3  UNL     1     -31.673  11.529 -13.260  1.00  0.00    -0.280 N 
ATOM      3  H3  UNL     1     -31.887  12.434 -12.842  1.00  0.00     0.189 HD
HETATM    4  N4  UNL     1     -31.246  10.472 -12.595  1.00  0.00    -0.264 N 
HETATM    5  C16 UNL     1     -31.058   9.437 -13.443  1.00  0.00     0.156 A 
HETATM    6  N5  UNL     1     -30.639   8.156 -13.265  1.00  0.00    -0.174 N 
ATOM      7  H5  UNL     1     -30.396   7.833 -12.328  1.00  0.00     0.186 HD
HETATM    8  C17 UNL     1     -30.540   7.310 -14.303  1.00  0.00     0.679 A 
HETATM    9  N7  UNL     1     -30.866   7.759 -15.527  1.00  0.00    -0.176 N 
ATOM     10  H7  UNL     1     -30.793   7.122 -16.320  1.00  0.00     0.186 HD
HETATM   11  C18 UNL     1     -31.286   9.025 -15.743  1.00  0.00     0.132 A 
HETATM   12  N8  UNL     1     -31.603   9.461 -16.908  1.00  0.00    -0.384 N 
ATOM     13  H81 UNL     1     -31.920  10.417 -17.072  1.00  0.00     0.157 HD
ATOM     14  H82 UNL     1     -31.523   8.806 -17.685  1.00  0.00     0.157 HD
HETATM   15  C19 UNL     1     -31.395   9.913 -14.691  1.00  0.00     0.099 A 
ENDROOT
BRANCH   1  16
HETATM   16  N2  UNL     1     -32.213  12.096 -15.627  1.00  0.00    -0.353 N 
HETATM   17  C8  UNL     1     -31.634  13.222 -15.801  1.00  0.00     0.073 C 
ATOM     18  H2  UNL     1     -32.984  11.819 -16.235  1.00  0.00     0.166 HD
BRANCH  17  19
HETATM   19  C7  UNL     1     -30.530  13.675 -14.968  1.00  0.00     0.118 C 
BRANCH  19  20
HETATM   20  S1  UNL     1     -29.862  15.285 -15.295  1.00  0.00    -0.159 SA
BRANCH  20  21
HETATM   21  C6  UNL     1     -30.095  16.496 -14.016  1.00  0.00     0.118 C 
BRANCH  21  22
HETATM   22  C5  UNL     1     -30.539  15.932 -12.747  1.00  0.00     0.016 A 
HETATM   23  C4  UNL     1     -31.802  15.872 -12.238  1.00  0.00     0.125 A 
HETATM   24  N1  UNL     1     -31.735  15.192 -11.076  1.00  0.00    -0.270 N 
HETATM   25  N12 UNL     1     -30.506  14.830 -10.846  1.00  0.00    -0.279 N 
HETATM   26  C20 UNL     1     -29.737  15.253 -11.830  1.00  0.00     0.160 A 
ATOM     27  H12 UNL     1     -30.187  14.303 -10.033  1.00  0.00     0.189 HD
BRANCH  24  28
HETATM   28  C3  UNL     1     -32.862  14.907 -10.217  1.00  0.00     0.267 C 
HETATM   29  O1  UNL     1     -33.953  15.693 -10.469  1.00  0.00    -0.352 OA
HETATM   30  C2  UNL     1     -34.266  16.615  -9.506  1.00  0.00     0.187 C 
HETATM   31  C1  UNL     1     -33.444  17.901  -9.658  1.00  0.00     0.045 C 
HETATM   32  C22 UNL     1     -34.250  16.103  -8.105  1.00  0.00     0.227 C 
HETATM   33  O4  UNL     1     -33.377  15.075  -7.871  1.00  0.00    -0.345 OA
HETATM   34  C23 UNL     1     -33.981  17.246  -7.123  1.00  0.00     0.087 C 
HETATM   35  F1  UNL     1     -35.528  15.636  -7.766  1.00  0.00    -0.209 F 
HETATM   36  C21 UNL     1     -32.380  14.929  -8.801  1.00  0.00     0.227 C 
ENDBRANCH  24  28
BRANCH  26  37
HETATM   37  N9  UNL     1     -28.323  15.102 -12.024  1.00  0.00    -0.180 N 
HETATM   38  N10 UNL     1     -27.480  14.231 -12.508  1.00  0.00    -0.219 N 
HETATM   39  N11 UNL     1     -26.351  14.906 -12.285  1.00  0.00    -0.025 NA
ATOM     40  H10 UNL     1     -27.635  13.314 -12.929  1.00  0.00     0.206 HD
HETATM   41  S2  UNL     1     -27.127  16.214 -11.600  1.00  0.00     0.106 SA
ENDBRANCH  26  37
ENDBRANCH  21  22
ENDBRANCH  20  21
ENDBRANCH  19  20
ENDBRANCH  17  19
ENDBRANCH   1  16
BRANCH   4  42
HETATM   42  C10 UNL     1     -30.993  10.356 -11.168  1.00  0.00     0.165 C 
HETATM   43  C11 UNL     1     -31.859  11.249 -10.338  1.00  0.00     0.199 C 
HETATM   44  O2  UNL     1     -31.027  12.017  -9.532  1.00  0.00    -0.376 OA
HETATM   45  C12 UNL     1     -29.842  11.339  -9.389  1.00  0.00     0.081 C 
HETATM   46  C13 UNL     1     -28.738  12.272  -8.945  1.00  0.00     0.048 C 
HETATM   47  C14 UNL     1     -29.983  10.138  -8.515  1.00  0.00     0.048 C 
HETATM   48  C15 UNL     1     -29.598  10.847 -10.819  1.00  0.00     0.178 C 
BRANCH  48  49
HETATM   49  O3  UNL     1     -29.296  11.957 -11.598  1.00  0.00    -0.390 OA
ATOM     50  H3  UNL     1     -28.384  11.916 -11.861  1.00  0.00     0.210 HD
ENDBRANCH  48  49
ENDBRANCH   4  42
BRANCH   8  51
HETATM   51  N6  UNL     1     -30.135   6.074 -14.136  1.00  0.00    -0.234 N 
ATOM     52  H62 UNL     1     -30.585   5.311 -14.643  1.00  0.00     0.174 HD
ATOM     53  H61 UNL     1     -29.368   5.850 -13.502  1.00  0.00     0.174 HD
ENDBRANCH   8  51
TORSDOF 10
ENDMDL
