MODEL 1
REMARK VINA RESULT: -9.055544826      0.000      0.000
REMARK  11 active torsions:
REMARK  status: ('A' for Active; 'I' for Inactive)
REMARK    1  A    between atoms: C2_2  and  C3_3 
REMARK    2  A    between atoms: C5_7  and  N2_8 
REMARK    3  A    between atoms: N2_8  and  C6_10 
REMARK    4  A    between atoms: C8_13  and  C9_14 
REMARK    5  A    between atoms: C12_22  and  N5_23 
REMARK    6  A    between atoms: C13_28  and  N7_29 
REMARK    7  A    between atoms: C15_35  and  O2_36 
REMARK    8  A    between atoms: O2_36  and  C16_37 
REMARK    9  A    between atoms: C16_37  and  C17_38 
REMARK   10  A    between atoms: N12_43  and  C18_44 
REMARK   11  A    between atoms: C18_44  and  C19_45 
ROOT
HETATM    1  C3  UNL     1     -30.782   7.684 -15.008  1.00  0.00     0.053 A 
HETATM    2  N1  UNL     1     -31.216   8.903 -15.273  1.00  0.00    -0.349 N 
ATOM      3  H1  UNL     1     -31.185   9.259 -16.228  1.00  0.00     0.166 HD
HETATM    4  C4  UNL     1     -31.685   9.654 -14.314  1.00  0.00     0.112 A 
HETATM    5  C5  UNL     1     -32.184  10.983 -14.453  1.00  0.00     0.139 A 
HETATM    6  N8  UNL     1     -32.624  11.591 -13.341  1.00  0.00    -0.306 N 
ATOM      7  H8  UNL     1     -32.980  12.540 -13.448  1.00  0.00     0.171 HD
HETATM    8  C15 UNL     1     -32.644  11.077 -12.106  1.00  0.00     0.226 A 
HETATM    9  N15 UNL     1     -32.171   9.824 -11.984  1.00  0.00    -0.314 N 
ATOM     10  H15 UNL     1     -32.163   9.385 -11.063  1.00  0.00     0.170 HD
HETATM   11  C24 UNL     1     -31.703   9.122 -13.054  1.00  0.00     0.109 A 
HETATM   12  S1  UNL     1     -31.039   7.568 -13.325  1.00  0.00    -0.057 SA
ENDROOT
BRANCH   5  13
HETATM   13  N2  UNL     1     -32.176  11.624 -15.686  1.00  0.00    -0.338 N 
ATOM     14  H2  UNL     1     -32.950  11.384 -16.306  1.00  0.00     0.167 HD
BRANCH  13  15
HETATM   15  C6  UNL     1     -31.356  12.455 -16.148  1.00  0.00     0.076 A 
HETATM   16  C7  UNL     1     -30.307  13.059 -15.486  1.00  0.00     0.092 A 
HETATM   17 CL1  UNL     1     -29.974  12.699 -13.811  1.00  0.00    -0.079 Cl
HETATM   18  C8  UNL     1     -29.487  13.963 -16.124  1.00  0.00     0.104 A 
HETATM   19  N3  UNL     1     -29.721  14.250 -17.409  1.00  0.00    -0.337 N 
HETATM   20  C11 UNL     1     -30.731  13.683 -18.087  1.00  0.00     0.138 A 
ATOM     21  H3  UNL     1     -29.115  14.918 -17.886  1.00  0.00     0.167 HD
HETATM   22  N4  UNL     1     -30.955  13.990 -19.401  1.00  0.00    -0.176 N 
HETATM   23  C14 UNL     1     -31.579  12.779 -17.509  1.00  0.00     0.081 A 
HETATM   24  C12 UNL     1     -31.982  13.405 -20.070  1.00  0.00     0.679 A 
ATOM     25  H4  UNL     1     -30.350  14.658 -19.877  1.00  0.00     0.186 HD
HETATM   26  N6  UNL     1     -32.798  12.524 -19.485  1.00  0.00    -0.176 N 
HETATM   27  C13 UNL     1     -32.626  12.186 -18.197  1.00  0.00     0.131 A 
ATOM     28  H6  UNL     1     -33.559  12.106 -20.020  1.00  0.00     0.186 HD
BRANCH  18  29
HETATM   29  C9  UNL     1     -28.366  14.606 -15.395  1.00  0.00     0.173 C 
HETATM   30  C10 UNL     1     -27.033  13.954 -15.393  1.00  0.00     0.098 C 
HETATM   31  O1  UNL     1     -28.503  15.671 -14.786  1.00  0.00    -0.291 OA
ENDBRANCH  18  29
BRANCH  24  32
HETATM   32  N5  UNL     1     -32.165  13.715 -21.307  1.00  0.00    -0.234 N 
ATOM     33  H52 UNL     1     -31.481  14.302 -21.784  1.00  0.00     0.174 HD
ATOM     34  H51 UNL     1     -32.997  13.361 -21.779  1.00  0.00     0.174 HD
ENDBRANCH  24  32
BRANCH  27  35
HETATM   35  N7  UNL     1     -33.406  11.335 -17.618  1.00  0.00    -0.384 N 
ATOM     36  H72 UNL     1     -34.404  11.519 -17.519  1.00  0.00     0.157 HD
ATOM     37  H71 UNL     1     -33.045  10.458 -17.242  1.00  0.00     0.157 HD
ENDBRANCH  27  35
ENDBRANCH  13  15
ENDBRANCH   5  13
BRANCH   8  38
HETATM   38  O2  UNL     1     -33.130  11.834 -11.059  1.00  0.00    -0.314 OA
BRANCH  38  39
HETATM   39  C16 UNL     1     -32.420  12.940 -10.554  1.00  0.00     0.257 C 
BRANCH  39  40
HETATM   40  C17 UNL     1     -31.990  12.780  -9.142  1.00  0.00     0.134 A 
HETATM   41  N9  UNL     1     -32.690  13.152  -8.033  1.00  0.00    -0.272 N 
HETATM   42  N10 UNL     1     -31.995  12.871  -6.945  1.00  0.00    -0.007 NA
ATOM     43  H9  UNL     1     -33.614  13.584  -8.041  1.00  0.00     0.185 HD
HETATM   44  N11 UNL     1     -30.857  12.323  -7.332  1.00  0.00    -0.005 NA
HETATM   45  N12 UNL     1     -30.844  12.262  -8.670  1.00  0.00    -0.257 N 
BRANCH  45  46
HETATM   46  C18 UNL     1     -29.741  11.703  -9.393  1.00  0.00     0.206 C 
BRANCH  46  47
HETATM   47  C19 UNL     1     -29.596  10.267  -8.995  1.00  0.00     0.044 A 
HETATM   48  C20 UNL     1     -29.401   9.360 -10.019  1.00  0.00     0.114 A 
HETATM   49  N13 UNL     1     -29.271   8.064  -9.730  1.00  0.00    -0.371 N 
HETATM   50  C21 UNL     1     -29.331   7.660  -8.460  1.00  0.00     0.112 A 
ATOM     51  H13 UNL     1     -29.127   7.385 -10.477  1.00  0.00     0.164 HD
HETATM   52  C22 UNL     1     -29.524   8.533  -7.407  1.00  0.00     0.021 A 
HETATM   53  C23 UNL     1     -29.581   8.036  -6.020  1.00  0.00     0.069 C 
HETATM   54  N14 UNL     1     -29.650   9.827  -7.740  1.00  0.00    -0.360 N 
ATOM     55  H14 UNL     1     -29.794  10.508  -6.993  1.00  0.00     0.165 HD
ENDBRANCH  46  47
ENDBRANCH  45  46
ENDBRANCH  39  40
ENDBRANCH  38  39
ENDBRANCH   8  38
BRANCH   1  56
HETATM   56  C2  UNL     1     -30.215   6.704 -16.004  1.00  0.00     0.060 C 
HETATM   57  C1  UNL     1     -31.045   6.837 -17.247  1.00  0.00     0.012 C 
ENDBRANCH   1  56
TORSDOF 11
ENDMDL
MODEL 2
REMARK VINA RESULT: -8.939022377      2.849      5.195
REMARK  11 active torsions:
REMARK  status: ('A' for Active; 'I' for Inactive)
REMARK    1  A    between atoms: C2_2  and  C3_3 
REMARK    2  A    between atoms: C5_7  and  N2_8 
REMARK    3  A    between atoms: N2_8  and  C6_10 
REMARK    4  A    between atoms: C8_13  and  C9_14 
REMARK    5  A    between atoms: C12_22  and  N5_23 
REMARK    6  A    between atoms: C13_28  and  N7_29 
REMARK    7  A    between atoms: C15_35  and  O2_36 
REMARK    8  A    between atoms: O2_36  and  C16_37 
REMARK    9  A    between atoms: C16_37  and  C17_38 
REMARK   10  A    between atoms: N12_43  and  C18_44 
REMARK   11  A    between atoms: C18_44  and  C19_45 
ROOT
HETATM    1  C3  UNL     1     -27.887  13.722 -13.467  1.00  0.00     0.053 A 
HETATM    2  N1  UNL     1     -28.906  12.894 -13.332  1.00  0.00    -0.349 N 
ATOM      3  H1  UNL     1     -28.876  11.974 -13.768  1.00  0.00     0.166 HD
HETATM    4  C4  UNL     1     -29.953  13.253 -12.638  1.00  0.00     0.112 A 
HETATM    5  C5  UNL     1     -31.120  12.466 -12.409  1.00  0.00     0.139 A 
HETATM    6  N8  UNL     1     -32.093  13.015 -11.666  1.00  0.00    -0.306 N 
ATOM      7  H8  UNL     1     -32.924  12.447 -11.507  1.00  0.00     0.171 HD
HETATM    8  C15 UNL     1     -32.081  14.233 -11.113  1.00  0.00     0.226 A 
HETATM    9  N15 UNL     1     -30.977  14.967 -11.333  1.00  0.00    -0.314 N 
ATOM     10  H15 UNL     1     -30.918  15.904 -10.934  1.00  0.00     0.170 HD
HETATM   11  C24 UNL     1     -29.934  14.498 -12.075  1.00  0.00     0.109 A 
HETATM   12  S1  UNL     1     -28.407  15.084 -12.579  1.00  0.00    -0.057 SA
ENDROOT
BRANCH   5  13
HETATM   13  N2  UNL     1     -31.250  11.200 -12.969  1.00  0.00    -0.338 N 
ATOM     14  H2  UNL     1     -31.269  10.429 -12.301  1.00  0.00     0.167 HD
BRANCH  13  15
HETATM   15  C6  UNL     1     -31.346  10.866 -14.176  1.00  0.00     0.076 A 
HETATM   16  C7  UNL     1     -31.671  11.672 -15.247  1.00  0.00     0.092 A 
HETATM   17 CL1  UNL     1     -31.999  13.372 -15.028  1.00  0.00    -0.079 Cl
HETATM   18  C8  UNL     1     -31.745  11.164 -16.525  1.00  0.00     0.104 A 
HETATM   19  N3  UNL     1     -31.493   9.865 -16.717  1.00  0.00    -0.337 N 
HETATM   20  C11 UNL     1     -31.173   9.048 -15.700  1.00  0.00     0.138 A 
ATOM     21  H3  UNL     1     -31.546   9.483 -17.662  1.00  0.00     0.167 HD
HETATM   22  N4  UNL     1     -30.919   7.723 -15.916  1.00  0.00    -0.176 N 
HETATM   23  C14 UNL     1     -31.084   9.494 -14.410  1.00  0.00     0.081 A 
HETATM   24  C12 UNL     1     -30.596   6.913 -14.874  1.00  0.00     0.679 A 
ATOM     25  H4  UNL     1     -30.972   7.341 -16.861  1.00  0.00     0.186 HD
HETATM   26  N6  UNL     1     -30.515   7.371 -13.622  1.00  0.00    -0.176 N 
HETATM   27  C13 UNL     1     -30.754   8.663 -13.351  1.00  0.00     0.131 A 
ATOM     28  H6  UNL     1     -30.269   6.732 -12.864  1.00  0.00     0.186 HD
BRANCH  18  29
HETATM   29  C9  UNL     1     -32.101  12.044 -17.666  1.00  0.00     0.173 C 
HETATM   30  C10 UNL     1     -33.352  11.785 -18.420  1.00  0.00     0.098 C 
HETATM   31  O1  UNL     1     -31.387  12.990 -18.013  1.00  0.00    -0.291 OA
ENDBRANCH  18  29
BRANCH  24  32
HETATM   32  N5  UNL     1     -30.362   5.670 -15.112  1.00  0.00    -0.234 N 
ATOM     33  H52 UNL     1     -29.409   5.368 -15.315  1.00  0.00     0.174 HD
ATOM     34  H51 UNL     1     -31.143   5.014 -15.090  1.00  0.00     0.174 HD
ENDBRANCH  24  32
BRANCH  27  35
HETATM   35  N7  UNL     1     -30.678   9.121 -12.146  1.00  0.00    -0.384 N 
ATOM     36  H72 UNL     1     -29.782   9.397 -11.744  1.00  0.00     0.157 HD
ATOM     37  H71 UNL     1     -31.509   9.217 -11.562  1.00  0.00     0.157 HD
ENDBRANCH  27  35
ENDBRANCH  13  15
ENDBRANCH   5  13
BRANCH   8  38
HETATM   38  O2  UNL     1     -33.166  14.656 -10.371  1.00  0.00    -0.314 OA
BRANCH  38  39
HETATM   39  C16 UNL     1     -33.656  13.907  -9.284  1.00  0.00     0.257 C 
BRANCH  39  40
HETATM   40  C17 UNL     1     -32.759  13.917  -8.100  1.00  0.00     0.134 A 
HETATM   41  N9  UNL     1     -32.772  14.820  -7.079  1.00  0.00    -0.272 N 
HETATM   42  N10 UNL     1     -31.824  14.528  -6.207  1.00  0.00    -0.007 NA
ATOM     43  H9  UNL     1     -33.417  15.605  -7.000  1.00  0.00     0.185 HD
HETATM   44  N11 UNL     1     -31.198  13.451  -6.646  1.00  0.00    -0.005 NA
HETATM   45  N12 UNL     1     -31.761  13.069  -7.800  1.00  0.00    -0.257 N 
BRANCH  45  46
HETATM   46  C18 UNL     1     -31.308  11.917  -8.520  1.00  0.00     0.206 C 
BRANCH  46  47
HETATM   47  C19 UNL     1     -29.899  12.160  -8.962  1.00  0.00     0.044 A 
HETATM   48  C20 UNL     1     -29.268  11.117  -9.613  1.00  0.00     0.114 A 
HETATM   49  N13 UNL     1     -28.008  11.269 -10.025  1.00  0.00    -0.371 N 
HETATM   50  C21 UNL     1     -27.374  12.422  -9.806  1.00  0.00     0.112 A 
ATOM     51  H13 UNL     1     -27.532  10.507 -10.507  1.00  0.00     0.164 HD
HETATM   52  C22 UNL     1     -27.968  13.488  -9.159  1.00  0.00     0.021 A 
HETATM   53  C23 UNL     1     -27.224  14.744  -8.941  1.00  0.00     0.069 C 
HETATM   54  N14 UNL     1     -29.235  13.296  -8.760  1.00  0.00    -0.360 N 
ATOM     55  H14 UNL     1     -29.712  14.058  -8.279  1.00  0.00     0.165 HD
ENDBRANCH  46  47
ENDBRANCH  45  46
ENDBRANCH  39  40
ENDBRANCH  38  39
ENDBRANCH   8  38
BRANCH   1  56
HETATM   56  C2  UNL     1     -26.616  13.454 -14.233  1.00  0.00     0.060 C 
HETATM   57  C1  UNL     1     -25.529  13.309 -13.209  1.00  0.00     0.012 C 
ENDBRANCH   1  56
TORSDOF 11
ENDMDL
MODEL 3
REMARK VINA RESULT: -8.873540285      1.377      3.068
REMARK  11 active torsions:
REMARK  status: ('A' for Active; 'I' for Inactive)
REMARK    1  A    between atoms: C2_2  and  C3_3 
REMARK    2  A    between atoms: C5_7  and  N2_8 
REMARK    3  A    between atoms: N2_8  and  C6_10 
REMARK    4  A    between atoms: C8_13  and  C9_14 
REMARK    5  A    between atoms: C12_22  and  N5_23 
REMARK    6  A    between atoms: C13_28  and  N7_29 
REMARK    7  A    between atoms: C15_35  and  O2_36 
REMARK    8  A    between atoms: O2_36  and  C16_37 
REMARK    9  A    between atoms: C16_37  and  C17_38 
REMARK   10  A    between atoms: N12_43  and  C18_44 
REMARK   11  A    between atoms: C18_44  and  C19_45 
ROOT
HETATM    1  C3  UNL     1     -31.058   7.701 -16.827  1.00  0.00     0.053 A 
HETATM    2  N1  UNL     1     -31.304   8.966 -16.538  1.00  0.00    -0.349 N 
ATOM      3  H1  UNL     1     -31.555   9.619 -17.281  1.00  0.00     0.166 HD
HETATM    4  C4  UNL     1     -31.228   9.382 -15.303  1.00  0.00     0.112 A 
HETATM    5  C5  UNL     1     -31.467  10.713 -14.848  1.00  0.00     0.139 A 
HETATM    6  N8  UNL     1     -31.337  10.942 -13.533  1.00  0.00    -0.306 N 
ATOM      7  H8  UNL     1     -31.509  11.896 -13.214  1.00  0.00     0.171 HD
HETATM    8  C15 UNL     1     -31.006  10.046 -12.597  1.00  0.00     0.226 A 
HETATM    9  N15 UNL     1     -30.783   8.794 -13.035  1.00  0.00    -0.314 N 
ATOM     10  H15 UNL     1     -30.526   8.073 -12.361  1.00  0.00     0.170 HD
HETATM   11  C24 UNL     1     -30.890   8.461 -14.352  1.00  0.00     0.109 A 
HETATM   12  S1  UNL     1     -30.698   7.045 -15.293  1.00  0.00    -0.057 SA
ENDROOT
BRANCH   5  13
HETATM   13  N2  UNL     1     -31.783  11.729 -15.743  1.00  0.00    -0.338 N 
ATOM     14  H2  UNL     1     -32.772  11.810 -15.977  1.00  0.00     0.167 HD
BRANCH  13  15
HETATM   15  C6  UNL     1     -31.028  12.561 -16.305  1.00  0.00     0.076 A 
HETATM   16  C7  UNL     1     -29.930  13.199 -15.766  1.00  0.00     0.092 A 
HETATM   17 CL1  UNL     1     -29.426  12.889 -14.123  1.00  0.00    -0.079 Cl
HETATM   18  C8  UNL     1     -29.194  14.099 -16.504  1.00  0.00     0.104 A 
HETATM   19  N3  UNL     1     -29.560  14.348 -17.766  1.00  0.00    -0.337 N 
HETATM   20  C11 UNL     1     -30.622  13.747 -18.326  1.00  0.00     0.138 A 
ATOM     21  H3  UNL     1     -29.018  15.013 -18.317  1.00  0.00     0.167 HD
HETATM   22  N4  UNL     1     -30.980  14.015 -19.618  1.00  0.00    -0.176 N 
HETATM   23  C14 UNL     1     -31.391  12.845 -17.644  1.00  0.00     0.081 A 
HETATM   24  C12 UNL     1     -32.057  13.397 -20.167  1.00  0.00     0.679 A 
ATOM     25  H4  UNL     1     -30.439  14.681 -20.169  1.00  0.00     0.186 HD
HETATM   26  N6  UNL     1     -32.795  12.518 -19.481  1.00  0.00    -0.176 N 
HETATM   27  C13 UNL     1     -32.490  12.217 -18.210  1.00  0.00     0.131 A 
ATOM     28  H6  UNL     1     -33.597  12.073 -19.928  1.00  0.00     0.186 HD
BRANCH  18  29
HETATM   29  C9  UNL     1     -28.019  14.779 -15.906  1.00  0.00     0.173 C 
HETATM   30  C10 UNL     1     -26.671  14.181 -16.075  1.00  0.00     0.098 C 
HETATM   31  O1  UNL     1     -28.122  15.832 -15.269  1.00  0.00    -0.291 OA
ENDBRANCH  18  29
BRANCH  24  32
HETATM   32  N5  UNL     1     -32.368  13.670 -21.387  1.00  0.00    -0.234 N 
ATOM     33  H52 UNL     1     -31.933  14.469 -21.848  1.00  0.00     0.174 HD
ATOM     34  H51 UNL     1     -33.047  13.075 -21.861  1.00  0.00     0.174 HD
ENDBRANCH  24  32
BRANCH  27  35
HETATM   35  N7  UNL     1     -33.192  11.369 -17.535  1.00  0.00    -0.384 N 
ATOM     36  H72 UNL     1     -33.460  10.471 -17.937  1.00  0.00     0.157 HD
ATOM     37  H71 UNL     1     -33.499  11.574 -16.584  1.00  0.00     0.157 HD
ENDBRANCH  27  35
ENDBRANCH  13  15
ENDBRANCH   5  13
BRANCH   8  38
HETATM   38  O2  UNL     1     -30.912  10.440 -11.276  1.00  0.00    -0.314 OA
BRANCH  38  39
HETATM   39  C16 UNL     1     -29.666  10.597 -10.639  1.00  0.00     0.257 C 
BRANCH  39  40
HETATM   40  C17 UNL     1     -29.686  10.248  -9.195  1.00  0.00     0.134 A 
HETATM   41  N9  UNL     1     -29.750   8.994  -8.664  1.00  0.00    -0.272 N 
HETATM   42  N10 UNL     1     -29.764   9.064  -7.345  1.00  0.00    -0.007 NA
ATOM     43  H9  UNL     1     -29.782   8.130  -9.204  1.00  0.00     0.185 HD
HETATM   44  N11 UNL     1     -29.711  10.341  -7.014  1.00  0.00    -0.005 NA
HETATM   45  N12 UNL     1     -29.662  11.072  -8.135  1.00  0.00    -0.257 N 
BRANCH  45  46
HETATM   46  C18 UNL     1     -29.585  12.502  -8.105  1.00  0.00     0.206 C 
BRANCH  46  47
HETATM   47  C19 UNL     1     -30.961  13.054  -8.314  1.00  0.00     0.044 A 
HETATM   48  C20 UNL     1     -31.559  13.648  -7.220  1.00  0.00     0.114 A 
HETATM   49  N13 UNL     1     -32.788  14.153  -7.339  1.00  0.00    -0.371 N 
HETATM   50  C21 UNL     1     -33.424  14.078  -8.509  1.00  0.00     0.112 A 
ATOM     51  H13 UNL     1     -33.240  14.595  -6.539  1.00  0.00     0.164 HD
HETATM   52  C22 UNL     1     -32.862  13.492  -9.627  1.00  0.00     0.021 A 
HETATM   53  C23 UNL     1     -33.606  13.435 -10.899  1.00  0.00     0.069 C 
HETATM   54  N14 UNL     1     -31.625  12.997  -9.466  1.00  0.00    -0.360 N 
ATOM     55  H14 UNL     1     -31.172  12.555 -10.266  1.00  0.00     0.165 HD
ENDBRANCH  46  47
ENDBRANCH  45  46
ENDBRANCH  39  40
ENDBRANCH  38  39
ENDBRANCH   8  38
BRANCH   1  56
HETATM   56  C2  UNL     1     -31.104   7.074 -18.197  1.00  0.00     0.060 C 
HETATM   57  C1  UNL     1     -30.205   5.874 -18.142  1.00  0.00     0.012 C 
ENDBRANCH   1  56
TORSDOF 11
ENDMDL
MODEL 4
REMARK VINA RESULT: -8.759828470      3.289      6.132
REMARK  11 active torsions:
REMARK  status: ('A' for Active; 'I' for Inactive)
REMARK    1  A    between atoms: C2_2  and  C3_3 
REMARK    2  A    between atoms: C5_7  and  N2_8 
REMARK    3  A    between atoms: N2_8  and  C6_10 
REMARK    4  A    between atoms: C8_13  and  C9_14 
REMARK    5  A    between atoms: C12_22  and  N5_23 
REMARK    6  A    between atoms: C13_28  and  N7_29 
REMARK    7  A    between atoms: C15_35  and  O2_36 
REMARK    8  A    between atoms: O2_36  and  C16_37 
REMARK    9  A    between atoms: C16_37  and  C17_38 
REMARK   10  A    between atoms: N12_43  and  C18_44 
REMARK   11  A    between atoms: C18_44  and  C19_45 
ROOT
HETATM    1  C3  UNL     1     -33.171  15.829  -8.805  1.00  0.00     0.053 A 
HETATM    2  N1  UNL     1     -32.720  14.919  -9.650  1.00  0.00    -0.349 N 
ATOM      3  H1  UNL     1     -32.919  15.007 -10.646  1.00  0.00     0.166 HD
HETATM    4  C4  UNL     1     -32.021  13.908  -9.211  1.00  0.00     0.112 A 
HETATM    5  C5  UNL     1     -31.473  12.857 -10.004  1.00  0.00     0.139 A 
HETATM    6  N8  UNL     1     -30.780  11.904  -9.364  1.00  0.00    -0.306 N 
ATOM      7  H8  UNL     1     -30.392  11.155  -9.937  1.00  0.00     0.171 HD
HETATM    8  C15 UNL     1     -30.547  11.836  -8.048  1.00  0.00     0.226 A 
HETATM    9  N15 UNL     1     -31.067  12.832  -7.308  1.00  0.00    -0.314 N 
ATOM     10  H15 UNL     1     -30.919  12.827  -6.299  1.00  0.00     0.170 HD
HETATM   11  C24 UNL     1     -31.785  13.846  -7.866  1.00  0.00     0.109 A 
HETATM   12  S1  UNL     1     -32.590  15.250  -7.308  1.00  0.00    -0.057 SA
ENDROOT
BRANCH   5  13
HETATM   13  N2  UNL     1     -31.686  12.812 -11.377  1.00  0.00    -0.338 N 
ATOM     14  H2  UNL     1     -32.664  12.840 -11.667  1.00  0.00     0.167 HD
BRANCH  13  15
HETATM   15  C6  UNL     1     -30.851  12.743 -12.313  1.00  0.00     0.076 A 
HETATM   16  C7  UNL     1     -29.645  13.404 -12.414  1.00  0.00     0.092 A 
HETATM   17 CL1  UNL     1     -29.102  14.484 -11.154  1.00  0.00    -0.079 Cl
HETATM   18  C8  UNL     1     -28.828  13.235 -13.509  1.00  0.00     0.104 A 
HETATM   19  N3  UNL     1     -29.221  12.409 -14.485  1.00  0.00    -0.337 N 
HETATM   20  C11 UNL     1     -30.389  11.747 -14.423  1.00  0.00     0.138 A 
ATOM     21  H3  UNL     1     -28.620  12.279 -15.298  1.00  0.00     0.167 HD
HETATM   22  N4  UNL     1     -30.774  10.908 -15.431  1.00  0.00    -0.176 N 
HETATM   23  C14 UNL     1     -31.242  11.875 -13.362  1.00  0.00     0.081 A 
HETATM   24  C12 UNL     1     -31.958  10.246 -15.349  1.00  0.00     0.679 A 
ATOM     25  H4  UNL     1     -30.173  10.778 -16.244  1.00  0.00     0.186 HD
HETATM   26  N6  UNL     1     -32.776  10.387 -14.302  1.00  0.00    -0.176 N 
HETATM   27  C13 UNL     1     -32.449  11.198 -13.285  1.00  0.00     0.131 A 
ATOM     28  H6  UNL     1     -33.657   9.873 -14.277  1.00  0.00     0.186 HD
BRANCH  18  29
HETATM   29  C9  UNL     1     -27.535  13.958 -13.604  1.00  0.00     0.173 C 
HETATM   30  C10 UNL     1     -27.486  15.268 -14.298  1.00  0.00     0.098 C 
HETATM   31  O1  UNL     1     -26.492  13.504 -13.123  1.00  0.00    -0.291 OA
ENDBRANCH  18  29
BRANCH  24  32
HETATM   32  N5  UNL     1     -32.291   9.462 -16.315  1.00  0.00    -0.234 N 
ATOM     33  H52 UNL     1     -32.475   9.853 -17.238  1.00  0.00     0.174 HD
ATOM     34  H51 UNL     1     -32.363   8.462 -16.127  1.00  0.00     0.174 HD
ENDBRANCH  24  32
BRANCH  27  35
HETATM   35  N7  UNL     1     -33.228  11.342 -12.265  1.00  0.00    -0.384 N 
ATOM     36  H72 UNL     1     -33.875  12.129 -12.206  1.00  0.00     0.157 HD
ATOM     37  H71 UNL     1     -33.218  10.677 -11.492  1.00  0.00     0.157 HD
ENDBRANCH  27  35
ENDBRANCH  13  15
ENDBRANCH   5  13
BRANCH   8  38
HETATM   38  O2  UNL     1     -29.812  10.784  -7.538  1.00  0.00    -0.314 OA
BRANCH  38  39
HETATM   39  C16 UNL     1     -29.604   9.602  -8.275  1.00  0.00     0.257 C 
BRANCH  39  40
HETATM   40  C17 UNL     1     -29.517   8.382  -7.433  1.00  0.00     0.134 A 
HETATM   41  N9  UNL     1     -29.579   8.327  -6.072  1.00  0.00    -0.272 N 
HETATM   42  N10 UNL     1     -29.451   7.077  -5.665  1.00  0.00    -0.007 NA
ATOM     43  H9  UNL     1     -29.705   9.132  -5.460  1.00  0.00     0.185 HD
HETATM   44  N11 UNL     1     -29.308   6.322  -6.739  1.00  0.00    -0.005 NA
HETATM   45  N12 UNL     1     -29.347   7.107  -7.823  1.00  0.00    -0.257 N 
BRANCH  45  46
HETATM   46  C18 UNL     1     -29.231   6.577  -9.149  1.00  0.00     0.206 C 
BRANCH  46  47
HETATM   47  C19 UNL     1     -28.941   5.112  -9.047  1.00  0.00     0.044 A 
HETATM   48  C20 UNL     1     -28.879   4.412 -10.237  1.00  0.00     0.114 A 
HETATM   49  N13 UNL     1     -28.631   3.101 -10.213  1.00  0.00    -0.371 N 
HETATM   50  C21 UNL     1     -28.447   2.483  -9.046  1.00  0.00     0.112 A 
ATOM     51  H13 UNL     1     -28.583   2.574 -11.084  1.00  0.00     0.164 HD
HETATM   52  C22 UNL     1     -28.501   3.146  -7.834  1.00  0.00     0.021 A 
HETATM   53  C23 UNL     1     -28.289   2.417  -6.569  1.00  0.00     0.069 C 
HETATM   54  N14 UNL     1     -28.752   4.462  -7.901  1.00  0.00    -0.360 N 
ATOM     55  H14 UNL     1     -28.800   4.991  -7.029  1.00  0.00     0.165 HD
ENDBRANCH  46  47
ENDBRANCH  45  46
ENDBRANCH  39  40
ENDBRANCH  38  39
ENDBRANCH   8  38
BRANCH   1  56
HETATM   56  C2  UNL     1     -33.989  17.045  -9.157  1.00  0.00     0.060 C 
HETATM   57  C1  UNL     1     -33.507  18.151  -8.264  1.00  0.00     0.012 C 
ENDBRANCH   1  56
TORSDOF 11
ENDMDL
MODEL 5
REMARK VINA RESULT: -8.723934300      3.315      5.773
REMARK  11 active torsions:
REMARK  status: ('A' for Active; 'I' for Inactive)
REMARK    1  A    between atoms: C2_2  and  C3_3 
REMARK    2  A    between atoms: C5_7  and  N2_8 
REMARK    3  A    between atoms: N2_8  and  C6_10 
REMARK    4  A    between atoms: C8_13  and  C9_14 
REMARK    5  A    between atoms: C12_22  and  N5_23 
REMARK    6  A    between atoms: C13_28  and  N7_29 
REMARK    7  A    between atoms: C15_35  and  O2_36 
REMARK    8  A    between atoms: O2_36  and  C16_37 
REMARK    9  A    between atoms: C16_37  and  C17_38 
REMARK   10  A    between atoms: N12_43  and  C18_44 
REMARK   11  A    between atoms: C18_44  and  C19_45 
ROOT
HETATM    1  C3  UNL     1     -33.004  13.505  -9.846  1.00  0.00     0.053 A 
HETATM    2  N1  UNL     1     -32.380  12.820 -10.787  1.00  0.00    -0.349 N 
ATOM      3  H1  UNL     1     -32.599  12.987 -11.769  1.00  0.00     0.166 HD
HETATM    4  C4  UNL     1     -31.481  11.930 -10.463  1.00  0.00     0.112 A 
HETATM    5  C5  UNL     1     -30.733  11.121 -11.368  1.00  0.00     0.139 A 
HETATM    6  N8  UNL     1     -29.852  10.261 -10.836  1.00  0.00    -0.306 N 
ATOM      7  H8  UNL     1     -29.321   9.686 -11.489  1.00  0.00     0.171 HD
HETATM    8  C15 UNL     1     -29.601  10.081  -9.534  1.00  0.00     0.226 A 
HETATM    9  N15 UNL     1     -30.310  10.848  -8.688  1.00  0.00    -0.314 N 
ATOM     10  H15 UNL     1     -30.157  10.750  -7.684  1.00  0.00     0.170 HD
HETATM   11  C24 UNL     1     -31.229  11.753  -9.130  1.00  0.00     0.109 A 
HETATM   12  S1  UNL     1     -32.303  12.879  -8.421  1.00  0.00    -0.057 SA
ENDROOT
BRANCH   5  13
HETATM   13  N2  UNL     1     -30.942  11.203 -12.740  1.00  0.00    -0.338 N 
ATOM     14  H2  UNL     1     -31.538  10.475 -13.134  1.00  0.00     0.167 HD
BRANCH  13  15
HETATM   15  C6  UNL     1     -30.505  12.043 -13.565  1.00  0.00     0.076 A 
HETATM   16  C7  UNL     1     -29.536  13.002 -13.356  1.00  0.00     0.092 A 
HETATM   17 CL1  UNL     1     -28.743  13.157 -11.808  1.00  0.00    -0.079 Cl
HETATM   18  C8  UNL     1     -29.158  13.866 -14.360  1.00  0.00     0.104 A 
HETATM   19  N3  UNL     1     -29.749  13.762 -15.555  1.00  0.00    -0.337 N 
HETATM   20  C11 UNL     1     -30.697  12.841 -15.798  1.00  0.00     0.138 A 
ATOM     21  H3  UNL     1     -29.472  14.398 -16.303  1.00  0.00     0.167 HD
HETATM   22  N4  UNL     1     -31.289  12.751 -17.026  1.00  0.00    -0.176 N 
HETATM   23  C14 UNL     1     -31.113  11.957 -14.842  1.00  0.00     0.081 A 
HETATM   24  C12 UNL     1     -32.245  11.813 -17.253  1.00  0.00     0.679 A 
ATOM     25  H4  UNL     1     -31.013  13.388 -17.773  1.00  0.00     0.186 HD
HETATM   26  N6  UNL     1     -32.637  10.958 -16.303  1.00  0.00    -0.176 N 
HETATM   27  C13 UNL     1     -32.090  11.002 -15.078  1.00  0.00     0.131 A 
ATOM     28  H6  UNL     1     -33.359  10.267 -16.510  1.00  0.00     0.186 HD
BRANCH  18  29
HETATM   29  C9  UNL     1     -28.116  14.894 -14.116  1.00  0.00     0.173 C 
HETATM   30  C10 UNL     1     -28.525  16.250 -13.674  1.00  0.00     0.098 C 
HETATM   31  O1  UNL     1     -26.914  14.660 -14.270  1.00  0.00    -0.291 OA
ENDBRANCH  18  29
BRANCH  24  32
HETATM   32  N5  UNL     1     -32.783  11.753 -18.421  1.00  0.00    -0.234 N 
ATOM     33  H52 UNL     1     -32.814  12.589 -19.003  1.00  0.00     0.174 HD
ATOM     34  H51 UNL     1     -33.168  10.862 -18.734  1.00  0.00     0.174 HD
ENDBRANCH  24  32
BRANCH  27  35
HETATM   35  N7  UNL     1     -32.457  10.182 -14.151  1.00  0.00    -0.384 N 
ATOM     36  H72 UNL     1     -33.011   9.354 -14.370  1.00  0.00     0.157 HD
ATOM     37  H71 UNL     1     -32.205  10.339 -13.175  1.00  0.00     0.157 HD
ENDBRANCH  27  35
ENDBRANCH  13  15
ENDBRANCH   5  13
BRANCH   8  38
HETATM   38  O2  UNL     1     -28.659   9.150  -9.143  1.00  0.00    -0.314 OA
BRANCH  38  39
HETATM   39  C16 UNL     1     -29.007   8.032  -8.359  1.00  0.00     0.257 C 
BRANCH  39  40
HETATM   40  C17 UNL     1     -29.275   6.806  -9.153  1.00  0.00     0.134 A 
HETATM   41  N9  UNL     1     -29.448   6.735 -10.503  1.00  0.00    -0.272 N 
HETATM   42  N10 UNL     1     -29.682   5.486 -10.863  1.00  0.00    -0.007 NA
ATOM     43  H9  UNL     1     -29.403   7.529 -11.142  1.00  0.00     0.185 HD
HETATM   44  N11 UNL     1     -29.663   4.747  -9.767  1.00  0.00    -0.005 NA
HETATM   45  N12 UNL     1     -29.415   5.542  -8.719  1.00  0.00    -0.257 N 
BRANCH  45  46
HETATM   46  C18 UNL     1     -29.320   5.031  -7.385  1.00  0.00     0.206 C 
BRANCH  46  47
HETATM   47  C19 UNL     1     -28.853   3.611  -7.456  1.00  0.00     0.044 A 
HETATM   48  C20 UNL     1     -28.636   2.972  -6.250  1.00  0.00     0.114 A 
HETATM   49  N13 UNL     1     -28.212   1.707  -6.246  1.00  0.00    -0.371 N 
HETATM   50  C21 UNL     1     -28.003   1.075  -7.402  1.00  0.00     0.112 A 
ATOM     51  H13 UNL     1     -28.049   1.224  -5.363  1.00  0.00     0.164 HD
HETATM   52  C22 UNL     1     -28.207   1.677  -8.629  1.00  0.00     0.021 A 
HETATM   53  C23 UNL     1     -27.963   0.935  -9.880  1.00  0.00     0.069 C 
HETATM   54  N14 UNL     1     -28.634   2.949  -8.590  1.00  0.00    -0.360 N 
ATOM     55  H14 UNL     1     -28.798   3.433  -9.473  1.00  0.00     0.165 HD
ENDBRANCH  46  47
ENDBRANCH  45  46
ENDBRANCH  39  40
ENDBRANCH  38  39
ENDBRANCH   8  38
BRANCH   1  56
HETATM   56  C2  UNL     1     -34.059  14.559 -10.062  1.00  0.00     0.060 C 
HETATM   57  C1  UNL     1     -34.620  14.878  -8.707  1.00  0.00     0.012 C 
ENDBRANCH   1  56
TORSDOF 11
ENDMDL
