MODEL 1
REMARK VINA RESULT: -7.497415193      0.000      0.000
REMARK  4 active torsions:
REMARK  status: ('A' for Active; 'I' for Inactive)
REMARK    1  A    between atoms: C1_2  and  C2_3 
REMARK       I    between atoms: C1_2  and  N2_16 
REMARK    2  A    between atoms: C2_3  and  C3_4 
REMARK    3  A    between atoms: C3_4  and  N1_5 
REMARK    4  A    between atoms: C9_12  and  O3_13 
ROOT
HETATM    1  N1  UNL     1      -3.134   3.197  12.715  1.00  0.00     0.098 N 
HETATM    2  C4  UNL     1      -2.663   4.371  12.042  1.00  0.00     0.280 C 
HETATM    3  C5  UNL     1      -1.720   3.949  10.949  1.00  0.00     0.040 C 
HETATM    4  C6  UNL     1      -2.568   3.795   9.681  1.00  0.00     0.174 C 
HETATM    5  O2  UNL     1      -3.897   3.728   9.983  1.00  0.00    -0.388 OA
HETATM    6  C7  UNL     1      -4.318   2.613  10.634  1.00  0.00     0.206 C 
HETATM    7  C8  UNL     1      -3.464   2.175  11.790  1.00  0.00     0.275 C 
HETATM    8  C9  UNL     1      -2.153   1.545  11.306  1.00  0.00     0.154 C 
HETATM    9  C10 UNL     1      -1.104   2.608  11.222  1.00  0.00     0.042 C 
ENDROOT
BRANCH   1  10
HETATM   10  C3  UNL     1      -4.056   3.464  13.759  1.00  0.00     0.282 C 
BRANCH  10  11
HETATM   11  C2  UNL     1      -3.499   3.548  15.131  1.00  0.00     0.133 C 
BRANCH  11  12
HETATM   12  C1  UNL     1      -3.849   2.273  15.853  1.00  0.00     0.221 C 
HETATM   13  O1  UNL     1      -2.958   1.469  16.209  1.00  0.00    -0.273 OA
HETATM   14  N2  UNL     1      -5.201   1.969  16.140  1.00  0.00    -0.352 N 
HETATM   15  C11 UNL     1      -6.343   2.797  15.793  1.00  0.00     0.126 C 
HETATM   16  C14 UNL     1      -5.681   0.792  16.820  1.00  0.00     0.126 C 
HETATM   17  C12 UNL     1      -7.282   2.560  16.956  1.00  0.00     0.021 C 
HETATM   18  C13 UNL     1      -7.106   1.103  17.235  1.00  0.00     0.021 C 
ENDBRANCH  11  12
ENDBRANCH  10  11
ENDBRANCH   1  10
BRANCH   8  19
HETATM   19  O3  UNL     1      -2.321   0.813  10.155  1.00  0.00    -0.393 OA
ATOM     20  H3  UNL     1      -1.521   0.758   9.645  1.00  0.00     0.210 HD
ENDBRANCH   8  19
TORSDOF 4
ENDMDL
MODEL 2
REMARK VINA RESULT: -7.386603251      1.941      3.053
REMARK  4 active torsions:
REMARK  status: ('A' for Active; 'I' for Inactive)
REMARK    1  A    between atoms: C1_2  and  C2_3 
REMARK       I    between atoms: C1_2  and  N2_16 
REMARK    2  A    between atoms: C2_3  and  C3_4 
REMARK    3  A    between atoms: C3_4  and  N1_5 
REMARK    4  A    between atoms: C9_12  and  O3_13 
ROOT
HETATM    1  N1  UNL     1      -4.371   0.128  12.929  1.00  0.00     0.098 N 
HETATM    2  C4  UNL     1      -3.420  -0.702  12.250  1.00  0.00     0.280 C 
HETATM    3  C5  UNL     1      -3.519  -0.433  10.774  1.00  0.00     0.040 C 
HETATM    4  C6  UNL     1      -2.495   0.664  10.463  1.00  0.00     0.174 C 
HETATM    5  O2  UNL     1      -2.088   1.294  11.603  1.00  0.00    -0.388 OA
HETATM    6  C7  UNL     1      -3.011   2.063  12.238  1.00  0.00     0.206 C 
HETATM    7  C8  UNL     1      -4.369   1.443  12.402  1.00  0.00     0.275 C 
HETATM    8  C9  UNL     1      -5.131   1.412  11.072  1.00  0.00     0.154 C 
HETATM    9  C10 UNL     1      -4.865   0.109  10.388  1.00  0.00     0.042 C 
ENDROOT
BRANCH   1  10
HETATM   10  C3  UNL     1      -4.357  -0.017  14.340  1.00  0.00     0.282 C 
BRANCH  10  11
HETATM   11  C2  UNL     1      -3.857   1.141  15.120  1.00  0.00     0.133 C 
BRANCH  11  12
HETATM   12  C1  UNL     1      -4.818   1.387  16.254  1.00  0.00     0.221 C 
HETATM   13  O1  UNL     1      -4.813   0.658  17.272  1.00  0.00    -0.273 OA
HETATM   14  N2  UNL     1      -5.744   2.455  16.180  1.00  0.00    -0.352 N 
HETATM   15  C11 UNL     1      -5.873   3.383  15.070  1.00  0.00     0.126 C 
HETATM   16  C14 UNL     1      -6.718   2.805  17.184  1.00  0.00     0.126 C 
HETATM   17  C12 UNL     1      -6.251   4.671  15.768  1.00  0.00     0.021 C 
HETATM   18  C13 UNL     1      -7.180   4.209  16.843  1.00  0.00     0.021 C 
ENDBRANCH  11  12
ENDBRANCH  10  11
ENDBRANCH   1  10
BRANCH   8  19
HETATM   19  O3  UNL     1      -4.882   2.523  10.303  1.00  0.00    -0.393 OA
ATOM     20  H3  UNL     1      -5.162   2.407   9.403  1.00  0.00     0.210 HD
ENDBRANCH   8  19
TORSDOF 4
ENDMDL
MODEL 3
REMARK VINA RESULT: -7.363103230      0.940      1.195
REMARK  4 active torsions:
REMARK  status: ('A' for Active; 'I' for Inactive)
REMARK    1  A    between atoms: C1_2  and  C2_3 
REMARK       I    between atoms: C1_2  and  N2_16 
REMARK    2  A    between atoms: C2_3  and  C3_4 
REMARK    3  A    between atoms: C3_4  and  N1_5 
REMARK    4  A    between atoms: C9_12  and  O3_13 
ROOT
HETATM    1  N1  UNL     1      -3.677   3.004  12.961  1.00  0.00     0.098 N 
HETATM    2  C4  UNL     1      -2.306   3.224  12.605  1.00  0.00     0.280 C 
HETATM    3  C5  UNL     1      -1.960   2.317  11.456  1.00  0.00     0.040 C 
HETATM    4  C6  UNL     1      -2.221   3.119  10.177  1.00  0.00     0.174 C 
HETATM    5  O2  UNL     1      -2.992   4.215  10.432  1.00  0.00    -0.388 OA
HETATM    6  C7  UNL     1      -4.284   3.983  10.782  1.00  0.00     0.206 C 
HETATM    7  C8  UNL     1      -4.494   2.905  11.808  1.00  0.00     0.275 C 
HETATM    8  C9  UNL     1      -4.280   1.513  11.204  1.00  0.00     0.154 C 
HETATM    9  C10 UNL     1      -2.852   1.111  11.400  1.00  0.00     0.042 C 
ENDROOT
BRANCH   1  10
HETATM   10  C3  UNL     1      -4.133   3.825  14.024  1.00  0.00     0.282 C 
BRANCH  10  11
HETATM   11  C2  UNL     1      -3.443   3.665  15.328  1.00  0.00     0.133 C 
BRANCH  11  12
HETATM   12  C1  UNL     1      -3.831   2.325  15.897  1.00  0.00     0.221 C 
HETATM   13  O1  UNL     1      -2.963   1.463  16.164  1.00  0.00    -0.273 OA
HETATM   14  N2  UNL     1      -5.193   2.025  16.139  1.00  0.00    -0.352 N 
HETATM   15  C11 UNL     1      -6.311   2.917  15.883  1.00  0.00     0.126 C 
HETATM   16  C14 UNL     1      -5.708   0.791  16.677  1.00  0.00     0.126 C 
HETATM   17  C12 UNL     1      -7.265   2.572  17.005  1.00  0.00     0.021 C 
HETATM   18  C13 UNL     1      -7.129   1.088  17.116  1.00  0.00     0.021 C 
ENDBRANCH  11  12
ENDBRANCH  10  11
ENDBRANCH   1  10
BRANCH   8  19
HETATM   19  O3  UNL     1      -4.723   1.434   9.906  1.00  0.00    -0.393 OA
ATOM     20  H3  UNL     1      -4.008   1.354   9.286  1.00  0.00     0.210 HD
ENDBRANCH   8  19
TORSDOF 4
ENDMDL
MODEL 4
REMARK VINA RESULT: -7.349668405      1.069      1.578
REMARK  4 active torsions:
REMARK  status: ('A' for Active; 'I' for Inactive)
REMARK    1  A    between atoms: C1_2  and  C2_3 
REMARK       I    between atoms: C1_2  and  N2_16 
REMARK    2  A    between atoms: C2_3  and  C3_4 
REMARK    3  A    between atoms: C3_4  and  N1_5 
REMARK    4  A    between atoms: C9_12  and  O3_13 
ROOT
HETATM    1  N1  UNL     1      -2.844   3.651  12.799  1.00  0.00     0.098 N 
HETATM    2  C4  UNL     1      -4.181   3.998  12.420  1.00  0.00     0.280 C 
HETATM    3  C5  UNL     1      -4.364   3.677  10.963  1.00  0.00     0.040 C 
HETATM    4  C6  UNL     1      -4.920   2.250  10.899  1.00  0.00     0.174 C 
HETATM    5  O2  UNL     1      -4.747   1.601  12.087  1.00  0.00    -0.388 OA
HETATM    6  C7  UNL     1      -3.469   1.296  12.433  1.00  0.00     0.206 C 
HETATM    7  C8  UNL     1      -2.466   2.400  12.252  1.00  0.00     0.275 C 
HETATM    8  C9  UNL     1      -2.141   2.619  10.770  1.00  0.00     0.154 C 
HETATM    9  C10 UNL     1      -3.059   3.665  10.220  1.00  0.00     0.042 C 
ENDROOT
BRANCH   1  10
HETATM   10  C3  UNL     1      -2.555   3.887  14.168  1.00  0.00     0.282 C 
BRANCH  10  11
HETATM   11  C2  UNL     1      -3.717   3.961  15.087  1.00  0.00     0.133 C 
BRANCH  11  12
HETATM   12  C1  UNL     1      -3.856   2.625  15.770  1.00  0.00     0.221 C 
HETATM   13  O1  UNL     1      -2.847   1.964  16.103  1.00  0.00    -0.273 OA
HETATM   14  N2  UNL     1      -5.141   2.100  16.045  1.00  0.00    -0.352 N 
HETATM   15  C11 UNL     1      -6.402   2.744  15.720  1.00  0.00     0.126 C 
HETATM   16  C14 UNL     1      -5.424   0.841  16.688  1.00  0.00     0.126 C 
HETATM   17  C12 UNL     1      -7.287   2.324  16.874  1.00  0.00     0.021 C 
HETATM   18  C13 UNL     1      -6.880   0.906  17.109  1.00  0.00     0.021 C 
ENDBRANCH  11  12
ENDBRANCH  10  11
ENDBRANCH   1  10
BRANCH   8  19
HETATM   19  O3  UNL     1      -2.124   1.443  10.061  1.00  0.00    -0.393 OA
ATOM     20  H3  UNL     1      -2.096   1.589   9.123  1.00  0.00     0.210 HD
ENDBRANCH   8  19
TORSDOF 4
ENDMDL
MODEL 5
REMARK VINA RESULT: -7.333151121      0.871      2.188
REMARK  4 active torsions:
REMARK  status: ('A' for Active; 'I' for Inactive)
REMARK    1  A    between atoms: C1_2  and  C2_3 
REMARK       I    between atoms: C1_2  and  N2_16 
REMARK    2  A    between atoms: C2_3  and  C3_4 
REMARK    3  A    between atoms: C3_4  and  N1_5 
REMARK    4  A    between atoms: C9_12  and  O3_13 
ROOT
HETATM    1  N1  UNL     1      -3.462   2.927  12.942  1.00  0.00     0.098 N 
HETATM    2  C4  UNL     1      -3.589   1.500  12.926  1.00  0.00     0.280 C 
HETATM    3  C5  UNL     1      -4.307   1.098  11.668  1.00  0.00     0.040 C 
HETATM    4  C6  UNL     1      -3.224   0.821  10.620  1.00  0.00     0.174 C 
HETATM    5  O2  UNL     1      -2.024   1.345  11.003  1.00  0.00    -0.388 OA
HETATM    6  C7  UNL     1      -1.930   2.701  11.026  1.00  0.00     0.206 C 
HETATM    7  C8  UNL     1      -3.081   3.420  11.670  1.00  0.00     0.275 C 
HETATM    8  C9  UNL     1      -4.323   3.399  10.772  1.00  0.00     0.154 C 
HETATM    9  C10 UNL     1      -5.159   2.210  11.125  1.00  0.00     0.042 C 
ENDROOT
BRANCH   1  10
HETATM   10  C3  UNL     1      -2.774   3.429  14.077  1.00  0.00     0.282 C 
BRANCH  10  11
HETATM   11  C2  UNL     1      -3.596   3.707  15.281  1.00  0.00     0.133 C 
BRANCH  11  12
HETATM   12  C1  UNL     1      -3.873   2.396  15.968  1.00  0.00     0.221 C 
HETATM   13  O1  UNL     1      -2.937   1.658  16.350  1.00  0.00    -0.273 OA
HETATM   14  N2  UNL     1      -5.208   1.981  16.192  1.00  0.00    -0.352 N 
HETATM   15  C11 UNL     1      -6.397   2.723  15.808  1.00  0.00     0.126 C 
HETATM   16  C14 UNL     1      -5.621   0.757  16.833  1.00  0.00     0.126 C 
HETATM   17  C12 UNL     1      -7.361   2.391  16.926  1.00  0.00     0.021 C 
HETATM   18  C13 UNL     1      -7.082   0.947  17.191  1.00  0.00     0.021 C 
ENDBRANCH  11  12
ENDBRANCH  10  11
ENDBRANCH   1  10
BRANCH   8  19
HETATM   19  O3  UNL     1      -4.005   3.500   9.440  1.00  0.00    -0.393 OA
ATOM     20  H3  UNL     1      -4.775   3.587   8.891  1.00  0.00     0.210 HD
ENDBRANCH   8  19
TORSDOF 4
ENDMDL
