MODEL 1
REMARK VINA RESULT: -7.205504664      0.000      0.000
REMARK  3 active torsions:
REMARK  status: ('A' for Active; 'I' for Inactive)
REMARK       I    between atoms: C1_2  and  N1_3 
REMARK    1  A    between atoms: C1_2  and  C7_11 
REMARK    2  A    between atoms: N1_3  and  C2_5 
REMARK    3  A    between atoms: C10_15  and  N2_16 
ROOT
HETATM    1  C7  UNL     1      -3.267   3.307  12.637  1.00  0.00     0.137 C 
HETATM    2  C8  UNL     1      -2.209   4.397  12.524  1.00  0.00     0.184 C 
HETATM    3  O3  UNL     1      -1.010   3.766  12.296  1.00  0.00    -0.388 OA
HETATM    4  C9  UNL     1      -1.346   2.756  11.394  1.00  0.00     0.204 C 
HETATM    5  C10 UNL     1      -2.558   2.120  12.040  1.00  0.00     0.261 C 
ENDROOT
BRANCH   1   6
HETATM    6  C1  UNL     1      -3.601   3.126  14.065  1.00  0.00     0.226 C 
HETATM    7  O1  UNL     1      -2.832   3.568  14.948  1.00  0.00    -0.273 OA
HETATM    8  N1  UNL     1      -4.776   2.460  14.438  1.00  0.00    -0.356 N 
ATOM      9  H1  UNL     1      -5.384   2.110  13.698  1.00  0.00     0.162 HD
BRANCH   8  10
HETATM   10  C2  UNL     1      -5.178   2.240  15.818  1.00  0.00     0.088 C 
HETATM   11  C3  UNL     1      -5.105   0.745  16.059  1.00  0.00     0.051 C 
HETATM   12  C4  UNL     1      -5.862   0.402  17.324  1.00  0.00     0.169 C 
HETATM   13  O2  UNL     1      -7.194   0.724  17.114  1.00  0.00    -0.391 OA
HETATM   14  C5  UNL     1      -7.337   2.096  17.085  1.00  0.00     0.169 C 
HETATM   15  C6  UNL     1      -6.603   2.732  15.932  1.00  0.00     0.051 C 
ENDBRANCH   8  10
ENDBRANCH   1   6
BRANCH   5  16
HETATM   16  N2  UNL     1      -3.322   1.461  11.018  1.00  0.00     0.096 N 
HETATM   17  C11 UNL     1      -4.600   0.978  11.491  1.00  0.00     0.273 C 
HETATM   18  C12 UNL     1      -4.291  -0.412  12.036  1.00  0.00     0.032 C 
HETATM   19  C13 UNL     1      -3.327  -0.929  10.990  1.00  0.00     0.032 C 
HETATM   20  C14 UNL     1      -2.586   0.301  10.573  1.00  0.00     0.273 C 
ENDBRANCH   5  16
TORSDOF 3
ENDMDL
MODEL 2
REMARK VINA RESULT: -6.977170227      2.165      6.074
REMARK  3 active torsions:
REMARK  status: ('A' for Active; 'I' for Inactive)
REMARK       I    between atoms: C1_2  and  N1_3 
REMARK    1  A    between atoms: C1_2  and  C7_11 
REMARK    2  A    between atoms: N1_3  and  C2_5 
REMARK    3  A    between atoms: C10_15  and  N2_16 
ROOT
HETATM    1  C7  UNL     1      -4.558   4.391  14.793  1.00  0.00     0.137 C 
HETATM    2  C8  UNL     1      -5.318   5.288  13.825  1.00  0.00     0.184 C 
HETATM    3  O3  UNL     1      -6.343   4.534  13.304  1.00  0.00    -0.388 OA
HETATM    4  C9  UNL     1      -6.809   3.822  14.409  1.00  0.00     0.204 C 
HETATM    5  C10 UNL     1      -5.537   3.268  15.012  1.00  0.00     0.261 C 
ENDROOT
BRANCH   1   6
HETATM    6  C1  UNL     1      -3.307   3.953  14.141  1.00  0.00     0.226 C 
HETATM    7  O1  UNL     1      -2.288   3.728  14.830  1.00  0.00    -0.273 OA
HETATM    8  N1  UNL     1      -3.256   3.788  12.750  1.00  0.00    -0.356 N 
ATOM      9  H1  UNL     1      -4.102   3.979  12.213  1.00  0.00     0.162 HD
BRANCH   8  10
HETATM   10  C2  UNL     1      -2.068   3.360  12.030  1.00  0.00     0.088 C 
HETATM   11  C3  UNL     1      -1.938   4.272  10.826  1.00  0.00     0.051 C 
HETATM   12  C4  UNL     1      -0.970   3.662   9.835  1.00  0.00     0.169 C 
HETATM   13  O2  UNL     1      -1.520   2.468   9.394  1.00  0.00    -0.391 OA
HETATM   14  C5  UNL     1      -1.476   1.538  10.412  1.00  0.00     0.169 C 
HETATM   15  C6  UNL     1      -2.320   1.933  11.597  1.00  0.00     0.051 C 
ENDBRANCH   8  10
ENDBRANCH   1   6
BRANCH   5  16
HETATM   16  N2  UNL     1      -5.778   2.991  16.401  1.00  0.00     0.096 N 
HETATM   17  C11 UNL     1      -4.906   1.967  16.932  1.00  0.00     0.273 C 
HETATM   18  C12 UNL     1      -5.642   0.665  16.633  1.00  0.00     0.032 C 
HETATM   19  C13 UNL     1      -7.069   1.057  16.949  1.00  0.00     0.032 C 
HETATM   20  C14 UNL     1      -7.126   2.493  16.540  1.00  0.00     0.273 C 
ENDBRANCH   5  16
TORSDOF 3
ENDMDL
MODEL 3
REMARK VINA RESULT: -6.975615376      2.018      5.703
REMARK  3 active torsions:
REMARK  status: ('A' for Active; 'I' for Inactive)
REMARK       I    between atoms: C1_2  and  N1_3 
REMARK    1  A    between atoms: C1_2  and  C7_11 
REMARK    2  A    between atoms: N1_3  and  C2_5 
REMARK    3  A    between atoms: C10_15  and  N2_16 
ROOT
HETATM    1  C7  UNL     1      -4.644   3.365  15.510  1.00  0.00     0.137 C 
HETATM    2  C8  UNL     1      -4.332   4.673  14.794  1.00  0.00     0.184 C 
HETATM    3  O3  UNL     1      -5.442   4.994  14.049  1.00  0.00    -0.388 OA
HETATM    4  C9  UNL     1      -6.500   4.677  14.900  1.00  0.00     0.204 C 
HETATM    5  C10 UNL     1      -6.142   3.287  15.378  1.00  0.00     0.261 C 
ENDROOT
BRANCH   1   6
HETATM    6  C1  UNL     1      -3.941   2.270  14.810  1.00  0.00     0.226 C 
HETATM    7  O1  UNL     1      -3.173   1.513  15.445  1.00  0.00    -0.273 OA
HETATM    8  N1  UNL     1      -4.129   2.074  13.436  1.00  0.00    -0.356 N 
ATOM      9  H1  UNL     1      -4.759   2.706  12.942  1.00  0.00     0.162 HD
BRANCH   8  10
HETATM   10  C2  UNL     1      -3.477   1.022  12.672  1.00  0.00     0.088 C 
HETATM   11  C3  UNL     1      -2.458   1.702  11.778  1.00  0.00     0.051 C 
HETATM   12  C4  UNL     1      -2.018   0.740  10.696  1.00  0.00     0.169 C 
HETATM   13  O2  UNL     1      -3.128   0.453   9.916  1.00  0.00    -0.391 OA
HETATM   14  C5  UNL     1      -4.001  -0.339  10.632  1.00  0.00     0.169 C 
HETATM   15  C6  UNL     1      -4.557   0.361  11.846  1.00  0.00     0.051 C 
ENDBRANCH   8  10
ENDBRANCH   1   6
BRANCH   5  16
HETATM   16  N2  UNL     1      -6.807   3.052  16.629  1.00  0.00     0.096 N 
HETATM   17  C11 UNL     1      -5.906   2.631  17.678  1.00  0.00     0.273 C 
HETATM   18  C12 UNL     1      -5.842   1.115  17.525  1.00  0.00     0.032 C 
HETATM   19  C13 UNL     1      -7.291   0.790  17.231  1.00  0.00     0.032 C 
HETATM   20  C14 UNL     1      -7.754   1.976  16.448  1.00  0.00     0.273 C 
ENDBRANCH   5  16
TORSDOF 3
ENDMDL
MODEL 4
REMARK VINA RESULT: -6.903002560      2.144      5.392
REMARK  3 active torsions:
REMARK  status: ('A' for Active; 'I' for Inactive)
REMARK       I    between atoms: C1_2  and  N1_3 
REMARK    1  A    between atoms: C1_2  and  C7_11 
REMARK    2  A    between atoms: N1_3  and  C2_5 
REMARK    3  A    between atoms: C10_15  and  N2_16 
ROOT
HETATM    1  C7  UNL     1      -4.350   3.908  15.015  1.00  0.00     0.137 C 
HETATM    2  C8  UNL     1      -4.554   5.306  14.446  1.00  0.00     0.184 C 
HETATM    3  O3  UNL     1      -5.890   5.424  14.147  1.00  0.00    -0.388 OA
HETATM    4  C9  UNL     1      -6.516   4.804  15.228  1.00  0.00     0.204 C 
HETATM    5  C10 UNL     1      -5.760   3.498  15.349  1.00  0.00     0.261 C 
ENDROOT
BRANCH   1   6
HETATM    6  C1  UNL     1      -3.732   3.065  13.970  1.00  0.00     0.226 C 
HETATM    7  O1  UNL     1      -2.556   3.283  13.604  1.00  0.00    -0.273 OA
HETATM    8  N1  UNL     1      -4.459   2.019  13.385  1.00  0.00    -0.356 N 
ATOM      9  H1  UNL     1      -5.416   1.864  13.702  1.00  0.00     0.162 HD
BRANCH   8  10
HETATM   10  C2  UNL     1      -3.928   1.143  12.353  1.00  0.00     0.088 C 
HETATM   11  C3  UNL     1      -4.776   1.364  11.116  1.00  0.00     0.051 C 
HETATM   12  C4  UNL     1      -4.541   0.234  10.137  1.00  0.00     0.169 C 
HETATM   13  O2  UNL     1      -4.978  -0.937  10.736  1.00  0.00    -0.391 OA
HETATM   14  C5  UNL     1      -4.112  -1.284  11.752  1.00  0.00     0.169 C 
HETATM   15  C6  UNL     1      -4.087  -0.270  12.867  1.00  0.00     0.051 C 
ENDBRANCH   8  10
ENDBRANCH   1   6
BRANCH   5  16
HETATM   16  N2  UNL     1      -5.903   3.015  16.694  1.00  0.00     0.096 N 
HETATM   17  C11 UNL     1      -4.976   1.953  17.015  1.00  0.00     0.273 C 
HETATM   18  C12 UNL     1      -5.699   0.686  16.573  1.00  0.00     0.032 C 
HETATM   19  C13 UNL     1      -7.112   0.981  17.029  1.00  0.00     0.032 C 
HETATM   20  C14 UNL     1      -7.228   2.459  16.841  1.00  0.00     0.273 C 
ENDBRANCH   5  16
TORSDOF 3
ENDMDL
MODEL 5
REMARK VINA RESULT: -6.900426796      1.122      1.370
REMARK  3 active torsions:
REMARK  status: ('A' for Active; 'I' for Inactive)
REMARK       I    between atoms: C1_2  and  N1_3 
REMARK    1  A    between atoms: C1_2  and  C7_11 
REMARK    2  A    between atoms: N1_3  and  C2_5 
REMARK    3  A    between atoms: C10_15  and  N2_16 
ROOT
HETATM    1  C7  UNL     1      -3.242   4.304  13.256  1.00  0.00     0.137 C 
HETATM    2  C8  UNL     1      -2.671   5.691  13.523  1.00  0.00     0.184 C 
HETATM    3  O3  UNL     1      -1.311   5.603  13.345  1.00  0.00    -0.388 OA
HETATM    4  C9  UNL     1      -1.188   4.794  12.216  1.00  0.00     0.204 C 
HETATM    5  C10 UNL     1      -2.103   3.632  12.535  1.00  0.00     0.261 C 
ENDROOT
BRANCH   1   6
HETATM    6  C1  UNL     1      -3.563   3.673  14.552  1.00  0.00     0.226 C 
HETATM    7  O1  UNL     1      -2.692   3.607  15.448  1.00  0.00    -0.273 OA
HETATM    8  N1  UNL     1      -4.840   3.146  14.786  1.00  0.00    -0.356 N 
ATOM      9  H1  UNL     1      -5.530   3.212  14.038  1.00  0.00     0.162 HD
BRANCH   8  10
HETATM   10  C2  UNL     1      -5.238   2.509  16.031  1.00  0.00     0.088 C 
HETATM   11  C3  UNL     1      -4.870   1.044  15.907  1.00  0.00     0.051 C 
HETATM   12  C4  UNL     1      -5.586   0.253  16.980  1.00  0.00     0.169 C 
HETATM   13  O2  UNL     1      -6.947   0.361  16.741  1.00  0.00    -0.391 OA
HETATM   14  C5  UNL     1      -7.365   1.643  17.035  1.00  0.00     0.169 C 
HETATM   15  C6  UNL     1      -6.736   2.679  16.139  1.00  0.00     0.051 C 
ENDBRANCH   8  10
ENDBRANCH   1   6
BRANCH   5  16
HETATM   16  N2  UNL     1      -2.502   3.017  11.300  1.00  0.00     0.096 N 
HETATM   17  C11 UNL     1      -3.752   2.298  11.404  1.00  0.00     0.273 C 
HETATM   18  C12 UNL     1      -3.339   0.904  11.866  1.00  0.00     0.032 C 
HETATM   19  C13 UNL     1      -2.096   0.676  11.034  1.00  0.00     0.032 C 
HETATM   20  C14 UNL     1      -1.500   2.043  10.931  1.00  0.00     0.273 C 
ENDBRANCH   5  16
TORSDOF 3
ENDMDL
