MODEL 1
REMARK VINA RESULT: -7.474373007      0.000      0.000
REMARK  3 active torsions:
REMARK  status: ('A' for Active; 'I' for Inactive)
REMARK       I    between atoms: C1_2  and  N1_3 
REMARK    1  A    between atoms: C1_2  and  C7_14 
REMARK    2  A    between atoms: N1_3  and  C2_5 
REMARK    3  A    between atoms: C2_5  and  C3_6 
ROOT
HETATM    1  O1  UNL     1      -4.924   3.750  12.220  1.00  0.00    -0.273 OA
HETATM    2  C1  UNL     1      -3.822   3.413  12.722  1.00  0.00     0.221 C 
HETATM    3  N1  UNL     1      -3.696   3.423  14.132  1.00  0.00    -0.359 N 
ATOM      4  H1  UNL     1      -2.805   3.152  14.548  1.00  0.00     0.162 HD
ENDROOT
BRANCH   3   5
HETATM    5  C2  UNL     1      -4.768   3.799  14.989  1.00  0.00     0.144 C 
BRANCH   5   6
HETATM    6  C3  UNL     1      -5.641   2.674  15.431  1.00  0.00     0.150 C 
HETATM    7  C4  UNL     1      -6.511   3.046  16.626  1.00  0.00     0.189 C 
HETATM    8  O2  UNL     1      -7.490   2.127  16.868  1.00  0.00    -0.389 OA
HETATM    9  C5  UNL     1      -7.108   0.840  17.062  1.00  0.00     0.182 C 
HETATM   10  C6  UNL     1      -5.660   0.611  17.347  1.00  0.00     0.167 C 
HETATM   11  S1  UNL     1      -4.758   1.227  15.911  1.00  0.00     0.154 S 
HETATM   12  O3  UNL     1      -4.853   0.148  14.873  1.00  0.00    -0.227 OA
HETATM   13  O4  UNL     1      -3.369   1.478  16.347  1.00  0.00    -0.227 OA
ENDBRANCH   5   6
ENDBRANCH   3   5
BRANCH   2  14
HETATM   14  C7  UNL     1      -2.720   3.026  11.811  1.00  0.00     0.078 C 
HETATM   15  C8  UNL     1      -2.706   1.560  11.508  1.00  0.00     0.014 C 
HETATM   16  C9  UNL     1      -1.378   1.224  10.866  1.00  0.00     0.001 C 
HETATM   17  C10 UNL     1      -0.616   2.442  10.444  1.00  0.00     0.000 C 
HETATM   18  C11 UNL     1      -1.473   3.472   9.761  1.00  0.00     0.001 C 
HETATM   19  C12 UNL     1      -2.744   3.779  10.515  1.00  0.00     0.014 C 
ENDBRANCH   2  14
TORSDOF 3
ENDMDL
MODEL 2
REMARK VINA RESULT: -7.433265517      0.476      1.169
REMARK  3 active torsions:
REMARK  status: ('A' for Active; 'I' for Inactive)
REMARK       I    between atoms: C1_2  and  N1_3 
REMARK    1  A    between atoms: C1_2  and  C7_14 
REMARK    2  A    between atoms: N1_3  and  C2_5 
REMARK    3  A    between atoms: C2_5  and  C3_6 
ROOT
HETATM    1  O1  UNL     1      -4.984   3.719  12.195  1.00  0.00    -0.273 OA
HETATM    2  C1  UNL     1      -3.863   3.408  12.672  1.00  0.00     0.221 C 
HETATM    3  N1  UNL     1      -3.700   3.441  14.079  1.00  0.00    -0.359 N 
ATOM      4  H1  UNL     1      -2.795   3.191  14.475  1.00  0.00     0.162 HD
ENDROOT
BRANCH   3   5
HETATM    5  C2  UNL     1      -4.755   3.812  14.958  1.00  0.00     0.144 C 
BRANCH   5   6
HETATM    6  C3  UNL     1      -5.626   2.685  15.402  1.00  0.00     0.150 C 
HETATM    7  C4  UNL     1      -6.499   3.059  16.594  1.00  0.00     0.189 C 
HETATM    8  O2  UNL     1      -7.476   2.137  16.837  1.00  0.00    -0.389 OA
HETATM    9  C5  UNL     1      -7.091   0.852  17.036  1.00  0.00     0.182 C 
HETATM   10  C6  UNL     1      -5.643   0.628  17.323  1.00  0.00     0.167 C 
HETATM   11  S1  UNL     1      -4.740   1.242  15.888  1.00  0.00     0.154 S 
HETATM   12  O3  UNL     1      -4.831   0.160  14.852  1.00  0.00    -0.227 OA
HETATM   13  O4  UNL     1      -3.352   1.499  16.325  1.00  0.00    -0.227 OA
ENDBRANCH   5   6
ENDBRANCH   3   5
BRANCH   2  14
HETATM   14  C7  UNL     1      -2.779   3.026  11.738  1.00  0.00     0.078 C 
HETATM   15  C8  UNL     1      -1.471   3.674  12.072  1.00  0.00     0.014 C 
HETATM   16  C9  UNL     1      -0.542   3.495  10.892  1.00  0.00     0.001 C 
HETATM   17  C10 UNL     1      -1.054   2.497   9.900  1.00  0.00     0.000 C 
HETATM   18  C11 UNL     1      -1.606   1.253  10.540  1.00  0.00     0.001 C 
HETATM   19  C12 UNL     1      -2.569   1.543  11.665  1.00  0.00     0.014 C 
ENDBRANCH   2  14
TORSDOF 3
ENDMDL
MODEL 3
REMARK VINA RESULT: -7.419628112      2.572      6.191
REMARK  3 active torsions:
REMARK  status: ('A' for Active; 'I' for Inactive)
REMARK       I    between atoms: C1_2  and  N1_3 
REMARK    1  A    between atoms: C1_2  and  C7_14 
REMARK    2  A    between atoms: N1_3  and  C2_5 
REMARK    3  A    between atoms: C2_5  and  C3_6 
ROOT
HETATM    1  O1  UNL     1      -3.165   3.194  14.733  1.00  0.00    -0.273 OA
HETATM    2  C1  UNL     1      -4.401   2.975  14.672  1.00  0.00     0.221 C 
HETATM    3  N1  UNL     1      -5.041   3.090  13.413  1.00  0.00    -0.359 N 
ATOM      4  H1  UNL     1      -6.044   2.916  13.353  1.00  0.00     0.162 HD
ENDROOT
BRANCH   3   5
HETATM    5  C2  UNL     1      -4.333   3.441  12.230  1.00  0.00     0.144 C 
BRANCH   5   6
HETATM    6  C3  UNL     1      -4.090   2.312  11.287  1.00  0.00     0.150 C 
HETATM    7  C4  UNL     1      -4.700   1.003  11.775  1.00  0.00     0.189 C 
HETATM    8  O2  UNL     1      -4.713   0.039  10.809  1.00  0.00    -0.389 OA
HETATM    9  C5  UNL     1      -3.530  -0.286  10.231  1.00  0.00     0.182 C 
HETATM   10  C6  UNL     1      -2.296   0.170  10.938  1.00  0.00     0.167 C 
HETATM   11  S1  UNL     1      -2.385   1.971  11.002  1.00  0.00     0.154 S 
HETATM   12  O3  UNL     1      -1.940   2.452   9.653  1.00  0.00    -0.227 OA
HETATM   13  O4  UNL     1      -1.486   2.411  12.090  1.00  0.00    -0.227 OA
ENDBRANCH   5   6
ENDBRANCH   3   5
BRANCH   2  14
HETATM   14  C7  UNL     1      -5.118   2.612  15.916  1.00  0.00     0.078 C 
HETATM   15  C8  UNL     1      -6.445   3.294  16.041  1.00  0.00     0.014 C 
HETATM   16  C9  UNL     1      -6.927   3.128  17.465  1.00  0.00     0.001 C 
HETATM   17  C10 UNL     1      -6.138   2.110  18.228  1.00  0.00     0.000 C 
HETATM   18  C11 UNL     1      -5.864   0.859  17.440  1.00  0.00     0.001 C 
HETATM   19  C12 UNL     1      -5.329   1.134  16.057  1.00  0.00     0.014 C 
ENDBRANCH   2  14
TORSDOF 3
ENDMDL
MODEL 4
REMARK VINA RESULT: -7.383800201      2.856      3.911
REMARK  3 active torsions:
REMARK  status: ('A' for Active; 'I' for Inactive)
REMARK       I    between atoms: C1_2  and  N1_3 
REMARK    1  A    between atoms: C1_2  and  C7_14 
REMARK    2  A    between atoms: N1_3  and  C2_5 
REMARK    3  A    between atoms: C2_5  and  C3_6 
ROOT
HETATM    1  O1  UNL     1      -3.647   5.808  13.886  1.00  0.00    -0.273 OA
HETATM    2  C1  UNL     1      -4.706   5.478  13.295  1.00  0.00     0.221 C 
HETATM    3  N1  UNL     1      -5.218   4.176  13.512  1.00  0.00    -0.359 N 
ATOM      4  H1  UNL     1      -6.076   3.899  13.036  1.00  0.00     0.162 HD
ENDROOT
BRANCH   3   5
HETATM    5  C2  UNL     1      -4.577   3.241  14.372  1.00  0.00     0.144 C 
BRANCH   5   6
HETATM    6  C3  UNL     1      -5.497   2.303  15.076  1.00  0.00     0.150 C 
HETATM    7  C4  UNL     1      -6.350   3.003  16.128  1.00  0.00     0.189 C 
HETATM    8  O2  UNL     1      -7.368   2.217  16.585  1.00  0.00    -0.389 OA
HETATM    9  C5  UNL     1      -7.042   1.008  17.105  1.00  0.00     0.182 C 
HETATM   10  C6  UNL     1      -5.604   0.800  17.454  1.00  0.00     0.167 C 
HETATM   11  S1  UNL     1      -4.677   0.991  15.919  1.00  0.00     0.154 S 
HETATM   12  O3  UNL     1      -4.818  -0.312  15.189  1.00  0.00    -0.227 OA
HETATM   13  O4  UNL     1      -3.278   1.288  16.292  1.00  0.00    -0.227 OA
ENDBRANCH   5   6
ENDBRANCH   3   5
BRANCH   2  14
HETATM   14  C7  UNL     1      -5.356   6.468  12.405  1.00  0.00     0.078 C 
HETATM   15  C8  UNL     1      -4.981   6.288  10.967  1.00  0.00     0.014 C 
HETATM   16  C9  UNL     1      -5.413   7.524  10.209  1.00  0.00     0.001 C 
HETATM   17  C10 UNL     1      -6.332   8.398  11.005  1.00  0.00     0.000 C 
HETATM   18  C11 UNL     1      -7.396   7.629  11.738  1.00  0.00     0.001 C 
HETATM   19  C12 UNL     1      -6.851   6.453  12.511  1.00  0.00     0.014 C 
ENDBRANCH   2  14
TORSDOF 3
ENDMDL
MODEL 5
REMARK VINA RESULT: -7.317386216      2.818      3.837
REMARK  3 active torsions:
REMARK  status: ('A' for Active; 'I' for Inactive)
REMARK       I    between atoms: C1_2  and  N1_3 
REMARK    1  A    between atoms: C1_2  and  C7_14 
REMARK    2  A    between atoms: N1_3  and  C2_5 
REMARK    3  A    between atoms: C2_5  and  C3_6 
ROOT
HETATM    1  O1  UNL     1      -3.639   4.499  12.057  1.00  0.00    -0.273 OA
HETATM    2  C1  UNL     1      -4.680   4.978  12.574  1.00  0.00     0.221 C 
HETATM    3  N1  UNL     1      -5.186   4.370  13.749  1.00  0.00    -0.359 N 
ATOM      4  H1  UNL     1      -6.031   4.751  14.175  1.00  0.00     0.162 HD
ENDROOT
BRANCH   3   5
HETATM    5  C2  UNL     1      -4.557   3.248  14.356  1.00  0.00     0.144 C 
BRANCH   5   6
HETATM    6  C3  UNL     1      -5.483   2.313  15.058  1.00  0.00     0.150 C 
HETATM    7  C4  UNL     1      -6.343   3.018  16.100  1.00  0.00     0.189 C 
HETATM    8  O2  UNL     1      -7.364   2.235  16.554  1.00  0.00    -0.389 OA
HETATM    9  C5  UNL     1      -7.042   1.027  17.081  1.00  0.00     0.182 C 
HETATM   10  C6  UNL     1      -5.607   0.820  17.441  1.00  0.00     0.167 C 
HETATM   11  S1  UNL     1      -4.669   1.004  15.911  1.00  0.00     0.154 S 
HETATM   12  O3  UNL     1      -4.806  -0.301  15.185  1.00  0.00    -0.227 OA
HETATM   13  O4  UNL     1      -3.273   1.302  16.292  1.00  0.00    -0.227 OA
ENDBRANCH   5   6
ENDBRANCH   3   5
BRANCH   2  14
HETATM   14  C7  UNL     1      -5.319   6.146  11.925  1.00  0.00     0.078 C 
HETATM   15  C8  UNL     1      -6.594   6.556  12.594  1.00  0.00     0.014 C 
HETATM   16  C9  UNL     1      -7.322   7.512  11.675  1.00  0.00     0.001 C 
HETATM   17  C10 UNL     1      -6.460   8.004  10.554  1.00  0.00     0.000 C 
HETATM   18  C11 UNL     1      -5.075   8.388  10.994  1.00  0.00     0.001 C 
HETATM   19  C12 UNL     1      -4.414   7.340  11.855  1.00  0.00     0.014 C 
ENDBRANCH   2  14
TORSDOF 3
ENDMDL
