MODEL 1
REMARK VINA RESULT: -6.674315922      0.000      0.000
REMARK  3 active torsions:
REMARK  status: ('A' for Active; 'I' for Inactive)
REMARK    1  A    between atoms: C2_2  and  N1_3 
REMARK    2  A    between atoms: C9_13  and  C10_14 
REMARK    3  A    between atoms: C10_14  and  N3_15 
ROOT
HETATM    1  N1  UNL     1      -6.486   3.098  15.586  1.00  0.00    -0.412 N 
HETATM    2  C3  UNL     1      -5.880   1.822  15.468  1.00  0.00     0.123 C 
HETATM    3  C4  UNL     1      -4.549   1.783  14.801  1.00  0.00     0.035 C 
HETATM    4  C5  UNL     1      -3.487   2.208  15.761  1.00  0.00     0.239 C 
HETATM    5  N2  UNL     1      -2.875   3.463  15.400  1.00  0.00    -0.074 N 
ATOM      6  H21 UNL     1      -2.209   3.333  14.639  1.00  0.00     0.277 HD
ATOM      7  H22 UNL     1      -2.237   3.776  16.132  1.00  0.00     0.277 HD
HETATM    8  C6  UNL     1      -3.829   4.505  15.073  1.00  0.00     0.239 C 
HETATM    9  C7  UNL     1      -4.839   4.083  14.050  1.00  0.00     0.035 C 
HETATM   10  C8  UNL     1      -6.233   4.027  14.547  1.00  0.00     0.123 C 
HETATM   11  C9  UNL     1      -4.432   2.684  13.588  1.00  0.00     0.028 C 
ENDROOT
BRANCH  11  12
HETATM   12  C10 UNL     1      -5.233   2.207  12.437  1.00  0.00     0.278 C 
BRANCH  12  13
HETATM   13  N3  UNL     1      -4.383   1.798  11.330  1.00  0.00     0.090 N 
HETATM   14  C11 UNL     1      -2.989   1.721  11.786  1.00  0.00     0.274 C 
HETATM   15  C12 UNL     1      -2.183   0.903  10.840  1.00  0.00     0.056 C 
HETATM   16  C13 UNL     1      -1.997  -0.537  11.272  1.00  0.00     0.169 C 
HETATM   17  O1  UNL     1      -3.142  -1.238  10.958  1.00  0.00    -0.389 OA
HETATM   18  C14 UNL     1      -4.207  -0.627  11.622  1.00  0.00     0.198 C 
HETATM   19  C15 UNL     1      -4.779   0.499  10.799  1.00  0.00     0.298 C 
ENDBRANCH  12  13
ENDBRANCH  11  12
BRANCH   1  20
HETATM   20  C2  UNL     1      -6.608   3.648  16.888  1.00  0.00     0.112 C 
HETATM   21  C1  UNL     1      -6.378   2.630  17.998  1.00  0.00     0.026 C 
ENDBRANCH   1  20
TORSDOF 3
ENDMDL
MODEL 2
REMARK VINA RESULT: -6.657010188      2.915      5.316
REMARK  3 active torsions:
REMARK  status: ('A' for Active; 'I' for Inactive)
REMARK    1  A    between atoms: C2_2  and  N1_3 
REMARK    2  A    between atoms: C9_13  and  C10_14 
REMARK    3  A    between atoms: C10_14  and  N3_15 
ROOT
HETATM    1  N1  UNL     1      -3.979   5.853  11.977  1.00  0.00    -0.412 N 
HETATM    2  C3  UNL     1      -3.927   6.094  13.373  1.00  0.00     0.123 C 
HETATM    3  C4  UNL     1      -3.140   5.122  14.181  1.00  0.00     0.035 C 
HETATM    4  C5  UNL     1      -1.683   5.428  14.066  1.00  0.00     0.239 C 
HETATM    5  N2  UNL     1      -0.949   4.404  13.365  1.00  0.00    -0.074 N 
ATOM      6  H21 UNL     1      -0.787   3.599  13.970  1.00  0.00     0.277 HD
ATOM      7  H22 UNL     1       0.016   4.696  13.208  1.00  0.00     0.277 HD
HETATM    8  C6  UNL     1      -1.567   3.991  12.120  1.00  0.00     0.239 C 
HETATM    9  C7  UNL     1      -3.009   3.614  12.272  1.00  0.00     0.035 C 
HETATM   10  C8  UNL     1      -3.957   4.500  11.558  1.00  0.00     0.123 C 
HETATM   11  C9  UNL     1      -3.320   3.675  13.767  1.00  0.00     0.028 C 
ENDROOT
BRANCH  11  12
HETATM   12  C10 UNL     1      -4.664   3.146  14.094  1.00  0.00     0.278 C 
BRANCH  12  13
HETATM   13  N3  UNL     1      -4.884   3.102  15.532  1.00  0.00     0.090 N 
HETATM   14  C11 UNL     1      -6.311   2.881  15.802  1.00  0.00     0.274 C 
HETATM   15  C12 UNL     1      -6.500   2.398  17.196  1.00  0.00     0.056 C 
HETATM   16  C13 UNL     1      -6.641   0.895  17.316  1.00  0.00     0.169 C 
HETATM   17  O1  UNL     1      -5.384   0.333  17.255  1.00  0.00    -0.389 OA
HETATM   18  C14 UNL     1      -4.811   0.708  16.039  1.00  0.00     0.198 C 
HETATM   19  C15 UNL     1      -4.113   2.038  16.161  1.00  0.00     0.298 C 
ENDBRANCH  12  13
ENDBRANCH  11  12
BRANCH   1  20
HETATM   20  C2  UNL     1      -3.309   6.771  11.129  1.00  0.00     0.112 C 
HETATM   21  C1  UNL     1      -3.029   8.115  11.791  1.00  0.00     0.026 C 
ENDBRANCH   1  20
TORSDOF 3
ENDMDL
MODEL 3
REMARK VINA RESULT: -6.338038465      2.772      5.498
REMARK  3 active torsions:
REMARK  status: ('A' for Active; 'I' for Inactive)
REMARK    1  A    between atoms: C2_2  and  N1_3 
REMARK    2  A    between atoms: C9_13  and  C10_14 
REMARK    3  A    between atoms: C10_14  and  N3_15 
ROOT
HETATM    1  N1  UNL     1      -4.169   4.355  10.609  1.00  0.00    -0.412 N 
HETATM    2  C3  UNL     1      -3.944   5.097  11.795  1.00  0.00     0.123 C 
HETATM    3  C4  UNL     1      -3.177   4.409  12.870  1.00  0.00     0.035 C 
HETATM    4  C5  UNL     1      -1.717   4.449  12.558  1.00  0.00     0.239 C 
HETATM    5  N2  UNL     1      -1.169   3.147  12.268  1.00  0.00    -0.074 N 
ATOM      6  H21 UNL     1      -1.025   2.618  13.128  1.00  0.00     0.277 HD
ATOM      7  H22 UNL     1      -0.202   3.226  11.952  1.00  0.00     0.277 HD
HETATM    8  C6  UNL     1      -1.956   2.381  11.321  1.00  0.00     0.239 C 
HETATM    9  C7  UNL     1      -3.403   2.287  11.694  1.00  0.00     0.035 C 
HETATM   10  C8  UNL     1      -4.328   2.954  10.749  1.00  0.00     0.123 C 
HETATM   11  C9  UNL     1      -3.545   2.951  13.063  1.00  0.00     0.028 C 
ENDROOT
BRANCH  11  12
HETATM   12  C10 UNL     1      -4.893   2.771  13.649  1.00  0.00     0.278 C 
BRANCH  12  13
HETATM   13  N3  UNL     1      -4.872   2.942  15.094  1.00  0.00     0.090 N 
HETATM   14  C11 UNL     1      -6.232   2.786  15.625  1.00  0.00     0.274 C 
HETATM   15  C12 UNL     1      -6.186   2.517  17.087  1.00  0.00     0.056 C 
HETATM   16  C13 UNL     1      -6.291   1.050  17.450  1.00  0.00     0.169 C 
HETATM   17  O1  UNL     1      -5.056   0.466  17.267  1.00  0.00    -0.389 OA
HETATM   18  C14 UNL     1      -4.695   0.649  15.931  1.00  0.00     0.198 C 
HETATM   19  C15 UNL     1      -3.998   1.971  15.739  1.00  0.00     0.298 C 
ENDBRANCH  12  13
ENDBRANCH  11  12
BRANCH   1  20
HETATM   20  C2  UNL     1      -3.505   4.784   9.432  1.00  0.00     0.112 C 
HETATM   21  C1  UNL     1      -2.992   6.217   9.514  1.00  0.00     0.026 C 
ENDBRANCH   1  20
TORSDOF 3
ENDMDL
MODEL 4
REMARK VINA RESULT: -6.295753041      1.249      1.436
REMARK  3 active torsions:
REMARK  status: ('A' for Active; 'I' for Inactive)
REMARK    1  A    between atoms: C2_2  and  N1_3 
REMARK    2  A    between atoms: C9_13  and  C10_14 
REMARK    3  A    between atoms: C10_14  and  N3_15 
ROOT
HETATM    1  N1  UNL     1      -6.358   2.853  15.482  1.00  0.00    -0.412 N 
HETATM    2  C3  UNL     1      -5.243   1.994  15.311  1.00  0.00     0.123 C 
HETATM    3  C4  UNL     1      -4.100   2.545  14.532  1.00  0.00     0.035 C 
HETATM    4  C5  UNL     1      -3.283   3.447  15.397  1.00  0.00     0.239 C 
HETATM    5  N2  UNL     1      -3.347   4.828  14.987  1.00  0.00    -0.074 N 
ATOM      6  H21 UNL     1      -2.758   4.989  14.171  1.00  0.00     0.277 HD
ATOM      7  H22 UNL     1      -2.872   5.426  15.662  1.00  0.00     0.277 HD
HETATM    8  C6  UNL     1      -4.696   5.302  14.745  1.00  0.00     0.239 C 
HETATM    9  C7  UNL     1      -5.474   4.424  13.812  1.00  0.00     0.035 C 
HETATM   10  C8  UNL     1      -6.642   3.753  14.427  1.00  0.00     0.123 C 
HETATM   11  C9  UNL     1      -4.505   3.352  13.314  1.00  0.00     0.028 C 
ENDROOT
BRANCH  11  12
HETATM   12  C10 UNL     1      -5.082   2.516  12.236  1.00  0.00     0.278 C 
BRANCH  12  13
HETATM   13  N3  UNL     1      -4.232   2.509  11.055  1.00  0.00     0.090 N 
HETATM   14  C11 UNL     1      -3.069   3.377  11.284  1.00  0.00     0.274 C 
HETATM   15  C12 UNL     1      -1.990   3.056  10.313  1.00  0.00     0.056 C 
HETATM   16  C13 UNL     1      -0.920   2.133  10.859  1.00  0.00     0.169 C 
HETATM   17  O1  UNL     1      -1.396   0.839  10.811  1.00  0.00    -0.389 OA
HETATM   18  C14 UNL     1      -2.566   0.791  11.571  1.00  0.00     0.198 C 
HETATM   19  C15 UNL     1      -3.764   1.166  10.737  1.00  0.00     0.298 C 
ENDBRANCH  12  13
ENDBRANCH  11  12
BRANCH   1  20
HETATM   20  C2  UNL     1      -6.618   3.335  16.790  1.00  0.00     0.112 C 
HETATM   21  C1  UNL     1      -6.224   2.353  17.887  1.00  0.00     0.026 C 
ENDBRANCH   1  20
TORSDOF 3
ENDMDL
MODEL 5
REMARK VINA RESULT: -6.067453596      2.985      5.585
REMARK  3 active torsions:
REMARK  status: ('A' for Active; 'I' for Inactive)
REMARK    1  A    between atoms: C2_2  and  N1_3 
REMARK    2  A    between atoms: C9_13  and  C10_14 
REMARK    3  A    between atoms: C10_14  and  N3_15 
ROOT
HETATM    1  N1  UNL     1      -1.227   4.552  12.908  1.00  0.00    -0.412 N 
HETATM    2  C3  UNL     1      -2.107   3.989  11.950  1.00  0.00     0.123 C 
HETATM    3  C4  UNL     1      -3.550   4.319  12.104  1.00  0.00     0.035 C 
HETATM    4  C5  UNL     1      -3.820   5.684  11.562  1.00  0.00     0.239 C 
HETATM    5  N2  UNL     1      -4.190   6.631  12.584  1.00  0.00    -0.074 N 
ATOM      6  H21 UNL     1      -5.161   6.494  12.867  1.00  0.00     0.277 HD
ATOM      7  H22 UNL     1      -4.258   7.572  12.196  1.00  0.00     0.277 HD
HETATM    8  C6  UNL     1      -3.314   6.616  13.739  1.00  0.00     0.239 C 
HETATM    9  C7  UNL     1      -3.118   5.247  14.316  1.00  0.00     0.035 C 
HETATM   10  C8  UNL     1      -1.734   4.729  14.219  1.00  0.00     0.123 C 
HETATM   11  C9  UNL     1      -4.043   4.311  13.538  1.00  0.00     0.028 C 
ENDROOT
BRANCH  11  12
HETATM   12  C10 UNL     1      -4.098   2.950  14.119  1.00  0.00     0.278 C 
BRANCH  12  13
HETATM   13  N3  UNL     1      -4.528   2.981  15.509  1.00  0.00     0.090 N 
HETATM   14  C11 UNL     1      -5.991   2.874  15.571  1.00  0.00     0.274 C 
HETATM   15  C12 UNL     1      -6.418   2.465  16.935  1.00  0.00     0.056 C 
HETATM   16  C13 UNL     1      -6.691   0.982  17.079  1.00  0.00     0.169 C 
HETATM   17  O1  UNL     1      -5.486   0.329  17.222  1.00  0.00    -0.389 OA
HETATM   18  C14 UNL     1      -4.715   0.611  16.093  1.00  0.00     0.198 C 
HETATM   19  C15 UNL     1      -3.941   1.891  16.278  1.00  0.00     0.298 C 
ENDBRANCH  12  13
ENDBRANCH  11  12
BRANCH   1  20
HETATM   20  C2  UNL     1      -0.319   5.546  12.460  1.00  0.00     0.112 C 
HETATM   21  C1  UNL     1      -0.094   5.525  10.953  1.00  0.00     0.026 C 
ENDBRANCH   1  20
TORSDOF 3
ENDMDL
