MODEL 1
REMARK VINA RESULT: -6.478050188      0.000      0.000
REMARK  6 active torsions:
REMARK  status: ('A' for Active; 'I' for Inactive)
REMARK       I    between atoms: N1_1  and  C1_5 
REMARK       I    between atoms: C1_5  and  N2_6 
REMARK       I    between atoms: C1_5  and  N3_10 
REMARK       I    between atoms: N3_10  and  C2_12 
REMARK    1  A    between atoms: C2_12  and  C3_14 
REMARK    2  A    between atoms: C3_14  and  N4_15 
REMARK    3  A    between atoms: C3_14  and  C4_19 
REMARK    4  A    between atoms: C4_19  and  C5_20 
REMARK    5  A    between atoms: N5_22  and  N6_23 
REMARK       I    between atoms: N6_23  and  C7_25 
REMARK    6  A    between atoms: C7_25  and  C8_27 
ROOT
HETATM    1  C3  UNL     1      -9.929  -1.206  -0.658  1.00  0.00     0.280 C 
ENDROOT
BRANCH   1   2
HETATM    2  C2  UNL     1     -11.363  -1.577  -0.701  1.00  0.00     0.251 C 
HETATM    3  N3  UNL     1     -12.335  -0.662  -1.159  1.00  0.00    -0.310 N 
HETATM    4  C1  UNL     1     -13.748  -0.965  -1.226  1.00  0.00     0.482 C 
ATOM      5  H3  UNL     1     -12.025   0.262  -1.460  1.00  0.00     0.166 HD
HETATM    6  N1  UNL     1     -14.442  -0.062  -0.297  1.00  0.00    -0.033 N 
HETATM    7  N2  UNL     1     -14.253  -0.805  -2.570  1.00  0.00    -0.033 N 
ATOM      8  H13 UNL     1     -14.390   0.909  -0.606  1.00  0.00     0.278 HD
ATOM      9  H12 UNL     1     -15.454  -0.183  -0.338  1.00  0.00     0.278 HD
ATOM     10  H11 UNL     1     -14.086  -0.175   0.652  1.00  0.00     0.278 HD
ATOM     11  H23 UNL     1     -15.264  -0.926  -2.611  1.00  0.00     0.278 HD
ATOM     12  H22 UNL     1     -14.201   0.166  -2.880  1.00  0.00     0.278 HD
ATOM     13  H21 UNL     1     -13.771  -1.432  -3.215  1.00  0.00     0.278 HD
HETATM   14  O1  UNL     1     -11.689  -2.727  -0.319  1.00  0.00    -0.271 OA
ENDBRANCH   1   2
BRANCH   1  15
HETATM   15  N4  UNL     1      -9.609  -0.706   0.663  1.00  0.00    -0.066 N 
ATOM     16  H43 UNL     1      -8.770  -0.126   0.665  1.00  0.00     0.275 HD
ATOM     17  H42 UNL     1     -10.272   0.001   0.981  1.00  0.00     0.275 HD
ATOM     18  H41 UNL     1      -9.538  -1.491   1.309  1.00  0.00     0.275 HD
ENDBRANCH   1  15
BRANCH   1  19
HETATM   19  C4  UNL     1      -9.039  -2.379  -1.031  1.00  0.00     0.101 C 
BRANCH  19  20
HETATM   20  C5  UNL     1      -8.220  -1.958  -2.227  1.00  0.00     0.034 A 
HETATM   21  C6  UNL     1      -7.163  -1.085  -2.238  1.00  0.00     0.146 A 
HETATM   22  N5  UNL     1      -6.693  -0.974  -3.535  1.00  0.00    -0.212 N 
HETATM   23  C11 UNL     1      -7.462  -1.765  -4.262  1.00  0.00     0.345 A 
HETATM   24  O3  UNL     1      -7.371  -1.958  -5.517  1.00  0.00    -0.245 OA
HETATM   25  N7  UNL     1      -8.392  -2.366  -3.479  1.00  0.00    -0.309 N 
ATOM     26  H7  UNL     1      -9.105  -3.022  -3.798  1.00  0.00     0.170 HD
BRANCH  22  27
HETATM   27  N6  UNL     1      -5.619  -0.147  -3.819  1.00  0.00    -0.259 N 
HETATM   28  C7  UNL     1      -5.544   1.241  -3.737  1.00  0.00     0.240 C 
HETATM   29  O2  UNL     1      -6.479   1.975  -3.377  1.00  0.00    -0.271 OA
ATOM     30  H6  UNL     1      -4.770  -0.618  -4.131  1.00  0.00     0.190 HD
BRANCH  28  31
HETATM   31  C8  UNL     1      -4.225   1.877  -4.115  1.00  0.00     0.080 A 
HETATM   32  C9  UNL     1      -4.229   2.428  -5.525  1.00  0.00     0.015 A 
HETATM   33  C10 UNL     1      -3.377   1.287  -5.148  1.00  0.00     0.015 A 
ENDBRANCH  28  31
ENDBRANCH  22  27
ENDBRANCH  19  20
ENDBRANCH   1  19
TORSDOF 6
ENDMDL
MODEL 2
REMARK VINA RESULT: -6.236113482      2.355      3.109
REMARK  6 active torsions:
REMARK  status: ('A' for Active; 'I' for Inactive)
REMARK       I    between atoms: N1_1  and  C1_5 
REMARK       I    between atoms: C1_5  and  N2_6 
REMARK       I    between atoms: C1_5  and  N3_10 
REMARK       I    between atoms: N3_10  and  C2_12 
REMARK    1  A    between atoms: C2_12  and  C3_14 
REMARK    2  A    between atoms: C3_14  and  N4_15 
REMARK    3  A    between atoms: C3_14  and  C4_19 
REMARK    4  A    between atoms: C4_19  and  C5_20 
REMARK    5  A    between atoms: N5_22  and  N6_23 
REMARK       I    between atoms: N6_23  and  C7_25 
REMARK    6  A    between atoms: C7_25  and  C8_27 
ROOT
HETATM    1  C3  UNL     1     -10.567  -2.037  -2.536  1.00  0.00     0.280 C 
ENDROOT
BRANCH   1   2
HETATM    2  C2  UNL     1     -10.898  -1.710  -3.942  1.00  0.00     0.251 C 
HETATM    3  N3  UNL     1     -12.122  -1.091  -4.273  1.00  0.00    -0.310 N 
HETATM    4  C1  UNL     1     -12.502  -0.747  -5.626  1.00  0.00     0.482 C 
ATOM      5  H3  UNL     1     -12.774  -0.875  -3.519  1.00  0.00     0.166 HD
HETATM    6  N1  UNL     1     -13.689  -1.542  -5.972  1.00  0.00    -0.033 N 
HETATM    7  N2  UNL     1     -12.779   0.667  -5.746  1.00  0.00    -0.033 N 
ATOM      8  H13 UNL     1     -14.500  -1.268  -5.419  1.00  0.00     0.278 HD
ATOM      9  H12 UNL     1     -14.046  -1.304  -6.898  1.00  0.00     0.278 HD
ATOM     10  H11 UNL     1     -13.493  -2.539  -5.888  1.00  0.00     0.278 HD
ATOM     11  H23 UNL     1     -13.136   0.904  -6.672  1.00  0.00     0.278 HD
ATOM     12  H22 UNL     1     -13.590   0.941  -5.193  1.00  0.00     0.278 HD
ATOM     13  H21 UNL     1     -11.955   1.218  -5.506  1.00  0.00     0.278 HD
HETATM   14  O1  UNL     1     -10.059  -1.999  -4.830  1.00  0.00    -0.271 OA
ENDBRANCH   1   2
BRANCH   1  15
HETATM   15  N4  UNL     1     -11.502  -3.028  -2.047  1.00  0.00    -0.066 N 
ATOM     16  H43 UNL     1     -12.425  -2.634  -1.865  1.00  0.00     0.275 HD
ATOM     17  H42 UNL     1     -11.770  -3.698  -2.768  1.00  0.00     0.275 HD
ATOM     18  H41 UNL     1     -11.107  -3.483  -1.224  1.00  0.00     0.275 HD
ENDBRANCH   1  15
BRANCH   1  19
HETATM   19  C4  UNL     1      -9.134  -2.521  -2.399  1.00  0.00     0.101 C 
BRANCH  19  20
HETATM   20  C5  UNL     1      -8.247  -1.299  -2.388  1.00  0.00     0.034 A 
HETATM   21  C6  UNL     1      -7.048  -1.144  -3.036  1.00  0.00     0.146 A 
HETATM   22  N5  UNL     1      -6.560   0.123  -2.767  1.00  0.00    -0.212 N 
HETATM   23  C11 UNL     1      -7.455   0.691  -1.979  1.00  0.00     0.345 A 
HETATM   24  O3  UNL     1      -7.394   1.866  -1.495  1.00  0.00    -0.245 OA
HETATM   25  N7  UNL     1      -8.482  -0.163  -1.743  1.00  0.00    -0.309 N 
ATOM     26  H7  UNL     1      -9.299   0.034  -1.165  1.00  0.00     0.170 HD
BRANCH  22  27
HETATM   27  N6  UNL     1      -5.353   0.534  -3.308  1.00  0.00    -0.259 N 
HETATM   28  C7  UNL     1      -5.117   1.529  -4.253  1.00  0.00     0.240 C 
HETATM   29  O2  UNL     1      -6.002   2.226  -4.775  1.00  0.00    -0.271 OA
ATOM     30  H6  UNL     1      -4.526   0.043  -2.968  1.00  0.00     0.190 HD
BRANCH  28  31
HETATM   31  C8  UNL     1      -3.678   1.758  -4.658  1.00  0.00     0.080 A 
HETATM   32  C9  UNL     1      -2.922   2.608  -3.658  1.00  0.00     0.015 A 
HETATM   33  C10 UNL     1      -3.205   3.093  -5.020  1.00  0.00     0.015 A 
ENDBRANCH  28  31
ENDBRANCH  22  27
ENDBRANCH  19  20
ENDBRANCH   1  19
TORSDOF 6
ENDMDL
MODEL 3
REMARK VINA RESULT: -6.233264148      2.578      4.065
REMARK  6 active torsions:
REMARK  status: ('A' for Active; 'I' for Inactive)
REMARK       I    between atoms: N1_1  and  C1_5 
REMARK       I    between atoms: C1_5  and  N2_6 
REMARK       I    between atoms: C1_5  and  N3_10 
REMARK       I    between atoms: N3_10  and  C2_12 
REMARK    1  A    between atoms: C2_12  and  C3_14 
REMARK    2  A    between atoms: C3_14  and  N4_15 
REMARK    3  A    between atoms: C3_14  and  C4_19 
REMARK    4  A    between atoms: C4_19  and  C5_20 
REMARK    5  A    between atoms: N5_22  and  N6_23 
REMARK       I    between atoms: N6_23  and  C7_25 
REMARK    6  A    between atoms: C7_25  and  C8_27 
ROOT
HETATM    1  C3  UNL     1     -13.161   0.183  -1.974  1.00  0.00     0.280 C 
ENDROOT
BRANCH   1   2
HETATM    2  C2  UNL     1     -13.772   0.238  -3.323  1.00  0.00     0.251 C 
HETATM    3  N3  UNL     1     -13.155  -0.394  -4.424  1.00  0.00    -0.310 N 
HETATM    4  C1  UNL     1     -13.703  -0.376  -5.763  1.00  0.00     0.482 C 
ATOM      5  H3  UNL     1     -12.277  -0.889  -4.268  1.00  0.00     0.166 HD
HETATM    6  N1  UNL     1     -12.754   0.346  -6.623  1.00  0.00    -0.033 N 
HETATM    7  N2  UNL     1     -13.920  -1.718  -6.254  1.00  0.00    -0.033 N 
ATOM      8  H13 UNL     1     -11.878  -0.164  -6.729  1.00  0.00     0.278 HD
ATOM      9  H12 UNL     1     -13.053   0.345  -7.598  1.00  0.00     0.278 HD
ATOM     10  H11 UNL     1     -12.601   1.293  -6.276  1.00  0.00     0.278 HD
ATOM     11  H23 UNL     1     -14.219  -1.720  -7.230  1.00  0.00     0.278 HD
ATOM     12  H22 UNL     1     -13.044  -2.228  -6.361  1.00  0.00     0.278 HD
ATOM     13  H21 UNL     1     -14.579  -2.219  -5.658  1.00  0.00     0.278 HD
HETATM   14  O1  UNL     1     -14.854   0.861  -3.458  1.00  0.00    -0.271 OA
ENDBRANCH   1   2
BRANCH   1  15
HETATM   15  N4  UNL     1     -13.917   1.032  -1.077  1.00  0.00    -0.066 N 
ATOM     16  H43 UNL     1     -13.315   1.621  -0.502  1.00  0.00     0.275 HD
ATOM     17  H42 UNL     1     -14.415   1.773  -1.571  1.00  0.00     0.275 HD
ATOM     18  H41 UNL     1     -14.541   0.453  -0.516  1.00  0.00     0.275 HD
ENDBRANCH   1  15
BRANCH   1  19
HETATM   19  C4  UNL     1     -13.091  -1.241  -1.452  1.00  0.00     0.101 C 
BRANCH  19  20
HETATM   20  C5  UNL     1     -11.644  -1.669  -1.508  1.00  0.00     0.034 A 
HETATM   21  C6  UNL     1     -10.558  -0.871  -1.761  1.00  0.00     0.146 A 
HETATM   22  N5  UNL     1      -9.416  -1.653  -1.722  1.00  0.00    -0.212 N 
HETATM   23  C11 UNL     1      -9.831  -2.878  -1.454  1.00  0.00     0.345 A 
HETATM   24  O3  UNL     1      -9.098  -3.911  -1.331  1.00  0.00    -0.245 OA
HETATM   25  N7  UNL     1     -11.180  -2.899  -1.323  1.00  0.00    -0.309 N 
ATOM     26  H7  UNL     1     -11.746  -3.723  -1.117  1.00  0.00     0.170 HD
BRANCH  22  27
HETATM   27  N6  UNL     1      -8.173  -1.083  -1.946  1.00  0.00    -0.259 N 
HETATM   28  C7  UNL     1      -7.310  -1.273  -3.022  1.00  0.00     0.240 C 
HETATM   29  O2  UNL     1      -7.543  -2.019  -3.986  1.00  0.00    -0.271 OA
ATOM     30  H6  UNL     1      -7.847  -0.439  -1.226  1.00  0.00     0.190 HD
BRANCH  28  31
HETATM   31  C8  UNL     1      -6.006  -0.508  -2.993  1.00  0.00     0.080 A 
HETATM   32  C9  UNL     1      -6.116   0.853  -3.647  1.00  0.00     0.015 A 
HETATM   33  C10 UNL     1      -5.283  -0.213  -4.229  1.00  0.00     0.015 A 
ENDBRANCH  28  31
ENDBRANCH  22  27
ENDBRANCH  19  20
ENDBRANCH   1  19
TORSDOF 6
ENDMDL
MODEL 4
REMARK VINA RESULT: -6.206439289      1.787      2.247
REMARK  6 active torsions:
REMARK  status: ('A' for Active; 'I' for Inactive)
REMARK       I    between atoms: N1_1  and  C1_5 
REMARK       I    between atoms: C1_5  and  N2_6 
REMARK       I    between atoms: C1_5  and  N3_10 
REMARK       I    between atoms: N3_10  and  C2_12 
REMARK    1  A    between atoms: C2_12  and  C3_14 
REMARK    2  A    between atoms: C3_14  and  N4_15 
REMARK    3  A    between atoms: C3_14  and  C4_19 
REMARK    4  A    between atoms: C4_19  and  C5_20 
REMARK    5  A    between atoms: N5_22  and  N6_23 
REMARK       I    between atoms: N6_23  and  C7_25 
REMARK    6  A    between atoms: C7_25  and  C8_27 
ROOT
HETATM    1  C3  UNL     1      -9.809  -2.472  -2.035  1.00  0.00     0.280 C 
ENDROOT
BRANCH   1   2
HETATM    2  C2  UNL     1     -11.197  -2.359  -1.532  1.00  0.00     0.251 C 
HETATM    3  N3  UNL     1     -11.984  -1.224  -1.823  1.00  0.00    -0.310 N 
HETATM    4  C1  UNL     1     -13.345  -1.056  -1.362  1.00  0.00     0.482 C 
ATOM      5  H3  UNL     1     -11.571  -0.482  -2.389  1.00  0.00     0.166 HD
HETATM    6  N1  UNL     1     -13.370   0.105  -0.461  1.00  0.00    -0.033 N 
HETATM    7  N2  UNL     1     -14.251  -0.865  -2.471  1.00  0.00    -0.033 N 
ATOM      8  H13 UNL     1     -13.178   0.973  -0.960  1.00  0.00     0.278 HD
ATOM      9  H12 UNL     1     -14.317   0.316  -0.144  1.00  0.00     0.278 HD
ATOM     10  H11 UNL     1     -12.731  -0.030   0.322  1.00  0.00     0.278 HD
ATOM     11  H23 UNL     1     -15.197  -0.654  -2.154  1.00  0.00     0.278 HD
ATOM     12  H22 UNL     1     -14.059   0.004  -2.970  1.00  0.00     0.278 HD
ATOM     13  H21 UNL     1     -14.234  -1.671  -3.096  1.00  0.00     0.278 HD
HETATM   14  O1  UNL     1     -11.655  -3.301  -0.840  1.00  0.00    -0.271 OA
ENDBRANCH   1   2
BRANCH   1  15
HETATM   15  N4  UNL     1      -9.444  -3.871  -2.109  1.00  0.00    -0.066 N 
ATOM     16  H43 UNL     1      -9.636  -4.368  -1.240  1.00  0.00     0.275 HD
ATOM     17  H42 UNL     1     -10.065  -4.403  -2.719  1.00  0.00     0.275 HD
ATOM     18  H41 UNL     1      -8.466  -3.947  -2.390  1.00  0.00     0.275 HD
ENDBRANCH   1  15
BRANCH   1  19
HETATM   19  C4  UNL     1      -9.648  -1.791  -3.383  1.00  0.00     0.101 C 
BRANCH  19  20
HETATM   20  C5  UNL     1      -8.643  -0.678  -3.207  1.00  0.00     0.034 A 
HETATM   21  C6  UNL     1      -7.326  -0.687  -3.591  1.00  0.00     0.146 A 
HETATM   22  N5  UNL     1      -6.756   0.526  -3.246  1.00  0.00    -0.212 N 
HETATM   23  C11 UNL     1      -7.721   1.224  -2.674  1.00  0.00     0.345 A 
HETATM   24  O3  UNL     1      -7.622   2.404  -2.207  1.00  0.00    -0.245 OA
HETATM   25  N7  UNL     1      -8.869   0.503  -2.644  1.00  0.00    -0.309 N 
ATOM     26  H7  UNL     1      -9.759   0.815  -2.254  1.00  0.00     0.170 HD
BRANCH  22  27
HETATM   27  N6  UNL     1      -5.423   0.775  -3.528  1.00  0.00    -0.259 N 
HETATM   28  C7  UNL     1      -4.880   1.709  -4.406  1.00  0.00     0.240 C 
HETATM   29  O2  UNL     1      -5.548   2.495  -5.098  1.00  0.00    -0.271 OA
ATOM     30  H6  UNL     1      -4.750   0.197  -3.025  1.00  0.00     0.190 HD
BRANCH  28  31
HETATM   31  C8  UNL     1      -3.371   1.754  -4.507  1.00  0.00     0.080 A 
HETATM   32  C9  UNL     1      -2.755   2.758  -3.555  1.00  0.00     0.015 A 
HETATM   33  C10 UNL     1      -2.690   2.942  -5.015  1.00  0.00     0.015 A 
ENDBRANCH  28  31
ENDBRANCH  22  27
ENDBRANCH  19  20
ENDBRANCH   1  19
TORSDOF 6
ENDMDL
MODEL 5
REMARK VINA RESULT: -6.178613849      2.473      4.006
REMARK  6 active torsions:
REMARK  status: ('A' for Active; 'I' for Inactive)
REMARK       I    between atoms: N1_1  and  C1_5 
REMARK       I    between atoms: C1_5  and  N2_6 
REMARK       I    between atoms: C1_5  and  N3_10 
REMARK       I    between atoms: N3_10  and  C2_12 
REMARK    1  A    between atoms: C2_12  and  C3_14 
REMARK    2  A    between atoms: C3_14  and  N4_15 
REMARK    3  A    between atoms: C3_14  and  C4_19 
REMARK    4  A    between atoms: C4_19  and  C5_20 
REMARK    5  A    between atoms: N5_22  and  N6_23 
REMARK       I    between atoms: N6_23  and  C7_25 
REMARK    6  A    between atoms: C7_25  and  C8_27 
ROOT
HETATM    1  C3  UNL     1     -13.211   0.105  -2.365  1.00  0.00     0.280 C 
ENDROOT
BRANCH   1   2
HETATM    2  C2  UNL     1     -14.217   0.064  -3.451  1.00  0.00     0.251 C 
HETATM    3  N3  UNL     1     -15.290  -0.852  -3.412  1.00  0.00    -0.310 N 
HETATM    4  C1  UNL     1     -16.303  -0.938  -4.441  1.00  0.00     0.482 C 
ATOM      5  H3  UNL     1     -15.355  -1.486  -2.616  1.00  0.00     0.166 HD
HETATM    6  N1  UNL     1     -16.195  -2.267  -5.062  1.00  0.00    -0.033 N 
HETATM    7  N2  UNL     1     -17.624  -0.736  -3.891  1.00  0.00    -0.033 N 
ATOM      8  H13 UNL     1     -16.451  -3.009  -4.411  1.00  0.00     0.278 HD
ATOM      9  H12 UNL     1     -16.922  -2.417  -5.761  1.00  0.00     0.278 HD
ATOM     10  H11 UNL     1     -15.262  -2.410  -5.451  1.00  0.00     0.278 HD
ATOM     11  H23 UNL     1     -18.351  -0.886  -4.590  1.00  0.00     0.278 HD
ATOM     12  H22 UNL     1     -17.880  -1.478  -3.240  1.00  0.00     0.278 HD
ATOM     13  H21 UNL     1     -17.699   0.186  -3.460  1.00  0.00     0.278 HD
HETATM   14  O1  UNL     1     -14.088   0.867  -4.408  1.00  0.00    -0.271 OA
ENDBRANCH   1   2
BRANCH   1  15
HETATM   15  N4  UNL     1     -13.538   1.183  -1.456  1.00  0.00    -0.066 N 
ATOM     16  H43 UNL     1     -12.879   1.252  -0.681  1.00  0.00     0.275 HD
ATOM     17  H42 UNL     1     -13.372   2.102  -1.868  1.00  0.00     0.275 HD
ATOM     18  H41 UNL     1     -14.500   1.070  -1.136  1.00  0.00     0.275 HD
ENDBRANCH   1  15
BRANCH   1  19
HETATM   19  C4  UNL     1     -13.128  -1.223  -1.632  1.00  0.00     0.101 C 
BRANCH  19  20
HETATM   20  C5  UNL     1     -11.679  -1.648  -1.635  1.00  0.00     0.034 A 
HETATM   21  C6  UNL     1     -10.588  -0.856  -1.886  1.00  0.00     0.146 A 
HETATM   22  N5  UNL     1      -9.446  -1.632  -1.790  1.00  0.00    -0.212 N 
HETATM   23  C11 UNL     1      -9.865  -2.849  -1.490  1.00  0.00     0.345 A 
HETATM   24  O3  UNL     1      -9.134  -3.874  -1.311  1.00  0.00    -0.245 OA
HETATM   25  N7  UNL     1     -11.218  -2.869  -1.395  1.00  0.00    -0.309 N 
ATOM     26  H7  UNL     1     -11.787  -3.687  -1.175  1.00  0.00     0.170 HD
BRANCH  22  27
HETATM   27  N6  UNL     1      -8.199  -1.067  -2.000  1.00  0.00    -0.259 N 
HETATM   28  C7  UNL     1      -7.321  -1.269  -3.061  1.00  0.00     0.240 C 
HETATM   29  O2  UNL     1      -7.541  -2.024  -4.022  1.00  0.00    -0.271 OA
ATOM     30  H6  UNL     1      -7.883  -0.416  -1.282  1.00  0.00     0.190 HD
BRANCH  28  31
HETATM   31  C8  UNL     1      -6.015  -0.506  -3.021  1.00  0.00     0.080 A 
HETATM   32  C9  UNL     1      -6.111   0.846  -3.697  1.00  0.00     0.015 A 
HETATM   33  C10 UNL     1      -5.270  -0.231  -4.247  1.00  0.00     0.015 A 
ENDBRANCH  28  31
ENDBRANCH  22  27
ENDBRANCH  19  20
ENDBRANCH   1  19
TORSDOF 6
ENDMDL
