MODEL 1
REMARK VINA RESULT: -6.227421987      0.000      0.000
REMARK  8 active torsions:
REMARK  status: ('A' for Active; 'I' for Inactive)
REMARK    1  A    between atoms: N1_1  and  N2_4 
REMARK    2  A    between atoms: N2_4  and  N3_6 
REMARK    3  A    between atoms: N3_6  and  N4_7 
REMARK       I    between atoms: N4_7  and  C1_9 
REMARK       I    between atoms: C1_9  and  N5_11 
REMARK    4  A    between atoms: N5_11  and  C2_13 
REMARK    5  A    between atoms: C2_13  and  C3_14 
REMARK    6  A    between atoms: N6_17  and  C6_18 
REMARK    7  A    between atoms: C6_18  and  C7_19 
REMARK       I    between atoms: C7_19  and  N7_21 
REMARK    8  A    between atoms: N7_21  and  N8_23 
REMARK       I    between atoms: N8_23  and  C8_25 
ROOT
HETATM    1  C3  UNL     1     -12.221   0.234  -0.613  1.00  0.00     0.045 A 
HETATM    2  C4  UNL     1     -12.750  -0.780   0.202  1.00  0.00     0.047 A 
HETATM    3  C5  UNL     1     -11.723  -1.592   0.614  1.00  0.00     0.112 A 
HETATM    4  N6  UNL     1     -10.611  -1.092   0.070  1.00  0.00    -0.294 N 
HETATM    5  N10 UNL     1     -10.905  -0.008  -0.656  1.00  0.00    -0.301 N 
ATOM      6  H10 UNL     1     -10.224   0.554  -1.169  1.00  0.00     0.187 HD
ENDROOT
BRANCH   1   7
HETATM    7  C2  UNL     1     -13.042   1.319  -1.261  1.00  0.00     0.183 C 
BRANCH   7   8
HETATM    8  N5  UNL     1     -14.104   0.726  -2.029  1.00  0.00    -0.335 N 
HETATM    9  C1  UNL     1     -14.058   0.093  -3.268  1.00  0.00     0.347 C 
HETATM   10  N4  UNL     1     -15.275  -0.431  -3.837  1.00  0.00    -0.163 N 
HETATM   11  O1  UNL     1     -12.993  -0.056  -3.944  1.00  0.00    -0.245 OA
ATOM     12  H4  UNL     1     -16.134  -0.332  -3.296  1.00  0.00     0.209 HD
ATOM     13  H5  UNL     1     -15.029   0.776  -1.602  1.00  0.00     0.164 HD
BRANCH  10  14
HETATM   14  N3  UNL     1     -15.352  -1.012  -4.976  1.00  0.00    -0.217 NA
BRANCH  14  15
HETATM   15  N2  UNL     1     -15.079  -1.566  -5.957  1.00  0.00    -0.162 N 
ATOM     16  H2  UNL     1     -15.829  -2.025  -6.475  1.00  0.00     0.225 HD
BRANCH  15  17
HETATM   17  N1  UNL     1     -13.763  -1.644  -6.481  1.00  0.00    -0.319 N 
ATOM     18  H12 UNL     1     -12.994  -1.496  -5.828  1.00  0.00     0.179 HD
ATOM     19  H11 UNL     1     -13.552  -1.837  -7.461  1.00  0.00     0.179 HD
ENDBRANCH  15  17
ENDBRANCH  14  15
ENDBRANCH  10  14
ENDBRANCH   7   8
ENDBRANCH   1   7
BRANCH   4  20
HETATM   20  C6  UNL     1      -9.297  -1.693   0.261  1.00  0.00     0.252 C 
BRANCH  20  21
HETATM   21  C7  UNL     1      -8.456  -1.663  -0.932  1.00  0.00     0.255 C 
HETATM   22  O2  UNL     1      -7.680  -0.638  -1.041  1.00  0.00    -0.270 OA
HETATM   23  N7  UNL     1      -8.410  -2.621  -1.958  1.00  0.00    -0.265 N 
ATOM     24  H7  UNL     1      -9.015  -3.439  -1.889  1.00  0.00     0.190 HD
BRANCH  23  25
HETATM   25  N8  UNL     1      -7.573  -2.501  -3.068  1.00  0.00    -0.251 N 
HETATM   26  C8  UNL     1      -8.036  -1.992  -4.302  1.00  0.00     0.347 C 
HETATM   27  N9  UNL     1      -7.176  -1.878  -5.422  1.00  0.00    -0.038 NA
HETATM   28  O3  UNL     1      -9.241  -1.635  -4.393  1.00  0.00    -0.249 OA
ATOM     29  H8  UNL     1      -6.598  -2.789  -2.986  1.00  0.00     0.191 HD
ENDBRANCH  23  25
ENDBRANCH  20  21
ENDBRANCH   4  20
TORSDOF 8
ENDMDL
MODEL 2
REMARK VINA RESULT: -6.148319238      1.587      2.153
REMARK  8 active torsions:
REMARK  status: ('A' for Active; 'I' for Inactive)
REMARK    1  A    between atoms: N1_1  and  N2_4 
REMARK    2  A    between atoms: N2_4  and  N3_6 
REMARK    3  A    between atoms: N3_6  and  N4_7 
REMARK       I    between atoms: N4_7  and  C1_9 
REMARK       I    between atoms: C1_9  and  N5_11 
REMARK    4  A    between atoms: N5_11  and  C2_13 
REMARK    5  A    between atoms: C2_13  and  C3_14 
REMARK    6  A    between atoms: N6_17  and  C6_18 
REMARK    7  A    between atoms: C6_18  and  C7_19 
REMARK       I    between atoms: C7_19  and  N7_21 
REMARK    8  A    between atoms: N7_21  and  N8_23 
REMARK       I    between atoms: N8_23  and  C8_25 
ROOT
HETATM    1  C3  UNL     1     -13.767  -0.617  -1.982  1.00  0.00     0.045 A 
HETATM    2  C4  UNL     1     -13.761  -0.262  -0.623  1.00  0.00     0.047 A 
HETATM    3  C5  UNL     1     -12.707  -0.892  -0.010  1.00  0.00     0.112 A 
HETATM    4  N6  UNL     1     -12.095  -1.604  -0.960  1.00  0.00    -0.294 N 
HETATM    5  N10 UNL     1     -12.722  -1.440  -2.130  1.00  0.00    -0.301 N 
ATOM      6  H10 UNL     1     -12.444  -1.878  -3.008  1.00  0.00     0.187 HD
ENDROOT
BRANCH   1   7
HETATM    7  C2  UNL     1     -14.781  -0.126  -2.984  1.00  0.00     0.183 C 
BRANCH   7   8
HETATM    8  N5  UNL     1     -14.664  -0.887  -4.200  1.00  0.00    -0.335 N 
HETATM    9  C1  UNL     1     -14.096  -0.531  -5.419  1.00  0.00     0.347 C 
HETATM   10  N4  UNL     1     -14.098  -1.484  -6.502  1.00  0.00    -0.163 N 
HETATM   11  O1  UNL     1     -13.566   0.601  -5.646  1.00  0.00    -0.245 OA
ATOM     12  H4  UNL     1     -14.506  -2.402  -6.326  1.00  0.00     0.209 HD
ATOM     13  H5  UNL     1     -15.056  -1.829  -4.162  1.00  0.00     0.164 HD
BRANCH  10  14
HETATM   14  N3  UNL     1     -13.623  -1.256  -7.669  1.00  0.00    -0.217 NA
BRANCH  14  15
HETATM   15  N2  UNL     1     -13.242  -0.721  -8.625  1.00  0.00    -0.162 N 
ATOM     16  H2  UNL     1     -13.484  -1.126  -9.530  1.00  0.00     0.225 HD
BRANCH  15  17
HETATM   17  N1  UNL     1     -12.458   0.461  -8.611  1.00  0.00    -0.319 N 
ATOM     18  H12 UNL     1     -11.575   0.425  -8.102  1.00  0.00     0.179 HD
ATOM     19  H11 UNL     1     -12.730   1.328  -9.074  1.00  0.00     0.179 HD
ENDBRANCH  15  17
ENDBRANCH  14  15
ENDBRANCH  10  14
ENDBRANCH   7   8
ENDBRANCH   1   7
BRANCH   4  20
HETATM   20  C6  UNL     1     -10.927  -2.435  -0.697  1.00  0.00     0.252 C 
BRANCH  20  21
HETATM   21  C7  UNL     1      -9.789  -2.144  -1.565  1.00  0.00     0.255 C 
HETATM   22  O2  UNL     1      -9.434  -0.905  -1.622  1.00  0.00    -0.270 OA
HETATM   23  N7  UNL     1      -9.058  -3.063  -2.336  1.00  0.00    -0.265 N 
ATOM     24  H7  UNL     1      -9.323  -4.047  -2.303  1.00  0.00     0.190 HD
BRANCH  23  25
HETATM   25  N8  UNL     1      -7.985  -2.687  -3.144  1.00  0.00    -0.251 N 
HETATM   26  C8  UNL     1      -8.175  -2.101  -4.415  1.00  0.00     0.347 C 
HETATM   27  N9  UNL     1      -7.077  -1.726  -5.227  1.00  0.00    -0.038 NA
HETATM   28  O3  UNL     1      -9.353  -1.913  -4.822  1.00  0.00    -0.249 OA
ATOM     29  H8  UNL     1      -7.034  -2.838  -2.807  1.00  0.00     0.191 HD
ENDBRANCH  23  25
ENDBRANCH  20  21
ENDBRANCH   4  20
TORSDOF 8
ENDMDL
MODEL 3
REMARK VINA RESULT: -6.131343256      2.621      3.404
REMARK  8 active torsions:
REMARK  status: ('A' for Active; 'I' for Inactive)
REMARK    1  A    between atoms: N1_1  and  N2_4 
REMARK    2  A    between atoms: N2_4  and  N3_6 
REMARK    3  A    between atoms: N3_6  and  N4_7 
REMARK       I    between atoms: N4_7  and  C1_9 
REMARK       I    between atoms: C1_9  and  N5_11 
REMARK    4  A    between atoms: N5_11  and  C2_13 
REMARK    5  A    between atoms: C2_13  and  C3_14 
REMARK    6  A    between atoms: N6_17  and  C6_18 
REMARK    7  A    between atoms: C6_18  and  C7_19 
REMARK       I    between atoms: C7_19  and  N7_21 
REMARK    8  A    between atoms: N7_21  and  N8_23 
REMARK       I    between atoms: N8_23  and  C8_25 
ROOT
HETATM    1  C3  UNL     1     -11.645  -0.822  -3.171  1.00  0.00     0.045 A 
HETATM    2  C4  UNL     1     -11.847  -1.449  -1.930  1.00  0.00     0.047 A 
HETATM    3  C5  UNL     1     -10.716  -2.157  -1.608  1.00  0.00     0.112 A 
HETATM    4  N6  UNL     1      -9.859  -1.968  -2.614  1.00  0.00    -0.294 N 
HETATM    5  N10 UNL     1     -10.408  -1.175  -3.540  1.00  0.00    -0.301 N 
ATOM      6  H10 UNL     1      -9.951  -0.881  -4.403  1.00  0.00     0.187 HD
ENDROOT
BRANCH   1   7
HETATM    7  C2  UNL     1     -12.668   0.044  -3.862  1.00  0.00     0.183 C 
BRANCH   7   8
HETATM    8  N5  UNL     1     -13.287  -0.700  -4.928  1.00  0.00    -0.335 N 
HETATM    9  C1  UNL     1     -13.068  -0.633  -6.301  1.00  0.00     0.347 C 
HETATM   10  N4  UNL     1     -13.821  -1.496  -7.176  1.00  0.00    -0.163 N 
HETATM   11  O1  UNL     1     -12.232   0.154  -6.843  1.00  0.00    -0.245 OA
ATOM     12  H4  UNL     1     -14.484  -2.145  -6.750  1.00  0.00     0.209 HD
ATOM     13  H5  UNL     1     -13.991  -1.376  -4.633  1.00  0.00     0.164 HD
BRANCH  10  14
HETATM   14  N3  UNL     1     -13.716  -1.504  -8.452  1.00  0.00    -0.217 NA
BRANCH  14  15
HETATM   15  N2  UNL     1     -13.619  -1.169  -9.558  1.00  0.00    -0.162 N 
ATOM     16  H2  UNL     1     -14.076  -1.735 -10.274  1.00  0.00     0.225 HD
BRANCH  15  17
HETATM   17  N1  UNL     1     -12.904  -0.017  -9.975  1.00  0.00    -0.319 N 
ATOM     18  H12 UNL     1     -12.139   0.294  -9.377  1.00  0.00     0.179 HD
ATOM     19  H11 UNL     1     -13.113   0.504 -10.826  1.00  0.00     0.179 HD
ENDBRANCH  15  17
ENDBRANCH  14  15
ENDBRANCH  10  14
ENDBRANCH   7   8
ENDBRANCH   1   7
BRANCH   4  20
HETATM   20  C6  UNL     1      -8.536  -2.577  -2.650  1.00  0.00     0.252 C 
BRANCH  20  21
HETATM   21  C7  UNL     1      -7.598  -1.898  -3.541  1.00  0.00     0.255 C 
HETATM   22  O2  UNL     1      -7.919  -1.896  -4.791  1.00  0.00    -0.270 OA
HETATM   23  N7  UNL     1      -6.399  -1.261  -3.179  1.00  0.00    -0.265 N 
ATOM     24  H7  UNL     1      -6.130  -1.250  -2.196  1.00  0.00     0.190 HD
BRANCH  23  25
HETATM   25  N8  UNL     1      -5.562  -0.643  -4.108  1.00  0.00    -0.251 N 
HETATM   26  C8  UNL     1      -5.278   0.739  -4.055  1.00  0.00     0.347 C 
HETATM   27  N9  UNL     1      -4.428   1.355  -5.007  1.00  0.00    -0.038 NA
HETATM   28  O3  UNL     1      -5.795   1.427  -3.135  1.00  0.00    -0.249 OA
ATOM     29  H8  UNL     1      -5.144  -1.206  -4.849  1.00  0.00     0.191 HD
ENDBRANCH  23  25
ENDBRANCH  20  21
ENDBRANCH   4  20
TORSDOF 8
ENDMDL
MODEL 4
REMARK VINA RESULT: -6.130247556      1.201      1.626
REMARK  8 active torsions:
REMARK  status: ('A' for Active; 'I' for Inactive)
REMARK    1  A    between atoms: N1_1  and  N2_4 
REMARK    2  A    between atoms: N2_4  and  N3_6 
REMARK    3  A    between atoms: N3_6  and  N4_7 
REMARK       I    between atoms: N4_7  and  C1_9 
REMARK       I    between atoms: C1_9  and  N5_11 
REMARK    4  A    between atoms: N5_11  and  C2_13 
REMARK    5  A    between atoms: C2_13  and  C3_14 
REMARK    6  A    between atoms: N6_17  and  C6_18 
REMARK    7  A    between atoms: C6_18  and  C7_19 
REMARK       I    between atoms: C7_19  and  N7_21 
REMARK    8  A    between atoms: N7_21  and  N8_23 
REMARK       I    between atoms: N8_23  and  C8_25 
ROOT
HETATM    1  C3  UNL     1     -12.592  -0.321  -1.421  1.00  0.00     0.045 A 
HETATM    2  C4  UNL     1     -12.992  -0.797  -0.162  1.00  0.00     0.047 A 
HETATM    3  C5  UNL     1     -11.880  -1.234   0.515  1.00  0.00     0.112 A 
HETATM    4  N6  UNL     1     -10.844  -1.032  -0.301  1.00  0.00    -0.294 N 
HETATM    5  N10 UNL     1     -11.264  -0.489  -1.449  1.00  0.00    -0.301 N 
ATOM      6  H10 UNL     1     -10.660  -0.239  -2.232  1.00  0.00     0.187 HD
ENDROOT
BRANCH   1   7
HETATM    7  C2  UNL     1     -13.533   0.238  -2.457  1.00  0.00     0.183 C 
BRANCH   7   8
HETATM    8  N5  UNL     1     -13.537  -0.615  -3.615  1.00  0.00    -0.335 N 
HETATM    9  C1  UNL     1     -13.356  -0.291  -4.957  1.00  0.00     0.347 C 
HETATM   10  N4  UNL     1     -13.401  -1.341  -5.946  1.00  0.00    -0.163 N 
HETATM   11  O1  UNL     1     -13.150   0.890  -5.376  1.00  0.00    -0.245 OA
ATOM     12  H4  UNL     1     -13.549  -2.296  -5.619  1.00  0.00     0.209 HD
ATOM     13  H5  UNL     1     -13.697  -1.605  -3.425  1.00  0.00     0.164 HD
BRANCH  10  14
HETATM   14  N3  UNL     1     -13.267  -1.155  -7.206  1.00  0.00    -0.217 NA
BRANCH  14  15
HETATM   15  N2  UNL     1     -13.217  -0.660  -8.254  1.00  0.00    -0.162 N 
ATOM     16  H2  UNL     1     -13.773  -1.068  -9.005  1.00  0.00     0.225 HD
BRANCH  15  17
HETATM   17  N1  UNL     1     -12.425   0.479  -8.552  1.00  0.00    -0.319 N 
ATOM     18  H12 UNL     1     -11.946   0.487  -9.453  1.00  0.00     0.179 HD
ATOM     19  H11 UNL     1     -12.314   1.274  -7.923  1.00  0.00     0.179 HD
ENDBRANCH  15  17
ENDBRANCH  14  15
ENDBRANCH  10  14
ENDBRANCH   7   8
ENDBRANCH   1   7
BRANCH   4  20
HETATM   20  C6  UNL     1      -9.476  -1.388   0.054  1.00  0.00     0.252 C 
BRANCH  20  21
HETATM   21  C7  UNL     1      -8.557  -1.405  -1.081  1.00  0.00     0.255 C 
HETATM   22  O2  UNL     1      -7.708  -0.433  -1.125  1.00  0.00    -0.270 OA
HETATM   23  N7  UNL     1      -8.507  -2.355  -2.115  1.00  0.00    -0.265 N 
ATOM     24  H7  UNL     1      -9.169  -3.130  -2.096  1.00  0.00     0.190 HD
BRANCH  23  25
HETATM   25  N8  UNL     1      -7.592  -2.281  -3.165  1.00  0.00    -0.251 N 
HETATM   26  C8  UNL     1      -7.988  -1.951  -4.480  1.00  0.00     0.347 C 
HETATM   27  N9  UNL     1      -7.049  -1.882  -5.538  1.00  0.00    -0.038 NA
HETATM   28  O3  UNL     1      -9.205  -1.713  -4.701  1.00  0.00    -0.249 OA
ATOM     29  H8  UNL     1      -6.608  -2.471  -2.978  1.00  0.00     0.191 HD
ENDBRANCH  23  25
ENDBRANCH  20  21
ENDBRANCH   4  20
TORSDOF 8
ENDMDL
MODEL 5
REMARK VINA RESULT: -6.129498494      2.170      2.600
REMARK  8 active torsions:
REMARK  status: ('A' for Active; 'I' for Inactive)
REMARK    1  A    between atoms: N1_1  and  N2_4 
REMARK    2  A    between atoms: N2_4  and  N3_6 
REMARK    3  A    between atoms: N3_6  and  N4_7 
REMARK       I    between atoms: N4_7  and  C1_9 
REMARK       I    between atoms: C1_9  and  N5_11 
REMARK    4  A    between atoms: N5_11  and  C2_13 
REMARK    5  A    between atoms: C2_13  and  C3_14 
REMARK    6  A    between atoms: N6_17  and  C6_18 
REMARK    7  A    between atoms: C6_18  and  C7_19 
REMARK       I    between atoms: C7_19  and  N7_21 
REMARK    8  A    between atoms: N7_21  and  N8_23 
REMARK       I    between atoms: N8_23  and  C8_25 
ROOT
HETATM    1  C3  UNL     1     -12.048  -0.687  -2.836  1.00  0.00     0.045 A 
HETATM    2  C4  UNL     1     -12.708  -1.320  -1.769  1.00  0.00     0.047 A 
HETATM    3  C5  UNL     1     -11.792  -2.060  -1.065  1.00  0.00     0.112 A 
HETATM    4  N6  UNL     1     -10.620  -1.886  -1.679  1.00  0.00    -0.294 N 
HETATM    5  N10 UNL     1     -10.770  -1.070  -2.728  1.00  0.00    -0.301 N 
ATOM      6  H10 UNL     1     -10.019  -0.782  -3.355  1.00  0.00     0.187 HD
ENDROOT
BRANCH   1   7
HETATM    7  C2  UNL     1     -12.723   0.212  -3.840  1.00  0.00     0.183 C 
BRANCH   7   8
HETATM    8  N5  UNL     1     -13.420  -0.590  -4.811  1.00  0.00    -0.335 N 
HETATM    9  C1  UNL     1     -13.208  -0.709  -6.182  1.00  0.00     0.347 C 
HETATM   10  N4  UNL     1     -14.049  -1.593  -6.950  1.00  0.00    -0.163 N 
HETATM   11  O1  UNL     1     -12.304  -0.077  -6.813  1.00  0.00    -0.245 OA
ATOM     12  H4  UNL     1     -14.768  -2.118  -6.451  1.00  0.00     0.209 HD
ATOM     13  H5  UNL     1     -14.184  -1.155  -4.440  1.00  0.00     0.164 HD
BRANCH  10  14
HETATM   14  N3  UNL     1     -13.956  -1.764  -8.216  1.00  0.00    -0.217 NA
BRANCH  14  15
HETATM   15  N2  UNL     1     -13.816  -1.576  -9.352  1.00  0.00    -0.162 N 
ATOM     16  H2  UNL     1     -14.089  -2.316  -9.999  1.00  0.00     0.225 HD
BRANCH  15  17
HETATM   17  N1  UNL     1     -13.285  -0.378  -9.895  1.00  0.00    -0.319 N 
ATOM     18  H12 UNL     1     -13.123   0.392  -9.248  1.00  0.00     0.179 HD
ATOM     19  H11 UNL     1     -13.062  -0.253 -10.883  1.00  0.00     0.179 HD
ENDBRANCH  15  17
ENDBRANCH  14  15
ENDBRANCH  10  14
ENDBRANCH   7   8
ENDBRANCH   1   7
BRANCH   4  20
HETATM   20  C6  UNL     1      -9.390  -2.530  -1.234  1.00  0.00     0.252 C 
BRANCH  20  21
HETATM   21  C7  UNL     1      -8.175  -1.870  -1.705  1.00  0.00     0.255 C 
HETATM   22  O2  UNL     1      -7.775  -0.870  -0.996  1.00  0.00    -0.270 OA
HETATM   23  N7  UNL     1      -7.414  -2.209  -2.836  1.00  0.00    -0.265 N 
ATOM     24  H7  UNL     1      -7.713  -2.998  -3.408  1.00  0.00     0.190 HD
BRANCH  23  25
HETATM   25  N8  UNL     1      -6.266  -1.510  -3.210  1.00  0.00    -0.251 N 
HETATM   26  C8  UNL     1      -6.329  -0.300  -3.936  1.00  0.00     0.347 C 
HETATM   27  N9  UNL     1      -5.155   0.397  -4.312  1.00  0.00    -0.038 NA
HETATM   28  O3  UNL     1      -7.461   0.157  -4.247  1.00  0.00    -0.249 OA
ATOM     29  H8  UNL     1      -5.352  -1.884  -2.951  1.00  0.00     0.191 HD
ENDBRANCH  23  25
ENDBRANCH  20  21
ENDBRANCH   4  20
TORSDOF 8
ENDMDL
