MODEL 1
REMARK VINA RESULT: -6.966600268      0.000      0.000
REMARK  6 active torsions:
REMARK  status: ('A' for Active; 'I' for Inactive)
REMARK       I    between atoms: C1_4  and  N3_6 
REMARK    1  A    between atoms: N3_6  and  C2_7 
REMARK    2  A    between atoms: N3_6  and  C6_21 
REMARK    3  A    between atoms: C2_7  and  C3_8 
REMARK       I    between atoms: C3_8  and  N4_10 
REMARK    4  A    between atoms: N4_10  and  C4_12 
REMARK    5  A    between atoms: C4_12  and  C5_13 
REMARK    6  A    between atoms: C8_27  and  N11_28 
ROOT
HETATM    1  N1  UNL     1      -9.299  -3.876  -2.181  1.00  0.00    -0.373 N 
ATOM      2  H11 UNL     1      -9.344  -3.892  -3.199  1.00  0.00     0.158 HD
ATOM      3  H12 UNL     1      -9.199  -4.808  -1.779  1.00  0.00     0.158 HD
HETATM    4  C1  UNL     1      -9.379  -2.751  -1.660  1.00  0.00     0.190 C 
HETATM    5  N2  UNL     1      -9.313  -2.728  -0.196  1.00  0.00    -0.063 NA
HETATM    6  N3  UNL     1      -9.517  -1.456  -2.218  1.00  0.00    -0.297 N 
ENDROOT
BRANCH   6   7
HETATM    7  C2  UNL     1     -10.791  -0.954  -2.558  1.00  0.00     0.236 C 
BRANCH   7   8
HETATM    8  C3  UNL     1     -11.208  -0.900  -3.949  1.00  0.00     0.236 C 
HETATM    9  O1  UNL     1     -10.450  -1.591  -4.747  1.00  0.00    -0.272 OA
HETATM   10  N4  UNL     1     -12.272  -0.246  -4.556  1.00  0.00    -0.353 N 
ATOM     11  H4  UNL     1     -12.916   0.307  -3.991  1.00  0.00     0.162 HD
BRANCH  10  12
HETATM   12  C4  UNL     1     -12.470  -0.347  -5.984  1.00  0.00     0.201 C 
BRANCH  12  13
HETATM   13  C5  UNL     1     -13.717  -1.039  -6.320  1.00  0.00     0.128 A 
HETATM   14  N5  UNL     1     -14.080  -1.522  -7.512  1.00  0.00    -0.269 N 
HETATM   15  N6  UNL     1     -15.289  -2.076  -7.398  1.00  0.00    -0.005 NA
ATOM     16  H5  UNL     1     -13.526  -1.475  -8.366  1.00  0.00     0.185 HD
HETATM   17  N7  UNL     1     -15.689  -1.944  -6.141  1.00  0.00    -0.225 N 
HETATM   18  N8  UNL     1     -14.733  -1.315  -5.493  1.00  0.00    -0.274 N 
ATOM     19  H7  UNL     1     -16.572  -2.269  -5.750  1.00  0.00     0.205 HD
ATOM     20  H8  UNL     1     -14.761  -1.073  -4.503  1.00  0.00     0.189 HD
ENDBRANCH  12  13
ENDBRANCH  10  12
ENDBRANCH   7   8
ENDBRANCH   6   7
BRANCH   6  21
HETATM   21  C6  UNL     1      -8.303  -0.726  -2.406  1.00  0.00     0.143 A 
HETATM   22  C7  UNL     1      -7.973   0.350  -1.650  1.00  0.00     0.157 A 
HETATM   23  N9  UNL     1      -6.820   1.032  -1.835  1.00  0.00    -0.294 N 
HETATM   24  N10 UNL     1      -6.005   0.627  -2.779  1.00  0.00    -0.133 N 
ATOM     25  H9  UNL     1      -6.590   1.840  -1.256  1.00  0.00     0.186 HD
HETATM   26  C8  UNL     1      -6.265  -0.426  -3.562  1.00  0.00     0.692 A 
ATOM     27  H10 UNL     1      -5.134   1.137  -2.923  1.00  0.00     0.205 HD
HETATM   28  N12 UNL     1      -7.410  -1.092  -3.369  1.00  0.00    -0.174 N 
ATOM     29  H12 UNL     1      -7.622  -1.896  -3.961  1.00  0.00     0.186 HD
BRANCH  26  30
HETATM   30  N11 UNL     1      -5.406  -0.764  -4.476  1.00  0.00    -0.233 N 
ATOM     31 2H11 UNL     1      -4.646  -0.149  -4.768  1.00  0.00     0.174 HD
ATOM     32 1H11 UNL     1      -5.487  -1.678  -4.922  1.00  0.00     0.174 HD
ENDBRANCH  26  30
ENDBRANCH   6  21
TORSDOF 6
ENDMDL
MODEL 2
REMARK VINA RESULT: -6.847649777      2.744      3.929
REMARK  6 active torsions:
REMARK  status: ('A' for Active; 'I' for Inactive)
REMARK       I    between atoms: C1_4  and  N3_6 
REMARK    1  A    between atoms: N3_6  and  C2_7 
REMARK    2  A    between atoms: N3_6  and  C6_21 
REMARK    3  A    between atoms: C2_7  and  C3_8 
REMARK       I    between atoms: C3_8  and  N4_10 
REMARK    4  A    between atoms: N4_10  and  C4_12 
REMARK    5  A    between atoms: C4_12  and  C5_13 
REMARK    6  A    between atoms: C8_27  and  N11_28 
ROOT
HETATM    1  N1  UNL     1     -13.960  -0.878  -2.199  1.00  0.00    -0.373 N 
ATOM      2  H11 UNL     1     -14.192  -1.664  -2.806  1.00  0.00     0.158 HD
ATOM      3  H12 UNL     1     -14.734  -0.611  -1.590  1.00  0.00     0.158 HD
HETATM    4  C1  UNL     1     -12.813  -0.420  -2.332  1.00  0.00     0.190 C 
HETATM    5  N2  UNL     1     -12.479   0.709  -1.460  1.00  0.00    -0.063 NA
HETATM    6  N3  UNL     1     -11.737  -0.791  -3.177  1.00  0.00    -0.297 N 
ENDROOT
BRANCH   6   7
HETATM    7  C2  UNL     1     -11.659  -0.300  -4.497  1.00  0.00     0.236 C 
BRANCH   7   8
HETATM    8  C3  UNL     1     -12.793  -0.436  -5.396  1.00  0.00     0.236 C 
HETATM    9  O1  UNL     1     -13.452   0.670  -5.573  1.00  0.00    -0.272 OA
HETATM   10  N4  UNL     1     -13.276  -1.536  -6.091  1.00  0.00    -0.353 N 
ATOM     11  H4  UNL     1     -12.804  -2.436  -6.010  1.00  0.00     0.162 HD
BRANCH  10  12
HETATM   12  C4  UNL     1     -14.446  -1.411  -6.930  1.00  0.00     0.201 C 
BRANCH  12  13
HETATM   13  C5  UNL     1     -14.098  -1.111  -8.321  1.00  0.00     0.128 A 
HETATM   14  N5  UNL     1     -14.569  -1.705  -9.421  1.00  0.00    -0.269 N 
HETATM   15  N6  UNL     1     -13.999  -1.141 -10.489  1.00  0.00    -0.005 NA
ATOM     16  H5  UNL     1     -15.251  -2.463  -9.442  1.00  0.00     0.185 HD
HETATM   17  N7  UNL     1     -13.171  -0.197 -10.066  1.00  0.00    -0.225 N 
HETATM   18  N8  UNL     1     -13.235  -0.182  -8.752  1.00  0.00    -0.274 N 
ATOM     19  H7  UNL     1     -12.593   0.406 -10.650  1.00  0.00     0.205 HD
ATOM     20  H8  UNL     1     -12.704   0.446  -8.149  1.00  0.00     0.189 HD
ENDBRANCH  12  13
ENDBRANCH  10  12
ENDBRANCH   7   8
ENDBRANCH   6   7
BRANCH   6  21
HETATM   21  C6  UNL     1     -10.772  -1.677  -2.604  1.00  0.00     0.143 A 
HETATM   22  C7  UNL     1     -10.253  -2.730  -3.282  1.00  0.00     0.157 A 
HETATM   23  N9  UNL     1      -9.339  -3.559  -2.731  1.00  0.00    -0.294 N 
HETATM   24  N10 UNL     1      -8.951  -3.324  -1.501  1.00  0.00    -0.133 N 
ATOM     25  H9  UNL     1      -8.961  -4.347  -3.257  1.00  0.00     0.186 HD
HETATM   26  C8  UNL     1      -9.419  -2.304  -0.773  1.00  0.00     0.692 A 
ATOM     27  H10 UNL     1      -8.261  -3.947  -1.080  1.00  0.00     0.205 HD
HETATM   28  N12 UNL     1     -10.325  -1.491  -1.329  1.00  0.00    -0.174 N 
ATOM     29  H12 UNL     1     -10.691  -0.711  -0.785  1.00  0.00     0.186 HD
BRANCH  26  30
HETATM   30  N11 UNL     1      -8.984  -2.139   0.441  1.00  0.00    -0.233 N 
ATOM     31 2H11 UNL     1      -9.194  -2.797   1.192  1.00  0.00     0.174 HD
ATOM     32 1H11 UNL     1      -8.409  -1.325   0.656  1.00  0.00     0.174 HD
ENDBRANCH  26  30
ENDBRANCH   6  21
TORSDOF 6
ENDMDL
MODEL 3
REMARK VINA RESULT: -6.836292883      1.404      1.895
REMARK  6 active torsions:
REMARK  status: ('A' for Active; 'I' for Inactive)
REMARK       I    between atoms: C1_4  and  N3_6 
REMARK    1  A    between atoms: N3_6  and  C2_7 
REMARK    2  A    between atoms: N3_6  and  C6_21 
REMARK    3  A    between atoms: C2_7  and  C3_8 
REMARK       I    between atoms: C3_8  and  N4_10 
REMARK    4  A    between atoms: N4_10  and  C4_12 
REMARK    5  A    between atoms: C4_12  and  C5_13 
REMARK    6  A    between atoms: C8_27  and  N11_28 
ROOT
HETATM    1  N1  UNL     1     -11.717  -3.347  -1.427  1.00  0.00    -0.373 N 
ATOM      2  H11 UNL     1     -11.949  -3.436  -2.416  1.00  0.00     0.158 HD
ATOM      3  H12 UNL     1     -12.066  -4.127  -0.870  1.00  0.00     0.158 HD
HETATM    4  C1  UNL     1     -11.079  -2.326  -1.118  1.00  0.00     0.190 C 
HETATM    5  N2  UNL     1     -10.746  -2.198   0.304  1.00  0.00    -0.063 NA
HETATM    6  N3  UNL     1     -10.593  -1.243  -1.891  1.00  0.00    -0.297 N 
ENDROOT
BRANCH   6   7
HETATM    7  C2  UNL     1     -11.428  -0.148  -2.195  1.00  0.00     0.236 C 
BRANCH   7   8
HETATM    8  C3  UNL     1     -11.916   0.046  -3.551  1.00  0.00     0.236 C 
HETATM    9  O1  UNL     1     -12.207   1.282  -3.828  1.00  0.00    -0.272 OA
HETATM   10  N4  UNL     1     -12.112  -0.858  -4.585  1.00  0.00    -0.353 N 
ATOM     11  H4  UNL     1     -11.895  -1.845  -4.445  1.00  0.00     0.162 HD
BRANCH  10  12
HETATM   12  C4  UNL     1     -12.623  -0.408  -5.860  1.00  0.00     0.201 C 
BRANCH  12  13
HETATM   13  C5  UNL     1     -13.867  -1.087  -6.227  1.00  0.00     0.128 A 
HETATM   14  N5  UNL     1     -14.207  -1.565  -7.428  1.00  0.00    -0.269 N 
HETATM   15  N6  UNL     1     -15.425  -2.108  -7.343  1.00  0.00    -0.005 NA
ATOM     16  H5  UNL     1     -13.633  -1.523  -8.269  1.00  0.00     0.185 HD
HETATM   17  N7  UNL     1     -15.852  -1.973  -6.096  1.00  0.00    -0.225 N 
HETATM   18  N8  UNL     1     -14.906  -1.354  -5.424  1.00  0.00    -0.274 N 
ATOM     19  H7  UNL     1     -16.748  -2.289  -5.726  1.00  0.00     0.205 HD
ATOM     20  H8  UNL     1     -14.955  -1.113  -4.434  1.00  0.00     0.189 HD
ENDBRANCH  12  13
ENDBRANCH  10  12
ENDBRANCH   7   8
ENDBRANCH   6   7
BRANCH   6  21
HETATM   21  C6  UNL     1      -9.235  -1.347  -2.325  1.00  0.00     0.143 A 
HETATM   22  C7  UNL     1      -8.816  -2.300  -3.192  1.00  0.00     0.157 A 
HETATM   23  N9  UNL     1      -7.530  -2.388  -3.598  1.00  0.00    -0.294 N 
HETATM   24  N10 UNL     1      -6.672  -1.515  -3.129  1.00  0.00    -0.133 N 
ATOM     25  H9  UNL     1      -7.234  -3.114  -4.251  1.00  0.00     0.186 HD
HETATM   26  C8  UNL     1      -7.014  -0.547  -2.271  1.00  0.00     0.692 A 
ATOM     27  H10 UNL     1      -5.700  -1.576  -3.432  1.00  0.00     0.205 HD
HETATM   28  N12 UNL     1      -8.290  -0.472  -1.877  1.00  0.00    -0.174 N 
ATOM     29  H12 UNL     1      -8.564   0.260  -1.222  1.00  0.00     0.186 HD
BRANCH  26  30
HETATM   30  N11 UNL     1      -6.103   0.280  -1.852  1.00  0.00    -0.233 N 
ATOM     31 2H11 UNL     1      -6.096   1.266  -2.113  1.00  0.00     0.174 HD
ATOM     32 1H11 UNL     1      -5.365  -0.064  -1.237  1.00  0.00     0.174 HD
ENDBRANCH  26  30
ENDBRANCH   6  21
TORSDOF 6
ENDMDL
MODEL 4
REMARK VINA RESULT: -6.793436719      3.927      7.656
REMARK  6 active torsions:
REMARK  status: ('A' for Active; 'I' for Inactive)
REMARK       I    between atoms: C1_4  and  N3_6 
REMARK    1  A    between atoms: N3_6  and  C2_7 
REMARK    2  A    between atoms: N3_6  and  C6_21 
REMARK    3  A    between atoms: C2_7  and  C3_8 
REMARK       I    between atoms: C3_8  and  N4_10 
REMARK    4  A    between atoms: N4_10  and  C4_12 
REMARK    5  A    between atoms: C4_12  and  C5_13 
REMARK    6  A    between atoms: C8_27  and  N11_28 
ROOT
HETATM    1  N1  UNL     1      -6.393   0.635  -2.018  1.00  0.00    -0.373 N 
ATOM      2  H11 UNL     1      -6.091   0.120  -1.191  1.00  0.00     0.158 HD
ATOM      3  H12 UNL     1      -5.612   1.049  -2.528  1.00  0.00     0.158 HD
HETATM    4  C1  UNL     1      -7.619   0.654  -2.218  1.00  0.00     0.190 C 
HETATM    5  N2  UNL     1      -8.052   1.394  -3.406  1.00  0.00    -0.063 NA
HETATM    6  N3  UNL     1      -8.703   0.079  -1.510  1.00  0.00    -0.297 N 
ENDROOT
BRANCH   6   7
HETATM    7  C2  UNL     1      -9.273   0.747  -0.406  1.00  0.00     0.236 C 
BRANCH   7   8
HETATM    8  C3  UNL     1      -9.274   2.199  -0.350  1.00  0.00     0.236 C 
HETATM    9  O1  UNL     1     -10.350   2.738  -0.841  1.00  0.00    -0.272 OA
HETATM   10  N4  UNL     1      -8.331   3.092   0.139  1.00  0.00    -0.353 N 
ATOM     11  H4  UNL     1      -7.465   2.742   0.549  1.00  0.00     0.162 HD
BRANCH  10  12
HETATM   12  C4  UNL     1      -8.570   4.516   0.070  1.00  0.00     0.201 C 
BRANCH  12  13
HETATM   13  C5  UNL     1      -8.903   5.083   1.379  1.00  0.00     0.128 A 
HETATM   14  N5  UNL     1     -10.113   5.176   1.938  1.00  0.00    -0.269 N 
HETATM   15  N6  UNL     1      -9.988   5.759   3.134  1.00  0.00    -0.005 NA
ATOM     16  H5  UNL     1     -10.986   4.856   1.522  1.00  0.00     0.185 HD
HETATM   17  N7  UNL     1      -8.706   6.033   3.328  1.00  0.00    -0.225 N 
HETATM   18  N8  UNL     1      -8.053   5.622   2.263  1.00  0.00    -0.274 N 
ATOM     19  H7  UNL     1      -8.301   6.480   4.150  1.00  0.00     0.205 HD
ATOM     20  H8  UNL     1      -7.045   5.702   2.129  1.00  0.00     0.189 HD
ENDBRANCH  12  13
ENDBRANCH  10  12
ENDBRANCH   7   8
ENDBRANCH   6   7
BRANCH   6  21
HETATM   21  C6  UNL     1      -9.155  -1.191  -1.986  1.00  0.00     0.143 A 
HETATM   22  C7  UNL     1      -8.785  -2.361  -1.411  1.00  0.00     0.157 A 
HETATM   23  N9  UNL     1      -9.221  -3.556  -1.868  1.00  0.00    -0.294 N 
HETATM   24  N10 UNL     1     -10.027  -3.567  -2.902  1.00  0.00    -0.133 N 
ATOM     25  H9  UNL     1      -8.930  -4.426  -1.422  1.00  0.00     0.186 HD
HETATM   26  C8  UNL     1     -10.434  -2.452  -3.519  1.00  0.00     0.692 A 
ATOM     27  H10 UNL     1     -10.359  -4.466  -3.252  1.00  0.00     0.205 HD
HETATM   28  N12 UNL     1      -9.994  -1.276  -3.057  1.00  0.00    -0.174 N 
ATOM     29  H12 UNL     1     -10.296  -0.418  -3.520  1.00  0.00     0.186 HD
BRANCH  26  30
HETATM   30  N11 UNL     1     -11.234  -2.548  -4.539  1.00  0.00    -0.233 N 
ATOM     31 2H11 UNL     1     -11.066  -3.197  -5.308  1.00  0.00     0.174 HD
ATOM     32 1H11 UNL     1     -12.064  -1.956  -4.577  1.00  0.00     0.174 HD
ENDBRANCH  26  30
ENDBRANCH   6  21
TORSDOF 6
ENDMDL
MODEL 5
REMARK VINA RESULT: -6.779010663      1.765      2.291
REMARK  6 active torsions:
REMARK  status: ('A' for Active; 'I' for Inactive)
REMARK       I    between atoms: C1_4  and  N3_6 
REMARK    1  A    between atoms: N3_6  and  C2_7 
REMARK    2  A    between atoms: N3_6  and  C6_21 
REMARK    3  A    between atoms: C2_7  and  C3_8 
REMARK       I    between atoms: C3_8  and  N4_10 
REMARK    4  A    between atoms: N4_10  and  C4_12 
REMARK    5  A    between atoms: C4_12  and  C5_13 
REMARK    6  A    between atoms: C8_27  and  N11_28 
ROOT
HETATM    1  N1  UNL     1     -11.810  -3.204  -1.480  1.00  0.00    -0.373 N 
ATOM      2  H11 UNL     1     -12.099  -3.069  -2.450  1.00  0.00     0.158 HD
ATOM      3  H12 UNL     1     -12.207  -4.049  -1.068  1.00  0.00     0.158 HD
HETATM    4  C1  UNL     1     -11.062  -2.327  -1.019  1.00  0.00     0.190 C 
HETATM    5  N2  UNL     1     -10.647  -2.520   0.373  1.00  0.00    -0.063 NA
HETATM    6  N3  UNL     1     -10.511  -1.154  -1.593  1.00  0.00    -0.297 N 
ENDROOT
BRANCH   6   7
HETATM    7  C2  UNL     1     -11.250   0.048  -1.616  1.00  0.00     0.236 C 
BRANCH   7   8
HETATM    8  C3  UNL     1     -12.320   0.230  -2.582  1.00  0.00     0.236 C 
HETATM    9  O1  UNL     1     -13.002   1.322  -2.403  1.00  0.00    -0.272 OA
HETATM   10  N4  UNL     1     -12.724  -0.556  -3.652  1.00  0.00    -0.353 N 
ATOM     11  H4  UNL     1     -12.229  -1.423  -3.861  1.00  0.00     0.162 HD
BRANCH  10  12
HETATM   12  C4  UNL     1     -13.843  -0.151  -4.473  1.00  0.00     0.201 C 
BRANCH  12  13
HETATM   13  C5  UNL     1     -13.681  -0.563  -5.869  1.00  0.00     0.128 A 
HETATM   14  N5  UNL     1     -13.034   0.091  -6.838  1.00  0.00    -0.269 N 
HETATM   15  N6  UNL     1     -13.121  -0.619  -7.965  1.00  0.00    -0.005 NA
ATOM     16  H5  UNL     1     -12.554   0.985  -6.733  1.00  0.00     0.185 HD
HETATM   17  N7  UNL     1     -13.820  -1.715  -7.711  1.00  0.00    -0.225 N 
HETATM   18  N8  UNL     1     -14.157  -1.677  -6.440  1.00  0.00    -0.274 N 
ATOM     19  H7  UNL     1     -14.054  -2.451  -8.377  1.00  0.00     0.205 HD
ATOM     20  H8  UNL     1     -14.701  -2.393  -5.959  1.00  0.00     0.189 HD
ENDBRANCH  12  13
ENDBRANCH  10  12
ENDBRANCH   7   8
ENDBRANCH   6   7
BRANCH   6  21
HETATM   21  C6  UNL     1      -9.193  -1.283  -2.131  1.00  0.00     0.143 A 
HETATM   22  C7  UNL     1      -8.858  -2.251  -3.017  1.00  0.00     0.157 A 
HETATM   23  N9  UNL     1      -7.608  -2.362  -3.522  1.00  0.00    -0.294 N 
HETATM   24  N10 UNL     1      -6.704  -1.498  -3.132  1.00  0.00    -0.133 N 
ATOM     25  H9  UNL     1      -7.375  -3.099  -4.188  1.00  0.00     0.186 HD
HETATM   26  C8  UNL     1      -6.963  -0.516  -2.261  1.00  0.00     0.692 A 
ATOM     27  H10 UNL     1      -5.759  -1.577  -3.509  1.00  0.00     0.205 HD
HETATM   28  N12 UNL     1      -8.203  -0.418  -1.768  1.00  0.00    -0.174 N 
ATOM     29  H12 UNL     1      -8.414   0.325  -1.102  1.00  0.00     0.186 HD
BRANCH  26  30
HETATM   30  N11 UNL     1      -6.010   0.301  -1.924  1.00  0.00    -0.233 N 
ATOM     31 2H11 UNL     1      -5.030   0.117  -2.137  1.00  0.00     0.174 HD
ATOM     32 1H11 UNL     1      -6.245   1.162  -1.429  1.00  0.00     0.174 HD
ENDBRANCH  26  30
ENDBRANCH   6  21
TORSDOF 6
ENDMDL
