MODEL 1
REMARK VINA RESULT: -6.958387167      0.000      0.000
REMARK  11 active torsions:
REMARK  status: ('A' for Active; 'I' for Inactive)
REMARK    1  A    between atoms: C2_2  and  C3_3 
REMARK    2  A    between atoms: C10_10  and  C11_11 
REMARK    3  A    between atoms: C11_11  and  C12_12 
REMARK    4  A    between atoms: C12_12  and  C13_13 
REMARK    5  A    between atoms: C13_13  and  C14_14 
REMARK    6  A    between atoms: C14_14  and  O1_15 
REMARK    7  A    between atoms: N1_17  and  O2_19 
REMARK    8  A    between atoms: C15_21  and  O3_22 
REMARK    9  A    between atoms: O3_22  and  C16_23 
REMARK   10  A    between atoms: C16_23  and  C17_25 
REMARK   11  A    between atoms: C21_32  and  O5_33 
ROOT
HETATM    1  C3  UNL     1      14.741   7.989   2.714  1.00  0.00     0.030 C 
HETATM    2  C4  UNL     1      13.439   7.930   2.048  1.00  0.00    -0.022 C 
HETATM    3  C5  UNL     1      12.984   6.894   1.411  1.00  0.00    -0.022 C 
HETATM    4  C6  UNL     1      13.726   5.632   1.273  1.00  0.00     0.043 C 
HETATM    5  C7  UNL     1      15.174   5.830   1.543  1.00  0.00    -0.003 C 
HETATM    6  C8  UNL     1      15.439   6.669   2.752  1.00  0.00     0.017 C 
HETATM    7  C9  UNL     1      15.982   4.555   1.594  1.00  0.00     0.012 C 
HETATM    8  C10 UNL     1      15.206   3.316   1.768  1.00  0.00     0.018 C 
HETATM    9  C15 UNL     1      14.026   3.598   2.696  1.00  0.00     0.165 C 
HETATM   10  C21 UNL     1      13.081   4.625   2.194  1.00  0.00     0.156 C 
ENDROOT
BRANCH   8  11
HETATM   11  C11 UNL     1      14.843   2.443   0.647  1.00  0.00     0.007 C 
BRANCH  11  12
HETATM   12  C12 UNL     1      15.647   1.329   0.185  1.00  0.00     0.008 C 
BRANCH  12  13
HETATM   13  C13 UNL     1      15.092  -0.030   0.106  1.00  0.00     0.086 C 
BRANCH  13  14
HETATM   14  C14 UNL     1      15.563  -0.875  -1.003  1.00  0.00     0.135 C 
HETATM   15  N1  UNL     1      14.918  -0.803  -2.144  1.00  0.00    -0.251 N 
ATOM     16  H1  UNL     1      14.123  -0.166  -2.210  1.00  0.00     0.196 HD
BRANCH  14  17
HETATM   17  O1  UNL     1      16.629  -1.743  -0.954  1.00  0.00    -0.348 OA
ATOM     18  H1  UNL     1      17.452  -1.636  -1.416  1.00  0.00     0.219 HD
ENDBRANCH  14  17
BRANCH  15  19
HETATM   19  O2  UNL     1      15.253  -1.529  -3.237  1.00  0.00    -0.288 OA
ATOM     20  H2  UNL     1      14.681  -2.179  -3.627  1.00  0.00     0.244 HD
ENDBRANCH  15  19
ENDBRANCH  13  14
ENDBRANCH  12  13
ENDBRANCH  11  12
ENDBRANCH   8  11
BRANCH   9  21
HETATM   21  O3  UNL     1      13.349   2.354   2.821  1.00  0.00    -0.311 OA
BRANCH  21  22
HETATM   22  C16 UNL     1      13.216   1.695   4.020  1.00  0.00     0.290 C 
HETATM   23  O4  UNL     1      14.107   0.877   4.352  1.00  0.00    -0.263 OA
BRANCH  22  24
HETATM   24  C17 UNL     1      12.060   1.947   4.882  1.00  0.00     0.284 C 
HETATM   25  C18 UNL     1      12.319   2.939   5.977  1.00  0.00     0.045 C 
HETATM   26  C19 UNL     1      10.900   3.378   6.335  1.00  0.00     0.030 C 
HETATM   27  C20 UNL     1      10.034   2.877   5.182  1.00  0.00     0.233 C 
HETATM   28  N2  UNL     1      10.980   2.563   4.127  1.00  0.00    -0.062 N 
ATOM     29  H22 UNL     1      11.253   3.349   3.538  1.00  0.00     0.278 HD
ATOM     30  H21 UNL     1      10.608   2.001   3.361  1.00  0.00     0.278 HD
ENDBRANCH  22  24
ENDBRANCH  21  22
ENDBRANCH   9  21
BRANCH  10  31
HETATM   31  O5  UNL     1      12.467   5.342   3.243  1.00  0.00    -0.392 OA
ATOM     32  H5  UNL     1      11.655   4.896   3.458  1.00  0.00     0.210 HD
ENDBRANCH  10  31
BRANCH   1  33
HETATM   33  C2  UNL     1      14.519   8.490   4.123  1.00  0.00    -0.028 C 
HETATM   34  C1  UNL     1      14.168   7.666   5.088  1.00  0.00     0.007 C 
ENDBRANCH   1  33
TORSDOF 11
ENDMDL
MODEL 2
REMARK VINA RESULT: -6.746723054      1.889      2.224
REMARK  11 active torsions:
REMARK  status: ('A' for Active; 'I' for Inactive)
REMARK    1  A    between atoms: C2_2  and  C3_3 
REMARK    2  A    between atoms: C10_10  and  C11_11 
REMARK    3  A    between atoms: C11_11  and  C12_12 
REMARK    4  A    between atoms: C12_12  and  C13_13 
REMARK    5  A    between atoms: C13_13  and  C14_14 
REMARK    6  A    between atoms: C14_14  and  O1_15 
REMARK    7  A    between atoms: N1_17  and  O2_19 
REMARK    8  A    between atoms: C15_21  and  O3_22 
REMARK    9  A    between atoms: O3_22  and  C16_23 
REMARK   10  A    between atoms: C16_23  and  C17_25 
REMARK   11  A    between atoms: C21_32  and  O5_33 
ROOT
HETATM    1  C3  UNL     1      14.893   7.990   2.891  1.00  0.00     0.030 C 
HETATM    2  C4  UNL     1      13.714   8.108   2.032  1.00  0.00    -0.022 C 
HETATM    3  C5  UNL     1      13.261   7.159   1.270  1.00  0.00    -0.022 C 
HETATM    4  C6  UNL     1      13.880   5.829   1.169  1.00  0.00     0.043 C 
HETATM    5  C7  UNL     1      15.281   5.852   1.667  1.00  0.00    -0.003 C 
HETATM    6  C8  UNL     1      15.437   6.600   2.953  1.00  0.00     0.017 C 
HETATM    7  C9  UNL     1      15.934   4.493   1.761  1.00  0.00     0.012 C 
HETATM    8  C10 UNL     1      15.016   3.342   1.738  1.00  0.00     0.018 C 
HETATM    9  C15 UNL     1      13.740   3.712   2.492  1.00  0.00     0.165 C 
HETATM   10  C21 UNL     1      12.997   4.860   1.916  1.00  0.00     0.156 C 
ENDROOT
BRANCH   8  11
HETATM   11  C11 UNL     1      14.746   2.567   0.523  1.00  0.00     0.007 C 
BRANCH  11  12
HETATM   12  C12 UNL     1      15.610   1.522   0.012  1.00  0.00     0.008 C 
BRANCH  12  13
HETATM   13  C13 UNL     1      15.236   0.104   0.119  1.00  0.00     0.086 C 
BRANCH  13  14
HETATM   14  C14 UNL     1      14.635  -0.514  -1.074  1.00  0.00     0.135 C 
HETATM   15  N1  UNL     1      15.442  -0.924  -2.024  1.00  0.00    -0.251 N 
ATOM     16  H1  UNL     1      16.446  -0.797  -1.893  1.00  0.00     0.196 HD
BRANCH  14  17
HETATM   17  O1  UNL     1      13.289  -0.705  -1.287  1.00  0.00    -0.348 OA
ATOM     18  H1  UNL     1      12.669  -0.035  -1.549  1.00  0.00     0.219 HD
ENDBRANCH  14  17
BRANCH  15  19
HETATM   19  O2  UNL     1      15.011  -1.507  -3.168  1.00  0.00    -0.288 OA
ATOM     20  H2  UNL     1      14.838  -2.438  -3.247  1.00  0.00     0.244 HD
ENDBRANCH  15  19
ENDBRANCH  13  14
ENDBRANCH  12  13
ENDBRANCH  11  12
ENDBRANCH   8  11
BRANCH   9  21
HETATM   21  O3  UNL     1      12.926   2.547   2.435  1.00  0.00    -0.311 OA
BRANCH  21  22
HETATM   22  C16 UNL     1      11.713   2.455   3.073  1.00  0.00     0.290 C 
HETATM   23  O4  UNL     1      11.636   2.834   4.267  1.00  0.00    -0.263 OA
BRANCH  22  24
HETATM   24  C17 UNL     1      10.543   1.924   2.371  1.00  0.00     0.284 C 
HETATM   25  C18 UNL     1       9.984   2.850   1.330  1.00  0.00     0.045 C 
HETATM   26  C19 UNL     1       9.186   1.882   0.457  1.00  0.00     0.030 C 
HETATM   27  C20 UNL     1       9.667   0.494   0.872  1.00  0.00     0.233 C 
HETATM   28  N2  UNL     1      10.896   0.740   1.605  1.00  0.00    -0.062 N 
ATOM     29  H22 UNL     1      11.736   0.826   1.032  1.00  0.00     0.278 HD
ATOM     30  H21 UNL     1      11.241  -0.047   2.154  1.00  0.00     0.278 HD
ENDBRANCH  22  24
ENDBRANCH  21  22
ENDBRANCH   9  21
BRANCH  10  31
HETATM   31  O5  UNL     1      12.303   5.593   2.903  1.00  0.00    -0.392 OA
ATOM     32  H5  UNL     1      11.633   5.024   3.264  1.00  0.00     0.210 HD
ENDBRANCH  10  31
BRANCH   1  33
HETATM   33  C2  UNL     1      14.505   8.448   4.278  1.00  0.00    -0.028 C 
HETATM   34  C1  UNL     1      14.047   7.595   5.170  1.00  0.00     0.007 C 
ENDBRANCH   1  33
TORSDOF 11
ENDMDL
MODEL 3
REMARK VINA RESULT: -6.693846517      0.850      1.010
REMARK  11 active torsions:
REMARK  status: ('A' for Active; 'I' for Inactive)
REMARK    1  A    between atoms: C2_2  and  C3_3 
REMARK    2  A    between atoms: C10_10  and  C11_11 
REMARK    3  A    between atoms: C11_11  and  C12_12 
REMARK    4  A    between atoms: C12_12  and  C13_13 
REMARK    5  A    between atoms: C13_13  and  C14_14 
REMARK    6  A    between atoms: C14_14  and  O1_15 
REMARK    7  A    between atoms: N1_17  and  O2_19 
REMARK    8  A    between atoms: C15_21  and  O3_22 
REMARK    9  A    between atoms: O3_22  and  C16_23 
REMARK   10  A    between atoms: C16_23  and  C17_25 
REMARK   11  A    between atoms: C21_32  and  O5_33 
ROOT
HETATM    1  C3  UNL     1      14.795   7.959   2.749  1.00  0.00     0.030 C 
HETATM    2  C4  UNL     1      13.509   7.942   2.051  1.00  0.00    -0.022 C 
HETATM    3  C5  UNL     1      13.044   6.926   1.390  1.00  0.00    -0.022 C 
HETATM    4  C6  UNL     1      13.756   5.647   1.255  1.00  0.00     0.043 C 
HETATM    5  C7  UNL     1      15.202   5.804   1.562  1.00  0.00    -0.003 C 
HETATM    6  C8  UNL     1      15.459   6.622   2.788  1.00  0.00     0.017 C 
HETATM    7  C9  UNL     1      15.976   4.508   1.617  1.00  0.00     0.012 C 
HETATM    8  C10 UNL     1      15.164   3.287   1.757  1.00  0.00     0.018 C 
HETATM    9  C15 UNL     1      13.970   3.589   2.659  1.00  0.00     0.165 C 
HETATM   10  C21 UNL     1      13.063   4.646   2.147  1.00  0.00     0.156 C 
ENDROOT
BRANCH   8  11
HETATM   11  C11 UNL     1      14.807   2.437   0.617  1.00  0.00     0.007 C 
BRANCH  11  12
HETATM   12  C12 UNL     1      15.608   1.327   0.143  1.00  0.00     0.008 C 
BRANCH  12  13
HETATM   13  C13 UNL     1      15.061  -0.037   0.084  1.00  0.00     0.086 C 
BRANCH  13  14
HETATM   14  C14 UNL     1      15.527  -0.891  -1.020  1.00  0.00     0.135 C 
HETATM   15  N1  UNL     1      14.881  -0.826  -2.160  1.00  0.00    -0.251 N 
ATOM     16  H1  UNL     1      14.087  -0.189  -2.230  1.00  0.00     0.196 HD
BRANCH  14  17
HETATM   17  O1  UNL     1      16.592  -1.761  -0.966  1.00  0.00    -0.348 OA
ATOM     18  H1  UNL     1      17.009  -2.173  -1.714  1.00  0.00     0.219 HD
ENDBRANCH  14  17
BRANCH  15  19
HETATM   19  O2  UNL     1      15.212  -1.562  -3.248  1.00  0.00    -0.288 OA
ATOM     20  H2  UNL     1      14.579  -1.861  -3.889  1.00  0.00     0.244 HD
ENDBRANCH  15  19
ENDBRANCH  13  14
ENDBRANCH  12  13
ENDBRANCH  11  12
ENDBRANCH   8  11
BRANCH   9  21
HETATM   21  O3  UNL     1      13.258   2.362   2.753  1.00  0.00    -0.311 OA
BRANCH  21  22
HETATM   22  C16 UNL     1      13.259   1.584   3.885  1.00  0.00     0.290 C 
HETATM   23  O4  UNL     1      14.309   0.962   4.180  1.00  0.00    -0.263 OA
BRANCH  22  24
HETATM   24  C17 UNL     1      12.062   1.487   4.723  1.00  0.00     0.284 C 
HETATM   25  C18 UNL     1      10.837   2.100   4.110  1.00  0.00     0.045 C 
HETATM   26  C19 UNL     1       9.724   1.412   4.899  1.00  0.00     0.030 C 
HETATM   27  C20 UNL     1      10.408   0.242   5.600  1.00  0.00     0.233 C 
HETATM   28  N2  UNL     1      11.678   0.098   4.911  1.00  0.00    -0.062 N 
ATOM     29  H22 UNL     1      11.652  -0.466   4.062  1.00  0.00     0.278 HD
ATOM     30  H21 UNL     1      12.368  -0.485   5.386  1.00  0.00     0.278 HD
ENDBRANCH  22  24
ENDBRANCH  21  22
ENDBRANCH   9  21
BRANCH  10  31
HETATM   31  O5  UNL     1      12.442   5.366   3.190  1.00  0.00    -0.392 OA
ATOM     32  H5  UNL     1      11.693   4.859   3.482  1.00  0.00     0.210 HD
ENDBRANCH  10  31
BRANCH   1  33
HETATM   33  C2  UNL     1      14.551   8.449   4.158  1.00  0.00    -0.028 C 
HETATM   34  C1  UNL     1      14.139   7.627   5.100  1.00  0.00     0.007 C 
ENDBRANCH   1  33
TORSDOF 11
ENDMDL
MODEL 4
REMARK VINA RESULT: -6.688944829      1.563      1.847
REMARK  11 active torsions:
REMARK  status: ('A' for Active; 'I' for Inactive)
REMARK    1  A    between atoms: C2_2  and  C3_3 
REMARK    2  A    between atoms: C10_10  and  C11_11 
REMARK    3  A    between atoms: C11_11  and  C12_12 
REMARK    4  A    between atoms: C12_12  and  C13_13 
REMARK    5  A    between atoms: C13_13  and  C14_14 
REMARK    6  A    between atoms: C14_14  and  O1_15 
REMARK    7  A    between atoms: N1_17  and  O2_19 
REMARK    8  A    between atoms: C15_21  and  O3_22 
REMARK    9  A    between atoms: O3_22  and  C16_23 
REMARK   10  A    between atoms: C16_23  and  C17_25 
REMARK   11  A    between atoms: C21_32  and  O5_33 
ROOT
HETATM    1  C3  UNL     1      14.892   7.944   2.940  1.00  0.00     0.030 C 
HETATM    2  C4  UNL     1      13.747   8.098   2.042  1.00  0.00    -0.022 C 
HETATM    3  C5  UNL     1      13.321   7.180   1.229  1.00  0.00    -0.022 C 
HETATM    4  C6  UNL     1      13.938   5.851   1.104  1.00  0.00     0.043 C 
HETATM    5  C7  UNL     1      15.319   5.848   1.656  1.00  0.00    -0.003 C 
HETATM    6  C8  UNL     1      15.428   6.550   2.973  1.00  0.00     0.017 C 
HETATM    7  C9  UNL     1      15.963   4.485   1.726  1.00  0.00     0.012 C 
HETATM    8  C10 UNL     1      15.042   3.340   1.627  1.00  0.00     0.018 C 
HETATM    9  C15 UNL     1      13.740   3.689   2.343  1.00  0.00     0.165 C 
HETATM   10  C21 UNL     1      13.024   4.860   1.781  1.00  0.00     0.156 C 
ENDROOT
BRANCH   8  11
HETATM   11  C11 UNL     1      14.817   2.610   0.375  1.00  0.00     0.007 C 
BRANCH  11  12
HETATM   12  C12 UNL     1      15.463   1.359   0.031  1.00  0.00     0.008 C 
BRANCH  12  13
HETATM   13  C13 UNL     1      14.727   0.286  -0.655  1.00  0.00     0.086 C 
BRANCH  13  14
HETATM   14  C14 UNL     1      13.412  -0.074  -0.102  1.00  0.00     0.135 C 
HETATM   15  N1  UNL     1      12.440   0.800  -0.218  1.00  0.00    -0.251 N 
ATOM     16  H1  UNL     1      12.638   1.685  -0.685  1.00  0.00     0.196 HD
BRANCH  14  17
HETATM   17  O1  UNL     1      13.103  -1.256   0.531  1.00  0.00    -0.348 OA
ATOM     18  H1  UNL     1      13.551  -1.611   1.290  1.00  0.00     0.219 HD
ENDBRANCH  14  17
BRANCH  15  19
HETATM   19  O2  UNL     1      11.186   0.587   0.249  1.00  0.00    -0.288 OA
ATOM     20  H2  UNL     1      10.648   1.271   0.630  1.00  0.00     0.244 HD
ENDBRANCH  15  19
ENDBRANCH  13  14
ENDBRANCH  12  13
ENDBRANCH  11  12
ENDBRANCH   8  11
BRANCH   9  21
HETATM   21  O3  UNL     1      12.925   2.531   2.214  1.00  0.00    -0.311 OA
BRANCH  21  22
HETATM   22  C16 UNL     1      12.679   1.672   3.257  1.00  0.00     0.290 C 
HETATM   23  O4  UNL     1      12.495   0.457   3.000  1.00  0.00    -0.263 OA
BRANCH  22  24
HETATM   24  C17 UNL     1      12.633   2.169   4.634  1.00  0.00     0.284 C 
HETATM   25  C18 UNL     1      11.341   2.840   4.998  1.00  0.00     0.045 C 
HETATM   26  C19 UNL     1      11.376   2.762   6.524  1.00  0.00     0.030 C 
HETATM   27  C20 UNL     1      12.477   1.752   6.838  1.00  0.00     0.233 C 
HETATM   28  N2  UNL     1      12.712   1.067   5.580  1.00  0.00    -0.062 N 
ATOM     29  H22 UNL     1      12.091   0.282   5.388  1.00  0.00     0.278 HD
ATOM     30  H21 UNL     1      13.570   0.517   5.537  1.00  0.00     0.278 HD
ENDBRANCH  22  24
ENDBRANCH  21  22
ENDBRANCH   9  21
BRANCH  10  31
HETATM   31  O5  UNL     1      12.294   5.561   2.767  1.00  0.00    -0.392 OA
ATOM     32  H5  UNL     1      11.698   4.944   3.173  1.00  0.00     0.210 HD
ENDBRANCH  10  31
BRANCH   1  33
HETATM   33  C2  UNL     1      14.452   8.354   4.327  1.00  0.00    -0.028 C 
HETATM   34  C1  UNL     1      14.044   7.458   5.201  1.00  0.00     0.007 C 
ENDBRANCH   1  33
TORSDOF 11
ENDMDL
MODEL 5
REMARK VINA RESULT: -6.684491301      1.269      1.525
REMARK  11 active torsions:
REMARK  status: ('A' for Active; 'I' for Inactive)
REMARK    1  A    between atoms: C2_2  and  C3_3 
REMARK    2  A    between atoms: C10_10  and  C11_11 
REMARK    3  A    between atoms: C11_11  and  C12_12 
REMARK    4  A    between atoms: C12_12  and  C13_13 
REMARK    5  A    between atoms: C13_13  and  C14_14 
REMARK    6  A    between atoms: C14_14  and  O1_15 
REMARK    7  A    between atoms: N1_17  and  O2_19 
REMARK    8  A    between atoms: C15_21  and  O3_22 
REMARK    9  A    between atoms: O3_22  and  C16_23 
REMARK   10  A    between atoms: C16_23  and  C17_25 
REMARK   11  A    between atoms: C21_32  and  O5_33 
ROOT
HETATM    1  C3  UNL     1      15.100   7.529   2.297  1.00  0.00     0.030 C 
HETATM    2  C4  UNL     1      13.679   7.856   2.160  1.00  0.00    -0.022 C 
HETATM    3  C5  UNL     1      12.745   6.987   1.920  1.00  0.00    -0.022 C 
HETATM    4  C6  UNL     1      12.993   5.547   1.753  1.00  0.00     0.043 C 
HETATM    5  C7  UNL     1      14.424   5.283   1.449  1.00  0.00    -0.003 C 
HETATM    6  C8  UNL     1      15.364   6.059   2.316  1.00  0.00     0.017 C 
HETATM    7  C9  UNL     1      14.801   3.821   1.433  1.00  0.00     0.012 C 
HETATM    8  C10 UNL     1      13.847   2.910   2.088  1.00  0.00     0.018 C 
HETATM    9  C15 UNL     1      13.256   3.609   3.310  1.00  0.00     0.165 C 
HETATM   10  C21 UNL     1      12.512   4.856   3.005  1.00  0.00     0.156 C 
ENDROOT
BRANCH   8  11
HETATM   11  C11 UNL     1      12.847   2.139   1.343  1.00  0.00     0.007 C 
BRANCH  11  12
HETATM   12  C12 UNL     1      13.084   0.826   0.775  1.00  0.00     0.008 C 
BRANCH  12  13
HETATM   13  C13 UNL     1      13.891   0.658  -0.442  1.00  0.00     0.086 C 
BRANCH  13  14
HETATM   14  C14 UNL     1      15.132  -0.122  -0.313  1.00  0.00     0.135 C 
HETATM   15  N1  UNL     1      15.587  -0.730  -1.383  1.00  0.00    -0.251 N 
ATOM     16  H1  UNL     1      15.063  -0.635  -2.253  1.00  0.00     0.196 HD
BRANCH  14  17
HETATM   17  O1  UNL     1      15.868  -0.273   0.840  1.00  0.00    -0.348 OA
ATOM     18  H1  UNL     1      16.720   0.112   1.008  1.00  0.00     0.219 HD
ENDBRANCH  14  17
BRANCH  15  19
HETATM   19  O2  UNL     1      16.717  -1.477  -1.392  1.00  0.00    -0.288 OA
ATOM     20  H2  UNL     1      17.315  -1.529  -0.655  1.00  0.00     0.244 HD
ENDBRANCH  15  19
ENDBRANCH  13  14
ENDBRANCH  12  13
ENDBRANCH  11  12
ENDBRANCH   8  11
BRANCH   9  21
HETATM   21  O3  UNL     1      12.368   2.659   3.886  1.00  0.00    -0.311 OA
BRANCH  21  22
HETATM   22  C16 UNL     1      12.492   2.212   5.179  1.00  0.00     0.290 C 
HETATM   23  O4  UNL     1      13.252   1.240   5.404  1.00  0.00    -0.263 OA
BRANCH  22  24
HETATM   24  C17 UNL     1      11.751   2.860   6.263  1.00  0.00     0.284 C 
HETATM   25  C18 UNL     1      12.573   3.810   7.083  1.00  0.00     0.045 C 
HETATM   26  C19 UNL     1      11.491   4.676   7.725  1.00  0.00     0.030 C 
HETATM   27  C20 UNL     1      10.223   4.368   6.933  1.00  0.00     0.233 C 
HETATM   28  N2  UNL     1      10.698   3.709   5.730  1.00  0.00    -0.062 N 
ATOM     29  H22 UNL     1      10.981   4.332   4.974  1.00  0.00     0.278 HD
ATOM     30  H21 UNL     1       9.982   3.227   5.186  1.00  0.00     0.278 HD
ENDBRANCH  22  24
ENDBRANCH  21  22
ENDBRANCH   9  21
BRANCH  10  31
HETATM   31  O5  UNL     1      12.584   5.791   4.060  1.00  0.00    -0.392 OA
ATOM     32  H5  UNL     1      11.800   6.325   4.023  1.00  0.00     0.210 HD
ENDBRANCH  10  31
BRANCH   1  33
HETATM   33  C2  UNL     1      15.598   8.154   3.580  1.00  0.00    -0.028 C 
HETATM   34  C1  UNL     1      14.762   8.479   4.544  1.00  0.00     0.007 C 
ENDBRANCH   1  33
TORSDOF 11
ENDMDL
