MODEL 1
REMARK VINA RESULT: -6.291874486      0.000      0.000
REMARK  7 active torsions:
REMARK  status: ('A' for Active; 'I' for Inactive)
REMARK    1  A    between atoms: C5_14  and  C6_15 
REMARK    2  A    between atoms: C6_15  and  N5_16 
REMARK    3  A    between atoms: C6_15  and  C10_23 
REMARK    4  A    between atoms: N5_16  and  C7_18 
REMARK    5  A    between atoms: C7_18  and  C8_19 
REMARK    6  A    between atoms: C8_19  and  C9_20 
REMARK    7  A    between atoms: N7_29  and  C16_30 
ROOT
HETATM    1  N1  UNL     1       9.647   2.448  -0.614  1.00  0.00    -0.383 N 
ATOM      2  H11 UNL     1      10.512   2.522  -1.149  1.00  0.00     0.157 HD
ATOM      3  H12 UNL     1       8.823   2.115  -1.114  1.00  0.00     0.157 HD
HETATM    4  C1  UNL     1       9.522   2.737   0.631  1.00  0.00     0.131 A 
HETATM    5  N2  UNL     1       8.383   2.639   1.336  1.00  0.00    -0.337 N 
ATOM      6  H2  UNL     1       7.542   2.307   0.862  1.00  0.00     0.168 HD
HETATM    7  C2  UNL     1       8.303   2.964   2.650  1.00  0.00     0.183 A 
HETATM    8  N3  UNL     1       9.420   3.397   3.255  1.00  0.00    -0.336 N 
ATOM      9  H3  UNL     1       9.364   3.642   4.244  1.00  0.00     0.168 HD
HETATM   10  C3  UNL     1      10.611   3.530   2.638  1.00  0.00     0.145 A 
HETATM   11  C4  UNL     1      10.646   3.192   1.313  1.00  0.00     0.123 A 
HETATM   12  N4  UNL     1      11.905   3.408   0.952  1.00  0.00    -0.334 N 
ATOM     13  H4  UNL     1      12.270   3.251   0.014  1.00  0.00     0.168 HD
HETATM   14  C5  UNL     1      12.654   3.868   2.010  1.00  0.00     0.137 A 
HETATM   15  N7  UNL     1      11.854   3.950   3.078  1.00  0.00    -0.287 N 
ENDROOT
BRANCH  14  16
HETATM   16  C6  UNL     1      14.096   4.205   1.887  1.00  0.00     0.054 C 
BRANCH  16  17
HETATM   17  N5  UNL     1      14.963   3.270   2.473  1.00  0.00    -0.389 N 
ATOM     18  H5  UNL     1      14.792   2.971   3.434  1.00  0.00     0.159 HD
BRANCH  17  19
HETATM   19  C7  UNL     1      16.066   2.730   1.772  1.00  0.00     0.128 C 
BRANCH  19  20
HETATM   20  C8  UNL     1      15.604   2.097   0.429  1.00  0.00     0.119 C 
BRANCH  20  21
HETATM   21  C9  UNL     1      15.042   0.769   0.760  1.00  0.00     0.232 C 
HETATM   22  N6  UNL     1      13.662   0.617   1.062  1.00  0.00    -0.062 NA
HETATM   23  O1  UNL     1      15.799  -0.226   0.773  1.00  0.00    -0.277 OA
ENDBRANCH  20  21
ENDBRANCH  19  20
ENDBRANCH  17  19
ENDBRANCH  16  17
BRANCH  16  24
HETATM   24  C10 UNL     1      14.386   5.651   1.838  1.00  0.00     0.039 C 
HETATM   25  C11 UNL     1      14.895   6.036   3.248  1.00  0.00     0.011 C 
HETATM   26  C12 UNL     1      15.429   7.447   3.262  1.00  0.00     0.001 C 
HETATM   27  C13 UNL     1      14.186   8.335   3.155  1.00  0.00     0.000 C 
HETATM   28  C14 UNL     1      13.593   8.028   1.827  1.00  0.00     0.001 C 
HETATM   29  C15 UNL     1      13.211   6.572   1.617  1.00  0.00     0.011 C 
ENDBRANCH  16  24
ENDBRANCH  14  16
BRANCH  15  30
HETATM   30  C16 UNL     1      12.072   4.369   4.403  1.00  0.00    -0.002 C 
HETATM   31  C17 UNL     1      11.886   3.353   5.502  1.00  0.00     0.053 C 
HETATM   32  C18 UNL     1      12.764   3.708   6.681  1.00  0.00     0.006 C 
HETATM   33  C19 UNL     1      13.341   5.067   6.623  1.00  0.00     0.001 C 
HETATM   34  C20 UNL     1      12.470   6.135   6.077  1.00  0.00     0.006 C 
HETATM   35  C21 UNL     1      11.568   5.662   4.913  1.00  0.00     0.053 C 
ENDBRANCH  15  30
TORSDOF 7
ENDMDL
MODEL 2
REMARK VINA RESULT: -6.175692177      2.353      5.637
REMARK  7 active torsions:
REMARK  status: ('A' for Active; 'I' for Inactive)
REMARK    1  A    between atoms: C5_14  and  C6_15 
REMARK    2  A    between atoms: C6_15  and  N5_16 
REMARK    3  A    between atoms: C6_15  and  C10_23 
REMARK    4  A    between atoms: N5_16  and  C7_18 
REMARK    5  A    between atoms: C7_18  and  C8_19 
REMARK    6  A    between atoms: C8_19  and  C9_20 
REMARK    7  A    between atoms: N7_29  and  C16_30 
ROOT
HETATM    1  N1  UNL     1      16.958   2.110   2.019  1.00  0.00    -0.383 N 
ATOM      2  H11 UNL     1      17.129   2.841   2.710  1.00  0.00     0.157 HD
ATOM      3  H12 UNL     1      17.767   1.570   1.711  1.00  0.00     0.157 HD
HETATM    4  C1  UNL     1      15.813   1.821   1.517  1.00  0.00     0.131 A 
HETATM    5  N2  UNL     1      15.589   0.858   0.607  1.00  0.00    -0.337 N 
ATOM      6  H2  UNL     1      16.379   0.300   0.281  1.00  0.00     0.168 HD
HETATM    7  C2  UNL     1      14.357   0.597   0.104  1.00  0.00     0.183 A 
HETATM    8  N3  UNL     1      13.331   1.341   0.546  1.00  0.00    -0.336 N 
ATOM      9  H3  UNL     1      12.403   1.147   0.170  1.00  0.00     0.168 HD
HETATM   10  C3  UNL     1      13.449   2.328   1.456  1.00  0.00     0.145 A 
HETATM   11  C4  UNL     1      14.710   2.558   1.937  1.00  0.00     0.123 A 
HETATM   12  N4  UNL     1      14.555   3.555   2.799  1.00  0.00    -0.334 N 
ATOM     13  H4  UNL     1      15.312   3.973   3.338  1.00  0.00     0.168 HD
HETATM   14  C5  UNL     1      13.241   3.953   2.869  1.00  0.00     0.137 A 
HETATM   15  N7  UNL     1      12.533   3.190   2.030  1.00  0.00    -0.287 N 
ENDROOT
BRANCH  14  16
HETATM   16  C6  UNL     1      12.783   5.063   3.746  1.00  0.00     0.054 C 
BRANCH  16  17
HETATM   17  N5  UNL     1      12.625   6.294   3.090  1.00  0.00    -0.389 N 
ATOM     18  H5  UNL     1      11.791   6.850   3.276  1.00  0.00     0.159 HD
BRANCH  17  19
HETATM   19  C7  UNL     1      13.590   6.785   2.181  1.00  0.00     0.128 C 
BRANCH  19  20
HETATM   20  C8  UNL     1      14.272   8.063   2.743  1.00  0.00     0.119 C 
BRANCH  20  21
HETATM   21  C9  UNL     1      15.472   7.612   3.482  1.00  0.00     0.232 C 
HETATM   22  N6  UNL     1      16.029   6.325   3.249  1.00  0.00    -0.062 NA
HETATM   23  O1  UNL     1      15.994   8.377   4.322  1.00  0.00    -0.277 OA
ENDBRANCH  20  21
ENDBRANCH  19  20
ENDBRANCH  17  19
ENDBRANCH  16  17
BRANCH  16  24
HETATM   24  C10 UNL     1      13.213   4.949   5.153  1.00  0.00     0.039 C 
HETATM   25  C11 UNL     1      12.171   4.041   5.849  1.00  0.00     0.011 C 
HETATM   26  C12 UNL     1      12.620   3.675   7.243  1.00  0.00     0.001 C 
HETATM   27  C13 UNL     1      12.462   4.964   8.054  1.00  0.00     0.000 C 
HETATM   28  C14 UNL     1      13.415   5.932   7.450  1.00  0.00     0.001 C 
HETATM   29  C15 UNL     1      13.189   6.216   5.973  1.00  0.00     0.011 C 
ENDBRANCH  16  24
ENDBRANCH  14  16
BRANCH  15  30
HETATM   30  C16 UNL     1      11.169   3.164   1.685  1.00  0.00    -0.002 C 
HETATM   31  C17 UNL     1      10.634   4.302   0.851  1.00  0.00     0.053 C 
HETATM   32  C18 UNL     1       9.453   3.825   0.035  1.00  0.00     0.006 C 
HETATM   33  C19 UNL     1       8.919   2.510   0.446  1.00  0.00     0.001 C 
HETATM   34  C20 UNL     1       8.898   2.229   1.901  1.00  0.00     0.006 C 
HETATM   35  C21 UNL     1      10.117   2.805   2.660  1.00  0.00     0.053 C 
ENDBRANCH  15  30
TORSDOF 7
ENDMDL
MODEL 3
REMARK VINA RESULT: -6.175570517      2.227      5.572
REMARK  7 active torsions:
REMARK  status: ('A' for Active; 'I' for Inactive)
REMARK    1  A    between atoms: C5_14  and  C6_15 
REMARK    2  A    between atoms: C6_15  and  N5_16 
REMARK    3  A    between atoms: C6_15  and  C10_23 
REMARK    4  A    between atoms: N5_16  and  C7_18 
REMARK    5  A    between atoms: C7_18  and  C8_19 
REMARK    6  A    between atoms: C8_19  and  C9_20 
REMARK    7  A    between atoms: N7_29  and  C16_30 
ROOT
HETATM    1  N1  UNL     1      13.064   0.072   0.584  1.00  0.00    -0.383 N 
ATOM      2  H11 UNL     1      12.088   0.062   0.878  1.00  0.00     0.157 HD
ATOM      3  H12 UNL     1      13.439  -0.795   0.199  1.00  0.00     0.157 HD
HETATM    4  C1  UNL     1      13.848   1.087   0.658  1.00  0.00     0.131 A 
HETATM    5  N2  UNL     1      15.134   1.100   0.269  1.00  0.00    -0.337 N 
ATOM      6  H2  UNL     1      15.535   0.247  -0.121  1.00  0.00     0.168 HD
HETATM    7  C2  UNL     1      15.921   2.200   0.375  1.00  0.00     0.183 A 
HETATM    8  N3  UNL     1      15.373   3.312   0.889  1.00  0.00    -0.336 N 
ATOM      9  H3  UNL     1      15.962   4.141   0.969  1.00  0.00     0.168 HD
HETATM   10  C3  UNL     1      14.096   3.403   1.307  1.00  0.00     0.145 A 
HETATM   11  C4  UNL     1      13.337   2.270   1.182  1.00  0.00     0.123 A 
HETATM   12  N4  UNL     1      12.146   2.619   1.653  1.00  0.00    -0.334 N 
ATOM     13  H4  UNL     1      11.341   1.996   1.702  1.00  0.00     0.168 HD
HETATM   14  C5  UNL     1      12.139   3.931   2.065  1.00  0.00     0.137 A 
HETATM   15  N7  UNL     1      13.358   4.437   1.853  1.00  0.00    -0.287 N 
ENDROOT
BRANCH  14  16
HETATM   16  C6  UNL     1      10.937   4.583   2.648  1.00  0.00     0.054 C 
BRANCH  16  17
HETATM   17  N5  UNL     1      10.570   4.099   3.913  1.00  0.00    -0.389 N 
ATOM     18  H5  UNL     1       9.654   3.667   4.032  1.00  0.00     0.159 HD
BRANCH  17  19
HETATM   19  C7  UNL     1      11.435   4.194   5.029  1.00  0.00     0.128 C 
BRANCH  19  20
HETATM   20  C8  UNL     1      11.935   5.654   5.211  1.00  0.00     0.119 C 
BRANCH  20  21
HETATM   21  C9  UNL     1      13.295   5.566   5.788  1.00  0.00     0.232 C 
HETATM   22  N6  UNL     1      13.760   6.543   6.708  1.00  0.00    -0.062 NA
HETATM   23  O1  UNL     1      14.038   4.617   5.453  1.00  0.00    -0.277 OA
ENDBRANCH  20  21
ENDBRANCH  19  20
ENDBRANCH  17  19
ENDBRANCH  16  17
BRANCH  16  24
HETATM   24  C10 UNL     1       9.957   5.063   1.655  1.00  0.00     0.039 C 
HETATM   25  C11 UNL     1       8.930   5.914   2.440  1.00  0.00     0.011 C 
HETATM   26  C12 UNL     1       7.998   6.637   1.500  1.00  0.00     0.001 C 
HETATM   27  C13 UNL     1       7.088   5.543   0.934  1.00  0.00     0.000 C 
HETATM   28  C14 UNL     1       7.985   4.639   0.167  1.00  0.00     0.001 C 
HETATM   29  C15 UNL     1       9.109   4.014   0.977  1.00  0.00     0.011 C 
ENDBRANCH  16  24
ENDBRANCH  14  16
BRANCH  15  30
HETATM   30  C16 UNL     1      13.919   5.704   2.098  1.00  0.00    -0.002 C 
HETATM   31  C17 UNL     1      13.587   6.818   1.136  1.00  0.00     0.053 C 
HETATM   32  C18 UNL     1      13.664   8.149   1.851  1.00  0.00     0.006 C 
HETATM   33  C19 UNL     1      14.316   8.093   3.175  1.00  0.00     0.001 C 
HETATM   34  C20 UNL     1      15.479   7.184   3.304  1.00  0.00     0.006 C 
HETATM   35  C21 UNL     1      15.334   5.875   2.493  1.00  0.00     0.053 C 
ENDBRANCH  15  30
TORSDOF 7
ENDMDL
MODEL 4
REMARK VINA RESULT: -6.067610349      2.893      5.745
REMARK  7 active torsions:
REMARK  status: ('A' for Active; 'I' for Inactive)
REMARK    1  A    between atoms: C5_14  and  C6_15 
REMARK    2  A    between atoms: C6_15  and  N5_16 
REMARK    3  A    between atoms: C6_15  and  C10_23 
REMARK    4  A    between atoms: N5_16  and  C7_18 
REMARK    5  A    between atoms: C7_18  and  C8_19 
REMARK    6  A    between atoms: C8_19  and  C9_20 
REMARK    7  A    between atoms: N7_29  and  C16_30 
ROOT
HETATM    1  N1  UNL     1      13.492   5.855   8.099  1.00  0.00    -0.383 N 
ATOM      2  H11 UNL     1      14.408   5.943   7.660  1.00  0.00     0.157 HD
ATOM      3  H12 UNL     1      13.440   6.045   9.100  1.00  0.00     0.157 HD
HETATM    4  C1  UNL     1      12.410   5.530   7.490  1.00  0.00     0.131 A 
HETATM    5  N2  UNL     1      11.203   5.413   8.068  1.00  0.00    -0.337 N 
ATOM      6  H2  UNL     1      11.120   5.598   9.068  1.00  0.00     0.168 HD
HETATM    7  C2  UNL     1      10.090   5.060   7.379  1.00  0.00     0.183 A 
HETATM    8  N3  UNL     1      10.219   4.822   6.064  1.00  0.00    -0.336 N 
ATOM      9  H3  UNL     1       9.384   4.557   5.542  1.00  0.00     0.168 HD
HETATM   10  C3  UNL     1      11.382   4.911   5.390  1.00  0.00     0.145 A 
HETATM   11  C4  UNL     1      12.480   5.271   6.124  1.00  0.00     0.123 A 
HETATM   12  N4  UNL     1      13.473   5.287   5.244  1.00  0.00    -0.334 N 
ATOM     13  H4  UNL     1      14.439   5.520   5.470  1.00  0.00     0.168 HD
HETATM   14  C5  UNL     1      13.030   4.951   3.987  1.00  0.00     0.137 A 
HETATM   15  N7  UNL     1      11.716   4.712   4.063  1.00  0.00    -0.287 N 
ENDROOT
BRANCH  14  16
HETATM   16  C6  UNL     1      13.933   4.877   2.809  1.00  0.00     0.054 C 
BRANCH  16  17
HETATM   17  N5  UNL     1      13.790   5.936   1.900  1.00  0.00    -0.389 N 
ATOM     18  H5  UNL     1      13.007   5.926   1.247  1.00  0.00     0.159 HD
BRANCH  17  19
HETATM   19  C7  UNL     1      14.701   7.018   1.864  1.00  0.00     0.128 C 
BRANCH  19  20
HETATM   20  C8  UNL     1      14.243   8.151   2.825  1.00  0.00     0.119 C 
BRANCH  20  21
HETATM   21  C9  UNL     1      15.128   8.084   4.008  1.00  0.00     0.232 C 
HETATM   22  N6  UNL     1      16.541   8.058   3.860  1.00  0.00    -0.062 NA
HETATM   23  O1  UNL     1      14.618   8.047   5.149  1.00  0.00    -0.277 OA
ENDBRANCH  20  21
ENDBRANCH  19  20
ENDBRANCH  17  19
ENDBRANCH  16  17
BRANCH  16  24
HETATM   24  C10 UNL     1      14.293   3.506   2.397  1.00  0.00     0.039 C 
HETATM   25  C11 UNL     1      15.723   3.594   1.812  1.00  0.00     0.011 C 
HETATM   26  C12 UNL     1      16.285   2.218   1.553  1.00  0.00     0.001 C 
HETATM   27  C13 UNL     1      15.510   1.703   0.337  1.00  0.00     0.000 C 
HETATM   28  C14 UNL     1      14.096   1.599   0.782  1.00  0.00     0.001 C 
HETATM   29  C15 UNL     1      13.483   2.900   1.276  1.00  0.00     0.011 C 
ENDBRANCH  16  24
ENDBRANCH  14  16
BRANCH  15  30
HETATM   30  C16 UNL     1      10.762   4.318   3.106  1.00  0.00    -0.002 C 
HETATM   31  C17 UNL     1       9.655   5.288   2.777  1.00  0.00     0.053 C 
HETATM   32  C18 UNL     1       9.175   5.054   1.362  1.00  0.00     0.006 C 
HETATM   33  C19 UNL     1       9.652   3.793   0.757  1.00  0.00     0.001 C 
HETATM   34  C20 UNL     1       9.729   2.615   1.654  1.00  0.00     0.006 C 
HETATM   35  C21 UNL     1      10.173   2.962   3.094  1.00  0.00     0.053 C 
ENDBRANCH  15  30
TORSDOF 7
ENDMDL
MODEL 5
REMARK VINA RESULT: -5.935462714      2.139      3.745
REMARK  7 active torsions:
REMARK  status: ('A' for Active; 'I' for Inactive)
REMARK    1  A    between atoms: C5_14  and  C6_15 
REMARK    2  A    between atoms: C6_15  and  N5_16 
REMARK    3  A    between atoms: C6_15  and  C10_23 
REMARK    4  A    between atoms: N5_16  and  C7_18 
REMARK    5  A    between atoms: C7_18  and  C8_19 
REMARK    6  A    between atoms: C8_19  and  C9_20 
REMARK    7  A    between atoms: N7_29  and  C16_30 
ROOT
HETATM    1  N1  UNL     1      13.060   0.038   5.792  1.00  0.00    -0.383 N 
ATOM      2  H11 UNL     1      14.002   0.417   5.692  1.00  0.00     0.157 HD
ATOM      3  H12 UNL     1      12.949  -0.762   6.414  1.00  0.00     0.157 HD
HETATM    4  C1  UNL     1      12.016   0.492   5.200  1.00  0.00     0.131 A 
HETATM    5  N2  UNL     1      10.775  -0.007   5.331  1.00  0.00    -0.337 N 
ATOM      6  H2  UNL     1      10.633  -0.806   5.949  1.00  0.00     0.168 HD
HETATM    7  C2  UNL     1       9.704   0.508   4.677  1.00  0.00     0.183 A 
HETATM    8  N3  UNL     1       9.912   1.561   3.871  1.00  0.00    -0.336 N 
ATOM      9  H3  UNL     1       9.109   1.951   3.378  1.00  0.00     0.168 HD
HETATM   10  C3  UNL     1      11.115   2.135   3.671  1.00  0.00     0.145 A 
HETATM   11  C4  UNL     1      12.168   1.584   4.350  1.00  0.00     0.123 A 
HETATM   12  N4  UNL     1      13.212   2.317   3.988  1.00  0.00    -0.334 N 
ATOM     13  H4  UNL     1      14.164   2.168   4.320  1.00  0.00     0.168 HD
HETATM   14  C5  UNL     1      12.844   3.306   3.106  1.00  0.00     0.137 A 
HETATM   15  N7  UNL     1      11.528   3.204   2.898  1.00  0.00    -0.287 N 
ENDROOT
BRANCH  14  16
HETATM   16  C6  UNL     1      13.817   4.268   2.526  1.00  0.00     0.054 C 
BRANCH  16  17
HETATM   17  N5  UNL     1      15.063   3.710   2.202  1.00  0.00    -0.389 N 
ATOM     18  H5  UNL     1      15.833   3.799   2.866  1.00  0.00     0.159 HD
BRANCH  17  19
HETATM   19  C7  UNL     1      15.283   3.027   0.983  1.00  0.00     0.128 C 
BRANCH  19  20
HETATM   20  C8  UNL     1      15.456   1.503   1.233  1.00  0.00     0.119 C 
BRANCH  20  21
HETATM   21  C9  UNL     1      16.275   1.365   2.457  1.00  0.00     0.232 C 
HETATM   22  N6  UNL     1      15.706   0.870   3.662  1.00  0.00    -0.062 NA
HETATM   23  O1  UNL     1      17.481   1.693   2.423  1.00  0.00    -0.277 OA
ENDBRANCH  20  21
ENDBRANCH  19  20
ENDBRANCH  17  19
ENDBRANCH  16  17
BRANCH  16  24
HETATM   24  C10 UNL     1      13.655   5.659   2.989  1.00  0.00     0.039 C 
HETATM   25  C11 UNL     1      14.656   6.507   2.167  1.00  0.00     0.011 C 
HETATM   26  C12 UNL     1      14.433   7.981   2.399  1.00  0.00     0.001 C 
HETATM   27  C13 UNL     1      14.944   8.234   3.820  1.00  0.00     0.000 C 
HETATM   28  C14 UNL     1      14.057   7.439   4.708  1.00  0.00     0.001 C 
HETATM   29  C15 UNL     1      14.035   5.946   4.422  1.00  0.00     0.011 C 
ENDBRANCH  16  24
ENDBRANCH  14  16
BRANCH  15  30
HETATM   30  C16 UNL     1      10.632   3.929   2.090  1.00  0.00    -0.002 C 
HETATM   31  C17 UNL     1      10.726   3.744   0.595  1.00  0.00     0.053 C 
HETATM   32  C18 UNL     1       9.375   3.997  -0.036  1.00  0.00     0.006 C 
HETATM   33  C19 UNL     1       8.393   4.639   0.861  1.00  0.00     0.001 C 
HETATM   34  C20 UNL     1       8.916   5.673   1.785  1.00  0.00     0.006 C 
HETATM   35  C21 UNL     1      10.326   5.355   2.336  1.00  0.00     0.053 C 
ENDBRANCH  15  30
TORSDOF 7
ENDMDL
