MODEL 1
REMARK VINA RESULT: -5.897913985      0.000      0.000
REMARK  8 active torsions:
REMARK  status: ('A' for Active; 'I' for Inactive)
REMARK    1  A    between atoms: O1_2  and  C2_3 
REMARK    2  A    between atoms: C8_9  and  O2_10 
REMARK    3  A    between atoms: C9_12  and  C10_13 
REMARK    4  A    between atoms: C12_15  and  C13_16 
REMARK    5  A    between atoms: C13_16  and  N1_17 
REMARK    6  A    between atoms: N1_17  and  C14_20 
REMARK    7  A    between atoms: C14_20  and  C15_21 
REMARK    8  A    between atoms: C15_21  and  N2_22 
ROOT
HETATM    1  C10 UNL     1      14.994   1.051   0.736  1.00  0.00     0.067 A 
HETATM    2  C11 UNL     1      14.762   2.394   0.500  1.00  0.00     0.058 A 
HETATM    3  C12 UNL     1      15.484   3.392   1.164  1.00  0.00     0.054 A 
HETATM    4  N3  UNL     1      16.420   3.019   2.050  1.00  0.00    -0.194 N 
ATOM      5  H3  UNL     1      16.958   3.730   2.547  1.00  0.00     0.184 HD
HETATM    6  C22 UNL     1      16.650   1.733   2.285  1.00  0.00     0.676 A 
HETATM    7  N4  UNL     1      17.544   1.356   3.133  1.00  0.00    -0.234 N 
ATOM      8  H41 UNL     1      17.721   0.367   3.313  1.00  0.00     0.174 HD
ATOM      9  H42 UNL     1      18.068   2.086   3.616  1.00  0.00     0.174 HD
HETATM   10  N5  UNL     1      15.948   0.755   1.637  1.00  0.00    -0.191 N 
ATOM     11  H5  UNL     1      16.153  -0.223   1.841  1.00  0.00     0.184 HD
ENDROOT
BRANCH   3  12
HETATM   12  C13 UNL     1      15.233   4.817   0.906  1.00  0.00     0.289 C 
BRANCH  12  13
HETATM   13  N1  UNL     1      15.984   5.676   1.825  1.00  0.00    -0.068 N 
ATOM     14  H12 UNL     1      16.595   5.154   2.453  1.00  0.00     0.277 HD
ATOM     15  H11 UNL     1      16.711   6.222   1.362  1.00  0.00     0.277 HD
BRANCH  13  16
HETATM   16  C14 UNL     1      15.013   6.494   2.524  1.00  0.00     0.262 C 
BRANCH  16  17
HETATM   17  C15 UNL     1      14.359   5.767   3.656  1.00  0.00     0.299 C 
BRANCH  17  18
HETATM   18  N2  UNL     1      12.937   5.901   3.727  1.00  0.00     0.090 N 
HETATM   19  C16 UNL     1      12.442   6.444   2.502  1.00  0.00     0.273 C 
HETATM   20  C17 UNL     1      11.186   5.737   2.007  1.00  0.00     0.034 C 
HETATM   21  C18 UNL     1      11.567   4.309   1.733  1.00  0.00    -0.015 C 
HETATM   22  C19 UNL     1      10.306   3.543   1.384  1.00  0.00     0.010 C 
HETATM   23  C20 UNL     1      12.266   3.742   2.936  1.00  0.00     0.034 C 
HETATM   24  C21 UNL     1      12.258   4.703   4.120  1.00  0.00     0.273 C 
ENDBRANCH  17  18
ENDBRANCH  16  17
ENDBRANCH  13  16
ENDBRANCH  12  13
ENDBRANCH   3  12
BRANCH   1  25
HETATM   25  C9  UNL     1      14.168   0.018   0.104  1.00  0.00     0.058 A 
HETATM   26  C2  UNL     1      12.885  -0.213   0.555  1.00  0.00     0.084 A 
HETATM   27  C3  UNL     1      12.152  -1.260  -0.003  1.00  0.00     0.045 A 
HETATM   28  C4  UNL     1      12.708  -2.049  -0.993  1.00  0.00    -0.051 A 
HETATM   29  C5  UNL     1      11.909  -3.142  -1.560  1.00  0.00     0.049 C 
HETATM   30  C6  UNL     1      13.963  -1.842  -1.452  1.00  0.00    -0.022 A 
HETATM   31  C7  UNL     1      14.555  -2.667  -2.492  1.00  0.00     0.052 C 
HETATM   32  C8  UNL     1      14.707  -0.799  -0.901  1.00  0.00     0.087 A 
BRANCH  26  33
HETATM   33  O1  UNL     1      12.293   0.558   1.537  1.00  0.00    -0.355 OA
HETATM   34  C1  UNL     1      11.242   0.022   2.308  1.00  0.00     0.210 C 
ENDBRANCH  26  33
BRANCH  32  35
HETATM   35  O2  UNL     1      15.984  -0.597  -1.367  1.00  0.00    -0.359 OA
ATOM     36  H2  UNL     1      16.707  -0.761  -0.774  1.00  0.00     0.217 HD
ENDBRANCH  32  35
ENDBRANCH   1  25
TORSDOF 8
ENDMDL
MODEL 2
REMARK VINA RESULT: -5.768534625      2.622      5.654
REMARK  8 active torsions:
REMARK  status: ('A' for Active; 'I' for Inactive)
REMARK    1  A    between atoms: O1_2  and  C2_3 
REMARK    2  A    between atoms: C8_9  and  O2_10 
REMARK    3  A    between atoms: C9_12  and  C10_13 
REMARK    4  A    between atoms: C12_15  and  C13_16 
REMARK    5  A    between atoms: C13_16  and  N1_17 
REMARK    6  A    between atoms: N1_17  and  C14_20 
REMARK    7  A    between atoms: C14_20  and  C15_21 
REMARK    8  A    between atoms: C15_21  and  N2_22 
ROOT
HETATM    1  C10 UNL     1      11.132   1.850   0.431  1.00  0.00     0.067 A 
HETATM    2  C11 UNL     1      12.497   1.996   0.596  1.00  0.00     0.058 A 
HETATM    3  C12 UNL     1      13.366   0.902   0.529  1.00  0.00     0.054 A 
HETATM    4  N3  UNL     1      12.847  -0.313   0.298  1.00  0.00    -0.194 N 
ATOM      5  H3  UNL     1      13.461  -1.125   0.246  1.00  0.00     0.184 HD
HETATM    6  C22 UNL     1      11.537  -0.465   0.138  1.00  0.00     0.676 A 
HETATM    7  N4  UNL     1      11.020  -1.623  -0.083  1.00  0.00    -0.234 N 
ATOM      8  H41 UNL     1      10.013  -1.740  -0.206  1.00  0.00     0.174 HD
ATOM      9  H42 UNL     1      11.656  -2.419  -0.131  1.00  0.00     0.174 HD
HETATM   10  N5  UNL     1      10.685   0.602   0.202  1.00  0.00    -0.191 N 
ATOM     11  H5  UNL     1       9.684   0.448   0.072  1.00  0.00     0.184 HD
ENDROOT
BRANCH   3  12
HETATM   12  C13 UNL     1      14.816   1.066   0.705  1.00  0.00     0.289 C 
BRANCH  12  13
HETATM   13  N1  UNL     1      15.154   1.497   2.063  1.00  0.00    -0.068 N 
ATOM     14  H12 UNL     1      14.339   1.777   2.609  1.00  0.00     0.277 HD
ATOM     15  H11 UNL     1      15.455   0.731   2.665  1.00  0.00     0.277 HD
BRANCH  13  16
HETATM   16  C14 UNL     1      16.144   2.547   1.937  1.00  0.00     0.262 C 
BRANCH  16  17
HETATM   17  C15 UNL     1      15.552   3.844   1.483  1.00  0.00     0.299 C 
BRANCH  17  18
HETATM   18  N2  UNL     1      14.970   4.644   2.515  1.00  0.00     0.090 N 
HETATM   19  C16 UNL     1      15.774   5.804   2.737  1.00  0.00     0.273 C 
HETATM   20  C17 UNL     1      14.947   7.075   2.891  1.00  0.00     0.034 C 
HETATM   21  C18 UNL     1      14.222   7.284   1.591  1.00  0.00    -0.015 C 
HETATM   22  C19 UNL     1      13.276   8.456   1.762  1.00  0.00     0.010 C 
HETATM   23  C20 UNL     1      13.504   6.020   1.214  1.00  0.00     0.034 C 
HETATM   24  C21 UNL     1      13.589   4.956   2.303  1.00  0.00     0.273 C 
ENDBRANCH  17  18
ENDBRANCH  16  17
ENDBRANCH  13  16
ENDBRANCH  12  13
ENDBRANCH   3  12
BRANCH   1  25
HETATM   25  C9  UNL     1      10.223   2.987   0.596  1.00  0.00     0.058 A 
HETATM   26  C2  UNL     1       9.987   3.507   1.852  1.00  0.00     0.084 A 
HETATM   27  C3  UNL     1       9.051   4.531   1.994  1.00  0.00     0.045 A 
HETATM   28  C4  UNL     1       8.375   5.014   0.889  1.00  0.00    -0.051 A 
HETATM   29  C5  UNL     1       7.397   6.093   1.073  1.00  0.00     0.049 C 
HETATM   30  C6  UNL     1       8.589   4.522  -0.353  1.00  0.00    -0.022 A 
HETATM   31  C7  UNL     1       7.883   5.024  -1.520  1.00  0.00     0.052 C 
HETATM   32  C8  UNL     1       9.522   3.496  -0.507  1.00  0.00     0.087 A 
BRANCH  26  33
HETATM   33  O1  UNL     1      10.648   3.055   2.978  1.00  0.00    -0.355 OA
HETATM   34  C1  UNL     1      10.437   3.695   4.216  1.00  0.00     0.210 C 
ENDBRANCH  26  33
BRANCH  32  35
HETATM   35  O2  UNL     1       9.731   2.996  -1.770  1.00  0.00    -0.359 OA
ATOM     36  H2  UNL     1      10.542   3.219  -2.211  1.00  0.00     0.217 HD
ENDBRANCH  32  35
ENDBRANCH   1  25
TORSDOF 8
ENDMDL
MODEL 3
REMARK VINA RESULT: -5.759551290      2.894      8.057
REMARK  8 active torsions:
REMARK  status: ('A' for Active; 'I' for Inactive)
REMARK    1  A    between atoms: O1_2  and  C2_3 
REMARK    2  A    between atoms: C8_9  and  O2_10 
REMARK    3  A    between atoms: C9_12  and  C10_13 
REMARK    4  A    between atoms: C12_15  and  C13_16 
REMARK    5  A    between atoms: C13_16  and  N1_17 
REMARK    6  A    between atoms: N1_17  and  C14_20 
REMARK    7  A    between atoms: C14_20  and  C15_21 
REMARK    8  A    between atoms: C15_21  and  N2_22 
ROOT
HETATM    1  C10 UNL     1      12.442   3.487   2.717  1.00  0.00     0.067 A 
HETATM    2  C11 UNL     1      13.112   2.600   1.895  1.00  0.00     0.058 A 
HETATM    3  C12 UNL     1      12.564   1.360   1.550  1.00  0.00     0.054 A 
HETATM    4  N3  UNL     1      11.357   1.038   2.040  1.00  0.00    -0.194 N 
ATOM      5  H3  UNL     1      10.938   0.139   1.803  1.00  0.00     0.184 HD
HETATM    6  C22 UNL     1      10.705   1.882   2.831  1.00  0.00     0.676 A 
HETATM    7  N4  UNL     1       9.546   1.591   3.310  1.00  0.00    -0.234 N 
ATOM      8  H41 UNL     1       9.045   2.240   3.918  1.00  0.00     0.174 HD
ATOM      9  H42 UNL     1       9.149   0.686   3.059  1.00  0.00     0.174 HD
HETATM   10  N5  UNL     1      11.237   3.096   3.168  1.00  0.00    -0.191 N 
ATOM     11  H5  UNL     1      10.707   3.720   3.777  1.00  0.00     0.184 HD
ENDROOT
BRANCH   3  12
HETATM   12  C13 UNL     1      13.282   0.423   0.675  1.00  0.00     0.289 C 
BRANCH  12  13
HETATM   13  N1  UNL     1      13.967   1.117  -0.418  1.00  0.00    -0.068 N 
ATOM     14  H12 UNL     1      13.442   1.107  -1.291  1.00  0.00     0.277 HD
ATOM     15  H11 UNL     1      13.996   2.130  -0.296  1.00  0.00     0.277 HD
BRANCH  13  16
HETATM   16  C14 UNL     1      15.282   0.521  -0.536  1.00  0.00     0.262 C 
BRANCH  16  17
HETATM   17  C15 UNL     1      15.292  -0.926  -0.155  1.00  0.00     0.299 C 
BRANCH  17  18
HETATM   18  N2  UNL     1      15.829  -1.814  -1.138  1.00  0.00     0.090 N 
HETATM   19  C16 UNL     1      15.878  -3.142  -0.614  1.00  0.00     0.273 C 
HETATM   20  C17 UNL     1      15.401  -4.189  -1.614  1.00  0.00     0.034 C 
HETATM   21  C18 UNL     1      13.959  -3.885  -1.910  1.00  0.00    -0.015 C 
HETATM   22  C19 UNL     1      13.498  -4.817  -3.014  1.00  0.00     0.010 C 
HETATM   23  C20 UNL     1      13.824  -2.438  -2.289  1.00  0.00     0.034 C 
HETATM   24  C21 UNL     1      15.174  -1.740  -2.409  1.00  0.00     0.273 C 
ENDBRANCH  17  18
ENDBRANCH  16  17
ENDBRANCH  13  16
ENDBRANCH  12  13
ENDBRANCH   3  12
BRANCH   1  25
HETATM   25  C9  UNL     1      13.067   4.742   3.145  1.00  0.00     0.058 A 
HETATM   26  C2  UNL     1      13.464   4.904   4.457  1.00  0.00     0.084 A 
HETATM   27  C3  UNL     1      13.974   6.138   4.860  1.00  0.00     0.045 A 
HETATM   28  C4  UNL     1      14.078   7.177   3.954  1.00  0.00    -0.051 A 
HETATM   29  C5  UNL     1      14.620   8.463   4.410  1.00  0.00     0.049 C 
HETATM   30  C6  UNL     1      13.697   7.044   2.663  1.00  0.00    -0.022 A 
HETATM   31  C7  UNL     1      13.803   8.131   1.705  1.00  0.00     0.052 C 
HETATM   32  C8  UNL     1      13.183   5.815   2.249  1.00  0.00     0.087 A 
BRANCH  26  33
HETATM   33  O1  UNL     1      13.382   3.887   5.388  1.00  0.00    -0.355 OA
HETATM   34  C1  UNL     1      12.646   4.083   6.574  1.00  0.00     0.210 C 
ENDBRANCH  26  33
BRANCH  32  35
HETATM   35  O2  UNL     1      12.791   5.686   0.938  1.00  0.00    -0.359 OA
ATOM     36  H2  UNL     1      12.598   4.815   0.612  1.00  0.00     0.217 HD
ENDBRANCH  32  35
ENDBRANCH   1  25
TORSDOF 8
ENDMDL
MODEL 4
REMARK VINA RESULT: -5.733366804      2.529      5.745
REMARK  8 active torsions:
REMARK  status: ('A' for Active; 'I' for Inactive)
REMARK    1  A    between atoms: O1_2  and  C2_3 
REMARK    2  A    between atoms: C8_9  and  O2_10 
REMARK    3  A    between atoms: C9_12  and  C10_13 
REMARK    4  A    between atoms: C12_15  and  C13_16 
REMARK    5  A    between atoms: C13_16  and  N1_17 
REMARK    6  A    between atoms: N1_17  and  C14_20 
REMARK    7  A    between atoms: C14_20  and  C15_21 
REMARK    8  A    between atoms: C15_21  and  N2_22 
ROOT
HETATM    1  C10 UNL     1      11.087   1.429   0.608  1.00  0.00     0.067 A 
HETATM    2  C11 UNL     1      12.426   1.648   0.340  1.00  0.00     0.058 A 
HETATM    3  C12 UNL     1      13.287   0.599  -0.003  1.00  0.00     0.054 A 
HETATM    4  N3  UNL     1      12.785  -0.643  -0.068  1.00  0.00    -0.194 N 
ATOM      5  H3  UNL     1      13.394  -1.423  -0.316  1.00  0.00     0.184 HD
HETATM    6  C22 UNL     1      11.501  -0.864   0.187  1.00  0.00     0.676 A 
HETATM    7  N4  UNL     1      11.001  -2.050   0.130  1.00  0.00    -0.234 N 
ATOM      8  H41 UNL     1      10.014  -2.219   0.326  1.00  0.00     0.174 HD
ATOM      9  H42 UNL     1      11.631  -2.812  -0.119  1.00  0.00     0.174 HD
HETATM   10  N5  UNL     1      10.656   0.158   0.521  1.00  0.00    -0.191 N 
ATOM     11  H5  UNL     1       9.675  -0.049   0.709  1.00  0.00     0.184 HD
ENDROOT
BRANCH   3  12
HETATM   12  C13 UNL     1      14.709   0.839  -0.288  1.00  0.00     0.289 C 
BRANCH  12  13
HETATM   13  N1  UNL     1      15.535   0.694   0.913  1.00  0.00    -0.068 N 
ATOM     14  H12 UNL     1      15.027   0.298   1.703  1.00  0.00     0.277 HD
ATOM     15  H11 UNL     1      16.239  -0.040   0.830  1.00  0.00     0.277 HD
BRANCH  13  16
HETATM   16  C14 UNL     1      16.102   1.997   1.194  1.00  0.00     0.262 C 
BRANCH  16  17
HETATM   17  C15 UNL     1      15.519   2.623   2.422  1.00  0.00     0.299 C 
BRANCH  17  18
HETATM   18  N2  UNL     1      15.496   4.053   2.426  1.00  0.00     0.090 N 
HETATM   19  C16 UNL     1      15.134   4.533   1.130  1.00  0.00     0.273 C 
HETATM   20  C17 UNL     1      14.126   5.675   1.184  1.00  0.00     0.034 C 
HETATM   21  C18 UNL     1      12.877   5.126   1.814  1.00  0.00    -0.015 C 
HETATM   22  C19 UNL     1      11.908   6.274   2.018  1.00  0.00     0.010 C 
HETATM   23  C20 UNL     1      13.231   4.440   3.102  1.00  0.00     0.034 C 
HETATM   24  C21 UNL     1      14.699   4.619   3.472  1.00  0.00     0.273 C 
ENDBRANCH  17  18
ENDBRANCH  16  17
ENDBRANCH  13  16
ENDBRANCH  12  13
ENDBRANCH   3  12
BRANCH   1  25
HETATM   25  C9  UNL     1      10.218   2.520   1.056  1.00  0.00     0.058 A 
HETATM   26  C2  UNL     1       9.657   3.380   0.134  1.00  0.00     0.084 A 
HETATM   27  C3  UNL     1       8.905   4.463   0.591  1.00  0.00     0.045 A 
HETATM   28  C4  UNL     1       8.729   4.664   1.947  1.00  0.00    -0.051 A 
HETATM   29  C5  UNL     1       7.932   5.813   2.395  1.00  0.00     0.049 C 
HETATM   30  C6  UNL     1       9.268   3.836   2.871  1.00  0.00    -0.022 A 
HETATM   31  C7  UNL     1       9.087   4.041   4.298  1.00  0.00     0.052 C 
HETATM   32  C8  UNL     1      10.023   2.751   2.426  1.00  0.00     0.087 A 
BRANCH  26  33
HETATM   33  O1  UNL     1       9.805   3.207  -1.229  1.00  0.00    -0.355 OA
HETATM   34  C1  UNL     1       8.685   3.336  -2.075  1.00  0.00     0.210 C 
ENDBRANCH  26  33
BRANCH  32  35
HETATM   35  O2  UNL     1      10.573   1.915   3.368  1.00  0.00    -0.359 OA
ATOM     36  H2  UNL     1      10.651   0.993   3.157  1.00  0.00     0.217 HD
ENDBRANCH  32  35
ENDBRANCH   1  25
TORSDOF 8
ENDMDL
MODEL 5
REMARK VINA RESULT: -5.719447491      2.779      8.050
REMARK  8 active torsions:
REMARK  status: ('A' for Active; 'I' for Inactive)
REMARK    1  A    between atoms: O1_2  and  C2_3 
REMARK    2  A    between atoms: C8_9  and  O2_10 
REMARK    3  A    between atoms: C9_12  and  C10_13 
REMARK    4  A    between atoms: C12_15  and  C13_16 
REMARK    5  A    between atoms: C13_16  and  N1_17 
REMARK    6  A    between atoms: N1_17  and  C14_20 
REMARK    7  A    between atoms: C14_20  and  C15_21 
REMARK    8  A    between atoms: C15_21  and  N2_22 
ROOT
HETATM    1  C10 UNL     1      13.289   3.276   1.611  1.00  0.00     0.067 A 
HETATM    2  C11 UNL     1      14.267   2.344   1.316  1.00  0.00     0.058 A 
HETATM    3  C12 UNL     1      13.976   1.172   0.610  1.00  0.00     0.054 A 
HETATM    4  N3  UNL     1      12.711   0.962   0.217  1.00  0.00    -0.194 N 
ATOM      5  H3  UNL     1      12.475   0.113  -0.299  1.00  0.00     0.184 HD
HETATM    6  C22 UNL     1      11.764   1.849   0.495  1.00  0.00     0.676 A 
HETATM    7  N4  UNL     1      10.544   1.665   0.126  1.00  0.00    -0.234 N 
ATOM      8  H41 UNL     1       9.816   2.348   0.340  1.00  0.00     0.174 HD
ATOM      9  H42 UNL     1      10.334   0.809  -0.388  1.00  0.00     0.174 HD
HETATM   10  N5  UNL     1      12.045   2.997   1.184  1.00  0.00    -0.191 N 
ATOM     11  H5  UNL     1      11.292   3.657   1.378  1.00  0.00     0.184 HD
ENDROOT
BRANCH   3  12
HETATM   12  C13 UNL     1      15.022   0.187   0.299  1.00  0.00     0.289 C 
BRANCH  12  13
HETATM   13  N1  UNL     1      15.346   0.170  -1.129  1.00  0.00    -0.068 N 
ATOM     14  H12 UNL     1      14.893   0.920  -1.651  1.00  0.00     0.277 HD
ATOM     15  H11 UNL     1      16.310   0.439  -1.326  1.00  0.00     0.277 HD
BRANCH  13  16
HETATM   16  C14 UNL     1      15.011  -1.151  -1.621  1.00  0.00     0.262 C 
BRANCH  16  17
HETATM   17  C15 UNL     1      15.117  -2.202  -0.561  1.00  0.00     0.299 C 
BRANCH  17  18
HETATM   18  N2  UNL     1      14.017  -3.112  -0.491  1.00  0.00     0.090 N 
HETATM   19  C16 UNL     1      13.016  -2.732  -1.436  1.00  0.00     0.273 C 
HETATM   20  C17 UNL     1      12.444  -3.920  -2.200  1.00  0.00     0.034 C 
HETATM   21  C18 UNL     1      13.578  -4.523  -2.981  1.00  0.00    -0.015 C 
HETATM   22  C19 UNL     1      13.076  -5.796  -3.634  1.00  0.00     0.010 C 
HETATM   23  C20 UNL     1      14.738  -4.773  -2.059  1.00  0.00     0.034 C 
HETATM   24  C21 UNL     1      14.393  -4.490  -0.601  1.00  0.00     0.273 C 
ENDBRANCH  17  18
ENDBRANCH  16  17
ENDBRANCH  13  16
ENDBRANCH  12  13
ENDBRANCH   3  12
BRANCH   1  25
HETATM   25  C9  UNL     1      13.588   4.453   2.432  1.00  0.00     0.058 A 
HETATM   26  C2  UNL     1      13.719   4.327   3.799  1.00  0.00     0.084 A 
HETATM   27  C3  UNL     1      13.915   5.475   4.567  1.00  0.00     0.045 A 
HETATM   28  C4  UNL     1      13.977   6.715   3.960  1.00  0.00    -0.051 A 
HETATM   29  C5  UNL     1      14.185   7.903   4.797  1.00  0.00     0.049 C 
HETATM   30  C6  UNL     1      13.852   6.865   2.622  1.00  0.00    -0.022 A 
HETATM   31  C7  UNL     1      13.916   8.166   1.977  1.00  0.00     0.052 C 
HETATM   32  C8  UNL     1      13.654   5.725   1.844  1.00  0.00     0.087 A 
BRANCH  26  33
HETATM   33  O1  UNL     1      13.670   3.104   4.441  1.00  0.00    -0.355 OA
HETATM   34  C1  UNL     1      12.543   2.766   5.217  1.00  0.00     0.210 C 
ENDBRANCH  26  33
BRANCH  32  35
HETATM   35  O2  UNL     1      13.521   5.883   0.485  1.00  0.00    -0.359 OA
ATOM     36  H2  UNL     1      14.304   6.061  -0.023  1.00  0.00     0.217 HD
ENDBRANCH  32  35
ENDBRANCH   1  25
TORSDOF 8
ENDMDL
