MODEL 1
REMARK VINA RESULT: -6.358751009      0.000      0.000
REMARK  9 active torsions:
REMARK  status: ('A' for Active; 'I' for Inactive)
REMARK    1  A    between atoms: C5_5  and  N1_6 
REMARK    2  A    between atoms: N1_6  and  C6_8 
REMARK    3  A    between atoms: C6_8  and  C7_9 
REMARK    4  A    between atoms: C7_9  and  O1_10 
REMARK    5  A    between atoms: C7_9  and  C8_12 
REMARK    6  A    between atoms: C11_16  and  C12_17 
REMARK    7  A    between atoms: C12_17  and  O3_18 
REMARK    8  A    between atoms: C15_22  and  N2_23 
REMARK    9  A    between atoms: N2_23  and  C16_25 
ROOT
HETATM    1  C1  UNL     1      11.094   1.684   3.990  1.00  0.00     0.017 C 
HETATM    2  C2  UNL     1      11.534   2.089   2.824  1.00  0.00    -0.057 C 
HETATM    3  C3  UNL     1      12.908   1.914   2.192  1.00  0.00     0.025 C 
HETATM    4  C4  UNL     1      12.181   1.893   0.894  1.00  0.00     0.044 C 
HETATM    5  C5  UNL     1      11.159   2.805   1.588  1.00  0.00     0.050 C 
HETATM    6  C13 UNL     1      11.633   4.252   1.644  1.00  0.00     0.046 C 
HETATM    7  C14 UNL     1      13.124   4.272   1.528  1.00  0.00     0.040 C 
HETATM    8  C15 UNL     1      13.760   5.589   1.679  1.00  0.00    -0.013 C 
HETATM    9  C19 UNL     1      15.273   5.548   1.557  1.00  0.00     0.052 C 
HETATM   10  C20 UNL     1      15.773   4.486   0.622  1.00  0.00     0.007 C 
HETATM   11  C21 UNL     1      15.821   3.125   1.246  1.00  0.00     0.020 C 
HETATM   12  C22 UNL     1      15.100   3.043   2.557  1.00  0.00     0.098 C 
HETATM   13  C23 UNL     1      15.439   1.715   3.136  1.00  0.00     0.064 C 
HETATM   14  N3  UNL     1      15.710   0.677   3.587  1.00  0.00    -0.197 NA
HETATM   15  C24 UNL     1      13.631   3.217   2.496  1.00  0.00     0.021 C 
ENDROOT
BRANCH   8  16
HETATM   16  N2  UNL     1      13.429   6.482   2.701  1.00  0.00    -0.391 N 
ATOM     17  H2  UNL     1      12.484   6.856   2.782  1.00  0.00     0.159 HD
BRANCH  16  18
HETATM   18  C16 UNL     1      14.446   6.858   3.626  1.00  0.00     0.081 A 
HETATM   19  C17 UNL     1      14.550   8.180   4.236  1.00  0.00     0.027 A 
HETATM   20  C18 UNL     1      14.049   7.059   5.062  1.00  0.00     0.027 A 
ENDBRANCH  16  18
ENDBRANCH   8  16
BRANCH   5  21
HETATM   21  N1  UNL     1       9.867   2.628   1.033  1.00  0.00    -0.406 N 
ATOM     22  H1  UNL     1       9.273   1.865   1.356  1.00  0.00     0.154 HD
BRANCH  21  23
HETATM   23  C6  UNL     1       9.407   3.504   0.039  1.00  0.00     0.151 C 
BRANCH  23  24
HETATM   24  C7  UNL     1       8.992   2.679  -1.190  1.00  0.00     0.171 C 
BRANCH  24  25
HETATM   25  O1  UNL     1      10.108   2.566  -2.059  1.00  0.00    -0.389 OA
ATOM     26  H1  UNL     1       9.848   2.852  -2.927  1.00  0.00     0.210 HD
ENDBRANCH  24  25
BRANCH  24  27
HETATM   27  C8  UNL     1       7.935   3.401  -1.946  1.00  0.00     0.006 A 
HETATM   28  C9  UNL     1       7.550   4.699  -1.788  1.00  0.00     0.037 A 
HETATM   29  C10 UNL     1       6.539   4.939  -2.720  1.00  0.00     0.143 A 
HETATM   30  O2  UNL     1       6.378   3.823  -3.357  1.00  0.00    -0.324 OA
HETATM   31  C11 UNL     1       7.159   2.875  -2.963  1.00  0.00     0.084 A 
BRANCH  31  32
HETATM   32  C12 UNL     1       7.179   1.488  -3.536  1.00  0.00     0.229 C 
BRANCH  32  33
HETATM   33  O3  UNL     1       8.388   1.286  -4.201  1.00  0.00    -0.394 OA
ATOM     34  H3  UNL     1       8.678   0.393  -4.055  1.00  0.00     0.209 HD
ENDBRANCH  32  33
ENDBRANCH  31  32
ENDBRANCH  24  27
ENDBRANCH  23  24
ENDBRANCH  21  23
ENDBRANCH   5  21
TORSDOF 9
ENDMDL
MODEL 2
REMARK VINA RESULT: -6.135554873      3.919      5.248
REMARK  9 active torsions:
REMARK  status: ('A' for Active; 'I' for Inactive)
REMARK    1  A    between atoms: C5_5  and  N1_6 
REMARK    2  A    between atoms: N1_6  and  C6_8 
REMARK    3  A    between atoms: C6_8  and  C7_9 
REMARK    4  A    between atoms: C7_9  and  O1_10 
REMARK    5  A    between atoms: C7_9  and  C8_12 
REMARK    6  A    between atoms: C11_16  and  C12_17 
REMARK    7  A    between atoms: C12_17  and  O3_18 
REMARK    8  A    between atoms: C15_22  and  N2_23 
REMARK    9  A    between atoms: N2_23  and  C16_25 
ROOT
HETATM    1  C1  UNL     1      12.383   2.502   1.616  1.00  0.00     0.017 C 
HETATM    2  C2  UNL     1      12.178   3.781   1.819  1.00  0.00    -0.057 C 
HETATM    3  C3  UNL     1      13.143   4.951   1.685  1.00  0.00     0.025 C 
HETATM    4  C4  UNL     1      11.944   5.746   1.305  1.00  0.00     0.044 C 
HETATM    5  C5  UNL     1      11.164   4.782   2.210  1.00  0.00     0.050 C 
HETATM    6  C13 UNL     1      11.309   5.141   3.683  1.00  0.00     0.046 C 
HETATM    7  C14 UNL     1      12.562   5.939   3.861  1.00  0.00     0.040 C 
HETATM    8  C15 UNL     1      12.916   6.274   5.247  1.00  0.00    -0.013 C 
HETATM    9  C19 UNL     1      14.198   7.080   5.367  1.00  0.00     0.052 C 
HETATM   10  C20 UNL     1      14.445   7.993   4.202  1.00  0.00     0.007 C 
HETATM   11  C21 UNL     1      15.037   7.293   3.018  1.00  0.00     0.020 C 
HETATM   12  C22 UNL     1      14.994   5.798   3.124  1.00  0.00     0.098 C 
HETATM   13  C23 UNL     1      15.814   5.277   1.998  1.00  0.00     0.064 C 
HETATM   14  N3  UNL     1      16.459   4.874   1.117  1.00  0.00    -0.197 NA
HETATM   15  C24 UNL     1      13.644   5.191   3.101  1.00  0.00     0.021 C 
ENDROOT
BRANCH   8  16
HETATM   16  N2  UNL     1      12.890   5.341   6.287  1.00  0.00    -0.391 N 
ATOM     17  H2  UNL     1      12.267   4.534   6.249  1.00  0.00     0.159 HD
BRANCH  16  18
HETATM   18  C16 UNL     1      13.754   5.546   7.402  1.00  0.00     0.081 A 
HETATM   19  C17 UNL     1      13.291   5.759   8.770  1.00  0.00     0.027 A 
HETATM   20  C18 UNL     1      13.865   4.442   8.416  1.00  0.00     0.027 A 
ENDBRANCH  16  18
ENDBRANCH   8  16
BRANCH   5  21
HETATM   21  N1  UNL     1       9.827   4.643   1.765  1.00  0.00    -0.406 N 
ATOM     22  H1  UNL     1       9.625   4.577   0.767  1.00  0.00     0.154 HD
BRANCH  21  23
HETATM   23  C6  UNL     1       8.780   4.596   2.698  1.00  0.00     0.151 C 
BRANCH  23  24
HETATM   24  C7  UNL     1       7.778   5.716   2.370  1.00  0.00     0.171 C 
BRANCH  24  25
HETATM   25  O1  UNL     1       8.444   6.712   1.610  1.00  0.00    -0.389 OA
ATOM     26  H1  UNL     1       8.314   7.554   2.031  1.00  0.00     0.210 HD
ENDBRANCH  24  25
BRANCH  24  27
HETATM   27  C8  UNL     1       7.327   6.369   3.626  1.00  0.00     0.006 A 
HETATM   28  C9  UNL     1       7.829   6.181   4.879  1.00  0.00     0.037 A 
HETATM   29  C10 UNL     1       7.105   7.011   5.736  1.00  0.00     0.143 A 
HETATM   30  O2  UNL     1       6.246   7.624   4.985  1.00  0.00    -0.324 OA
HETATM   31  C11 UNL     1       6.314   7.303   3.738  1.00  0.00     0.084 A 
BRANCH  31  32
HETATM   32  C12 UNL     1       5.436   7.869   2.660  1.00  0.00     0.229 C 
BRANCH  32  33
HETATM   33  O3  UNL     1       6.154   8.824   1.941  1.00  0.00    -0.394 OA
ATOM     34  H3  UNL     1       7.022   8.485   1.754  1.00  0.00     0.209 HD
ENDBRANCH  32  33
ENDBRANCH  31  32
ENDBRANCH  24  27
ENDBRANCH  23  24
ENDBRANCH  21  23
ENDBRANCH   5  21
TORSDOF 9
ENDMDL
MODEL 3
REMARK VINA RESULT: -6.112108570      4.840      6.628
REMARK  9 active torsions:
REMARK  status: ('A' for Active; 'I' for Inactive)
REMARK    1  A    between atoms: C5_5  and  N1_6 
REMARK    2  A    between atoms: N1_6  and  C6_8 
REMARK    3  A    between atoms: C6_8  and  C7_9 
REMARK    4  A    between atoms: C7_9  and  O1_10 
REMARK    5  A    between atoms: C7_9  and  C8_12 
REMARK    6  A    between atoms: C11_16  and  C12_17 
REMARK    7  A    between atoms: C12_17  and  O3_18 
REMARK    8  A    between atoms: C15_22  and  N2_23 
REMARK    9  A    between atoms: N2_23  and  C16_25 
ROOT
HETATM    1  C1  UNL     1      12.704   2.060   5.985  1.00  0.00     0.017 C 
HETATM    2  C2  UNL     1      12.579   2.486   4.752  1.00  0.00    -0.057 C 
HETATM    3  C3  UNL     1      13.192   1.938   3.470  1.00  0.00     0.025 C 
HETATM    4  C4  UNL     1      11.957   2.432   2.805  1.00  0.00     0.044 C 
HETATM    5  C5  UNL     1      11.940   3.509   3.899  1.00  0.00     0.050 C 
HETATM    6  C13 UNL     1      12.916   4.639   3.600  1.00  0.00     0.046 C 
HETATM    7  C14 UNL     1      13.970   4.129   2.669  1.00  0.00     0.040 C 
HETATM    8  C15 UNL     1      15.062   5.064   2.365  1.00  0.00    -0.013 C 
HETATM    9  C19 UNL     1      16.104   4.491   1.420  1.00  0.00     0.052 C 
HETATM   10  C20 UNL     1      15.543   3.516   0.426  1.00  0.00     0.007 C 
HETATM   11  C21 UNL     1      15.351   2.142   0.991  1.00  0.00     0.020 C 
HETATM   12  C22 UNL     1      15.476   2.086   2.484  1.00  0.00     0.098 C 
HETATM   13  C23 UNL     1      15.489   0.644   2.847  1.00  0.00     0.064 C 
HETATM   14  N3  UNL     1      15.502  -0.485   3.127  1.00  0.00    -0.197 NA
HETATM   15  C24 UNL     1      14.426   2.799   3.245  1.00  0.00     0.021 C 
ENDROOT
BRANCH   8  16
HETATM   16  N2  UNL     1      15.725   5.806   3.345  1.00  0.00    -0.391 N 
ATOM     17  H2  UNL     1      16.363   5.354   4.000  1.00  0.00     0.159 HD
BRANCH  16  18
HETATM   18  C16 UNL     1      15.489   7.211   3.406  1.00  0.00     0.081 A 
HETATM   19  C17 UNL     1      14.971   7.904   4.582  1.00  0.00     0.027 A 
HETATM   20  C18 UNL     1      16.408   8.041   4.257  1.00  0.00     0.027 A 
ENDBRANCH  16  18
ENDBRANCH   8  16
BRANCH   5  21
HETATM   21  N1  UNL     1      10.615   3.929   4.172  1.00  0.00    -0.406 N 
ATOM     22  H1  UNL     1       9.830   3.314   3.957  1.00  0.00     0.154 HD
BRANCH  21  23
HETATM   23  C6  UNL     1      10.384   5.190   4.741  1.00  0.00     0.151 C 
BRANCH  23  24
HETATM   24  C7  UNL     1      10.094   5.009   6.240  1.00  0.00     0.171 C 
BRANCH  24  25
HETATM   25  O1  UNL     1       9.185   6.018   6.651  1.00  0.00    -0.389 OA
ATOM     26  H1  UNL     1       8.365   5.605   6.898  1.00  0.00     0.210 HD
ENDBRANCH  24  25
BRANCH  24  27
HETATM   27  C8  UNL     1      11.342   5.216   7.021  1.00  0.00     0.006 A 
HETATM   28  C9  UNL     1      12.477   5.846   6.608  1.00  0.00     0.037 A 
HETATM   29  C10 UNL     1      13.373   5.810   7.677  1.00  0.00     0.143 A 
HETATM   30  O2  UNL     1      12.756   5.188   8.631  1.00  0.00    -0.324 OA
HETATM   31  C11 UNL     1      11.562   4.810   8.324  1.00  0.00     0.084 A 
BRANCH  31  32
HETATM   32  C12 UNL     1      10.633   4.075   9.247  1.00  0.00     0.229 C 
BRANCH  32  33
HETATM   33  O3  UNL     1       9.586   4.921   9.609  1.00  0.00    -0.394 OA
ATOM     34  H3  UNL     1       8.773   4.581   9.253  1.00  0.00     0.209 HD
ENDBRANCH  32  33
ENDBRANCH  31  32
ENDBRANCH  24  27
ENDBRANCH  23  24
ENDBRANCH  21  23
ENDBRANCH   5  21
TORSDOF 9
ENDMDL
MODEL 4
REMARK VINA RESULT: -6.077929740      3.468      4.345
REMARK  9 active torsions:
REMARK  status: ('A' for Active; 'I' for Inactive)
REMARK    1  A    between atoms: C5_5  and  N1_6 
REMARK    2  A    between atoms: N1_6  and  C6_8 
REMARK    3  A    between atoms: C6_8  and  C7_9 
REMARK    4  A    between atoms: C7_9  and  O1_10 
REMARK    5  A    between atoms: C7_9  and  C8_12 
REMARK    6  A    between atoms: C11_16  and  C12_17 
REMARK    7  A    between atoms: C12_17  and  O3_18 
REMARK    8  A    between atoms: C15_22  and  N2_23 
REMARK    9  A    between atoms: N2_23  and  C16_25 
ROOT
HETATM    1  C1  UNL     1      10.540   3.561   4.270  1.00  0.00     0.017 C 
HETATM    2  C2  UNL     1      11.043   3.668   3.064  1.00  0.00    -0.057 C 
HETATM    3  C3  UNL     1      12.238   2.954   2.446  1.00  0.00     0.025 C 
HETATM    4  C4  UNL     1      11.495   3.067   1.162  1.00  0.00     0.044 C 
HETATM    5  C5  UNL     1      10.892   4.346   1.761  1.00  0.00     0.050 C 
HETATM    6  C13 UNL     1      11.848   5.528   1.660  1.00  0.00     0.046 C 
HETATM    7  C14 UNL     1      13.244   5.005   1.534  1.00  0.00     0.040 C 
HETATM    8  C15 UNL     1      14.309   6.017   1.540  1.00  0.00    -0.013 C 
HETATM    9  C19 UNL     1      15.704   5.429   1.414  1.00  0.00     0.052 C 
HETATM   10  C20 UNL     1      15.755   4.173   0.594  1.00  0.00     0.007 C 
HETATM   11  C21 UNL     1      15.348   2.952   1.359  1.00  0.00     0.020 C 
HETATM   12  C22 UNL     1      14.701   3.259   2.676  1.00  0.00     0.098 C 
HETATM   13  C23 UNL     1      14.575   1.961   3.391  1.00  0.00     0.064 C 
HETATM   14  N3  UNL     1      14.480   0.944   3.948  1.00  0.00    -0.197 NA
HETATM   15  C24 UNL     1      13.388   3.938   2.606  1.00  0.00     0.021 C 
ENDROOT
BRANCH   8  16
HETATM   16  N2  UNL     1      14.361   7.064   2.463  1.00  0.00    -0.391 N 
ATOM     17  H2  UNL     1      13.796   7.904   2.332  1.00  0.00     0.159 HD
BRANCH  16  18
HETATM   18  C16 UNL     1      15.220   6.931   3.592  1.00  0.00     0.081 A 
HETATM   19  C17 UNL     1      16.108   7.983   4.075  1.00  0.00     0.027 A 
HETATM   20  C18 UNL     1      14.871   7.700   4.835  1.00  0.00     0.027 A 
ENDBRANCH  16  18
ENDBRANCH   8  16
BRANCH   5  21
HETATM   21  N1  UNL     1       9.598   4.587   1.236  1.00  0.00    -0.406 N 
ATOM     22  H1  UNL     1       9.136   3.875   0.671  1.00  0.00     0.154 HD
BRANCH  21  23
HETATM   23  C6  UNL     1       8.954   5.806   1.495  1.00  0.00     0.151 C 
BRANCH  23  24
HETATM   24  C7  UNL     1       7.538   5.512   2.018  1.00  0.00     0.171 C 
BRANCH  24  25
HETATM   25  O1  UNL     1       6.596   6.008   1.081  1.00  0.00    -0.389 OA
ATOM     26  H1  UNL     1       5.724   5.919   1.450  1.00  0.00     0.210 HD
ENDBRANCH  24  25
BRANCH  24  27
HETATM   27  C8  UNL     1       7.309   6.254   3.286  1.00  0.00     0.006 A 
HETATM   28  C9  UNL     1       7.277   5.740   4.547  1.00  0.00     0.037 A 
HETATM   29  C10 UNL     1       7.045   6.808   5.415  1.00  0.00     0.143 A 
HETATM   30  O2  UNL     1       6.954   7.857   4.662  1.00  0.00    -0.324 OA
HETATM   31  C11 UNL     1       7.098   7.615   3.404  1.00  0.00     0.084 A 
BRANCH  31  32
HETATM   32  C12 UNL     1       7.040   8.653   2.321  1.00  0.00     0.229 C 
BRANCH  32  33
HETATM   33  O3  UNL     1       5.737   8.726   1.828  1.00  0.00    -0.394 OA
ATOM     34  H3  UNL     1       5.616   8.055   1.167  1.00  0.00     0.209 HD
ENDBRANCH  32  33
ENDBRANCH  31  32
ENDBRANCH  24  27
ENDBRANCH  23  24
ENDBRANCH  21  23
ENDBRANCH   5  21
TORSDOF 9
ENDMDL
MODEL 5
REMARK VINA RESULT: -5.984739929      1.534      2.005
REMARK  9 active torsions:
REMARK  status: ('A' for Active; 'I' for Inactive)
REMARK    1  A    between atoms: C5_5  and  N1_6 
REMARK    2  A    between atoms: N1_6  and  C6_8 
REMARK    3  A    between atoms: C6_8  and  C7_9 
REMARK    4  A    between atoms: C7_9  and  O1_10 
REMARK    5  A    between atoms: C7_9  and  C8_12 
REMARK    6  A    between atoms: C11_16  and  C12_17 
REMARK    7  A    between atoms: C12_17  and  O3_18 
REMARK    8  A    between atoms: C15_22  and  N2_23 
REMARK    9  A    between atoms: N2_23  and  C16_25 
ROOT
HETATM    1  C1  UNL     1      12.378  -0.737   2.642  1.00  0.00     0.017 C 
HETATM    2  C2  UNL     1      12.665   0.206   1.778  1.00  0.00    -0.057 C 
HETATM    3  C3  UNL     1      14.023   0.702   1.300  1.00  0.00     0.025 C 
HETATM    4  C4  UNL     1      13.335   0.990   0.012  1.00  0.00     0.044 C 
HETATM    5  C5  UNL     1      12.080   1.213   0.869  1.00  0.00     0.050 C 
HETATM    6  C13 UNL     1      12.077   2.588   1.526  1.00  0.00     0.046 C 
HETATM    7  C14 UNL     1      13.487   3.082   1.610  1.00  0.00     0.040 C 
HETATM    8  C15 UNL     1      13.678   4.352   2.323  1.00  0.00    -0.013 C 
HETATM    9  C19 UNL     1      15.128   4.802   2.380  1.00  0.00     0.052 C 
HETATM   10  C20 UNL     1      15.932   4.394   1.182  1.00  0.00     0.007 C 
HETATM   11  C21 UNL     1      16.407   2.974   1.245  1.00  0.00     0.020 C 
HETATM   12  C22 UNL     1      15.752   2.173   2.329  1.00  0.00     0.098 C 
HETATM   13  C23 UNL     1      16.492   0.884   2.399  1.00  0.00     0.064 C 
HETATM   14  N3  UNL     1      17.075  -0.121   2.453  1.00  0.00    -0.197 NA
HETATM   15  C24 UNL     1      14.302   1.925   2.160  1.00  0.00     0.021 C 
ENDROOT
BRANCH   8  16
HETATM   16  N2  UNL     1      13.087   4.629   3.559  1.00  0.00    -0.391 N 
ATOM     17  H2  UNL     1      12.122   4.359   3.748  1.00  0.00     0.159 HD
BRANCH  16  18
HETATM   18  C16 UNL     1      13.867   5.296   4.548  1.00  0.00     0.081 A 
HETATM   19  C17 UNL     1      13.433   6.489   5.267  1.00  0.00     0.027 A 
HETATM   20  C18 UNL     1      13.422   5.192   5.980  1.00  0.00     0.027 A 
ENDBRANCH  16  18
ENDBRANCH   8  16
BRANCH   5  21
HETATM   21  N1  UNL     1      10.908   0.906   0.136  1.00  0.00    -0.406 N 
ATOM     22  H1  UNL     1      10.920   0.158  -0.557  1.00  0.00     0.154 HD
BRANCH  21  23
HETATM   23  C6  UNL     1       9.730   1.633   0.364  1.00  0.00     0.151 C 
BRANCH  23  24
HETATM   24  C7  UNL     1       9.236   2.203  -0.976  1.00  0.00     0.171 C 
BRANCH  24  25
HETATM   25  O1  UNL     1      10.364   2.499  -1.786  1.00  0.00    -0.389 OA
ATOM     26  H1  UNL     1      10.488   3.441  -1.802  1.00  0.00     0.210 HD
ENDBRANCH  24  25
BRANCH  24  27
HETATM   27  C8  UNL     1       8.530   3.490  -0.744  1.00  0.00     0.006 A 
HETATM   28  C9  UNL     1       8.557   4.253   0.385  1.00  0.00     0.037 A 
HETATM   29  C10 UNL     1       7.758   5.371   0.139  1.00  0.00     0.143 A 
HETATM   30  O2  UNL     1       7.315   5.225  -1.069  1.00  0.00    -0.324 OA
HETATM   31  C11 UNL     1       7.722   4.150  -1.652  1.00  0.00     0.084 A 
BRANCH  31  32
HETATM   32  C12 UNL     1       7.358   3.744  -3.051  1.00  0.00     0.229 C 
BRANCH  32  33
HETATM   33  O3  UNL     1       6.754   4.823  -3.696  1.00  0.00    -0.394 OA
ATOM     34  H3  UNL     1       7.135   4.921  -4.561  1.00  0.00     0.209 HD
ENDBRANCH  32  33
ENDBRANCH  31  32
ENDBRANCH  24  27
ENDBRANCH  23  24
ENDBRANCH  21  23
ENDBRANCH   5  21
TORSDOF 9
ENDMDL
