MODEL 1
REMARK VINA RESULT: -5.921931175      0.000      0.000
REMARK  9 active torsions:
REMARK  status: ('A' for Active; 'I' for Inactive)
REMARK    1  A    between atoms: C2_2  and  C3_3 
REMARK    2  A    between atoms: C3_3  and  C4_4 
REMARK    3  A    between atoms: C4_4  and  C5_5 
REMARK    4  A    between atoms: C5_5  and  C6_6 
REMARK    5  A    between atoms: C6_6  and  C7_7 
REMARK    6  A    between atoms: C10_12  and  C11_13 
REMARK    7  A    between atoms: N2_21  and  C19_22 
REMARK    8  A    between atoms: C20_23  and  O1_24 
REMARK    9  A    between atoms: C21_28  and  N4_29 
ROOT
HETATM    1  C11 UNL     1      11.837   3.197   2.918  1.00  0.00     0.157 C 
HETATM    2  C12 UNL     1      11.629   4.369   1.983  1.00  0.00     0.021 C 
HETATM    3  C13 UNL     1      10.352   5.098   2.237  1.00  0.00     0.007 C 
HETATM    4  C14 UNL     1       9.150   4.208   2.317  1.00  0.00     0.000 C 
HETATM    5  C15 UNL     1       9.063   3.347   1.090  1.00  0.00     0.000 C 
HETATM    6  C16 UNL     1      10.131   3.679   0.093  1.00  0.00     0.007 C 
HETATM    7  C17 UNL     1      11.517   3.639   0.638  1.00  0.00     0.010 C 
HETATM    8  C18 UNL     1      12.021   2.224   0.885  1.00  0.00     0.129 C 
HETATM    9  N2  UNL     1      12.783   2.431   2.131  1.00  0.00    -0.360 N 
ENDROOT
BRANCH   1  10
HETATM   10  C10 UNL     1      12.236   3.523   4.264  1.00  0.00     0.105 A 
HETATM   11  N1  UNL     1      12.000   2.666   5.274  1.00  0.00    -0.354 N 
HETATM   12  C9  UNL     1      12.330   2.883   6.536  1.00  0.00     0.091 A 
ATOM     13  H1  UNL     1      11.534   1.787   5.050  1.00  0.00     0.166 HD
HETATM   14  C8  UNL     1      12.962   4.060   6.874  1.00  0.00     0.042 A 
HETATM   15  C7  UNL     1      13.213   4.953   5.855  1.00  0.00     0.011 A 
HETATM   16  N6  UNL     1      12.848   4.669   4.580  1.00  0.00    -0.348 N 
ATOM     17  H6  UNL     1      13.046   5.346   3.844  1.00  0.00     0.167 HD
BRANCH  15  18
HETATM   18  C6  UNL     1      13.890   6.243   6.138  1.00  0.00     0.057 C 
BRANCH  18  19
HETATM   19  C5  UNL     1      13.684   7.197   4.993  1.00  0.00     0.006 C 
BRANCH  19  20
HETATM   20  C4  UNL     1      15.021   7.841   4.694  1.00  0.00     0.000 C 
BRANCH  20  21
HETATM   21  C3  UNL     1      15.338   7.856   3.223  1.00  0.00    -0.000 C 
BRANCH  21  22
HETATM   22  C2  UNL     1      14.455   6.924   2.429  1.00  0.00    -0.005 C 
HETATM   23  C1  UNL     1      13.909   7.735   1.254  1.00  0.00     0.005 C 
ENDBRANCH  21  22
ENDBRANCH  20  21
ENDBRANCH  19  20
ENDBRANCH  18  19
ENDBRANCH  15  18
ENDBRANCH   1  10
BRANCH   9  24
HETATM   24  C19 UNL     1      14.095   1.982   2.411  1.00  0.00     0.152 A 
HETATM   25  C20 UNL     1      14.354   0.858   3.185  1.00  0.00     0.188 A 
HETATM   26  N3  UNL     1      15.606   0.432   3.438  1.00  0.00    -0.168 N 
HETATM   27  C21 UNL     1      16.644   1.108   2.932  1.00  0.00     0.680 A 
ATOM     28  H3  UNL     1      15.761  -0.397   4.011  1.00  0.00     0.186 HD
HETATM   29  N5  UNL     1      16.420   2.195   2.181  1.00  0.00    -0.154 N 
HETATM   30  C22 UNL     1      15.186   2.661   1.900  1.00  0.00     0.290 A 
ATOM     31  H5  UNL     1      17.224   2.696   1.803  1.00  0.00     0.187 HD
HETATM   32  O2  UNL     1      15.053   3.699   1.181  1.00  0.00    -0.265 OA
BRANCH  25  33
HETATM   33  O1  UNL     1      13.314   0.123   3.736  1.00  0.00    -0.344 OA
ATOM     34  H1  UNL     1      13.217  -0.801   3.540  1.00  0.00     0.219 HD
ENDBRANCH  25  33
BRANCH  27  35
HETATM   35  N4  UNL     1      17.851   0.683   3.186  1.00  0.00    -0.234 N 
ATOM     36  H42 UNL     1      18.067  -0.311   3.264  1.00  0.00     0.174 HD
ATOM     37  H41 UNL     1      18.595   1.370   3.311  1.00  0.00     0.174 HD
ENDBRANCH  27  35
ENDBRANCH   9  24
TORSDOF 9
ENDMDL
MODEL 2
REMARK VINA RESULT: -5.870738914      0.085      1.491
REMARK  9 active torsions:
REMARK  status: ('A' for Active; 'I' for Inactive)
REMARK    1  A    between atoms: C2_2  and  C3_3 
REMARK    2  A    between atoms: C3_3  and  C4_4 
REMARK    3  A    between atoms: C4_4  and  C5_5 
REMARK    4  A    between atoms: C5_5  and  C6_6 
REMARK    5  A    between atoms: C6_6  and  C7_7 
REMARK    6  A    between atoms: C10_12  and  C11_13 
REMARK    7  A    between atoms: N2_21  and  C19_22 
REMARK    8  A    between atoms: C20_23  and  O1_24 
REMARK    9  A    between atoms: C21_28  and  N4_29 
ROOT
HETATM    1  C11 UNL     1      11.853   3.212   2.908  1.00  0.00     0.157 C 
HETATM    2  C12 UNL     1      11.641   4.389   1.979  1.00  0.00     0.021 C 
HETATM    3  C13 UNL     1      10.376   5.130   2.256  1.00  0.00     0.007 C 
HETATM    4  C14 UNL     1       9.166   4.252   2.352  1.00  0.00     0.000 C 
HETATM    5  C15 UNL     1       9.051   3.395   1.123  1.00  0.00     0.000 C 
HETATM    6  C16 UNL     1      10.108   3.719   0.111  1.00  0.00     0.007 C 
HETATM    7  C17 UNL     1      11.501   3.665   0.634  1.00  0.00     0.010 C 
HETATM    8  C18 UNL     1      11.995   2.243   0.870  1.00  0.00     0.129 C 
HETATM    9  N2  UNL     1      12.778   2.440   2.105  1.00  0.00    -0.360 N 
ENDROOT
BRANCH   1  10
HETATM   10  C10 UNL     1      12.275   3.531   4.249  1.00  0.00     0.105 A 
HETATM   11  N1  UNL     1      12.024   2.685   5.264  1.00  0.00    -0.354 N 
HETATM   12  C9  UNL     1      12.374   2.895   6.521  1.00  0.00     0.091 A 
ATOM     13  H1  UNL     1      11.528   1.819   5.048  1.00  0.00     0.166 HD
HETATM   14  C8  UNL     1      13.045   4.054   6.849  1.00  0.00     0.042 A 
HETATM   15  C7  UNL     1      13.313   4.936   5.824  1.00  0.00     0.011 A 
HETATM   16  N6  UNL     1      12.926   4.658   4.554  1.00  0.00    -0.348 N 
ATOM     17  H6  UNL     1      13.137   5.327   3.813  1.00  0.00     0.167 HD
BRANCH  15  18
HETATM   18  C6  UNL     1      14.032   6.205   6.095  1.00  0.00     0.057 C 
BRANCH  18  19
HETATM   19  C5  UNL     1      13.765   7.195   4.994  1.00  0.00     0.006 C 
BRANCH  19  20
HETATM   20  C4  UNL     1      15.093   7.815   4.611  1.00  0.00     0.000 C 
BRANCH  20  21
HETATM   21  C3  UNL     1      15.318   7.823   3.123  1.00  0.00    -0.000 C 
BRANCH  21  22
HETATM   22  C2  UNL     1      14.328   6.958   2.381  1.00  0.00    -0.005 C 
HETATM   23  C1  UNL     1      13.768   7.813   1.244  1.00  0.00     0.005 C 
ENDBRANCH  21  22
ENDBRANCH  20  21
ENDBRANCH  19  20
ENDBRANCH  18  19
ENDBRANCH  15  18
ENDBRANCH   1  10
BRANCH   9  24
HETATM   24  C19 UNL     1      14.090   1.977   2.362  1.00  0.00     0.152 A 
HETATM   25  C20 UNL     1      15.222   2.633   1.893  1.00  0.00     0.188 A 
HETATM   26  N3  UNL     1      16.467   2.192   2.150  1.00  0.00    -0.168 N 
HETATM   27  C21 UNL     1      16.632   1.085   2.882  1.00  0.00     0.680 A 
ATOM     28  H3  UNL     1      17.277   2.698   1.791  1.00  0.00     0.186 HD
HETATM   29  N5  UNL     1      15.557   0.435   3.347  1.00  0.00    -0.154 N 
HETATM   30  C22 UNL     1      14.291   0.836   3.116  1.00  0.00     0.290 A 
ATOM     31  H5  UNL     1      15.704  -0.407   3.904  1.00  0.00     0.187 HD
HETATM   32  O2  UNL     1      13.321   0.167   3.589  1.00  0.00    -0.265 OA
BRANCH  25  33
HETATM   33  O1  UNL     1      15.106   3.785   1.127  1.00  0.00    -0.344 OA
ATOM     34  H1  UNL     1      15.821   4.071   0.571  1.00  0.00     0.219 HD
ENDBRANCH  25  33
BRANCH  27  35
HETATM   35  N4  UNL     1      17.846   0.669   3.123  1.00  0.00    -0.234 N 
ATOM     36  H42 UNL     1      18.128   0.334   4.044  1.00  0.00     0.174 HD
ATOM     37  H41 UNL     1      18.528   0.685   2.364  1.00  0.00     0.174 HD
ENDBRANCH  27  35
ENDBRANCH   9  24
TORSDOF 9
ENDMDL
MODEL 3
REMARK VINA RESULT: -5.527723968      3.506      6.357
REMARK  9 active torsions:
REMARK  status: ('A' for Active; 'I' for Inactive)
REMARK    1  A    between atoms: C2_2  and  C3_3 
REMARK    2  A    between atoms: C3_3  and  C4_4 
REMARK    3  A    between atoms: C4_4  and  C5_5 
REMARK    4  A    between atoms: C5_5  and  C6_6 
REMARK    5  A    between atoms: C6_6  and  C7_7 
REMARK    6  A    between atoms: C10_12  and  C11_13 
REMARK    7  A    between atoms: N2_21  and  C19_22 
REMARK    8  A    between atoms: C20_23  and  O1_24 
REMARK    9  A    between atoms: C21_28  and  N4_29 
ROOT
HETATM    1  C11 UNL     1      14.229   2.229   2.525  1.00  0.00     0.157 C 
HETATM    2  C12 UNL     1      14.717   3.627   2.206  1.00  0.00     0.021 C 
HETATM    3  C13 UNL     1      14.922   4.465   3.423  1.00  0.00     0.007 C 
HETATM    4  C14 UNL     1      13.757   4.467   4.363  1.00  0.00     0.000 C 
HETATM    5  C15 UNL     1      12.503   4.849   3.631  1.00  0.00     0.000 C 
HETATM    6  C16 UNL     1      12.775   5.214   2.203  1.00  0.00     0.007 C 
HETATM    7  C17 UNL     1      13.512   4.175   1.430  1.00  0.00     0.010 C 
HETATM    8  C18 UNL     1      12.651   2.967   1.082  1.00  0.00     0.129 C 
HETATM    9  N2  UNL     1      13.641   1.885   1.247  1.00  0.00    -0.360 N 
ENDROOT
BRANCH   1  10
HETATM   10  C10 UNL     1      15.216   1.317   3.046  1.00  0.00     0.105 A 
HETATM   11  N1  UNL     1      16.507   1.428   2.684  1.00  0.00    -0.354 N 
HETATM   12  C9  UNL     1      17.477   0.637   3.111  1.00  0.00     0.091 A 
ATOM     13  H1  UNL     1      16.755   2.174   2.035  1.00  0.00     0.166 HD
HETATM   14  C8  UNL     1      17.177  -0.382   3.991  1.00  0.00     0.042 A 
HETATM   15  C7  UNL     1      15.861  -0.514   4.374  1.00  0.00     0.011 A 
HETATM   16  N6  UNL     1      14.914   0.333   3.898  1.00  0.00    -0.348 N 
ATOM     17  H6  UNL     1      13.946   0.214   4.198  1.00  0.00     0.167 HD
BRANCH  15  18
HETATM   18  C6  UNL     1      15.458  -1.586   5.317  1.00  0.00     0.057 C 
BRANCH  18  19
HETATM   19  C5  UNL     1      16.612  -1.950   6.211  1.00  0.00     0.006 C 
BRANCH  19  20
HETATM   20  C4  UNL     1      16.366  -1.300   7.556  1.00  0.00     0.000 C 
BRANCH  20  21
HETATM   21  C3  UNL     1      17.557  -1.399   8.471  1.00  0.00    -0.000 C 
BRANCH  21  22
HETATM   22  C2  UNL     1      18.686  -2.201   7.870  1.00  0.00    -0.005 C 
HETATM   23  C1  UNL     1      19.811  -2.216   8.906  1.00  0.00     0.005 C 
ENDBRANCH  21  22
ENDBRANCH  20  21
ENDBRANCH  19  20
ENDBRANCH  18  19
ENDBRANCH  15  18
ENDBRANCH   1  10
BRANCH   9  24
HETATM   24  C19 UNL     1      13.903   0.828   0.343  1.00  0.00     0.152 A 
HETATM   25  C20 UNL     1      15.049   0.777  -0.439  1.00  0.00     0.188 A 
HETATM   26  N3  UNL     1      15.296  -0.237  -1.290  1.00  0.00    -0.168 N 
HETATM   27  C21 UNL     1      14.412  -1.236  -1.392  1.00  0.00     0.680 A 
ATOM     28  H3  UNL     1      16.148  -0.243  -1.850  1.00  0.00     0.186 HD
HETATM   29  N5  UNL     1      13.299  -1.210  -0.647  1.00  0.00    -0.154 N 
HETATM   30  C22 UNL     1      13.008  -0.217   0.218  1.00  0.00     0.290 A 
ATOM     31  H5  UNL     1      12.637  -1.982  -0.738  1.00  0.00     0.187 HD
HETATM   32  O2  UNL     1      11.931  -0.262   0.890  1.00  0.00    -0.265 OA
BRANCH  25  33
HETATM   33  O1  UNL     1      15.997   1.789  -0.374  1.00  0.00    -0.344 OA
ATOM     34  H1  UNL     1      15.861   2.612  -0.829  1.00  0.00     0.219 HD
ENDBRANCH  25  33
BRANCH  27  35
HETATM   35  N4  UNL     1      14.664  -2.212  -2.221  1.00  0.00    -0.234 N 
ATOM     36  H42 UNL     1      15.257  -2.083  -3.041  1.00  0.00     0.174 HD
ATOM     37  H41 UNL     1      14.253  -3.128  -2.037  1.00  0.00     0.174 HD
ENDBRANCH  27  35
ENDBRANCH   9  24
TORSDOF 9
ENDMDL
MODEL 4
REMARK VINA RESULT: -5.515483764      2.615      5.328
REMARK  9 active torsions:
REMARK  status: ('A' for Active; 'I' for Inactive)
REMARK    1  A    between atoms: C2_2  and  C3_3 
REMARK    2  A    between atoms: C3_3  and  C4_4 
REMARK    3  A    between atoms: C4_4  and  C5_5 
REMARK    4  A    between atoms: C5_5  and  C6_6 
REMARK    5  A    between atoms: C6_6  and  C7_7 
REMARK    6  A    between atoms: C10_12  and  C11_13 
REMARK    7  A    between atoms: N2_21  and  C19_22 
REMARK    8  A    between atoms: C20_23  and  O1_24 
REMARK    9  A    between atoms: C21_28  and  N4_29 
ROOT
HETATM    1  C11 UNL     1      12.923   5.477   3.350  1.00  0.00     0.157 C 
HETATM    2  C12 UNL     1      13.959   5.554   4.451  1.00  0.00     0.021 C 
HETATM    3  C13 UNL     1      14.002   6.888   5.118  1.00  0.00     0.007 C 
HETATM    4  C14 UNL     1      14.092   8.041   4.167  1.00  0.00     0.000 C 
HETATM    5  C15 UNL     1      15.251   7.850   3.231  1.00  0.00     0.000 C 
HETATM    6  C16 UNL     1      16.047   6.625   3.565  1.00  0.00     0.007 C 
HETATM    7  C17 UNL     1      15.247   5.371   3.638  1.00  0.00     0.010 C 
HETATM    8  C18 UNL     1      14.812   4.860   2.271  1.00  0.00     0.129 C 
HETATM    9  N2  UNL     1      13.461   4.364   2.595  1.00  0.00    -0.360 N 
ENDROOT
BRANCH   1  10
HETATM   10  C10 UNL     1      11.551   5.362   3.777  1.00  0.00     0.105 A 
HETATM   11  N1  UNL     1      11.257   5.026   5.046  1.00  0.00    -0.354 N 
HETATM   12  C9  UNL     1      10.031   4.898   5.524  1.00  0.00     0.091 A 
ATOM     13  H1  UNL     1      12.034   4.859   5.685  1.00  0.00     0.166 HD
HETATM   14  C8  UNL     1       8.956   5.117   4.688  1.00  0.00     0.042 A 
HETATM   15  C7  UNL     1       9.234   5.462   3.384  1.00  0.00     0.011 A 
HETATM   16  N6  UNL     1      10.517   5.577   2.958  1.00  0.00    -0.348 N 
ATOM     17  H6  UNL     1      10.697   5.834   1.987  1.00  0.00     0.167 HD
BRANCH  15  18
HETATM   18  C6  UNL     1       8.132   5.713   2.423  1.00  0.00     0.057 C 
BRANCH  18  19
HETATM   19  C5  UNL     1       8.358   7.018   1.707  1.00  0.00     0.006 C 
BRANCH  19  20
HETATM   20  C4  UNL     1       7.445   8.045   2.340  1.00  0.00     0.000 C 
BRANCH  20  21
HETATM   21  C3  UNL     1       6.094   7.480   2.688  1.00  0.00    -0.000 C 
BRANCH  21  22
HETATM   22  C2  UNL     1       5.541   8.048   3.973  1.00  0.00    -0.005 C 
HETATM   23  C1  UNL     1       6.696   8.067   4.975  1.00  0.00     0.005 C 
ENDBRANCH  21  22
ENDBRANCH  20  21
ENDBRANCH  19  20
ENDBRANCH  18  19
ENDBRANCH  15  18
ENDBRANCH   1  10
BRANCH   9  24
HETATM   24  C19 UNL     1      12.907   3.111   2.241  1.00  0.00     0.152 A 
HETATM   25  C20 UNL     1      13.222   1.935   2.911  1.00  0.00     0.188 A 
HETATM   26  N3  UNL     1      12.684   0.749   2.574  1.00  0.00    -0.168 N 
HETATM   27  C21 UNL     1      11.815   0.688   1.559  1.00  0.00     0.680 A 
ATOM     28  H3  UNL     1      12.937  -0.096   3.087  1.00  0.00     0.186 HD
HETATM   29  N5  UNL     1      11.494   1.808   0.897  1.00  0.00    -0.154 N 
HETATM   30  C22 UNL     1      12.006   3.019   1.197  1.00  0.00     0.290 A 
ATOM     31  H5  UNL     1      10.829   1.741   0.127  1.00  0.00     0.187 HD
HETATM   32  O2  UNL     1      11.655   4.036   0.524  1.00  0.00    -0.265 OA
BRANCH  25  33
HETATM   33  O1  UNL     1      14.121   1.942   3.969  1.00  0.00    -0.344 OA
ATOM     34  H1  UNL     1      13.977   1.394   4.731  1.00  0.00     0.219 HD
ENDBRANCH  25  33
BRANCH  27  35
HETATM   35  N4  UNL     1      11.301  -0.470   1.243  1.00  0.00    -0.234 N 
ATOM     36  H42 UNL     1      11.150  -1.200   1.940  1.00  0.00     0.174 HD
ATOM     37  H41 UNL     1      11.047  -0.644   0.271  1.00  0.00     0.174 HD
ENDBRANCH  27  35
ENDBRANCH   9  24
TORSDOF 9
ENDMDL
MODEL 5
REMARK VINA RESULT: -5.507793458      2.628      5.430
REMARK  9 active torsions:
REMARK  status: ('A' for Active; 'I' for Inactive)
REMARK    1  A    between atoms: C2_2  and  C3_3 
REMARK    2  A    between atoms: C3_3  and  C4_4 
REMARK    3  A    between atoms: C4_4  and  C5_5 
REMARK    4  A    between atoms: C5_5  and  C6_6 
REMARK    5  A    between atoms: C6_6  and  C7_7 
REMARK    6  A    between atoms: C10_12  and  C11_13 
REMARK    7  A    between atoms: N2_21  and  C19_22 
REMARK    8  A    between atoms: C20_23  and  O1_24 
REMARK    9  A    between atoms: C21_28  and  N4_29 
ROOT
HETATM    1  C11 UNL     1      12.916   5.472   3.354  1.00  0.00     0.157 C 
HETATM    2  C12 UNL     1      13.942   5.589   4.462  1.00  0.00     0.021 C 
HETATM    3  C13 UNL     1      13.977   6.945   5.082  1.00  0.00     0.007 C 
HETATM    4  C14 UNL     1      14.075   8.064   4.092  1.00  0.00     0.000 C 
HETATM    5  C15 UNL     1      15.243   7.843   3.175  1.00  0.00     0.000 C 
HETATM    6  C16 UNL     1      16.037   6.631   3.559  1.00  0.00     0.007 C 
HETATM    7  C17 UNL     1      15.238   5.379   3.668  1.00  0.00     0.010 C 
HETATM    8  C18 UNL     1      14.817   4.820   2.315  1.00  0.00     0.129 C 
HETATM    9  N2  UNL     1      13.463   4.334   2.643  1.00  0.00    -0.360 N 
ENDROOT
BRANCH   1  10
HETATM   10  C10 UNL     1      11.541   5.370   3.771  1.00  0.00     0.105 A 
HETATM   11  N1  UNL     1      11.235   5.060   5.044  1.00  0.00    -0.354 N 
HETATM   12  C9  UNL     1      10.004   4.945   5.514  1.00  0.00     0.091 A 
ATOM     13  H1  UNL     1      12.006   4.903   5.693  1.00  0.00     0.166 HD
HETATM   14  C8  UNL     1       8.937   5.151   4.665  1.00  0.00     0.042 A 
HETATM   15  C7  UNL     1       9.228   5.470   3.357  1.00  0.00     0.011 A 
HETATM   16  N6  UNL     1      10.514   5.572   2.939  1.00  0.00    -0.348 N 
ATOM     17  H6  UNL     1      10.703   5.810   1.965  1.00  0.00     0.167 HD
BRANCH  15  18
HETATM   18  C6  UNL     1       8.135   5.706   2.381  1.00  0.00     0.057 C 
BRANCH  18  19
HETATM   19  C5  UNL     1       8.339   7.025   1.686  1.00  0.00     0.006 C 
BRANCH  19  20
HETATM   20  C4  UNL     1       7.445   8.039   2.366  1.00  0.00     0.000 C 
BRANCH  20  21
HETATM   21  C3  UNL     1       6.095   7.474   2.719  1.00  0.00    -0.000 C 
BRANCH  21  22
HETATM   22  C2  UNL     1       5.534   8.062   3.991  1.00  0.00    -0.005 C 
HETATM   23  C1  UNL     1       6.681   8.089   5.002  1.00  0.00     0.005 C 
ENDBRANCH  21  22
ENDBRANCH  20  21
ENDBRANCH  19  20
ENDBRANCH  18  19
ENDBRANCH  15  18
ENDBRANCH   1  10
BRANCH   9  24
HETATM   24  C19 UNL     1      12.914   3.069   2.327  1.00  0.00     0.152 A 
HETATM   25  C20 UNL     1      12.001   2.884   1.297  1.00  0.00     0.188 A 
HETATM   26  N3  UNL     1      11.490   1.676   0.996  1.00  0.00    -0.168 N 
HETATM   27  C21 UNL     1      11.869   0.608   1.708  1.00  0.00     0.680 A 
ATOM     28  H3  UNL     1      10.821   1.575   0.233  1.00  0.00     0.186 HD
HETATM   29  N5  UNL     1      12.750   0.760   2.705  1.00  0.00    -0.154 N 
HETATM   30  C22 UNL     1      13.288   1.949   3.045  1.00  0.00     0.290 A 
ATOM     31  H5  UNL     1      13.027  -0.066   3.236  1.00  0.00     0.187 HD
HETATM   32  O2  UNL     1      14.118   2.014   4.004  1.00  0.00    -0.265 OA
BRANCH  25  33
HETATM   33  O1  UNL     1      11.572   3.959   0.529  1.00  0.00    -0.344 OA
ATOM     34  H1  UNL     1      10.650   4.081   0.338  1.00  0.00     0.219 HD
ENDBRANCH  25  33
BRANCH  27  35
HETATM   35  N4  UNL     1      11.365  -0.557   1.404  1.00  0.00    -0.234 N 
ATOM     36  H42 UNL     1      10.372  -0.679   1.206  1.00  0.00     0.174 HD
ATOM     37  H41 UNL     1      11.988  -1.364   1.366  1.00  0.00     0.174 HD
ENDBRANCH  27  35
ENDBRANCH   9  24
TORSDOF 9
ENDMDL
