MODEL 1
REMARK VINA RESULT: -6.271077432      0.000      0.000
REMARK  8 active torsions:
REMARK  status: ('A' for Active; 'I' for Inactive)
REMARK    1  A    between atoms: C2_2  and  C3_3 
REMARK    2  A    between atoms: C3_3  and  C4_4 
REMARK    3  A    between atoms: C4_4  and  C5_5 
REMARK    4  A    between atoms: N2_12  and  C9_13 
REMARK    5  A    between atoms: C11_15  and  C12_16 
REMARK    6  A    between atoms: C13_21  and  N5_22 
REMARK    7  A    between atoms: C15_28  and  C16_29 
REMARK    8  A    between atoms: C20_33  and  O1_34 
ROOT
HETATM    1  C9  UNL     1      10.758   5.083   2.028  1.00  0.00     0.072 A 
HETATM    2  C10 UNL     1       9.753   5.962   2.313  1.00  0.00     0.048 A 
HETATM    3  C11 UNL     1       8.567   5.927   1.613  1.00  0.00     0.013 A 
HETATM    4  C14 UNL     1       8.449   4.953   0.608  1.00  0.00     0.025 A 
HETATM    5  C15 UNL     1       9.459   4.077   0.331  1.00  0.00    -0.017 A 
HETATM    6  C20 UNL     1      10.631   4.140   1.049  1.00  0.00     0.101 A 
ENDROOT
BRANCH   1   7
HETATM    7  N2  UNL     1      11.969   5.206   2.801  1.00  0.00    -0.312 N 
HETATM    8  C8  UNL     1      11.933   4.549   4.093  1.00  0.00     0.160 C 
HETATM    9  C7  UNL     1      13.151   4.831   4.916  1.00  0.00     0.254 C 
HETATM   10  N1  UNL     1      13.953   5.910   4.478  1.00  0.00    -0.056 N 
HETATM   11  C4  UNL     1      14.374   5.792   3.062  1.00  0.00     0.205 C 
ATOM     12  H12 UNL     1      14.763   6.031   5.088  1.00  0.00     0.278 HD
ATOM     13  H11 UNL     1      13.484   6.801   4.643  1.00  0.00     0.278 HD
HETATM   14  C22 UNL     1      13.090   5.923   2.313  1.00  0.00     0.261 C 
HETATM   15  O2  UNL     1      12.930   6.618   1.287  1.00  0.00    -0.270 OA
BRANCH  11  16
HETATM   16  C3  UNL     1      14.987   4.457   2.935  1.00  0.00     0.049 C 
BRANCH  16  17
HETATM   17  C2  UNL     1      15.309   3.926   1.596  1.00  0.00    -0.002 C 
HETATM   18  C1  UNL     1      15.970   2.534   1.714  1.00  0.00     0.005 C 
ENDBRANCH  16  17
ENDBRANCH  11  16
BRANCH  11  19
HETATM   19  C5  UNL     1      15.261   6.973   2.890  1.00  0.00     0.044 C 
HETATM   20  C6  UNL     1      15.610   7.784   4.063  1.00  0.00     0.008 C 
ENDBRANCH  11  19
ENDBRANCH   1   7
BRANCH   6  21
HETATM   21  O1  UNL     1      11.689   3.277   0.814  1.00  0.00    -0.353 OA
HETATM   22  C21 UNL     1      11.831   2.026   1.458  1.00  0.00     0.210 C 
ENDBRANCH   6  21
BRANCH   3  23
HETATM   23  C12 UNL     1       7.464   6.829   1.890  1.00  0.00     0.146 A 
HETATM   24  N3  UNL     1       7.477   8.170   1.637  1.00  0.00    -0.270 N 
HETATM   25  N4  UNL     1       6.304   8.679   2.026  1.00  0.00    -0.131 N 
ATOM     26  H3  UNL     1       8.248   8.694   1.222  1.00  0.00     0.189 HD
HETATM   27  C13 UNL     1       5.572   7.642   2.518  1.00  0.00     0.692 A 
ATOM     28  H4  UNL     1       6.014   9.655   1.966  1.00  0.00     0.205 HD
HETATM   29  N6  UNL     1       6.298   6.526   2.426  1.00  0.00    -0.174 N 
ATOM     30  H6  UNL     1       6.001   5.595   2.720  1.00  0.00     0.186 HD
BRANCH  27  31
HETATM   31  N5  UNL     1       4.378   7.800   2.983  1.00  0.00    -0.233 N 
ATOM     32  H52 UNL     1       4.030   8.501   3.637  1.00  0.00     0.174 HD
ATOM     33  H51 UNL     1       3.605   7.191   2.716  1.00  0.00     0.174 HD
ENDBRANCH  27  31
ENDBRANCH   3  23
BRANCH   5  34
HETATM   34  C16 UNL     1       9.355   3.062  -0.718  1.00  0.00     0.021 C 
HETATM   35  C17 UNL     1       8.570   3.471  -1.925  1.00  0.00     0.009 C 
HETATM   36  C18 UNL     1       7.866   2.119  -1.924  1.00  0.00     0.001 C 
HETATM   37  C19 UNL     1       8.337   1.957  -0.495  1.00  0.00     0.009 C 
ENDBRANCH   5  34
TORSDOF 8
ENDMDL
MODEL 2
REMARK VINA RESULT: -6.140912777      4.340      6.973
REMARK  8 active torsions:
REMARK  status: ('A' for Active; 'I' for Inactive)
REMARK    1  A    between atoms: C2_2  and  C3_3 
REMARK    2  A    between atoms: C3_3  and  C4_4 
REMARK    3  A    between atoms: C4_4  and  C5_5 
REMARK    4  A    between atoms: N2_12  and  C9_13 
REMARK    5  A    between atoms: C11_15  and  C12_16 
REMARK    6  A    between atoms: C13_21  and  N5_22 
REMARK    7  A    between atoms: C15_28  and  C16_29 
REMARK    8  A    between atoms: C20_33  and  O1_34 
ROOT
HETATM    1  C9  UNL     1      13.379   2.958   1.943  1.00  0.00     0.072 A 
HETATM    2  C10 UNL     1      14.040   2.260   0.974  1.00  0.00     0.048 A 
HETATM    3  C11 UNL     1      13.803   0.916   0.786  1.00  0.00     0.013 A 
HETATM    4  C14 UNL     1      12.858   0.312   1.632  1.00  0.00     0.025 A 
HETATM    5  C15 UNL     1      12.200   1.018   2.599  1.00  0.00    -0.017 A 
HETATM    6  C20 UNL     1      12.462   2.360   2.759  1.00  0.00     0.101 A 
ENDROOT
BRANCH   1   7
HETATM    7  N2  UNL     1      13.705   4.356   2.076  1.00  0.00    -0.312 N 
HETATM    8  C8  UNL     1      12.964   5.238   1.196  1.00  0.00     0.160 C 
HETATM    9  C7  UNL     1      13.442   6.654   1.264  1.00  0.00     0.254 C 
HETATM   10  N1  UNL     1      14.699   6.850   1.883  1.00  0.00    -0.056 N 
HETATM   11  C4  UNL     1      14.778   6.272   3.246  1.00  0.00     0.205 C 
ATOM     12  H12 UNL     1      14.948   7.839   1.893  1.00  0.00     0.278 HD
ATOM     13  H11 UNL     1      15.452   6.493   1.294  1.00  0.00     0.278 HD
HETATM   14  C22 UNL     1      14.682   4.804   3.000  1.00  0.00     0.261 C 
HETATM   15  O2  UNL     1      15.399   3.940   3.549  1.00  0.00    -0.270 OA
BRANCH  11  16
HETATM   16  C3  UNL     1      13.621   6.816   3.980  1.00  0.00     0.049 C 
BRANCH  16  17
HETATM   17  C2  UNL     1      12.967   5.997   5.019  1.00  0.00    -0.002 C 
HETATM   18  C1  UNL     1      13.724   6.124   6.360  1.00  0.00     0.005 C 
ENDBRANCH  16  17
ENDBRANCH  11  16
BRANCH  11  19
HETATM   19  C5  UNL     1      16.133   6.691   3.694  1.00  0.00     0.044 C 
HETATM   20  C6  UNL     1      16.335   8.062   4.179  1.00  0.00     0.008 C 
ENDBRANCH  11  19
ENDBRANCH   1   7
BRANCH   6  21
HETATM   21  O1  UNL     1      11.825   3.127   3.720  1.00  0.00    -0.353 OA
HETATM   22  C21 UNL     1      10.555   3.719   3.528  1.00  0.00     0.210 C 
ENDBRANCH   6  21
BRANCH   3  23
HETATM   23  C12 UNL     1      14.468   0.136  -0.241  1.00  0.00     0.146 A 
HETATM   24  N3  UNL     1      15.779   0.276  -0.595  1.00  0.00    -0.270 N 
HETATM   25  N4  UNL     1      16.042  -0.593  -1.575  1.00  0.00    -0.131 N 
ATOM     26  H3  UNL     1      16.443   0.931  -0.181  1.00  0.00     0.189 HD
HETATM   27  C13 UNL     1      14.885  -1.267  -1.820  1.00  0.00     0.692 A 
ATOM     28  H4  UNL     1      16.936  -0.725  -2.048  1.00  0.00     0.205 HD
HETATM   29  N6  UNL     1      13.941  -0.807  -0.997  1.00  0.00    -0.174 N 
ATOM     30  H6  UNL     1      12.974  -1.131  -0.959  1.00  0.00     0.186 HD
BRANCH  27  31
HETATM   31  N5  UNL     1      14.801  -2.187  -2.722  1.00  0.00    -0.233 N 
ATOM     32  H52 UNL     1      13.983  -2.506  -3.241  1.00  0.00     0.174 HD
ATOM     33  H51 UNL     1      15.612  -2.725  -3.029  1.00  0.00     0.174 HD
ENDBRANCH  27  31
ENDBRANCH   3  23
BRANCH   5  34
HETATM   34  C16 UNL     1      11.220   0.402   3.493  1.00  0.00     0.021 C 
HETATM   35  C17 UNL     1      11.529  -1.003   3.908  1.00  0.00     0.009 C 
HETATM   36  C18 UNL     1      10.077  -1.394   3.661  1.00  0.00     0.001 C 
HETATM   37  C19 UNL     1       9.948  -0.124   2.848  1.00  0.00     0.009 C 
ENDBRANCH   5  34
TORSDOF 8
ENDMDL
MODEL 3
REMARK VINA RESULT: -5.976463882      2.881      4.478
REMARK  8 active torsions:
REMARK  status: ('A' for Active; 'I' for Inactive)
REMARK    1  A    between atoms: C2_2  and  C3_3 
REMARK    2  A    between atoms: C3_3  and  C4_4 
REMARK    3  A    between atoms: C4_4  and  C5_5 
REMARK    4  A    between atoms: N2_12  and  C9_13 
REMARK    5  A    between atoms: C11_15  and  C12_16 
REMARK    6  A    between atoms: C13_21  and  N5_22 
REMARK    7  A    between atoms: C15_28  and  C16_29 
REMARK    8  A    between atoms: C20_33  and  O1_34 
ROOT
HETATM    1  C9  UNL     1      10.772   4.214   1.396  1.00  0.00     0.072 A 
HETATM    2  C10 UNL     1      10.326   3.693   0.215  1.00  0.00     0.048 A 
HETATM    3  C11 UNL     1       9.076   4.011  -0.269  1.00  0.00     0.013 A 
HETATM    4  C14 UNL     1       8.298   4.887   0.505  1.00  0.00     0.025 A 
HETATM    5  C15 UNL     1       8.752   5.405   1.685  1.00  0.00    -0.017 A 
HETATM    6  C20 UNL     1      10.006   5.065   2.139  1.00  0.00     0.101 A 
ENDROOT
BRANCH   1   7
HETATM    7  N2  UNL     1      12.086   3.811   1.831  1.00  0.00    -0.312 N 
HETATM    8  C8  UNL     1      12.108   2.657   2.707  1.00  0.00     0.160 C 
HETATM    9  C7  UNL     1      13.474   2.372   3.249  1.00  0.00     0.254 C 
HETATM   10  N1  UNL     1      14.421   3.413   3.110  1.00  0.00    -0.056 N 
HETATM   11  C4  UNL     1      14.571   3.887   1.713  1.00  0.00     0.205 C 
ATOM     12  H12 UNL     1      15.323   3.137   3.499  1.00  0.00     0.278 HD
ATOM     13  H11 UNL     1      14.199   4.190   3.734  1.00  0.00     0.278 HD
HETATM   14  C22 UNL     1      13.248   4.512   1.421  1.00  0.00     0.261 C 
HETATM   15  O2  UNL     1      13.089   5.609   0.842  1.00  0.00    -0.270 OA
BRANCH  11  16
HETATM   16  C3  UNL     1      14.835   2.681   0.907  1.00  0.00     0.049 C 
BRANCH  16  17
HETATM   17  C2  UNL     1      16.191   2.100   0.887  1.00  0.00    -0.002 C 
HETATM   18  C1  UNL     1      16.267   0.948  -0.141  1.00  0.00     0.005 C 
ENDBRANCH  16  17
ENDBRANCH  11  16
BRANCH  11  19
HETATM   19  C5  UNL     1      15.666   4.887   1.830  1.00  0.00     0.044 C 
HETATM   20  C6  UNL     1      15.687   5.795   2.983  1.00  0.00     0.008 C 
ENDBRANCH  11  19
ENDBRANCH   1   7
BRANCH   6  21
HETATM   21  O1  UNL     1      10.520   5.560   3.326  1.00  0.00    -0.353 OA
HETATM   22  C21 UNL     1      10.229   5.002   4.593  1.00  0.00     0.210 C 
ENDBRANCH   6  21
BRANCH   3  23
HETATM   23  C12 UNL     1       8.566   3.496  -1.526  1.00  0.00     0.146 A 
HETATM   24  N3  UNL     1       7.688   4.158  -2.336  1.00  0.00    -0.270 N 
HETATM   25  N4  UNL     1       7.432   3.383  -3.394  1.00  0.00    -0.131 N 
ATOM     26  H3  UNL     1       7.295   5.083  -2.163  1.00  0.00     0.189 HD
HETATM   27  C13 UNL     1       8.160   2.244  -3.229  1.00  0.00     0.692 A 
ATOM     28  H4  UNL     1       6.813   3.603  -4.175  1.00  0.00     0.205 HD
HETATM   29  N6  UNL     1       8.841   2.335  -2.086  1.00  0.00    -0.174 N 
ATOM     30  H6  UNL     1       9.469   1.625  -1.708  1.00  0.00     0.186 HD
BRANCH  27  31
HETATM   31  N5  UNL     1       8.134   1.280  -4.087  1.00  0.00    -0.233 N 
ATOM     32  H52 UNL     1       8.471   1.267  -5.050  1.00  0.00     0.174 HD
ATOM     33  H51 UNL     1       7.745   0.363  -3.866  1.00  0.00     0.174 HD
ENDBRANCH  27  31
ENDBRANCH   3  23
BRANCH   5  34
HETATM   34  C16 UNL     1       7.950   6.311   2.507  1.00  0.00     0.021 C 
HETATM   35  C17 UNL     1       6.468   6.146   2.379  1.00  0.00     0.009 C 
HETATM   36  C18 UNL     1       6.306   7.660   2.307  1.00  0.00     0.001 C 
HETATM   37  C19 UNL     1       7.784   7.730   1.988  1.00  0.00     0.009 C 
ENDBRANCH   5  34
TORSDOF 8
ENDMDL
MODEL 4
REMARK VINA RESULT: -5.834114467      1.277      2.210
REMARK  8 active torsions:
REMARK  status: ('A' for Active; 'I' for Inactive)
REMARK    1  A    between atoms: C2_2  and  C3_3 
REMARK    2  A    between atoms: C3_3  and  C4_4 
REMARK    3  A    between atoms: C4_4  and  C5_5 
REMARK    4  A    between atoms: N2_12  and  C9_13 
REMARK    5  A    between atoms: C11_15  and  C12_16 
REMARK    6  A    between atoms: C13_21  and  N5_22 
REMARK    7  A    between atoms: C15_28  and  C16_29 
REMARK    8  A    between atoms: C20_33  and  O1_34 
ROOT
HETATM    1  C9  UNL     1      10.759   5.119   1.684  1.00  0.00     0.072 A 
HETATM    2  C10 UNL     1       9.815   6.052   2.001  1.00  0.00     0.048 A 
HETATM    3  C11 UNL     1       8.514   5.915   1.568  1.00  0.00     0.013 A 
HETATM    4  C14 UNL     1       8.217   4.782   0.794  1.00  0.00     0.025 A 
HETATM    5  C15 UNL     1       9.167   3.852   0.482  1.00  0.00    -0.017 A 
HETATM    6  C20 UNL     1      10.457   4.020   0.932  1.00  0.00     0.101 A 
ENDROOT
BRANCH   1   7
HETATM    7  N2  UNL     1      12.096   5.354   2.168  1.00  0.00    -0.312 N 
HETATM    8  C8  UNL     1      13.077   5.622   1.134  1.00  0.00     0.160 C 
HETATM    9  C7  UNL     1      14.471   5.710   1.673  1.00  0.00     0.254 C 
HETATM   10  N1  UNL     1      14.658   5.206   2.981  1.00  0.00    -0.056 N 
HETATM   11  C4  UNL     1      13.742   5.809   3.978  1.00  0.00     0.205 C 
ATOM     12  H12 UNL     1      15.631   5.308   3.273  1.00  0.00     0.278 HD
ATOM     13  H11 UNL     1      14.585   4.188   2.991  1.00  0.00     0.278 HD
HETATM   14  C22 UNL     1      12.400   5.315   3.552  1.00  0.00     0.261 C 
HETATM   15  O2  UNL     1      11.525   4.869   4.325  1.00  0.00    -0.270 OA
BRANCH  11  16
HETATM   16  C3  UNL     1      13.897   7.268   3.835  1.00  0.00     0.049 C 
BRANCH  16  17
HETATM   17  C2  UNL     1      14.826   7.994   4.723  1.00  0.00    -0.002 C 
HETATM   18  C1  UNL     1      16.238   8.047   4.096  1.00  0.00     0.005 C 
ENDBRANCH  16  17
ENDBRANCH  11  16
BRANCH  11  19
HETATM   19  C5  UNL     1      14.203   5.192   5.252  1.00  0.00     0.044 C 
HETATM   20  C6  UNL     1      13.535   5.558   6.507  1.00  0.00     0.008 C 
ENDBRANCH  11  19
ENDBRANCH   1   7
BRANCH   6  21
HETATM   21  O1  UNL     1      11.462   3.110   0.649  1.00  0.00    -0.353 OA
HETATM   22  C21 UNL     1      11.823   2.053   1.517  1.00  0.00     0.210 C 
ENDBRANCH   6  21
BRANCH   3  23
HETATM   23  C12 UNL     1       7.472   6.872   1.893  1.00  0.00     0.146 A 
HETATM   24  N3  UNL     1       7.513   8.200   1.579  1.00  0.00    -0.270 N 
HETATM   25  N4  UNL     1       6.397   8.772   2.040  1.00  0.00    -0.131 N 
ATOM     26  H3  UNL     1       8.265   8.674   1.079  1.00  0.00     0.189 HD
HETATM   27  C13 UNL     1       5.671   7.787   2.638  1.00  0.00     0.692 A 
ATOM     28  H4  UNL     1       6.138   9.756   1.960  1.00  0.00     0.205 HD
HETATM   29  N6  UNL     1       6.345   6.639   2.537  1.00  0.00    -0.174 N 
ATOM     30  H6  UNL     1       6.040   5.735   2.897  1.00  0.00     0.186 HD
BRANCH  27  31
HETATM   31  N5  UNL     1       4.527   8.013   3.191  1.00  0.00    -0.233 N 
ATOM     32  H52 UNL     1       3.705   8.476   2.803  1.00  0.00     0.174 HD
ATOM     33  H51 UNL     1       4.318   7.724   4.147  1.00  0.00     0.174 HD
ENDBRANCH  27  31
ENDBRANCH   3  23
BRANCH   5  34
HETATM   34  C16 UNL     1       8.876   2.670  -0.328  1.00  0.00     0.021 C 
HETATM   35  C17 UNL     1       8.986   2.868  -1.808  1.00  0.00     0.009 C 
HETATM   36  C18 UNL     1       7.682   2.106  -2.007  1.00  0.00     0.001 C 
HETATM   37  C19 UNL     1       7.408   2.334  -0.537  1.00  0.00     0.009 C 
ENDBRANCH   5  34
TORSDOF 8
ENDMDL
MODEL 5
REMARK VINA RESULT: -5.698346682      2.960      7.048
REMARK  8 active torsions:
REMARK  status: ('A' for Active; 'I' for Inactive)
REMARK    1  A    between atoms: C2_2  and  C3_3 
REMARK    2  A    between atoms: C3_3  and  C4_4 
REMARK    3  A    between atoms: C4_4  and  C5_5 
REMARK    4  A    between atoms: N2_12  and  C9_13 
REMARK    5  A    between atoms: C11_15  and  C12_16 
REMARK    6  A    between atoms: C13_21  and  N5_22 
REMARK    7  A    between atoms: C15_28  and  C16_29 
REMARK    8  A    between atoms: C20_33  and  O1_34 
ROOT
HETATM    1  C9  UNL     1      11.716   5.011   3.250  1.00  0.00     0.072 A 
HETATM    2  C10 UNL     1      11.391   4.754   4.550  1.00  0.00     0.048 A 
HETATM    3  C11 UNL     1      12.081   5.353   5.581  1.00  0.00     0.013 A 
HETATM    4  C14 UNL     1      13.120   6.230   5.228  1.00  0.00     0.025 A 
HETATM    5  C15 UNL     1      13.438   6.482   3.923  1.00  0.00    -0.017 A 
HETATM    6  C20 UNL     1      12.728   5.866   2.918  1.00  0.00     0.101 A 
ENDROOT
BRANCH   1   7
HETATM    7  N2  UNL     1      10.950   4.325   2.238  1.00  0.00    -0.312 N 
HETATM    8  C8  UNL     1      11.512   3.061   1.805  1.00  0.00     0.160 C 
HETATM    9  C7  UNL     1      10.765   2.464   0.654  1.00  0.00     0.254 C 
HETATM   10  N1  UNL     1       9.883   3.336  -0.026  1.00  0.00    -0.056 N 
HETATM   11  C4  UNL     1       8.899   3.990   0.870  1.00  0.00     0.205 C 
ATOM     12  H12 UNL     1       9.411   2.852  -0.790  1.00  0.00     0.278 HD
ATOM     13  H11 UNL     1      10.402   4.031  -0.562  1.00  0.00     0.278 HD
HETATM   14  C22 UNL     1       9.749   4.872   1.723  1.00  0.00     0.261 C 
HETATM   15  O2  UNL     1       9.478   6.056   2.017  1.00  0.00    -0.270 OA
BRANCH  11  16
HETATM   16  C3  UNL     1       8.254   2.899   1.623  1.00  0.00     0.049 C 
BRANCH  16  17
HETATM   17  C2  UNL     1       7.684   3.172   2.956  1.00  0.00    -0.002 C 
HETATM   18  C1  UNL     1       8.418   2.343   4.035  1.00  0.00     0.005 C 
ENDBRANCH  16  17
ENDBRANCH  11  16
BRANCH  11  19
HETATM   19  C5  UNL     1       8.055   4.757  -0.086  1.00  0.00     0.044 C 
HETATM   20  C6  UNL     1       8.094   4.412  -1.512  1.00  0.00     0.008 C 
ENDBRANCH  11  19
ENDBRANCH   1   7
BRANCH   6  21
HETATM   21  O1  UNL     1      13.004   6.084   1.579  1.00  0.00    -0.353 OA
HETATM   22  C21 UNL     1      13.996   5.376   0.862  1.00  0.00     0.210 C 
ENDBRANCH   6  21
BRANCH   3  23
HETATM   23  C12 UNL     1      11.761   5.124   6.978  1.00  0.00     0.146 A 
HETATM   24  N3  UNL     1      12.421   5.694   8.028  1.00  0.00    -0.270 N 
HETATM   25  N4  UNL     1      11.866   5.251   9.160  1.00  0.00    -0.131 N 
ATOM     26  H3  UNL     1      13.204   6.346   7.961  1.00  0.00     0.189 HD
HETATM   27  C13 UNL     1      10.861   4.407   8.797  1.00  0.00     0.692 A 
ATOM     28  H4  UNL     1      12.142   5.497  10.111  1.00  0.00     0.205 HD
HETATM   29  N6  UNL     1      10.816   4.345   7.465  1.00  0.00    -0.174 N 
ATOM     30  H6  UNL     1      10.160   3.788   6.916  1.00  0.00     0.186 HD
BRANCH  27  31
HETATM   31  N5  UNL     1      10.121   3.803   9.666  1.00  0.00    -0.233 N 
ATOM     32  H52 UNL     1      10.042   3.969  10.669  1.00  0.00     0.174 HD
ATOM     33  H51 UNL     1       9.492   3.042   9.410  1.00  0.00     0.174 HD
ENDBRANCH  27  31
ENDBRANCH   3  23
BRANCH   5  34
HETATM   34  C16 UNL     1      14.522   7.386   3.539  1.00  0.00     0.021 C 
HETATM   35  C17 UNL     1      15.894   6.788   3.574  1.00  0.00     0.009 C 
HETATM   36  C18 UNL     1      16.422   8.042   4.259  1.00  0.00     0.001 C 
HETATM   37  C19 UNL     1      14.985   8.378   4.593  1.00  0.00     0.009 C 
ENDBRANCH   5  34
TORSDOF 8
ENDMDL
