MODEL 1
REMARK VINA RESULT: -5.102382821      0.000      0.000
REMARK  1 active torsions:
REMARK  status: ('A' for Active; 'I' for Inactive)
REMARK    1  A    between atoms: N1_1  and  C1_5 
ROOT
HETATM    1  C1  UNL     1      14.916   9.666  -2.259  1.00  0.00     0.127 C 
HETATM    2  C2  UNL     1      15.685   9.720  -3.539  1.00  0.00     0.039 C 
HETATM    3  C3  UNL     1      14.915  10.101  -4.744  1.00  0.00     0.002 C 
HETATM    4  C4  UNL     1      13.472   9.813  -4.769  1.00  0.00     0.001 C 
HETATM    5  C5  UNL     1      12.865   9.439  -3.433  1.00  0.00     0.007 C 
HETATM    6  C6  UNL     1      13.544  10.333  -2.463  1.00  0.00     0.021 C 
HETATM    7  C7  UNL     1      13.024  10.388  -1.097  1.00  0.00     0.007 C 
HETATM    8  C8  UNL     1      14.252  10.642  -0.241  1.00  0.00     0.003 C 
HETATM    9  C9  UNL     1      15.450  10.534  -1.167  1.00  0.00     0.039 C 
ENDROOT
BRANCH   1  10
HETATM   10  N1  UNL     1      14.765   8.314  -1.759  1.00  0.00    -0.070 N 
ATOM     11  H13 UNL     1      13.988   7.838  -2.217  1.00  0.00     0.275 HD
ATOM     12  H12 UNL     1      15.530   7.718  -2.075  1.00  0.00     0.275 HD
ATOM     13  H11 UNL     1      14.670   8.281  -0.744  1.00  0.00     0.275 HD
ENDBRANCH   1  10
TORSDOF 1
ENDMDL
MODEL 2
REMARK VINA RESULT: -4.968689828      2.357      4.358
REMARK  1 active torsions:
REMARK  status: ('A' for Active; 'I' for Inactive)
REMARK    1  A    between atoms: N1_1  and  C1_5 
ROOT
HETATM    1  C1  UNL     1      14.635   8.905   0.245  1.00  0.00     0.127 C 
HETATM    2  C2  UNL     1      14.320   7.788   1.187  1.00  0.00     0.039 C 
HETATM    3  C3  UNL     1      13.109   7.962   2.019  1.00  0.00     0.002 C 
HETATM    4  C4  UNL     1      12.671   9.331   2.335  1.00  0.00     0.001 C 
HETATM    5  C5  UNL     1      13.327  10.424   1.515  1.00  0.00     0.007 C 
HETATM    6  C6  UNL     1      13.422   9.847   0.152  1.00  0.00     0.021 C 
HETATM    7  C7  UNL     1      13.807  10.735  -0.945  1.00  0.00     0.007 C 
HETATM    8  C8  UNL     1      14.575   9.837  -1.898  1.00  0.00     0.003 C 
HETATM    9  C9  UNL     1      14.744   8.505  -1.190  1.00  0.00     0.039 C 
ENDROOT
BRANCH   1  10
HETATM   10  N1  UNL     1      15.829   9.632   0.627  1.00  0.00    -0.070 N 
ATOM     11  H13 UNL     1      15.598  10.570   0.955  1.00  0.00     0.275 HD
ATOM     12  H12 UNL     1      16.231   9.254   1.484  1.00  0.00     0.275 HD
ATOM     13  H11 UNL     1      16.522   9.665  -0.122  1.00  0.00     0.275 HD
ENDBRANCH   1  10
TORSDOF 1
ENDMDL
MODEL 3
REMARK VINA RESULT: -4.967261809      0.900      3.532
REMARK  1 active torsions:
REMARK  status: ('A' for Active; 'I' for Inactive)
REMARK    1  A    between atoms: N1_1  and  C1_5 
ROOT
HETATM    1  C1  UNL     1      13.665   9.605  -3.236  1.00  0.00     0.127 C 
HETATM    2  C2  UNL     1      12.685  10.077  -2.211  1.00  0.00     0.039 C 
HETATM    3  C3  UNL     1      13.229  10.947  -1.145  1.00  0.00     0.002 C 
HETATM    4  C4  UNL     1      14.650  10.809  -0.789  1.00  0.00     0.001 C 
HETATM    5  C5  UNL     1      15.485  10.007  -1.767  1.00  0.00     0.007 C 
HETATM    6  C6  UNL     1      14.970  10.408  -3.098  1.00  0.00     0.021 C 
HETATM    7  C7  UNL     1      15.717   9.984  -4.282  1.00  0.00     0.007 C 
HETATM    8  C8  UNL     1      14.652   9.794  -5.347  1.00  0.00     0.003 C 
HETATM    9  C9  UNL     1      13.314   9.948  -4.646  1.00  0.00     0.039 C 
ENDROOT
BRANCH   1  10
HETATM   10  N1  UNL     1      13.921   8.181  -3.144  1.00  0.00    -0.070 N 
ATOM     11  H13 UNL     1      14.329   7.939  -2.241  1.00  0.00     0.275 HD
ATOM     12  H12 UNL     1      13.050   7.655  -3.075  1.00  0.00     0.275 HD
ATOM     13  H11 UNL     1      14.499   7.838  -3.912  1.00  0.00     0.275 HD
ENDBRANCH   1  10
TORSDOF 1
ENDMDL
MODEL 4
REMARK VINA RESULT: -4.790229537      1.367      2.353
REMARK  1 active torsions:
REMARK  status: ('A' for Active; 'I' for Inactive)
REMARK    1  A    between atoms: N1_1  and  C1_5 
ROOT
HETATM    1  C1  UNL     1      13.659  10.174  -1.665  1.00  0.00     0.127 C 
HETATM    2  C2  UNL     1      12.606   9.924  -2.696  1.00  0.00     0.039 C 
HETATM    3  C3  UNL     1      13.062   9.279  -3.947  1.00  0.00     0.002 C 
HETATM    4  C4  UNL     1      14.460   9.473  -4.362  1.00  0.00     0.001 C 
HETATM    5  C5  UNL     1      15.373  10.056  -3.303  1.00  0.00     0.007 C 
HETATM    6  C6  UNL     1      14.934   9.403  -2.046  1.00  0.00     0.021 C 
HETATM    7  C7  UNL     1      15.765   9.576  -0.855  1.00  0.00     0.007 C 
HETATM    8  C8  UNL     1      14.774   9.560   0.296  1.00  0.00     0.003 C 
HETATM    9  C9  UNL     1      13.390   9.560  -0.331  1.00  0.00     0.039 C 
ENDROOT
BRANCH   1  10
HETATM   10  N1  UNL     1      13.940  11.585  -1.491  1.00  0.00    -0.070 N 
ATOM     11  H13 UNL     1      13.385  11.979  -0.731  1.00  0.00     0.275 HD
ATOM     12  H12 UNL     1      14.872  11.730  -1.104  1.00  0.00     0.275 HD
ATOM     13  H11 UNL     1      13.813  12.118  -2.353  1.00  0.00     0.275 HD
ENDBRANCH   1  10
TORSDOF 1
ENDMDL
MODEL 5
REMARK VINA RESULT: -4.772230909      2.034      3.140
REMARK  1 active torsions:
REMARK  status: ('A' for Active; 'I' for Inactive)
REMARK    1  A    between atoms: N1_1  and  C1_5 
ROOT
HETATM    1  C1  UNL     1      14.145  10.206   0.260  1.00  0.00     0.127 C 
HETATM    2  C2  UNL     1      13.688  11.037  -0.895  1.00  0.00     0.039 C 
HETATM    3  C3  UNL     1      13.533  10.328  -2.185  1.00  0.00     0.002 C 
HETATM    4  C4  UNL     1      14.353   9.131  -2.425  1.00  0.00     0.001 C 
HETATM    5  C5  UNL     1      15.046   8.567  -1.202  1.00  0.00     0.007 C 
HETATM    6  C6  UNL     1      14.046   8.717  -0.117  1.00  0.00     0.021 C 
HETATM    7  C7  UNL     1      14.314   8.059   1.162  1.00  0.00     0.007 C 
HETATM    8  C8  UNL     1      13.680   8.976   2.192  1.00  0.00     0.003 C 
HETATM    9  C9  UNL     1      13.235  10.220   1.444  1.00  0.00     0.039 C 
ENDROOT
BRANCH   1  10
HETATM   10  N1  UNL     1      15.488  10.544   0.689  1.00  0.00    -0.070 N 
ATOM     11  H13 UNL     1      16.056  10.859  -0.098  1.00  0.00     0.275 HD
ATOM     12  H12 UNL     1      15.491  11.398   1.245  1.00  0.00     0.275 HD
ATOM     13  H11 UNL     1      15.942   9.778   1.188  1.00  0.00     0.275 HD
ENDBRANCH   1  10
TORSDOF 1
ENDMDL
