MODEL 1
REMARK VINA RESULT: -5.474528460      0.000      0.000
REMARK  1 active torsions:
REMARK  status: ('A' for Active; 'I' for Inactive)
REMARK    1  A    between atoms: C1_2  and  C2_4 
ROOT
HETATM    1  C2  UNL     1      13.686   9.867  -3.371  1.00  0.00     0.087 C 
HETATM    2  C3  UNL     1      15.000   9.325  -2.912  1.00  0.00     0.015 C 
HETATM    3  C4  UNL     1      15.700  10.144  -1.896  1.00  0.00     0.001 C 
HETATM    4  C5  UNL     1      15.429   9.683  -0.470  1.00  0.00     0.000 C 
HETATM    5  C6  UNL     1      13.939   9.571  -0.251  1.00  0.00     0.000 C 
HETATM    6  C7  UNL     1      13.191  10.634  -1.021  1.00  0.00     0.001 C 
HETATM    7  C8  UNL     1      12.685  10.152  -2.338  1.00  0.00     0.015 C 
ENDROOT
BRANCH   1   8
HETATM    8  C1  UNL     1      13.103   8.861  -4.320  1.00  0.00     0.177 C 
HETATM    9  O1  UNL     1      12.194   9.160  -5.138  1.00  0.00    -0.648 OA
HETATM   10  O2  UNL     1      13.542   7.541  -4.344  1.00  0.00    -0.648 OA
ENDBRANCH   1   8
TORSDOF 1
ENDMDL
MODEL 2
REMARK VINA RESULT: -5.452309767      3.454      4.529
REMARK  1 active torsions:
REMARK  status: ('A' for Active; 'I' for Inactive)
REMARK    1  A    between atoms: C1_2  and  C2_4 
ROOT
HETATM    1  C2  UNL     1      15.935  10.144  -0.239  1.00  0.00     0.087 C 
HETATM    2  C3  UNL     1      15.824  10.234  -1.726  1.00  0.00     0.015 C 
HETATM    3  C4  UNL     1      14.790   9.367  -2.336  1.00  0.00     0.001 C 
HETATM    4  C5  UNL     1      13.467  10.088  -2.562  1.00  0.00     0.000 C 
HETATM    5  C6  UNL     1      13.032  10.758  -1.280  1.00  0.00     0.000 C 
HETATM    6  C7  UNL     1      13.428   9.940  -0.074  1.00  0.00     0.001 C 
HETATM    7  C8  UNL     1      14.714  10.383   0.536  1.00  0.00     0.015 C 
ENDROOT
BRANCH   1   8
HETATM    8  C1  UNL     1      16.964  11.150   0.186  1.00  0.00     0.177 C 
HETATM    9  O1  UNL     1      16.885  11.766   1.281  1.00  0.00    -0.648 OA
HETATM   10  O2  UNL     1      18.062  11.453  -0.612  1.00  0.00    -0.648 OA
ENDBRANCH   1   8
TORSDOF 1
ENDMDL
MODEL 3
REMARK VINA RESULT: -5.441708065      0.176      1.018
REMARK  1 active torsions:
REMARK  status: ('A' for Active; 'I' for Inactive)
REMARK    1  A    between atoms: C1_2  and  C2_4 
ROOT
HETATM    1  C2  UNL     1      13.757   9.940  -3.244  1.00  0.00     0.087 C 
HETATM    2  C3  UNL     1      15.069   9.407  -2.769  1.00  0.00     0.015 C 
HETATM    3  C4  UNL     1      15.739  10.215  -1.724  1.00  0.00     0.001 C 
HETATM    4  C5  UNL     1      15.446   9.724  -0.313  1.00  0.00     0.000 C 
HETATM    5  C6  UNL     1      13.953   9.588  -0.125  1.00  0.00     0.000 C 
HETATM    6  C7  UNL     1      13.206  10.655  -0.890  1.00  0.00     0.001 C 
HETATM    7  C8  UNL     1      12.733  10.193  -2.226  1.00  0.00     0.015 C 
ENDROOT
BRANCH   1   8
HETATM    8  C1  UNL     1      13.207   8.945  -4.223  1.00  0.00     0.177 C 
HETATM    9  O1  UNL     1      13.519   7.725  -4.186  1.00  0.00    -0.648 OA
HETATM   10  O2  UNL     1      12.321   9.322  -5.226  1.00  0.00    -0.648 OA
ENDBRANCH   1   8
TORSDOF 1
ENDMDL
MODEL 4
REMARK VINA RESULT: -5.182223862      5.483      6.542
REMARK  1 active torsions:
REMARK  status: ('A' for Active; 'I' for Inactive)
REMARK    1  A    between atoms: C1_2  and  C2_4 
ROOT
HETATM    1  C2  UNL     1      18.016  10.857   1.313  1.00  0.00     0.087 C 
HETATM    2  C3  UNL     1      16.603  10.918   0.835  1.00  0.00     0.015 C 
HETATM    3  C4  UNL     1      15.663  10.003   1.522  1.00  0.00     0.001 C 
HETATM    4  C5  UNL     1      14.916  10.669   2.670  1.00  0.00     0.000 C 
HETATM    5  C6  UNL     1      15.905  11.343   3.592  1.00  0.00     0.000 C 
HETATM    6  C7  UNL     1      17.194  10.561   3.678  1.00  0.00     0.001 C 
HETATM    7  C8  UNL     1      18.244  11.063   2.747  1.00  0.00     0.015 C 
ENDROOT
BRANCH   1   8
HETATM    8  C1  UNL     1      18.780  11.908   0.563  1.00  0.00     0.177 C 
HETATM    9  O1  UNL     1      18.287  13.038   0.304  1.00  0.00    -0.648 OA
HETATM   10  O2  UNL     1      20.077  11.686   0.112  1.00  0.00    -0.648 OA
ENDBRANCH   1   8
TORSDOF 1
ENDMDL
MODEL 5
REMARK VINA RESULT: -5.153912141      2.510      4.089
REMARK  1 active torsions:
REMARK  status: ('A' for Active; 'I' for Inactive)
REMARK    1  A    between atoms: C1_2  and  C2_4 
ROOT
HETATM    1  C2  UNL     1      13.699  10.519  -2.230  1.00  0.00     0.087 C 
HETATM    2  C3  UNL     1      12.418   9.794  -2.484  1.00  0.00     0.015 C 
HETATM    3  C4  UNL     1      11.985   9.754  -3.900  1.00  0.00     0.001 C 
HETATM    4  C5  UNL     1      12.419   8.483  -4.619  1.00  0.00     0.000 C 
HETATM    5  C6  UNL     1      13.901   8.272  -4.421  1.00  0.00     0.000 C 
HETATM    6  C7  UNL     1      14.640   9.589  -4.376  1.00  0.00     0.001 C 
HETATM    7  C8  UNL     1      14.874  10.080  -2.988  1.00  0.00     0.015 C 
ENDROOT
BRANCH   1   8
HETATM    8  C1  UNL     1      14.004  10.372  -0.768  1.00  0.00     0.177 C 
HETATM    9  O1  UNL     1      14.900  11.050  -0.200  1.00  0.00    -0.648 OA
HETATM   10  O2  UNL     1      13.309   9.475   0.036  1.00  0.00    -0.648 OA
ENDBRANCH   1   8
TORSDOF 1
ENDMDL
