MODEL 1
REMARK VINA RESULT: -5.085779011      0.000      0.000
REMARK  2 active torsions:
REMARK  status: ('A' for Active; 'I' for Inactive)
REMARK    1  A    between atoms: N1_1  and  C1_5 
REMARK    2  A    between atoms: C1_5  and  C2_6 
ROOT
HETATM    1  C2  UNL     1      13.222   9.694  -3.518  1.00  0.00    -0.016 C 
HETATM    2  C3  UNL     1      12.550   9.963  -2.244  1.00  0.00     0.011 C 
HETATM    3  C4  UNL     1      13.168  10.953  -1.333  1.00  0.00     0.001 C 
HETATM    4  C5  UNL     1      14.613  10.875  -1.106  1.00  0.00     0.000 C 
HETATM    5  C6  UNL     1      15.298   9.624  -1.558  1.00  0.00     0.005 C 
HETATM    6  C7  UNL     1      15.223   9.353  -3.010  1.00  0.00    -0.013 C 
HETATM    7  C8  UNL     1      14.489  10.425  -3.775  1.00  0.00     0.015 C 
HETATM    8  C9  UNL     1      14.056   8.414  -3.345  1.00  0.00     0.015 C 
ENDROOT
BRANCH   1   9
HETATM    9  C1  UNL     1      12.344   9.666  -4.745  1.00  0.00     0.239 C 
BRANCH   9  10
HETATM   10  N1  UNL     1      11.322   8.656  -4.684  1.00  0.00    -0.079 N 
ATOM     11  H13 UNL     1      11.143   8.377  -3.719  1.00  0.00     0.274 HD
ATOM     12  H12 UNL     1      10.409   9.048  -4.917  1.00  0.00     0.274 HD
ATOM     13  H11 UNL     1      11.528   7.843  -5.265  1.00  0.00     0.274 HD
ENDBRANCH   9  10
ENDBRANCH   1   9
TORSDOF 2
ENDMDL
MODEL 2
REMARK VINA RESULT: -5.018114697      2.323      3.450
REMARK  2 active torsions:
REMARK  status: ('A' for Active; 'I' for Inactive)
REMARK    1  A    between atoms: N1_1  and  C1_5 
REMARK    2  A    between atoms: C1_5  and  C2_6 
ROOT
HETATM    1  C2  UNL     1      14.037   9.709  -0.954  1.00  0.00    -0.016 C 
HETATM    2  C3  UNL     1      12.941  10.297  -1.730  1.00  0.00     0.011 C 
HETATM    3  C4  UNL     1      12.700   9.770  -3.092  1.00  0.00     0.001 C 
HETATM    4  C5  UNL     1      13.856   9.571  -3.970  1.00  0.00     0.000 C 
HETATM    5  C6  UNL     1      15.143  10.202  -3.541  1.00  0.00     0.005 C 
HETATM    6  C7  UNL     1      15.681   9.722  -2.249  1.00  0.00    -0.013 C 
HETATM    7  C8  UNL     1      14.834   8.646  -1.618  1.00  0.00     0.015 C 
HETATM    8  C9  UNL     1      15.256  10.636  -1.092  1.00  0.00     0.015 C 
ENDROOT
BRANCH   1   9
HETATM    9  C1  UNL     1      13.727   9.350   0.478  1.00  0.00     0.239 C 
BRANCH   9  10
HETATM   10  N1  UNL     1      14.506   8.241   0.962  1.00  0.00    -0.079 N 
ATOM     11  H13 UNL     1      13.938   7.396   1.022  1.00  0.00     0.274 HD
ATOM     12  H12 UNL     1      15.182   7.939   0.261  1.00  0.00     0.274 HD
ATOM     13  H11 UNL     1      14.967   8.434   1.852  1.00  0.00     0.274 HD
ENDBRANCH   9  10
ENDBRANCH   1   9
TORSDOF 2
ENDMDL
MODEL 3
REMARK VINA RESULT: -4.823212938      1.250      2.425
REMARK  2 active torsions:
REMARK  status: ('A' for Active; 'I' for Inactive)
REMARK    1  A    between atoms: N1_1  and  C1_5 
REMARK    2  A    between atoms: C1_5  and  C2_6 
ROOT
HETATM    1  C2  UNL     1      12.915   9.366  -4.089  1.00  0.00    -0.016 C 
HETATM    2  C3  UNL     1      13.541  10.305  -5.024  1.00  0.00     0.011 C 
HETATM    3  C4  UNL     1      14.957  10.077  -5.387  1.00  0.00     0.001 C 
HETATM    4  C5  UNL     1      15.904   9.768  -4.312  1.00  0.00     0.000 C 
HETATM    5  C6  UNL     1      15.436  10.012  -2.913  1.00  0.00     0.005 C 
HETATM    6  C7  UNL     1      14.261   9.219  -2.493  1.00  0.00    -0.013 C 
HETATM    7  C8  UNL     1      13.772   8.274  -3.562  1.00  0.00     0.015 C 
HETATM    8  C9  UNL     1      12.956  10.003  -2.691  1.00  0.00     0.015 C 
ENDROOT
BRANCH   1   9
HETATM    9  C1  UNL     1      11.545   8.857  -4.466  1.00  0.00     0.239 C 
BRANCH   9  10
HETATM   10  N1  UNL     1      10.748   9.839  -5.151  1.00  0.00    -0.079 N 
ATOM     11  H13 UNL     1       9.762   9.579  -5.140  1.00  0.00     0.274 HD
ATOM     12  H12 UNL     1      10.698  10.706  -4.615  1.00  0.00     0.274 HD
ATOM     13  H11 UNL     1      11.066  10.019  -6.104  1.00  0.00     0.274 HD
ENDBRANCH   9  10
ENDBRANCH   1   9
TORSDOF 2
ENDMDL
MODEL 4
REMARK VINA RESULT: -4.795450872      1.810      2.004
REMARK  2 active torsions:
REMARK  status: ('A' for Active; 'I' for Inactive)
REMARK    1  A    between atoms: N1_1  and  C1_5 
REMARK    2  A    between atoms: C1_5  and  C2_6 
ROOT
HETATM    1  C2  UNL     1      14.240   9.734  -2.958  1.00  0.00    -0.016 C 
HETATM    2  C3  UNL     1      12.975  10.217  -2.397  1.00  0.00     0.011 C 
HETATM    3  C4  UNL     1      13.030  10.985  -1.133  1.00  0.00     0.001 C 
HETATM    4  C5  UNL     1      13.871  10.471  -0.048  1.00  0.00     0.000 C 
HETATM    5  C6  UNL     1      14.358   9.063  -0.184  1.00  0.00     0.005 C 
HETATM    6  C7  UNL     1      15.219   8.804  -1.359  1.00  0.00    -0.013 C 
HETATM    7  C8  UNL     1      15.474  10.037  -2.190  1.00  0.00     0.015 C 
HETATM    8  C9  UNL     1      14.404   8.263  -2.542  1.00  0.00     0.015 C 
ENDROOT
BRANCH   1   9
HETATM    9  C1  UNL     1      14.445   9.956  -4.437  1.00  0.00     0.239 C 
BRANCH   9  10
HETATM   10  N1  UNL     1      15.815   9.792  -4.846  1.00  0.00    -0.079 N 
ATOM     11  H13 UNL     1      16.009  10.329  -5.691  1.00  0.00     0.274 HD
ATOM     12  H12 UNL     1      16.447  10.263  -4.199  1.00  0.00     0.274 HD
ATOM     13  H11 UNL     1      16.081   8.814  -4.967  1.00  0.00     0.274 HD
ENDBRANCH   9  10
ENDBRANCH   1   9
TORSDOF 2
ENDMDL
MODEL 5
REMARK VINA RESULT: -4.701821631      2.600      4.075
REMARK  2 active torsions:
REMARK  status: ('A' for Active; 'I' for Inactive)
REMARK    1  A    between atoms: N1_1  and  C1_5 
REMARK    2  A    between atoms: C1_5  and  C2_6 
ROOT
HETATM    1  C2  UNL     1      14.891  10.288  -0.876  1.00  0.00    -0.016 C 
HETATM    2  C3  UNL     1      15.587   9.490  -1.888  1.00  0.00     0.011 C 
HETATM    3  C4  UNL     1      15.410   9.870  -3.308  1.00  0.00     0.001 C 
HETATM    4  C5  UNL     1      14.055  10.167  -3.780  1.00  0.00     0.000 C 
HETATM    5  C6  UNL     1      12.927   9.765  -2.883  1.00  0.00     0.005 C 
HETATM    6  C7  UNL     1      12.915  10.414  -1.554  1.00  0.00    -0.013 C 
HETATM    7  C8  UNL     1      14.040  11.402  -1.367  1.00  0.00     0.015 C 
HETATM    8  C9  UNL     1      13.602   9.540  -0.497  1.00  0.00     0.015 C 
ENDROOT
BRANCH   1   9
HETATM    9  C1  UNL     1      15.705  10.707   0.324  1.00  0.00     0.239 C 
BRANCH   9  10
HETATM   10  N1  UNL     1      16.049   9.606   1.184  1.00  0.00    -0.079 N 
ATOM     11  H13 UNL     1      16.944   9.770   1.645  1.00  0.00     0.274 HD
ATOM     12  H12 UNL     1      15.441   9.579   2.002  1.00  0.00     0.274 HD
ATOM     13  H11 UNL     1      16.049   8.707   0.701  1.00  0.00     0.274 HD
ENDBRANCH   9  10
ENDBRANCH   1   9
TORSDOF 2
ENDMDL
