MODEL 1
REMARK VINA RESULT: -4.266644020      0.000      0.000
REMARK  1 active torsions:
REMARK  status: ('A' for Active; 'I' for Inactive)
REMARK    1  A    between atoms: C1_2  and  C2_3 
ROOT
HETATM    1  C2  UNL     1      15.539   9.589   6.978  1.00  0.00     0.014 C 
HETATM    2  C3  UNL     1      14.118  10.163   6.852  1.00  0.00     0.001 C 
HETATM    3  C4  UNL     1      13.312   8.915   6.696  1.00  0.00     0.007 C 
HETATM    4  C5  UNL     1      14.138   7.750   7.233  1.00  0.00     0.016 C 
HETATM    5  C6  UNL     1      15.276   8.457   7.916  1.00  0.00     0.052 C 
HETATM    6  S2  UNL     1      14.515   9.412   9.293  1.00  0.00    -0.163 SA
HETATM    7  C7  UNL     1      13.855  10.771   8.236  1.00  0.00     0.079 C 
ENDROOT
BRANCH   1   8
HETATM    8  C1  UNL     1      16.037   9.155   5.633  1.00  0.00     0.092 C 
HETATM    9  S1  UNL     1      15.927  10.569   4.495  1.00  0.00    -0.097 SA
ENDBRANCH   1   8
TORSDOF 1
ENDMDL
MODEL 2
REMARK VINA RESULT: -4.242115776      1.161      3.286
REMARK  1 active torsions:
REMARK  status: ('A' for Active; 'I' for Inactive)
REMARK    1  A    between atoms: C1_2  and  C2_3 
ROOT
HETATM    1  C2  UNL     1      15.094   9.859   8.047  1.00  0.00     0.014 C 
HETATM    2  C3  UNL     1      15.514   8.546   7.366  1.00  0.00     0.001 C 
HETATM    3  C4  UNL     1      14.185   7.923   7.089  1.00  0.00     0.007 C 
HETATM    4  C5  UNL     1      13.132   9.026   7.116  1.00  0.00     0.016 C 
HETATM    5  C6  UNL     1      13.977  10.270   7.145  1.00  0.00     0.052 C 
HETATM    6  S2  UNL     1      14.900  10.282   5.552  1.00  0.00    -0.163 SA
HETATM    7  C7  UNL     1      16.144   9.014   6.048  1.00  0.00     0.079 C 
ENDROOT
BRANCH   1   8
HETATM    8  C1  UNL     1      14.662   9.589   9.457  1.00  0.00     0.092 C 
HETATM    9  S1  UNL     1      13.973  11.123  10.151  1.00  0.00    -0.097 SA
ENDBRANCH   1   8
TORSDOF 1
ENDMDL
MODEL 3
REMARK VINA RESULT: -4.241532299      1.580      2.042
REMARK  1 active torsions:
REMARK  status: ('A' for Active; 'I' for Inactive)
REMARK    1  A    between atoms: C1_2  and  C2_3 
ROOT
HETATM    1  C2  UNL     1      14.262  10.586   7.901  1.00  0.00     0.014 C 
HETATM    2  C3  UNL     1      13.019  10.644   8.805  1.00  0.00     0.001 C 
HETATM    3  C4  UNL     1      12.956   9.239   9.307  1.00  0.00     0.007 C 
HETATM    4  C5  UNL     1      14.338   8.615   9.133  1.00  0.00     0.016 C 
HETATM    5  C6  UNL     1      15.183   9.807   8.781  1.00  0.00     0.052 C 
HETATM    6  S2  UNL     1      15.139  10.902  10.261  1.00  0.00    -0.163 SA
HETATM    7  C7  UNL     1      13.452  11.575   9.945  1.00  0.00     0.079 C 
ENDROOT
BRANCH   1   8
HETATM    8  C1  UNL     1      13.927   9.892   6.615  1.00  0.00     0.092 C 
HETATM    9  S1  UNL     1      14.983  10.573   5.301  1.00  0.00    -0.097 SA
ENDBRANCH   1   8
TORSDOF 1
ENDMDL
MODEL 4
REMARK VINA RESULT: -4.225359908      4.773      5.692
REMARK  1 active torsions:
REMARK  status: ('A' for Active; 'I' for Inactive)
REMARK    1  A    between atoms: C1_2  and  C2_3 
ROOT
HETATM    1  C2  UNL     1      14.168   9.951   1.013  1.00  0.00     0.014 C 
HETATM    2  C3  UNL     1      13.152  10.470   2.043  1.00  0.00     0.001 C 
HETATM    3  C4  UNL     1      12.417   9.216   2.385  1.00  0.00     0.007 C 
HETATM    4  C5  UNL     1      13.298   8.032   1.997  1.00  0.00     0.016 C 
HETATM    5  C6  UNL     1      14.611   8.700   1.697  1.00  0.00     0.052 C 
HETATM    6  S2  UNL     1      15.169   9.438   3.288  1.00  0.00    -0.163 SA
HETATM    7  C7  UNL     1      14.030  10.887   3.230  1.00  0.00     0.079 C 
ENDROOT
BRANCH   1   8
HETATM    8  C1  UNL     1      13.488   9.711  -0.301  1.00  0.00     0.092 C 
HETATM    9  S1  UNL     1      13.884  11.093  -1.414  1.00  0.00    -0.097 SA
ENDBRANCH   1   8
TORSDOF 1
ENDMDL
MODEL 5
REMARK VINA RESULT: -4.219201289      1.015      1.459
REMARK  1 active torsions:
REMARK  status: ('A' for Active; 'I' for Inactive)
REMARK    1  A    between atoms: C1_2  and  C2_3 
ROOT
HETATM    1  C2  UNL     1      14.135   9.877   6.924  1.00  0.00     0.014 C 
HETATM    2  C3  UNL     1      13.193   8.899   7.646  1.00  0.00     0.001 C 
HETATM    3  C4  UNL     1      14.035   7.667   7.699  1.00  0.00     0.007 C 
HETATM    4  C5  UNL     1      15.492   8.085   7.521  1.00  0.00     0.016 C 
HETATM    5  C6  UNL     1      15.410   9.581   7.643  1.00  0.00     0.052 C 
HETATM    6  S2  UNL     1      14.839   9.910   9.362  1.00  0.00    -0.163 SA
HETATM    7  C7  UNL     1      13.069   9.496   9.053  1.00  0.00     0.079 C 
ENDROOT
BRANCH   1   8
HETATM    8  C1  UNL     1      14.180   9.558   5.460  1.00  0.00     0.092 C 
HETATM    9  S1  UNL     1      15.181  10.827   4.627  1.00  0.00    -0.097 SA
ENDBRANCH   1   8
TORSDOF 1
ENDMDL
