MODEL 1
REMARK VINA RESULT: -5.905811745      0.000      0.000
REMARK  1 active torsions:
REMARK  status: ('A' for Active; 'I' for Inactive)
REMARK    1  A    between atoms: C4_4  and  N1_5 
ROOT
HETATM    1  C1  UNL     1      14.056  10.128  -3.341  1.00  0.00     0.000 C 
HETATM    2  C2  UNL     1      13.188  10.082  -2.124  1.00  0.00     0.002 C 
HETATM    3  C3  UNL     1      13.792  10.859  -1.001  1.00  0.00     0.021 C 
HETATM    4  C4  UNL     1      15.120  10.285  -0.609  1.00  0.00     0.076 C 
HETATM    5  C9  UNL     1      15.998   9.902  -1.734  1.00  0.00     0.021 C 
HETATM    6  C10 UNL     1      15.508  10.066  -3.103  1.00  0.00     0.002 C 
ENDROOT
BRANCH   4   7
HETATM    7  N1  UNL     1      15.741  11.272   0.295  1.00  0.00    -0.230 NA
HETATM    8  C5  UNL     1      17.145  11.377   0.039  1.00  0.00     0.110 C 
HETATM    9  C6  UNL     1      17.911  11.900   1.243  1.00  0.00     0.017 C 
HETATM   10  C7  UNL     1      17.585  11.179   2.509  1.00  0.00     0.019 C 
HETATM   11  C8  UNL     1      16.494  10.163   2.188  1.00  0.00     0.129 C 
HETATM   12  N2  UNL     1      15.408  10.923   1.586  1.00  0.00    -0.165 NA
ENDBRANCH   4   7
TORSDOF 1
ENDMDL
MODEL 2
REMARK VINA RESULT: -5.759114739      2.024      2.530
REMARK  1 active torsions:
REMARK  status: ('A' for Active; 'I' for Inactive)
REMARK    1  A    between atoms: C4_4  and  N1_5 
ROOT
HETATM    1  C1  UNL     1      15.000  10.197  -3.618  1.00  0.00     0.000 C 
HETATM    2  C2  UNL     1      13.610   9.700  -3.380  1.00  0.00     0.002 C 
HETATM    3  C3  UNL     1      13.154  10.011  -1.993  1.00  0.00     0.021 C 
HETATM    4  C4  UNL     1      14.033   9.339  -0.981  1.00  0.00     0.076 C 
HETATM    5  C9  UNL     1      15.482   9.404  -1.263  1.00  0.00     0.021 C 
HETATM    6  C10 UNL     1      15.937  10.060  -2.490  1.00  0.00     0.002 C 
ENDROOT
BRANCH   4   7
HETATM    7  N1  UNL     1      13.674   9.927   0.324  1.00  0.00    -0.230 NA
HETATM    8  C5  UNL     1      14.850  10.315   1.043  1.00  0.00     0.110 C 
HETATM    9  C6  UNL     1      14.612  10.379   2.542  1.00  0.00     0.017 C 
HETATM   10  C7  UNL     1      13.953   9.155   3.088  1.00  0.00     0.019 C 
HETATM   11  C8  UNL     1      13.653   8.234   1.910  1.00  0.00     0.129 C 
HETATM   12  N2  UNL     1      12.862   9.025   0.979  1.00  0.00    -0.165 NA
ENDBRANCH   4   7
TORSDOF 1
ENDMDL
MODEL 3
REMARK VINA RESULT: -5.648545753      2.147      3.207
REMARK  1 active torsions:
REMARK  status: ('A' for Active; 'I' for Inactive)
REMARK    1  A    between atoms: C4_4  and  N1_5 
ROOT
HETATM    1  C1  UNL     1      14.506   9.878  -3.401  1.00  0.00     0.000 C 
HETATM    2  C2  UNL     1      15.804  10.257  -2.763  1.00  0.00     0.002 C 
HETATM    3  C3  UNL     1      15.865   9.792  -1.346  1.00  0.00     0.021 C 
HETATM    4  C4  UNL     1      14.779  10.427  -0.529  1.00  0.00     0.076 C 
HETATM    5  C9  UNL     1      13.454  10.485  -1.181  1.00  0.00     0.021 C 
HETATM    6  C10 UNL     1      13.311   9.976  -2.545  1.00  0.00     0.002 C 
ENDROOT
BRANCH   4   7
HETATM    7  N1  UNL     1      14.757   9.702   0.755  1.00  0.00    -0.230 NA
HETATM    8  C5  UNL     1      13.906   8.554   0.672  1.00  0.00     0.110 C 
HETATM    9  C6  UNL     1      13.397   8.116   2.035  1.00  0.00     0.017 C 
HETATM   10  C7  UNL     1      12.817   9.236   2.836  1.00  0.00     0.019 C 
HETATM   11  C8  UNL     1      12.998  10.517   2.029  1.00  0.00     0.129 C 
HETATM   12  N2  UNL     1      14.422  10.607   1.740  1.00  0.00    -0.165 NA
ENDBRANCH   4   7
TORSDOF 1
ENDMDL
MODEL 4
REMARK VINA RESULT: -5.620380064      1.004      2.023
REMARK  1 active torsions:
REMARK  status: ('A' for Active; 'I' for Inactive)
REMARK    1  A    between atoms: C4_4  and  N1_5 
ROOT
HETATM    1  C1  UNL     1      14.084   9.382  -3.122  1.00  0.00     0.000 C 
HETATM    2  C2  UNL     1      15.494   9.874  -3.066  1.00  0.00     0.002 C 
HETATM    3  C3  UNL     1      15.920  10.134  -1.659  1.00  0.00     0.021 C 
HETATM    4  C4  UNL     1      15.066  11.195  -1.031  1.00  0.00     0.076 C 
HETATM    5  C9  UNL     1      13.618  11.081  -1.304  1.00  0.00     0.021 C 
HETATM    6  C10 UNL     1      13.144  10.004  -2.173  1.00  0.00     0.002 C 
ENDROOT
BRANCH   4   7
HETATM    7  N1  UNL     1      15.383  11.174   0.410  1.00  0.00    -0.230 NA
HETATM    8  C5  UNL     1      16.649  10.545   0.639  1.00  0.00     0.110 C 
HETATM    9  C6  UNL     1      16.767   9.989   2.049  1.00  0.00     0.017 C 
HETATM   10  C7  UNL     1      15.598   9.151   2.453  1.00  0.00     0.019 C 
HETATM   11  C8  UNL     1      14.593   9.185   1.307  1.00  0.00     0.129 C 
HETATM   12  N2  UNL     1      14.316  10.594   1.063  1.00  0.00    -0.165 NA
ENDBRANCH   4   7
TORSDOF 1
ENDMDL
MODEL 5
REMARK VINA RESULT: -5.443470984      4.861      7.774
REMARK  1 active torsions:
REMARK  status: ('A' for Active; 'I' for Inactive)
REMARK    1  A    between atoms: C4_4  and  N1_5 
ROOT
HETATM    1  C1  UNL     1      14.444   8.473   9.115  1.00  0.00     0.000 C 
HETATM    2  C2  UNL     1      14.485   9.968   9.128  1.00  0.00     0.002 C 
HETATM    3  C3  UNL     1      14.104  10.530   7.799  1.00  0.00     0.021 C 
HETATM    4  C4  UNL     1      15.062  10.080   6.736  1.00  0.00     0.076 C 
HETATM    5  C9  UNL     1      15.447   8.655   6.799  1.00  0.00     0.021 C 
HETATM    6  C10 UNL     1      14.918   7.824   7.881  1.00  0.00     0.002 C 
ENDROOT
BRANCH   4   7
HETATM    7  N1  UNL     1      14.447  10.454   5.448  1.00  0.00    -0.230 NA
HETATM    8  C5  UNL     1      14.211   9.292   4.646  1.00  0.00     0.110 C 
HETATM    9  C6  UNL     1      14.133   9.623   3.165  1.00  0.00     0.017 C 
HETATM   10  C7  UNL     1      15.272  10.462   2.686  1.00  0.00     0.019 C 
HETATM   11  C8  UNL     1      16.138  10.790   3.897  1.00  0.00     0.129 C 
HETATM   12  N2  UNL     1      15.248  11.413   4.866  1.00  0.00    -0.165 NA
ENDBRANCH   4   7
TORSDOF 1
ENDMDL
