MODEL 1
REMARK VINA RESULT: -6.820930672      0.000      0.000
REMARK  8 active torsions:
REMARK  status: ('A' for Active; 'I' for Inactive)
REMARK    1  A    between atoms: N1_1  and  N2_4 
REMARK    2  A    between atoms: N2_4  and  N3_5 
REMARK    3  A    between atoms: N3_5  and  N4_7 
REMARK    4  A    between atoms: N4_7  and  C1_9 
REMARK    5  A    between atoms: C2_11  and  C3_12 
REMARK    6  A    between atoms: C3_12  and  O1_13 
REMARK    7  A    between atoms: C3_12  and  O2_15 
REMARK    8  A    between atoms: C6_19  and  O3_20 
ROOT
HETATM    1  C1  UNL     1      14.132  10.122  -2.032  1.00  0.00     0.126 A 
HETATM    2  S1  UNL     1      13.230   9.641  -0.684  1.00  0.00    -0.067 SA
HETATM    3  C2  UNL     1      14.074   9.805   0.816  1.00  0.00     0.054 A 
HETATM    4  C4  UNL     1      15.331  10.292   0.679  1.00  0.00     0.052 A 
HETATM    5  C5  UNL     1      15.952  10.647  -0.493  1.00  0.00     0.091 A 
HETATM    6  C6  UNL     1      15.405  10.574  -1.760  1.00  0.00     0.118 A 
HETATM    7  C7  UNL     1      17.316  11.111  -0.177  1.00  0.00     0.303 A 
HETATM    8  O4  UNL     1      18.209  11.525  -0.962  1.00  0.00    -0.259 OA
HETATM    9  O5  UNL     1      17.509  11.030   1.180  1.00  0.00    -0.257 OA
HETATM   10  C8  UNL     1      16.331  10.538   1.733  1.00  0.00     0.158 A 
HETATM   11  N5  UNL     1      16.229  10.357   2.998  1.00  0.00    -0.379 N 
ATOM     12  H51 UNL     1      16.921  10.527   3.727  1.00  0.00     0.158 HD
ATOM     13  H52 UNL     1      15.366   9.996   3.403  1.00  0.00     0.158 HD
ENDROOT
BRANCH   1  14
HETATM   14  N4  UNL     1      13.667  10.073  -3.245  1.00  0.00    -0.265 N 
ATOM     15  H4  UNL     1      12.897  10.668  -3.549  1.00  0.00     0.190 HD
BRANCH  14  16
HETATM   16  N3  UNL     1      14.278   9.160  -4.109  1.00  0.00    -0.155 N 
ATOM     17  H3  UNL     1      14.152   8.162  -3.938  1.00  0.00     0.225 HD
BRANCH  16  18
HETATM   18  N2  UNL     1      14.967   9.517  -5.075  1.00  0.00    -0.228 NA
BRANCH  18  19
HETATM   19  N1  UNL     1      15.755  10.041  -5.859  1.00  0.00    -0.259 N 
ATOM     20  H12 UNL     1      15.461  10.971  -5.560  1.00  0.00     0.193 HD
ATOM     21  H11 UNL     1      16.460  10.267  -6.560  1.00  0.00     0.193 HD
ENDBRANCH  18  19
ENDBRANCH  16  18
ENDBRANCH  14  16
ENDBRANCH   1  14
BRANCH   6  22
HETATM   22  O3  UNL     1      16.151  10.973  -2.889  1.00  0.00    -0.357 OA
ATOM     23  H3  UNL     1      16.148  11.907  -3.064  1.00  0.00     0.218 HD
ENDBRANCH   6  22
BRANCH   3  24
HETATM   24  C3  UNL     1      13.360   9.450   2.052  1.00  0.00     0.296 C 
BRANCH  24  25
HETATM   25  O1  UNL     1      13.151  10.479   2.946  1.00  0.00    -0.367 OA
ATOM     26  H1  UNL     1      12.718  10.244   3.758  1.00  0.00     0.213 HD
ENDBRANCH  24  25
BRANCH  24  27
HETATM   27  O2  UNL     1      13.954   8.335   2.670  1.00  0.00    -0.367 OA
ATOM     28  H2  UNL     1      13.454   8.065   3.430  1.00  0.00     0.213 HD
ENDBRANCH  24  27
ENDBRANCH   3  24
TORSDOF 8
ENDMDL
MODEL 2
REMARK VINA RESULT: -6.681896836      1.543      1.768
REMARK  8 active torsions:
REMARK  status: ('A' for Active; 'I' for Inactive)
REMARK    1  A    between atoms: N1_1  and  N2_4 
REMARK    2  A    between atoms: N2_4  and  N3_5 
REMARK    3  A    between atoms: N3_5  and  N4_7 
REMARK    4  A    between atoms: N4_7  and  C1_9 
REMARK    5  A    between atoms: C2_11  and  C3_12 
REMARK    6  A    between atoms: C3_12  and  O1_13 
REMARK    7  A    between atoms: C3_12  and  O2_15 
REMARK    8  A    between atoms: C6_19  and  O3_20 
ROOT
HETATM    1  C1  UNL     1      15.543   9.809  -0.802  1.00  0.00     0.126 A 
HETATM    2  S1  UNL     1      14.786   9.331   0.635  1.00  0.00    -0.067 SA
HETATM    3  C2  UNL     1      15.470  10.041   2.055  1.00  0.00     0.054 A 
HETATM    4  C4  UNL     1      16.510  10.871   1.798  1.00  0.00     0.052 A 
HETATM    5  C5  UNL     1      17.033  11.177   0.565  1.00  0.00     0.091 A 
HETATM    6  C6  UNL     1      16.592  10.690  -0.651  1.00  0.00     0.118 A 
HETATM    7  C7  UNL     1      18.163  12.106   0.755  1.00  0.00     0.303 A 
HETATM    8  O4  UNL     1      18.908  12.628  -0.116  1.00  0.00    -0.259 OA
HETATM    9  O5  UNL     1      18.314  12.353   2.096  1.00  0.00    -0.257 OA
HETATM   10  C8  UNL     1      17.333  11.622   2.761  1.00  0.00     0.158 A 
HETATM   11  N5  UNL     1      17.242  11.664   4.039  1.00  0.00    -0.379 N 
ATOM     12  H51 UNL     1      17.811  12.184   4.706  1.00  0.00     0.158 HD
ATOM     13  H52 UNL     1      16.523  11.128   4.526  1.00  0.00     0.158 HD
ENDROOT
BRANCH   1  14
HETATM   14  N4  UNL     1      15.170   9.382  -1.971  1.00  0.00    -0.265 N 
ATOM     15  H4  UNL     1      15.221   8.395  -2.223  1.00  0.00     0.190 HD
BRANCH  14  16
HETATM   16  N3  UNL     1      14.694  10.347  -2.863  1.00  0.00    -0.155 N 
ATOM     17  H3  UNL     1      14.044  11.054  -2.521  1.00  0.00     0.225 HD
BRANCH  16  18
HETATM   18  N2  UNL     1      15.033  10.376  -4.055  1.00  0.00    -0.228 NA
BRANCH  18  19
HETATM   19  N1  UNL     1      15.606  10.330  -5.141  1.00  0.00    -0.259 N 
ATOM     20  H12 UNL     1      15.500   9.316  -5.174  1.00  0.00     0.193 HD
ATOM     21  H11 UNL     1      16.095  10.511  -6.017  1.00  0.00     0.193 HD
ENDBRANCH  18  19
ENDBRANCH  16  18
ENDBRANCH  14  16
ENDBRANCH   1  14
BRANCH   6  22
HETATM   22  O3  UNL     1      17.218  11.084  -1.852  1.00  0.00    -0.357 OA
ATOM     23  H3  UNL     1      17.871  11.769  -1.759  1.00  0.00     0.218 HD
ENDBRANCH   6  22
BRANCH   3  24
HETATM   24  C3  UNL     1      14.856   9.718   3.352  1.00  0.00     0.296 C 
BRANCH  24  25
HETATM   25  O1  UNL     1      14.329  10.783   4.052  1.00  0.00    -0.367 OA
ATOM     26  H1  UNL     1      14.812  11.054   4.823  1.00  0.00     0.213 HD
ENDBRANCH  24  25
BRANCH  24  27
HETATM   27  O2  UNL     1      15.732   8.956   4.144  1.00  0.00    -0.367 OA
ATOM     28  H2  UNL     1      15.374   8.092   4.307  1.00  0.00     0.213 HD
ENDBRANCH  24  27
ENDBRANCH   3  24
TORSDOF 8
ENDMDL
MODEL 3
REMARK VINA RESULT: -6.669824441      2.037      3.759
REMARK  8 active torsions:
REMARK  status: ('A' for Active; 'I' for Inactive)
REMARK    1  A    between atoms: N1_1  and  N2_4 
REMARK    2  A    between atoms: N2_4  and  N3_5 
REMARK    3  A    between atoms: N3_5  and  N4_7 
REMARK    4  A    between atoms: N4_7  and  C1_9 
REMARK    5  A    between atoms: C2_11  and  C3_12 
REMARK    6  A    between atoms: C3_12  and  O1_13 
REMARK    7  A    between atoms: C3_12  and  O2_15 
REMARK    8  A    between atoms: C6_19  and  O3_20 
ROOT
HETATM    1  C1  UNL     1      14.830  10.568  -1.121  1.00  0.00     0.126 A 
HETATM    2  S1  UNL     1      16.402  10.910  -0.595  1.00  0.00    -0.067 SA
HETATM    3  C2  UNL     1      16.752  10.315   0.990  1.00  0.00     0.054 A 
HETATM    4  C4  UNL     1      15.711   9.667   1.568  1.00  0.00     0.052 A 
HETATM    5  C5  UNL     1      14.468   9.457   1.022  1.00  0.00     0.091 A 
HETATM    6  C6  UNL     1      14.047   9.870  -0.228  1.00  0.00     0.118 A 
HETATM    7  C7  UNL     1      13.645   8.725   2.002  1.00  0.00     0.303 A 
HETATM    8  O4  UNL     1      12.452   8.336   1.895  1.00  0.00    -0.259 OA
HETATM    9  O5  UNL     1      14.394   8.500   3.130  1.00  0.00    -0.257 OA
HETATM   10  C8  UNL     1      15.650   9.056   2.907  1.00  0.00     0.158 A 
HETATM   11  N5  UNL     1      16.561   8.995   3.806  1.00  0.00    -0.379 N 
ATOM     12  H51 UNL     1      16.519   8.572   4.733  1.00  0.00     0.158 HD
ATOM     13  H52 UNL     1      17.481   9.403   3.643  1.00  0.00     0.158 HD
ENDROOT
BRANCH   1  14
HETATM   14  N4  UNL     1      14.382  10.934  -2.285  1.00  0.00    -0.265 N 
ATOM     15  H4  UNL     1      14.235  11.916  -2.520  1.00  0.00     0.190 HD
BRANCH  14  16
HETATM   16  N3  UNL     1      14.113   9.910  -3.198  1.00  0.00    -0.155 N 
ATOM     17  H3  UNL     1      14.888   9.344  -3.544  1.00  0.00     0.225 HD
BRANCH  16  18
HETATM   18  N2  UNL     1      12.968   9.663  -3.603  1.00  0.00    -0.228 NA
BRANCH  18  19
HETATM   19  N1  UNL     1      11.758   9.546  -3.783  1.00  0.00    -0.259 N 
ATOM     20  H12 UNL     1      11.711  10.478  -4.193  1.00  0.00     0.193 HD
ATOM     21  H11 UNL     1      10.785   9.249  -3.841  1.00  0.00     0.193 HD
ENDBRANCH  18  19
ENDBRANCH  16  18
ENDBRANCH  14  16
ENDBRANCH   1  14
BRANCH   6  22
HETATM   22  O3  UNL     1      12.738   9.589  -0.673  1.00  0.00    -0.357 OA
ATOM     23  H3  UNL     1      12.593   8.694  -0.958  1.00  0.00     0.218 HD
ENDBRANCH   6  22
BRANCH   3  24
HETATM   24  C3  UNL     1      18.106  10.526   1.523  1.00  0.00     0.296 C 
BRANCH  24  25
HETATM   25  O1  UNL     1      18.840   9.387   1.780  1.00  0.00    -0.367 OA
ATOM     26  H1  UNL     1      19.505   9.463   2.453  1.00  0.00     0.213 HD
ENDBRANCH  24  25
BRANCH  24  27
HETATM   27  O2  UNL     1      18.078  11.389   2.633  1.00  0.00    -0.367 OA
ATOM     28  H2  UNL     1      18.858  11.284   3.162  1.00  0.00     0.213 HD
ENDBRANCH  24  27
ENDBRANCH   3  24
TORSDOF 8
ENDMDL
MODEL 4
REMARK VINA RESULT: -6.642585639      3.314      4.821
REMARK  8 active torsions:
REMARK  status: ('A' for Active; 'I' for Inactive)
REMARK    1  A    between atoms: N1_1  and  N2_4 
REMARK    2  A    between atoms: N2_4  and  N3_5 
REMARK    3  A    between atoms: N3_5  and  N4_7 
REMARK    4  A    between atoms: N4_7  and  C1_9 
REMARK    5  A    between atoms: C2_11  and  C3_12 
REMARK    6  A    between atoms: C3_12  and  O1_13 
REMARK    7  A    between atoms: C3_12  and  O2_15 
REMARK    8  A    between atoms: C6_19  and  O3_20 
ROOT
HETATM    1  C1  UNL     1      18.054  11.849   1.420  1.00  0.00     0.126 A 
HETATM    2  S1  UNL     1      17.170  11.470   2.813  1.00  0.00    -0.067 SA
HETATM    3  C2  UNL     1      15.734  10.559   2.502  1.00  0.00     0.054 A 
HETATM    4  C4  UNL     1      15.537  10.290   1.188  1.00  0.00     0.052 A 
HETATM    5  C5  UNL     1      16.345  10.662   0.143  1.00  0.00     0.091 A 
HETATM    6  C6  UNL     1      17.519  11.387   0.237  1.00  0.00     0.118 A 
HETATM    7  C7  UNL     1      15.743  10.172  -1.111  1.00  0.00     0.303 A 
HETATM    8  O4  UNL     1      16.166  10.298  -2.291  1.00  0.00    -0.259 OA
HETATM    9  O5  UNL     1      14.578   9.510  -0.814  1.00  0.00    -0.257 OA
HETATM   10  C8  UNL     1      14.418   9.561   0.567  1.00  0.00     0.158 A 
HETATM   11  N5  UNL     1      13.401   9.018   1.127  1.00  0.00    -0.379 N 
ATOM     12  H51 UNL     1      12.626   8.513   0.697  1.00  0.00     0.158 HD
ATOM     13  H52 UNL     1      13.283   9.055   2.140  1.00  0.00     0.158 HD
ENDROOT
BRANCH   1  14
HETATM   14  N4  UNL     1      19.162  12.527   1.452  1.00  0.00    -0.265 N 
ATOM     15  H4  UNL     1      19.190  13.521   1.225  1.00  0.00     0.190 HD
BRANCH  14  16
HETATM   16  N3  UNL     1      20.313  11.822   1.815  1.00  0.00    -0.155 N 
ATOM     17  H3  UNL     1      20.550  11.742   2.803  1.00  0.00     0.225 HD
BRANCH  16  18
HETATM   18  N2  UNL     1      21.057  11.288   0.979  1.00  0.00    -0.228 NA
BRANCH  18  19
HETATM   19  N1  UNL     1      21.894  10.632   0.362  1.00  0.00    -0.259 N 
ATOM     20  H12 UNL     1      21.173  10.265  -0.259  1.00  0.00     0.193 HD
ATOM     21  H11 UNL     1      22.729  10.178  -0.005  1.00  0.00     0.193 HD
ENDBRANCH  18  19
ENDBRANCH  16  18
ENDBRANCH  14  16
ENDBRANCH   1  14
BRANCH   6  22
HETATM   22  O3  UNL     1      18.261  11.706  -0.919  1.00  0.00    -0.357 OA
ATOM     23  H3  UNL     1      18.134  12.588  -1.248  1.00  0.00     0.218 HD
ENDBRANCH   6  22
BRANCH   3  24
HETATM   24  C3  UNL     1      14.916  10.146   3.653  1.00  0.00     0.296 C 
BRANCH  24  25
HETATM   25  O1  UNL     1      14.786   8.787   3.846  1.00  0.00    -0.367 OA
ATOM     26  H1  UNL     1      15.567   8.269   3.695  1.00  0.00     0.213 HD
ENDBRANCH  24  25
BRANCH  24  27
HETATM   27  O2  UNL     1      13.667  10.793   3.636  1.00  0.00    -0.367 OA
ATOM     28  H2  UNL     1      13.065  10.348   3.051  1.00  0.00     0.213 HD
ENDBRANCH  24  27
ENDBRANCH   3  24
TORSDOF 8
ENDMDL
MODEL 5
REMARK VINA RESULT: -6.587371384      3.883      5.303
REMARK  8 active torsions:
REMARK  status: ('A' for Active; 'I' for Inactive)
REMARK    1  A    between atoms: N1_1  and  N2_4 
REMARK    2  A    between atoms: N2_4  and  N3_5 
REMARK    3  A    between atoms: N3_5  and  N4_7 
REMARK    4  A    between atoms: N4_7  and  C1_9 
REMARK    5  A    between atoms: C2_11  and  C3_12 
REMARK    6  A    between atoms: C3_12  and  O1_13 
REMARK    7  A    between atoms: C3_12  and  O2_15 
REMARK    8  A    between atoms: C6_19  and  O3_20 
ROOT
HETATM    1  C1  UNL     1      17.539  11.622   1.655  1.00  0.00     0.126 A 
HETATM    2  S1  UNL     1      16.873  10.800   0.335  1.00  0.00    -0.067 SA
HETATM    3  C2  UNL     1      15.446   9.902   0.718  1.00  0.00     0.054 A 
HETATM    4  C4  UNL     1      15.082   9.995   2.021  1.00  0.00     0.052 A 
HETATM    5  C5  UNL     1      15.721  10.708   3.004  1.00  0.00     0.091 A 
HETATM    6  C6  UNL     1      16.864  11.470   2.847  1.00  0.00     0.118 A 
HETATM    7  C7  UNL     1      14.991  10.515   4.271  1.00  0.00     0.303 A 
HETATM    8  O4  UNL     1      15.245  10.994   5.408  1.00  0.00    -0.259 OA
HETATM    9  O5  UNL     1      13.920   9.688   4.044  1.00  0.00    -0.257 OA
HETATM   10  C8  UNL     1      13.941   9.351   2.694  1.00  0.00     0.158 A 
HETATM   11  N5  UNL     1      13.047   8.577   2.200  1.00  0.00    -0.379 N 
ATOM     12  H51 UNL     1      12.257   8.131   2.666  1.00  0.00     0.158 HD
ATOM     13  H52 UNL     1      13.062   8.330   1.210  1.00  0.00     0.158 HD
ENDROOT
BRANCH   1  14
HETATM   14  N4  UNL     1      18.612  12.350   1.563  1.00  0.00    -0.265 N 
ATOM     15  H4  UNL     1      18.926  12.943   2.331  1.00  0.00     0.190 HD
BRANCH  14  16
HETATM   16  N3  UNL     1      19.311  12.278   0.355  1.00  0.00    -0.155 N 
ATOM     17  H3  UNL     1      18.828  12.528  -0.508  1.00  0.00     0.225 HD
BRANCH  16  18
HETATM   18  N2  UNL     1      20.496  11.921   0.292  1.00  0.00    -0.228 NA
BRANCH  18  19
HETATM   19  N1  UNL     1      21.650  11.550   0.495  1.00  0.00    -0.259 N 
ATOM     20  H12 UNL     1      21.520  10.750  -0.124  1.00  0.00     0.193 HD
ATOM     21  H11 UNL     1      22.616  11.421   0.793  1.00  0.00     0.193 HD
ENDBRANCH  18  19
ENDBRANCH  16  18
ENDBRANCH  14  16
ENDBRANCH   1  14
BRANCH   6  22
HETATM   22  O3  UNL     1      17.425  12.158   3.943  1.00  0.00    -0.357 OA
ATOM     23  H3  UNL     1      16.795  12.547   4.539  1.00  0.00     0.218 HD
ENDBRANCH   6  22
BRANCH   3  24
HETATM   24  C3  UNL     1      14.769   9.183  -0.372  1.00  0.00     0.296 C 
BRANCH  24  25
HETATM   25  O1  UNL     1      13.495   9.614  -0.680  1.00  0.00    -0.367 OA
ATOM     26  H1  UNL     1      13.154  10.320  -0.146  1.00  0.00     0.213 HD
ENDBRANCH  24  25
BRANCH  24  27
HETATM   27  O2  UNL     1      14.813   7.795  -0.158  1.00  0.00    -0.367 OA
ATOM     28  H2  UNL     1      15.691   7.460  -0.293  1.00  0.00     0.213 HD
ENDBRANCH  24  27
ENDBRANCH   3  24
TORSDOF 8
ENDMDL
