MODEL 1
REMARK VINA RESULT: -7.800542386      0.000      0.000
REMARK  4 active torsions:
REMARK  status: ('A' for Active; 'I' for Inactive)
REMARK    1  A    between atoms: C2_5  and  O2_6 
REMARK    2  A    between atoms: C3_8  and  C4_9 
REMARK    3  A    between atoms: C5_10  and  N2_11 
REMARK    4  A    between atoms: N3_16  and  O6_17 
ROOT
HETATM    1  C4  UNL     1      15.005   9.683   1.076  1.00  0.00     0.094 A 
HETATM    2  C5  UNL     1      14.340   9.060   2.096  1.00  0.00     0.191 A 
HETATM    3  C6  UNL     1      14.756   9.251   3.425  1.00  0.00     0.321 A 
HETATM    4  O5  UNL     1      14.146   8.674   4.367  1.00  0.00    -0.261 OA
HETATM    5  N3  UNL     1      15.803  10.055   3.637  1.00  0.00    -0.117 N 
HETATM    6  N4  UNL     1      16.443  10.658   2.672  1.00  0.00    -0.236 N 
ATOM      7  H4  UNL     1      17.236  11.262   2.889  1.00  0.00     0.193 HD
HETATM    8  C7  UNL     1      16.055  10.484   1.375  1.00  0.00     0.276 A 
HETATM    9  O7  UNL     1      16.750  11.122   0.536  1.00  0.00    -0.266 OA
ENDROOT
BRANCH   1  10
HETATM   10  C3  UNL     1      14.568   9.424  -0.321  1.00  0.00     0.079 A 
HETATM   11  C2  UNL     1      14.532   8.330  -1.108  1.00  0.00     0.162 A 
HETATM   12  N1  UNL     1      14.031   8.443  -2.334  1.00  0.00    -0.297 N 
HETATM   13  C1  UNL     1      13.588   9.631  -2.729  1.00  0.00     0.290 A 
ATOM     14  H1  UNL     1      13.988   7.636  -2.957  1.00  0.00     0.171 HD
HETATM   15  O1  UNL     1      13.075   9.937  -3.865  1.00  0.00    -0.260 OA
HETATM   16  S1  UNL     1      13.866  10.610  -1.386  1.00  0.00    -0.024 SA
BRANCH  11  17
HETATM   17  O2  UNL     1      14.994   7.023  -0.733  1.00  0.00    -0.345 OA
ATOM     18  H2  UNL     1      15.536   6.980   0.046  1.00  0.00     0.219 HD
ENDBRANCH  11  17
ENDBRANCH   1  10
BRANCH   2  19
HETATM   19  N2  UNL     1      13.229   8.206   1.933  1.00  0.00    -0.109 N 
HETATM   20  O3  UNL     1      12.087   8.689   1.972  1.00  0.00    -0.532 OA
HETATM   21  O4  UNL     1      13.401   6.864   1.802  1.00  0.00    -0.532 OA
ENDBRANCH   2  19
BRANCH   5  22
HETATM   22  O6  UNL     1      16.199  10.240   4.942  1.00  0.00    -0.265 OA
ATOM     23  H6  UNL     1      17.131  10.324   5.106  1.00  0.00     0.247 HD
ENDBRANCH   5  22
TORSDOF 4
ENDMDL
MODEL 2
REMARK VINA RESULT: -7.640229956      2.947      5.018
REMARK  4 active torsions:
REMARK  status: ('A' for Active; 'I' for Inactive)
REMARK    1  A    between atoms: C2_5  and  O2_6 
REMARK    2  A    between atoms: C3_8  and  C4_9 
REMARK    3  A    between atoms: C5_10  and  N2_11 
REMARK    4  A    between atoms: N3_16  and  O6_17 
ROOT
HETATM    1  C4  UNL     1      16.978  10.912   1.393  1.00  0.00     0.094 A 
HETATM    2  C5  UNL     1      18.045  10.847   2.246  1.00  0.00     0.191 A 
HETATM    3  C6  UNL     1      19.324  11.216   1.797  1.00  0.00     0.321 A 
HETATM    4  O5  UNL     1      20.311  11.154   2.582  1.00  0.00    -0.261 OA
HETATM    5  N3  UNL     1      19.443  11.626   0.531  1.00  0.00    -0.117 N 
HETATM    6  N4  UNL     1      18.431  11.696  -0.291  1.00  0.00    -0.236 N 
ATOM      7  H4  UNL     1      18.576  12.016  -1.249  1.00  0.00     0.193 HD
HETATM    8  C7  UNL     1      17.181  11.340   0.125  1.00  0.00     0.276 A 
HETATM    9  O7  UNL     1      16.287  11.454  -0.760  1.00  0.00    -0.266 OA
ENDROOT
BRANCH   1  10
HETATM   10  C3  UNL     1      15.646  10.472   1.885  1.00  0.00     0.079 A 
HETATM   11  C2  UNL     1      14.770  10.955   2.789  1.00  0.00     0.162 A 
HETATM   12  N1  UNL     1      13.618  10.315   2.967  1.00  0.00    -0.297 N 
HETATM   13  C1  UNL     1      13.382   9.227   2.244  1.00  0.00     0.290 A 
ATOM     14  H1  UNL     1      12.932  10.653   3.642  1.00  0.00     0.171 HD
HETATM   15  O1  UNL     1      12.339   8.480   2.271  1.00  0.00    -0.260 OA
HETATM   16  S1  UNL     1      14.772   9.083   1.301  1.00  0.00    -0.024 SA
BRANCH  11  17
HETATM   17  O2  UNL     1      14.972  12.126   3.596  1.00  0.00    -0.345 OA
ATOM     18  H2  UNL     1      15.270  12.902   3.136  1.00  0.00     0.219 HD
ENDBRANCH  11  17
ENDBRANCH   1  10
BRANCH   2  19
HETATM   19  N2  UNL     1      17.979  10.427   3.591  1.00  0.00    -0.109 N 
HETATM   20  O3  UNL     1      17.818  11.277   4.480  1.00  0.00    -0.532 OA
HETATM   21  O4  UNL     1      18.158   9.119   3.917  1.00  0.00    -0.532 OA
ENDBRANCH   2  19
BRANCH   5  22
HETATM   22  O6  UNL     1      20.700  11.991   0.102  1.00  0.00    -0.265 OA
ATOM     23  H6  UNL     1      21.307  12.310   0.759  1.00  0.00     0.247 HD
ENDBRANCH   5  22
TORSDOF 4
ENDMDL
MODEL 3
REMARK VINA RESULT: -7.579448560      3.674      6.128
REMARK  4 active torsions:
REMARK  status: ('A' for Active; 'I' for Inactive)
REMARK    1  A    between atoms: C2_5  and  O2_6 
REMARK    2  A    between atoms: C3_8  and  C4_9 
REMARK    3  A    between atoms: C5_10  and  N2_11 
REMARK    4  A    between atoms: N3_16  and  O6_17 
ROOT
HETATM    1  C4  UNL     1      18.514  10.402   2.131  1.00  0.00     0.094 A 
HETATM    2  C5  UNL     1      19.180  11.322   1.369  1.00  0.00     0.191 A 
HETATM    3  C6  UNL     1      20.534  11.120   1.049  1.00  0.00     0.321 A 
HETATM    4  O5  UNL     1      21.151  11.969   0.348  1.00  0.00    -0.261 OA
HETATM    5  N3  UNL     1      21.121  10.011   1.510  1.00  0.00    -0.117 N 
HETATM    6  N4  UNL     1      20.495   9.125   2.236  1.00  0.00    -0.236 N 
ATOM      7  H4  UNL     1      20.990   8.295   2.563  1.00  0.00     0.193 HD
HETATM    8  C7  UNL     1      19.180   9.304   2.558  1.00  0.00     0.276 A 
HETATM    9  O7  UNL     1      18.687   8.376   3.260  1.00  0.00    -0.266 OA
ENDROOT
BRANCH   1  10
HETATM   10  C3  UNL     1      17.097  10.668   2.489  1.00  0.00     0.079 A 
HETATM   11  C2  UNL     1      16.483  11.522   3.334  1.00  0.00     0.162 A 
HETATM   12  N1  UNL     1      15.155  11.524   3.386  1.00  0.00    -0.297 N 
HETATM   13  C1  UNL     1      14.491  10.682   2.603  1.00  0.00     0.290 A 
ATOM     14  H1  UNL     1      14.658  12.157   4.013  1.00  0.00     0.171 HD
HETATM   15  O1  UNL     1      13.219  10.537   2.511  1.00  0.00    -0.260 OA
HETATM   16  S1  UNL     1      15.719   9.875   1.778  1.00  0.00    -0.024 SA
BRANCH  11  17
HETATM   17  O2  UNL     1      17.150  12.453   4.200  1.00  0.00    -0.345 OA
ATOM     18  H2  UNL     1      18.099  12.444   4.171  1.00  0.00     0.219 HD
ENDBRANCH  11  17
ENDBRANCH   1  10
BRANCH   2  19
HETATM   19  N2  UNL     1      18.612  12.505   0.852  1.00  0.00    -0.109 N 
HETATM   20  O3  UNL     1      18.258  12.534  -0.336  1.00  0.00    -0.532 OA
HETATM   21  O4  UNL     1      18.515  13.621   1.623  1.00  0.00    -0.532 OA
ENDBRANCH   2  19
BRANCH   5  22
HETATM   22  O6  UNL     1      22.445   9.820   1.187  1.00  0.00    -0.265 OA
ATOM     23  H6  UNL     1      23.093  10.232   1.746  1.00  0.00     0.247 HD
ENDBRANCH   5  22
TORSDOF 4
ENDMDL
MODEL 4
REMARK VINA RESULT: -7.566199358      3.684      5.891
REMARK  4 active torsions:
REMARK  status: ('A' for Active; 'I' for Inactive)
REMARK    1  A    between atoms: C2_5  and  O2_6 
REMARK    2  A    between atoms: C3_8  and  C4_9 
REMARK    3  A    between atoms: C5_10  and  N2_11 
REMARK    4  A    between atoms: N3_16  and  O6_17 
ROOT
HETATM    1  C4  UNL     1      18.782  10.316   1.862  1.00  0.00     0.094 A 
HETATM    2  C5  UNL     1      19.478  11.192   1.075  1.00  0.00     0.191 A 
HETATM    3  C6  UNL     1      20.882  11.147   1.047  1.00  0.00     0.321 A 
HETATM    4  O5  UNL     1      21.526  11.957   0.324  1.00  0.00    -0.261 OA
HETATM    5  N3  UNL     1      21.488  10.229   1.805  1.00  0.00    -0.117 N 
HETATM    6  N4  UNL     1      20.835   9.385   2.558  1.00  0.00    -0.236 N 
ATOM      7  H4  UNL     1      21.347   8.702   3.118  1.00  0.00     0.193 HD
HETATM    8  C7  UNL     1      19.471   9.413   2.599  1.00  0.00     0.276 A 
HETATM    9  O7  UNL     1      18.957   8.546   3.360  1.00  0.00    -0.266 OA
ENDROOT
BRANCH   1  10
HETATM   10  C3  UNL     1      17.300  10.419   1.903  1.00  0.00     0.079 A 
HETATM   11  C2  UNL     1      16.311  10.106   1.042  1.00  0.00     0.162 A 
HETATM   12  N1  UNL     1      15.051  10.299   1.420  1.00  0.00    -0.297 N 
HETATM   13  C1  UNL     1      14.824  10.792   2.632  1.00  0.00     0.290 A 
ATOM     14  H1  UNL     1      14.278  10.073   0.794  1.00  0.00     0.171 HD
HETATM   15  O1  UNL     1      13.689  11.046   3.173  1.00  0.00    -0.260 OA
HETATM   16  S1  UNL     1      16.374  10.993   3.262  1.00  0.00    -0.024 SA
BRANCH  11  17
HETATM   17  O2  UNL     1      16.499   9.569  -0.277  1.00  0.00    -0.345 OA
ATOM     18  H2  UNL     1      15.996   8.792  -0.486  1.00  0.00     0.219 HD
ENDBRANCH  11  17
ENDBRANCH   1  10
BRANCH   2  19
HETATM   19  N2  UNL     1      18.893  12.178   0.253  1.00  0.00    -0.109 N 
HETATM   20  O3  UNL     1      18.672  13.303   0.726  1.00  0.00    -0.532 OA
HETATM   21  O4  UNL     1      18.514  11.883  -1.019  1.00  0.00    -0.532 OA
ENDBRANCH   2  19
BRANCH   5  22
HETATM   22  O6  UNL     1      22.864  10.189   1.768  1.00  0.00    -0.265 OA
ATOM     23  H6  UNL     1      23.284   9.385   2.050  1.00  0.00     0.247 HD
ENDBRANCH   5  22
TORSDOF 4
ENDMDL
MODEL 5
REMARK VINA RESULT: -7.378415641      2.346      5.727
REMARK  4 active torsions:
REMARK  status: ('A' for Active; 'I' for Inactive)
REMARK    1  A    between atoms: C2_5  and  O2_6 
REMARK    2  A    between atoms: C3_8  and  C4_9 
REMARK    3  A    between atoms: C5_10  and  N2_11 
REMARK    4  A    between atoms: N3_16  and  O6_17 
ROOT
HETATM    1  C4  UNL     1      15.209   9.995   1.118  1.00  0.00     0.094 A 
HETATM    2  C5  UNL     1      16.304  10.535   0.502  1.00  0.00     0.191 A 
HETATM    3  C6  UNL     1      16.339  10.643  -0.899  1.00  0.00     0.321 A 
HETATM    4  O5  UNL     1      17.351  11.138  -1.469  1.00  0.00    -0.261 OA
HETATM    5  N3  UNL     1      15.276  10.206  -1.581  1.00  0.00    -0.117 N 
HETATM    6  N4  UNL     1      14.224   9.692  -1.003  1.00  0.00    -0.236 N 
ATOM      7  H4  UNL     1      13.438   9.373  -1.571  1.00  0.00     0.193 HD
HETATM    8  C7  UNL     1      14.172   9.578   0.356  1.00  0.00     0.276 A 
HETATM    9  O7  UNL     1      13.102   9.069   0.793  1.00  0.00    -0.266 OA
ENDROOT
BRANCH   1  10
HETATM   10  C3  UNL     1      15.223   9.855   2.598  1.00  0.00     0.079 A 
HETATM   11  C2  UNL     1      15.881   9.056   3.462  1.00  0.00     0.162 A 
HETATM   12  N1  UNL     1      15.681   9.223   4.765  1.00  0.00    -0.297 N 
HETATM   13  C1  UNL     1      14.840  10.173   5.158  1.00  0.00     0.290 A 
ATOM     14  H1  UNL     1      16.163   8.637   5.447  1.00  0.00     0.171 HD
HETATM   15  O1  UNL     1      14.519  10.485   6.361  1.00  0.00    -0.260 OA
HETATM   16  S1  UNL     1      14.316  10.848   3.705  1.00  0.00    -0.024 SA
BRANCH  11  17
HETATM   17  O2  UNL     1      16.801   8.017   3.093  1.00  0.00    -0.345 OA
ATOM     18  H2  UNL     1      16.456   7.335   2.529  1.00  0.00     0.219 HD
ENDBRANCH  11  17
ENDBRANCH   1  10
BRANCH   2  19
HETATM   19  N2  UNL     1      17.451  11.016   1.169  1.00  0.00    -0.109 N 
HETATM   20  O3  UNL     1      17.507  12.215   1.482  1.00  0.00    -0.532 OA
HETATM   21  O4  UNL     1      18.509  10.196   1.405  1.00  0.00    -0.532 OA
ENDBRANCH   2  19
BRANCH   5  22
HETATM   22  O6  UNL     1      15.318  10.320  -2.952  1.00  0.00    -0.265 OA
ATOM     23  H6  UNL     1      15.835  11.029  -3.314  1.00  0.00     0.247 HD
ENDBRANCH   5  22
TORSDOF 4
ENDMDL
