MODEL 1
REMARK VINA RESULT: -6.928276216      0.000      0.000
REMARK  2 active torsions:
REMARK  status: ('A' for Active; 'I' for Inactive)
REMARK    1  A    between atoms: S1_2  and  C2_3 
REMARK    2  A    between atoms: C3_4  and  S2_5 
ROOT
HETATM    1  C2  UNL     1      19.598  10.396   2.299  1.00  0.00     0.082 C 
HETATM    2  C3  UNL     1      18.544  11.050   1.924  1.00  0.00     0.191 C 
HETATM    3  N1  UNL     1      17.412  10.993   2.733  1.00  0.00    -0.222 N 
HETATM    4  N2  UNL     1      16.378  11.982   2.779  1.00  0.00    -0.003 NA
HETATM    5  N3  UNL     1      15.139  11.345   2.751  1.00  0.00    -0.012 NA
HETATM    6  N4  UNL     1      15.176  10.211   1.970  1.00  0.00    -0.296 N 
ATOM      7  H4  UNL     1      15.080  10.247   0.955  1.00  0.00     0.179 HD
HETATM    8  C4  UNL     1      15.358   8.983   2.674  1.00  0.00     0.372 C 
HETATM    9  N5  UNL     1      16.799   8.737   2.777  1.00  0.00    -0.027 N 
ATOM     10  H51 UNL     1      17.260   8.637   1.872  1.00  0.00     0.282 HD
ATOM     11  H52 UNL     1      17.029   7.810   3.134  1.00  0.00     0.282 HD
HETATM   12  C5  UNL     1      17.328   9.809   3.577  1.00  0.00     0.375 C 
HETATM   13  S3  UNL     1      19.138   9.586   3.839  1.00  0.00    -0.065 SA
ENDROOT
BRANCH   2  14
HETATM   14  S2  UNL     1      18.575  11.994   0.421  1.00  0.00     0.157 S 
HETATM   15  O1  UNL     1      18.682  13.464   0.710  1.00  0.00    -0.590 OA
HETATM   16  O2  UNL     1      19.703  11.620  -0.462  1.00  0.00    -0.590 OA
HETATM   17  O3  UNL     1      17.091  11.665  -0.339  1.00  0.00    -0.590 OA
ENDBRANCH   2  14
BRANCH   1  18
HETATM   18  S1  UNL     1      21.207  10.246   1.538  1.00  0.00    -0.124 SA
HETATM   19  C1  UNL     1      22.434  10.938   2.645  1.00  0.00     0.096 C 
ENDBRANCH   1  18
TORSDOF 2
ENDMDL
MODEL 2
REMARK VINA RESULT: -6.759740760      2.527      3.398
REMARK  2 active torsions:
REMARK  status: ('A' for Active; 'I' for Inactive)
REMARK    1  A    between atoms: S1_2  and  C2_3 
REMARK    2  A    between atoms: C3_4  and  S2_5 
ROOT
HETATM    1  C2  UNL     1      19.975   9.317   2.714  1.00  0.00     0.082 C 
HETATM    2  C3  UNL     1      20.099  10.355   1.948  1.00  0.00     0.191 C 
HETATM    3  N1  UNL     1      19.007  11.209   1.816  1.00  0.00    -0.222 N 
HETATM    4  N2  UNL     1      19.079  12.594   1.459  1.00  0.00    -0.003 NA
HETATM    5  N3  UNL     1      18.110  12.865   0.494  1.00  0.00    -0.012 NA
HETATM    6  N4  UNL     1      17.932  11.792  -0.352  1.00  0.00    -0.296 N 
ATOM      7  H4  UNL     1      18.547  11.618  -1.146  1.00  0.00     0.179 HD
HETATM    8  C4  UNL     1      16.830  10.940  -0.042  1.00  0.00     0.372 C 
HETATM    9  N5  UNL     1      17.313   9.902   0.874  1.00  0.00    -0.027 N 
ATOM     10  H51 UNL     1      18.046   9.315   0.474  1.00  0.00     0.282 HD
ATOM     11  H52 UNL     1      16.636   9.157   1.039  1.00  0.00     0.282 HD
HETATM   12  C5  UNL     1      17.716  10.587   2.073  1.00  0.00     0.375 C 
HETATM   13  S3  UNL     1      18.290   9.383   3.343  1.00  0.00    -0.065 SA
ENDROOT
BRANCH   2  14
HETATM   14  S2  UNL     1      21.635  10.662   1.112  1.00  0.00     0.157 S 
HETATM   15  O1  UNL     1      21.961   9.550   0.156  1.00  0.00    -0.590 OA
HETATM   16  O2  UNL     1      21.623  11.931   0.350  1.00  0.00    -0.590 OA
HETATM   17  O3  UNL     1      22.805  10.720   2.345  1.00  0.00    -0.590 OA
ENDBRANCH   2  14
BRANCH   1  18
HETATM   18  S1  UNL     1      21.142   8.029   3.127  1.00  0.00    -0.124 SA
HETATM   19  C1  UNL     1      20.438   7.008   4.419  1.00  0.00     0.096 C 
ENDBRANCH   1  18
TORSDOF 2
ENDMDL
MODEL 3
REMARK VINA RESULT: -6.726264834      0.356      1.104
REMARK  2 active torsions:
REMARK  status: ('A' for Active; 'I' for Inactive)
REMARK    1  A    between atoms: S1_2  and  C2_3 
REMARK    2  A    between atoms: C3_4  and  S2_5 
ROOT
HETATM    1  C2  UNL     1      19.517  10.266   2.363  1.00  0.00     0.082 C 
HETATM    2  C3  UNL     1      18.509  11.030   2.083  1.00  0.00     0.191 C 
HETATM    3  N1  UNL     1      17.367  10.928   2.874  1.00  0.00    -0.222 N 
HETATM    4  N2  UNL     1      16.394  11.962   3.059  1.00  0.00    -0.003 NA
HETATM    5  N3  UNL     1      15.120  11.413   2.938  1.00  0.00    -0.012 NA
HETATM    6  N4  UNL     1      15.096  10.401   2.003  1.00  0.00    -0.296 N 
ATOM      7  H4  UNL     1      15.013  10.587   1.004  1.00  0.00     0.179 HD
HETATM    8  C4  UNL     1      15.196   9.077   2.526  1.00  0.00     0.372 C 
HETATM    9  N5  UNL     1      16.618   8.731   2.594  1.00  0.00    -0.027 N 
ATOM     10  H51 UNL     1      17.082   8.733   1.685  1.00  0.00     0.282 HD
ATOM     11  H52 UNL     1      16.788   7.750   2.817  1.00  0.00     0.282 HD
HETATM   12  C5  UNL     1      17.203   9.644   3.540  1.00  0.00     0.375 C 
HETATM   13  S3  UNL     1      18.993   9.275   3.771  1.00  0.00    -0.065 SA
ENDROOT
BRANCH   2  14
HETATM   14  S2  UNL     1      18.613  12.175   0.730  1.00  0.00     0.157 S 
HETATM   15  O1  UNL     1      19.902  12.006  -0.022  1.00  0.00    -0.590 OA
HETATM   16  O2  UNL     1      17.499  12.019  -0.232  1.00  0.00    -0.590 OA
HETATM   17  O3  UNL     1      18.566  13.715   1.450  1.00  0.00    -0.590 OA
ENDBRANCH   2  14
BRANCH   1  18
HETATM   18  S1  UNL     1      21.123  10.127   1.591  1.00  0.00    -0.124 SA
HETATM   19  C1  UNL     1      22.315  11.029   2.577  1.00  0.00     0.096 C 
ENDBRANCH   1  18
TORSDOF 2
ENDMDL
MODEL 4
REMARK VINA RESULT: -6.620742277      2.565      3.421
REMARK  2 active torsions:
REMARK  status: ('A' for Active; 'I' for Inactive)
REMARK    1  A    between atoms: S1_2  and  C2_3 
REMARK    2  A    between atoms: C3_4  and  S2_5 
ROOT
HETATM    1  C2  UNL     1      19.814   9.336   2.789  1.00  0.00     0.082 C 
HETATM    2  C3  UNL     1      20.067  10.332   2.000  1.00  0.00     0.191 C 
HETATM    3  N1  UNL     1      19.060  11.269   1.778  1.00  0.00    -0.222 N 
HETATM    4  N2  UNL     1      19.269  12.629   1.383  1.00  0.00    -0.003 NA
HETATM    5  N3  UNL     1      18.381  12.944   0.356  1.00  0.00    -0.012 NA
HETATM    6  N4  UNL     1      18.160  11.860  -0.465  1.00  0.00    -0.296 N 
ATOM      7  H4  UNL     1      18.801  11.608  -1.218  1.00  0.00     0.179 HD
HETATM    8  C4  UNL     1      16.974  11.114  -0.194  1.00  0.00     0.372 C 
HETATM    9  N5  UNL     1      17.316  10.073   0.780  1.00  0.00    -0.027 N 
ATOM     10  H51 UNL     1      18.017   9.414   0.441  1.00  0.00     0.282 HD
ATOM     11  H52 UNL     1      16.570   9.393   0.928  1.00  0.00     0.282 HD
HETATM   12  C5  UNL     1      17.709  10.765   1.979  1.00  0.00     0.375 C 
HETATM   13  S3  UNL     1      18.108   9.564   3.316  1.00  0.00    -0.065 SA
ENDROOT
BRANCH   2  14
HETATM   14  S2  UNL     1      21.668  10.480   1.245  1.00  0.00     0.157 S 
HETATM   15  O1  UNL     1      22.747  10.579   2.285  1.00  0.00    -0.590 OA
HETATM   16  O2  UNL     1      21.987   9.336   0.362  1.00  0.00    -0.590 OA
HETATM   17  O3  UNL     1      21.601  11.923   0.348  1.00  0.00    -0.590 OA
ENDBRANCH   2  14
BRANCH   1  18
HETATM   18  S1  UNL     1      20.843   7.971   3.308  1.00  0.00    -0.124 SA
HETATM   19  C1  UNL     1      19.908   6.945   4.441  1.00  0.00     0.096 C 
ENDBRANCH   1  18
TORSDOF 2
ENDMDL
MODEL 5
REMARK VINA RESULT: -6.502455276      2.796      4.468
REMARK  2 active torsions:
REMARK  status: ('A' for Active; 'I' for Inactive)
REMARK    1  A    between atoms: S1_2  and  C2_3 
REMARK    2  A    between atoms: C3_4  and  S2_5 
ROOT
HETATM    1  C2  UNL     1      18.037  10.173   2.490  1.00  0.00     0.082 C 
HETATM    2  C3  UNL     1      19.107  10.474   1.825  1.00  0.00     0.191 C 
HETATM    3  N1  UNL     1      20.237   9.677   2.000  1.00  0.00    -0.222 N 
HETATM    4  N2  UNL     1      21.295   9.523   1.048  1.00  0.00    -0.003 NA
HETATM    5  N3  UNL     1      22.517   9.623   1.708  1.00  0.00    -0.012 NA
HETATM    6  N4  UNL     1      22.453  10.526   2.747  1.00  0.00    -0.296 N 
ATOM      7  H4  UNL     1      22.552  11.531   2.600  1.00  0.00     0.179 HD
HETATM    8  C4  UNL     1      22.241   9.963   4.041  1.00  0.00     0.372 C 
HETATM    9  N5  UNL     1      20.794   9.886   4.261  1.00  0.00    -0.027 N 
ATOM     10  H51 UNL     1      20.332  10.796   4.248  1.00  0.00     0.282 HD
ATOM     11  H52 UNL     1      20.540   9.634   5.216  1.00  0.00     0.282 HD
HETATM   12  C5  UNL     1      20.290   8.971   3.272  1.00  0.00     0.375 C 
HETATM   13  S3  UNL     1      18.475   8.733   3.478  1.00  0.00    -0.065 SA
ENDROOT
BRANCH   2  14
HETATM   14  S2  UNL     1      19.102  11.862   0.718  1.00  0.00     0.157 S 
HETATM   15  O1  UNL     1      18.673  13.115   1.426  1.00  0.00    -0.590 OA
HETATM   16  O2  UNL     1      20.430  12.111   0.114  1.00  0.00    -0.590 OA
HETATM   17  O3  UNL     1      17.967  11.464  -0.484  1.00  0.00    -0.590 OA
ENDBRANCH   2  14
BRANCH   1  18
HETATM   18  S1  UNL     1      16.426  10.944   2.515  1.00  0.00    -0.124 SA
HETATM   19  C1  UNL     1      15.323  10.005   1.460  1.00  0.00     0.096 C 
ENDBRANCH   1  18
TORSDOF 2
ENDMDL
