MODEL 1
REMARK VINA RESULT: -7.070764375      0.000      0.000
REMARK  9 active torsions:
REMARK  status: ('A' for Active; 'I' for Inactive)
REMARK    1  A    between atoms: O1_2  and  C2_3 
REMARK    2  A    between atoms: C2_3  and  O2_4 
REMARK    3  A    between atoms: C2_3  and  C4_6 
REMARK    4  A    between atoms: C5_7  and  O3_8 
REMARK    5  A    between atoms: C6_11  and  C7_12 
REMARK    6  A    between atoms: C10_15  and  C11_16 
REMARK    7  A    between atoms: C12_18  and  O6_19 
REMARK    8  A    between atoms: C13_21  and  C14_22 
REMARK    9  A    between atoms: C16_25  and  O8_26 
ROOT
HETATM    1  C4  UNL     1      20.274  11.540   2.982  1.00  0.00     0.106 A 
HETATM    2  C5  UNL     1      20.072  10.468   2.125  1.00  0.00     0.199 A 
HETATM    3  O4  UNL     1      18.918  10.175   1.617  1.00  0.00    -0.285 OA
HETATM    4  C6  UNL     1      17.841  10.885   1.883  1.00  0.00     0.116 A 
HETATM    5  C17 UNL     1      17.963  11.961   2.726  1.00  0.00     0.130 A 
HETATM    6  C18 UNL     1      16.813  12.754   3.166  1.00  0.00     0.106 C 
HETATM    7  N1  UNL     1      15.906  13.366   3.540  1.00  0.00    -0.191 NA
HETATM    8  C19 UNL     1      19.179  12.312   3.291  1.00  0.00     0.211 A 
HETATM    9  O9  UNL     1      19.290  13.301   4.062  1.00  0.00    -0.286 OA
ENDROOT
BRANCH   4  10
HETATM   10  C7  UNL     1      16.551  10.523   1.297  1.00  0.00     0.041 A 
HETATM   11  C8  UNL     1      15.684   9.630   1.880  1.00  0.00    -0.030 A 
HETATM   12  C9  UNL     1      15.909   9.142   3.280  1.00  0.00     0.050 C 
HETATM   13  C10 UNL     1      14.532   9.226   1.254  1.00  0.00     0.043 A 
HETATM   14  C12 UNL     1      14.231   9.755  -0.033  1.00  0.00     0.096 A 
HETATM   15  C13 UNL     1      15.078  10.653  -0.637  1.00  0.00     0.077 A 
HETATM   16  C16 UNL     1      16.245  11.024   0.056  1.00  0.00     0.096 A 
BRANCH  13  17
HETATM   17  C11 UNL     1      13.585   8.272   1.818  1.00  0.00     0.273 C 
HETATM   18  O5  UNL     1      13.459   7.103   1.426  1.00  0.00    -0.301 OA
ENDBRANCH  13  17
BRANCH  14  19
HETATM   19  O6  UNL     1      13.103   9.339  -0.603  1.00  0.00    -0.359 OA
ATOM     20  H6  UNL     1      12.666   9.952  -1.183  1.00  0.00     0.217 HD
ENDBRANCH  14  19
BRANCH  15  21
HETATM   21  C14 UNL     1      14.845  11.237  -1.936  1.00  0.00     0.161 C 
HETATM   22  C15 UNL     1      14.978  10.586  -3.249  1.00  0.00     0.097 C 
HETATM   23  O7  UNL     1      14.475  12.465  -1.990  1.00  0.00    -0.293 OA
ENDBRANCH  15  21
BRANCH  16  24
HETATM   24  O8  UNL     1      17.074  11.929  -0.590  1.00  0.00    -0.359 OA
ATOM     25  H8  UNL     1      16.881  12.860  -0.608  1.00  0.00     0.217 HD
ENDBRANCH  16  24
ENDBRANCH   4  10
BRANCH   1  26
HETATM   26  C2  UNL     1      21.634  11.827   3.534  1.00  0.00     0.301 C 
BRANCH  26  27
HETATM   27  O1  UNL     1      22.158  10.724   4.192  1.00  0.00    -0.361 OA
HETATM   28  C1  UNL     1      21.899  10.799   5.571  1.00  0.00     0.205 C 
ENDBRANCH  26  27
BRANCH  26  29
HETATM   29  O2  UNL     1      22.491  12.300   2.543  1.00  0.00    -0.361 OA
HETATM   30  C3  UNL     1      23.047  13.521   2.833  1.00  0.00     0.205 C 
ENDBRANCH  26  29
ENDBRANCH   1  26
BRANCH   2  31
HETATM   31  O3  UNL     1      21.205   9.689   1.822  1.00  0.00    -0.340 OA
ATOM     32  H3  UNL     1      21.192   8.790   2.126  1.00  0.00     0.220 HD
ENDBRANCH   2  31
TORSDOF 9
ENDMDL
MODEL 2
REMARK VINA RESULT: -6.841596429      2.146      3.053
REMARK  9 active torsions:
REMARK  status: ('A' for Active; 'I' for Inactive)
REMARK    1  A    between atoms: O1_2  and  C2_3 
REMARK    2  A    between atoms: C2_3  and  O2_4 
REMARK    3  A    between atoms: C2_3  and  C4_6 
REMARK    4  A    between atoms: C5_7  and  O3_8 
REMARK    5  A    between atoms: C6_11  and  C7_12 
REMARK    6  A    between atoms: C10_15  and  C11_16 
REMARK    7  A    between atoms: C12_18  and  O6_19 
REMARK    8  A    between atoms: C13_21  and  C14_22 
REMARK    9  A    between atoms: C16_25  and  O8_26 
ROOT
HETATM    1  C4  UNL     1      19.779  13.824   3.127  1.00  0.00     0.106 A 
HETATM    2  C5  UNL     1      18.651  14.369   2.531  1.00  0.00     0.199 A 
HETATM    3  O4  UNL     1      17.711  13.651   2.005  1.00  0.00    -0.285 OA
HETATM    4  C6  UNL     1      17.762  12.335   2.000  1.00  0.00     0.116 A 
HETATM    5  C17 UNL     1      18.851  11.724   2.570  1.00  0.00     0.130 A 
HETATM    6  C18 UNL     1      19.054  10.274   2.528  1.00  0.00     0.106 C 
HETATM    7  N1  UNL     1      19.235   9.133   2.474  1.00  0.00    -0.191 NA
HETATM    8  C19 UNL     1      19.879  12.453   3.145  1.00  0.00     0.211 A 
HETATM    9  O9  UNL     1      20.876  11.891   3.670  1.00  0.00    -0.286 OA
ENDROOT
BRANCH   4  10
HETATM   10  C7  UNL     1      16.685  11.554   1.393  1.00  0.00     0.041 A 
HETATM   11  C8  UNL     1      15.734  10.885   2.128  1.00  0.00    -0.030 A 
HETATM   12  C9  UNL     1      15.609  11.107   3.607  1.00  0.00     0.050 C 
HETATM   13  C10 UNL     1      14.803  10.071   1.537  1.00  0.00     0.043 A 
HETATM   14  C12 UNL     1      14.824   9.923   0.121  1.00  0.00     0.096 A 
HETATM   15  C13 UNL     1      15.759  10.583  -0.638  1.00  0.00     0.077 A 
HETATM   16  C16 UNL     1      16.690  11.401   0.029  1.00  0.00     0.096 A 
BRANCH  13  17
HETATM   17  C11 UNL     1      13.784   9.328   2.267  1.00  0.00     0.273 C 
HETATM   18  O5  UNL     1      13.736   8.091   2.329  1.00  0.00    -0.301 OA
ENDBRANCH  13  17
BRANCH  14  19
HETATM   19  O6  UNL     1      13.902   9.126  -0.412  1.00  0.00    -0.359 OA
ATOM     20  H6  UNL     1      14.011   8.898  -1.329  1.00  0.00     0.217 HD
ENDBRANCH  14  19
BRANCH  15  21
HETATM   21  C14 UNL     1      15.847  10.489  -2.076  1.00  0.00     0.161 C 
HETATM   22  C15 UNL     1      14.780  10.741  -3.058  1.00  0.00     0.097 C 
HETATM   23  O7  UNL     1      16.972  10.150  -2.593  1.00  0.00    -0.293 OA
ENDBRANCH  15  21
BRANCH  16  24
HETATM   24  O8  UNL     1      17.619  12.046  -0.774  1.00  0.00    -0.359 OA
ATOM     25  H8  UNL     1      17.376  12.774  -1.334  1.00  0.00     0.217 HD
ENDBRANCH  16  24
ENDBRANCH   4  10
BRANCH   1  26
HETATM   26  C2  UNL     1      20.830  14.709   3.718  1.00  0.00     0.301 C 
BRANCH  26  27
HETATM   27  O1  UNL     1      21.409  15.523   2.756  1.00  0.00    -0.361 OA
HETATM   28  C1  UNL     1      21.893  16.709   3.336  1.00  0.00     0.205 C 
ENDBRANCH  26  27
BRANCH  26  29
HETATM   29  O2  UNL     1      20.326  15.444   4.789  1.00  0.00    -0.361 OA
HETATM   30  C3  UNL     1      20.443  14.806   5.998  1.00  0.00     0.205 C 
ENDBRANCH  26  29
ENDBRANCH   1  26
BRANCH   2  31
HETATM   31  O3  UNL     1      18.568  15.775   2.520  1.00  0.00    -0.340 OA
ATOM     32  H3  UNL     1      17.725  16.148   2.750  1.00  0.00     0.220 HD
ENDBRANCH   2  31
TORSDOF 9
ENDMDL
MODEL 3
REMARK VINA RESULT: -6.624156712      2.351      3.957
REMARK  9 active torsions:
REMARK  status: ('A' for Active; 'I' for Inactive)
REMARK    1  A    between atoms: O1_2  and  C2_3 
REMARK    2  A    between atoms: C2_3  and  O2_4 
REMARK    3  A    between atoms: C2_3  and  C4_6 
REMARK    4  A    between atoms: C5_7  and  O3_8 
REMARK    5  A    between atoms: C6_11  and  C7_12 
REMARK    6  A    between atoms: C10_15  and  C11_16 
REMARK    7  A    between atoms: C12_18  and  O6_19 
REMARK    8  A    between atoms: C13_21  and  C14_22 
REMARK    9  A    between atoms: C16_25  and  O8_26 
ROOT
HETATM    1  C4  UNL     1      19.703  13.908   3.028  1.00  0.00     0.106 A 
HETATM    2  C5  UNL     1      18.700  14.416   2.215  1.00  0.00     0.199 A 
HETATM    3  O4  UNL     1      17.848  13.667   1.590  1.00  0.00    -0.285 OA
HETATM    4  C6  UNL     1      17.876  12.354   1.684  1.00  0.00     0.116 A 
HETATM    5  C17 UNL     1      18.844  11.779   2.470  1.00  0.00     0.130 A 
HETATM    6  C18 UNL     1      19.026  10.328   2.562  1.00  0.00     0.106 C 
HETATM    7  N1  UNL     1      19.194   9.186   2.618  1.00  0.00    -0.191 NA
HETATM    8  C19 UNL     1      19.774  12.541   3.157  1.00  0.00     0.211 A 
HETATM    9  O9  UNL     1      20.660  12.012   3.880  1.00  0.00    -0.286 OA
ENDROOT
BRANCH   4  10
HETATM   10  C7  UNL     1      16.902  11.538   0.960  1.00  0.00     0.041 A 
HETATM   11  C8  UNL     1      17.021  11.234  -0.375  1.00  0.00    -0.030 A 
HETATM   12  C9  UNL     1      18.287  11.532  -1.122  1.00  0.00     0.050 C 
HETATM   13  C10 UNL     1      16.038  10.560  -1.054  1.00  0.00     0.043 A 
HETATM   14  C12 UNL     1      14.867  10.164  -0.347  1.00  0.00     0.096 A 
HETATM   15  C13 UNL     1      14.725  10.451   0.989  1.00  0.00     0.077 A 
HETATM   16  C16 UNL     1      15.767  11.148   1.626  1.00  0.00     0.096 A 
BRANCH  13  17
HETATM   17  C11 UNL     1      16.104  10.223  -2.470  1.00  0.00     0.273 C 
HETATM   18  O5  UNL     1      15.322  10.662  -3.326  1.00  0.00    -0.301 OA
ENDBRANCH  13  17
BRANCH  14  19
HETATM   19  O6  UNL     1      13.940   9.510  -1.042  1.00  0.00    -0.359 OA
ATOM     20  H6  UNL     1      13.211  10.024  -1.372  1.00  0.00     0.217 HD
ENDBRANCH  14  19
BRANCH  15  21
HETATM   21  C14 UNL     1      13.572  10.083   1.776  1.00  0.00     0.161 C 
HETATM   22  C15 UNL     1      13.230   8.751   2.298  1.00  0.00     0.097 C 
HETATM   23  O7  UNL     1      12.727  11.002   2.077  1.00  0.00    -0.293 OA
ENDBRANCH  15  21
BRANCH  16  24
HETATM   24  O8  UNL     1      15.582  11.421   2.974  1.00  0.00    -0.359 OA
ATOM     25  H8  UNL     1      15.381  12.296   3.284  1.00  0.00     0.217 HD
ENDBRANCH  16  24
ENDBRANCH   4  10
BRANCH   1  26
HETATM   26  C2  UNL     1      20.655  14.826   3.725  1.00  0.00     0.301 C 
BRANCH  26  27
HETATM   27  O1  UNL     1      21.321  15.646   2.825  1.00  0.00    -0.361 OA
HETATM   28  C1  UNL     1      22.657  15.834   3.221  1.00  0.00     0.205 C 
ENDBRANCH  26  27
BRANCH  26  29
HETATM   29  O2  UNL     1      20.012  15.559   4.720  1.00  0.00    -0.361 OA
HETATM   30  C3  UNL     1      20.384  15.203   5.993  1.00  0.00     0.205 C 
ENDBRANCH  26  29
ENDBRANCH   1  26
BRANCH   2  31
HETATM   31  O3  UNL     1      18.644  15.818   2.094  1.00  0.00    -0.340 OA
ATOM     32  H3  UNL     1      19.407  16.297   2.394  1.00  0.00     0.220 HD
ENDBRANCH   2  31
TORSDOF 9
ENDMDL
MODEL 4
REMARK VINA RESULT: -6.439416116      2.134      7.150
REMARK  9 active torsions:
REMARK  status: ('A' for Active; 'I' for Inactive)
REMARK    1  A    between atoms: O1_2  and  C2_3 
REMARK    2  A    between atoms: C2_3  and  O2_4 
REMARK    3  A    between atoms: C2_3  and  C4_6 
REMARK    4  A    between atoms: C5_7  and  O3_8 
REMARK    5  A    between atoms: C6_11  and  C7_12 
REMARK    6  A    between atoms: C10_15  and  C11_16 
REMARK    7  A    between atoms: C12_18  and  O6_19 
REMARK    8  A    between atoms: C13_21  and  C14_22 
REMARK    9  A    between atoms: C16_25  and  O8_26 
ROOT
HETATM    1  C4  UNL     1      14.993   9.712   1.740  1.00  0.00     0.106 A 
HETATM    2  C5  UNL     1      15.805   9.544   2.852  1.00  0.00     0.199 A 
HETATM    3  O4  UNL     1      17.010  10.011   2.927  1.00  0.00    -0.285 OA
HETATM    4  C6  UNL     1      17.556  10.685   1.937  1.00  0.00     0.116 A 
HETATM    5  C17 UNL     1      16.814  10.890   0.801  1.00  0.00     0.130 A 
HETATM    6  C18 UNL     1      17.360  11.538  -0.394  1.00  0.00     0.106 C 
HETATM    7  N1  UNL     1      17.793  12.023  -1.350  1.00  0.00    -0.191 NA
HETATM    8  C19 UNL     1      15.520  10.410   0.679  1.00  0.00     0.211 A 
HETATM    9  O9  UNL     1      14.838  10.600  -0.363  1.00  0.00    -0.286 OA
ENDROOT
BRANCH   4  10
HETATM   10  C7  UNL     1      18.923  11.194   2.051  1.00  0.00     0.041 A 
HETATM   11  C8  UNL     1      19.231  12.396   2.645  1.00  0.00    -0.030 A 
HETATM   12  C9  UNL     1      18.198  13.156   3.422  1.00  0.00     0.050 C 
HETATM   13  C10 UNL     1      20.507  12.899   2.640  1.00  0.00     0.043 A 
HETATM   14  C12 UNL     1      21.536  12.147   2.005  1.00  0.00     0.096 A 
HETATM   15  C13 UNL     1      21.257  10.942   1.408  1.00  0.00     0.077 A 
HETATM   16  C16 UNL     1      19.927  10.483   1.444  1.00  0.00     0.096 A 
BRANCH  13  17
HETATM   17  C11 UNL     1      20.887  14.171   3.240  1.00  0.00     0.273 C 
HETATM   18  O5  UNL     1      21.332  15.136   2.602  1.00  0.00    -0.301 OA
ENDBRANCH  13  17
BRANCH  14  19
HETATM   19  O6  UNL     1      22.759  12.671   2.025  1.00  0.00    -0.359 OA
ATOM     20  H6  UNL     1      23.405  12.271   1.454  1.00  0.00     0.217 HD
ENDBRANCH  14  19
BRANCH  15  21
HETATM   21  C14 UNL     1      22.241  10.120   0.746  1.00  0.00     0.161 C 
HETATM   22  C15 UNL     1      22.781   8.828   1.197  1.00  0.00     0.097 C 
HETATM   23  O7  UNL     1      22.724  10.534  -0.370  1.00  0.00    -0.293 OA
ENDBRANCH  15  21
BRANCH  16  24
HETATM   24  O8  UNL     1      19.688   9.264   0.827  1.00  0.00    -0.359 OA
ATOM     25  H8  UNL     1      20.393   8.660   0.623  1.00  0.00     0.217 HD
ENDBRANCH  16  24
ENDBRANCH   4  10
BRANCH   1  26
HETATM   26  C2  UNL     1      13.608   9.151   1.717  1.00  0.00     0.301 C 
BRANCH  26  27
HETATM   27  O1  UNL     1      13.611   7.780   1.930  1.00  0.00    -0.361 OA
HETATM   28  C1  UNL     1      14.108   7.103   0.802  1.00  0.00     0.205 C 
ENDBRANCH  26  27
BRANCH  26  29
HETATM   29  O2  UNL     1      12.779   9.816   2.618  1.00  0.00    -0.361 OA
HETATM   30  C3  UNL     1      12.536  11.124   2.280  1.00  0.00     0.205 C 
ENDBRANCH  26  29
ENDBRANCH   1  26
BRANCH   2  31
HETATM   31  O3  UNL     1      15.248   8.826   3.929  1.00  0.00    -0.340 OA
ATOM     32  H3  UNL     1      15.848   8.570   4.619  1.00  0.00     0.220 HD
ENDBRANCH   2  31
TORSDOF 9
ENDMDL
MODEL 5
REMARK VINA RESULT: -6.425041267      0.997      2.928
REMARK  9 active torsions:
REMARK  status: ('A' for Active; 'I' for Inactive)
REMARK    1  A    between atoms: O1_2  and  C2_3 
REMARK    2  A    between atoms: C2_3  and  O2_4 
REMARK    3  A    between atoms: C2_3  and  C4_6 
REMARK    4  A    between atoms: C5_7  and  O3_8 
REMARK    5  A    between atoms: C6_11  and  C7_12 
REMARK    6  A    between atoms: C10_15  and  C11_16 
REMARK    7  A    between atoms: C12_18  and  O6_19 
REMARK    8  A    between atoms: C13_21  and  C14_22 
REMARK    9  A    between atoms: C16_25  and  O8_26 
ROOT
HETATM    1  C4  UNL     1      20.200  10.949   3.125  1.00  0.00     0.106 A 
HETATM    2  C5  UNL     1      19.970   9.923   2.220  1.00  0.00     0.199 A 
HETATM    3  O4  UNL     1      18.849   9.773   1.589  1.00  0.00    -0.285 OA
HETATM    4  C6  UNL     1      17.836  10.595   1.768  1.00  0.00     0.116 A 
HETATM    5  C17 UNL     1      17.988  11.633   2.652  1.00  0.00     0.130 A 
HETATM    6  C18 UNL     1      16.893  12.543   2.999  1.00  0.00     0.106 C 
HETATM    7  N1  UNL     1      16.026  13.246   3.298  1.00  0.00    -0.191 NA
HETATM    8  C19 UNL     1      19.170  11.833   3.347  1.00  0.00     0.211 A 
HETATM    9  O9  UNL     1      19.310  12.788   4.155  1.00  0.00    -0.286 OA
ENDROOT
BRANCH   4  10
HETATM   10  C7  UNL     1      16.581  10.393   1.044  1.00  0.00     0.041 A 
HETATM   11  C8  UNL     1      16.277  11.042  -0.130  1.00  0.00    -0.030 A 
HETATM   12  C9  UNL     1      17.321  11.830  -0.865  1.00  0.00     0.050 C 
HETATM   13  C10 UNL     1      15.050  10.918  -0.729  1.00  0.00     0.043 A 
HETATM   14  C12 UNL     1      14.070  10.088  -0.114  1.00  0.00     0.096 A 
HETATM   15  C13 UNL     1      14.348   9.425   1.056  1.00  0.00     0.077 A 
HETATM   16  C16 UNL     1      15.624   9.597   1.622  1.00  0.00     0.096 A 
BRANCH  13  17
HETATM   17  C11 UNL     1      14.669  11.593  -1.963  1.00  0.00     0.273 C 
HETATM   18  O5  UNL     1      14.501  11.016  -3.047  1.00  0.00    -0.301 OA
ENDBRANCH  13  17
BRANCH  14  19
HETATM   19  O6  UNL     1      12.894   9.994  -0.729  1.00  0.00    -0.359 OA
ATOM     20  H6  UNL     1      12.627   9.127  -1.012  1.00  0.00     0.217 HD
ENDBRANCH  14  19
BRANCH  15  21
HETATM   21  C14 UNL     1      13.412   8.565   1.740  1.00  0.00     0.161 C 
HETATM   22  C15 UNL     1      12.304   8.966   2.622  1.00  0.00     0.097 C 
HETATM   23  O7  UNL     1      13.530   7.296   1.582  1.00  0.00    -0.293 OA
ENDBRANCH  15  21
BRANCH  16  24
HETATM   24  O8  UNL     1      15.863   8.912   2.805  1.00  0.00    -0.359 OA
ATOM     25  H8  UNL     1      16.721   8.901   3.212  1.00  0.00     0.217 HD
ENDBRANCH  16  24
ENDBRANCH   4  10
BRANCH   1  26
HETATM   26  C2  UNL     1      21.518  11.069   3.820  1.00  0.00     0.301 C 
BRANCH  26  27
HETATM   27  O1  UNL     1      21.813   9.928   4.552  1.00  0.00    -0.361 OA
HETATM   28  C1  UNL     1      21.996  10.244   5.910  1.00  0.00     0.205 C 
ENDBRANCH  26  27
BRANCH  26  29
HETATM   29  O2  UNL     1      22.534  11.389   2.921  1.00  0.00    -0.361 OA
HETATM   30  C3  UNL     1      22.750  12.738   2.792  1.00  0.00     0.205 C 
ENDBRANCH  26  29
ENDBRANCH   1  26
BRANCH   2  31
HETATM   31  O3  UNL     1      21.035   9.027   2.007  1.00  0.00    -0.340 OA
ATOM     32  H3  UNL     1      21.907   9.361   2.182  1.00  0.00     0.220 HD
ENDBRANCH   2  31
TORSDOF 9
ENDMDL
