MODEL 1
REMARK VINA RESULT: -7.270962377      0.000      0.000
REMARK  8 active torsions:
REMARK  status: ('A' for Active; 'I' for Inactive)
REMARK    1  A    between atoms: O1_2  and  C2_3 
REMARK    2  A    between atoms: C4_5  and  C5_6 
REMARK    3  A    between atoms: N1_7  and  N2_9 
REMARK    4  A    between atoms: N2_9  and  C6_11 
REMARK    5  A    between atoms: C7_16  and  C8_17 
REMARK    6  A    between atoms: C12_28  and  O2_29 
REMARK    7  A    between atoms: C14_31  and  O3_32 
REMARK    8  A    between atoms: O3_32  and  C15_33 
ROOT
HETATM    1  C5  UNL     1      16.763   9.300   3.230  1.00  0.00     0.119 C 
HETATM    2  N1  UNL     1      16.008   8.653   2.403  1.00  0.00    -0.297 N 
ATOM      3  H1  UNL     1      16.379   7.893   1.832  1.00  0.00     0.186 HD
ENDROOT
BRANCH   2   4
HETATM    4  N2  UNL     1      14.669   9.032   2.321  1.00  0.00    -0.131 N 
ATOM      5  H2  UNL     1      14.012   8.838   3.077  1.00  0.00     0.205 HD
BRANCH   4   6
HETATM    6  C6  UNL     1      14.295   9.645   1.236  1.00  0.00     0.713 A 
HETATM    7  N3  UNL     1      13.429  10.679   1.143  1.00  0.00    -0.129 N 
HETATM    8  N4  UNL     1      13.318  11.011  -0.132  1.00  0.00    -0.268 N 
ATOM      9  H3  UNL     1      12.945  11.125   1.922  1.00  0.00     0.205 HD
HETATM   10  C7  UNL     1      14.094  10.219  -0.886  1.00  0.00     0.171 A 
ATOM     11  H4  UNL     1      12.728  11.762  -0.490  1.00  0.00     0.189 HD
HETATM   12  N7  UNL     1      14.686   9.386  -0.025  1.00  0.00    -0.170 N 
ATOM     13  H7  UNL     1      15.345   8.654  -0.287  1.00  0.00     0.186 HD
BRANCH  10  14
HETATM   14  C8  UNL     1      14.241  10.277  -2.334  1.00  0.00     0.137 A 
HETATM   15  N5  UNL     1      13.300  10.112  -3.258  1.00  0.00    -0.290 N 
HETATM   16  N6  UNL     1      13.594  10.195  -4.480  1.00  0.00    -0.297 N 
ATOM     17  H5  UNL     1      12.339   9.919  -2.977  1.00  0.00     0.188 HD
HETATM   18  C9  UNL     1      14.844  10.446  -4.854  1.00  0.00     0.064 A 
ATOM     19  H6  UNL     1      12.868  10.068  -5.186  1.00  0.00     0.187 HD
HETATM   20  C10 UNL     1      15.410  10.585  -6.233  1.00  0.00     0.078 C 
HETATM   21  S1  UNL     1      15.613  10.564  -3.313  1.00  0.00    -0.053 SA
ENDBRANCH  10  14
ENDBRANCH   4   6
ENDBRANCH   2   4
BRANCH   1  22
HETATM   22  C4  UNL     1      18.182   8.902   3.321  1.00  0.00    -0.014 A 
HETATM   23  C3  UNL     1      18.523   7.701   3.880  1.00  0.00     0.052 A 
HETATM   24  C2  UNL     1      19.867   7.325   3.966  1.00  0.00     0.105 A 
HETATM   25  C14 UNL     1      20.855   8.160   3.488  1.00  0.00     0.144 A 
HETATM   26  C12 UNL     1      20.519   9.364   2.927  1.00  0.00     0.105 A 
HETATM   27  C11 UNL     1      19.185   9.721   2.850  1.00  0.00     0.052 A 
BRANCH  24  28
HETATM   28  O1  UNL     1      20.212   6.107   4.534  1.00  0.00    -0.353 OA
HETATM   29  C1  UNL     1      19.676   4.910   4.003  1.00  0.00     0.210 C 
ENDBRANCH  24  28
BRANCH  25  30
HETATM   30  O3  UNL     1      22.210   7.810   3.560  1.00  0.00    -0.293 OA
BRANCH  30  31
HETATM   31  C15 UNL     1      22.785   6.978   2.612  1.00  0.00     0.114 C 
HETATM   32  C16 UNL     1      23.067   7.472   1.220  1.00  0.00     0.097 C 
HETATM   33  N8  UNL     1      23.065   5.771   2.975  1.00  0.00    -0.384 N 
ATOM     34  H82 UNL     1      22.873   5.436   3.920  1.00  0.00     0.157 HD
ATOM     35  H81 UNL     1      23.488   5.159   2.278  1.00  0.00     0.157 HD
ENDBRANCH  30  31
ENDBRANCH  25  30
BRANCH  26  36
HETATM   36  O2  UNL     1      21.465  10.246   2.429  1.00  0.00    -0.353 OA
HETATM   37  C13 UNL     1      21.363  10.884   1.192  1.00  0.00     0.210 C 
ENDBRANCH  26  36
ENDBRANCH   1  22
TORSDOF 8
ENDMDL
MODEL 2
REMARK VINA RESULT: -7.261107185      0.162      2.407
REMARK  8 active torsions:
REMARK  status: ('A' for Active; 'I' for Inactive)
REMARK    1  A    between atoms: O1_2  and  C2_3 
REMARK    2  A    between atoms: C4_5  and  C5_6 
REMARK    3  A    between atoms: N1_7  and  N2_9 
REMARK    4  A    between atoms: N2_9  and  C6_11 
REMARK    5  A    between atoms: C7_16  and  C8_17 
REMARK    6  A    between atoms: C12_28  and  O2_29 
REMARK    7  A    between atoms: C14_31  and  O3_32 
REMARK    8  A    between atoms: O3_32  and  C15_33 
ROOT
HETATM    1  C5  UNL     1      16.756   9.107   3.405  1.00  0.00     0.119 C 
HETATM    2  N1  UNL     1      16.078   8.700   2.381  1.00  0.00    -0.297 N 
ATOM      3  H1  UNL     1      16.513   8.140   1.648  1.00  0.00     0.186 HD
ENDROOT
BRANCH   2   4
HETATM    4  N2  UNL     1      14.731   9.055   2.318  1.00  0.00    -0.131 N 
ATOM      5  H2  UNL     1      14.092   8.862   3.089  1.00  0.00     0.205 HD
BRANCH   4   6
HETATM    6  C6  UNL     1      14.327   9.643   1.230  1.00  0.00     0.713 A 
HETATM    7  N3  UNL     1      13.394  10.617   1.131  1.00  0.00    -0.129 N 
HETATM    8  N4  UNL     1      13.274  10.944  -0.144  1.00  0.00    -0.268 N 
ATOM      9  H3  UNL     1      12.874  11.029   1.906  1.00  0.00     0.205 HD
HETATM   10  C7  UNL     1      14.108  10.207  -0.892  1.00  0.00     0.171 A 
ATOM     11  H4  UNL     1      12.638  11.654  -0.507  1.00  0.00     0.189 HD
HETATM   12  N7  UNL     1      14.746   9.414  -0.027  1.00  0.00    -0.170 N 
ATOM     13  H7  UNL     1      15.455   8.728  -0.285  1.00  0.00     0.186 HD
BRANCH  10  14
HETATM   14  C8  UNL     1      14.264  10.278  -2.339  1.00  0.00     0.137 A 
HETATM   15  N5  UNL     1      13.327  10.129  -3.270  1.00  0.00    -0.290 N 
HETATM   16  N6  UNL     1      13.628  10.221  -4.490  1.00  0.00    -0.297 N 
ATOM     17  H5  UNL     1      12.363   9.941  -2.997  1.00  0.00     0.188 HD
HETATM   18  C9  UNL     1      14.883  10.466  -4.854  1.00  0.00     0.064 A 
ATOM     19  H6  UNL     1      12.906  10.108  -5.201  1.00  0.00     0.187 HD
HETATM   20  C10 UNL     1      15.459  10.613  -6.228  1.00  0.00     0.078 C 
HETATM   21  S1  UNL     1      15.643  10.563  -3.308  1.00  0.00    -0.053 SA
ENDBRANCH  10  14
ENDBRANCH   4   6
ENDBRANCH   2   4
BRANCH   1  22
HETATM   22  C4  UNL     1      18.183   8.733   3.476  1.00  0.00    -0.014 A 
HETATM   23  C3  UNL     1      19.142   9.601   3.032  1.00  0.00     0.052 A 
HETATM   24  C2  UNL     1      20.493   9.247   3.100  1.00  0.00     0.105 A 
HETATM   25  C14 UNL     1      20.866   8.023   3.614  1.00  0.00     0.144 A 
HETATM   26  C12 UNL     1      19.909   7.149   4.061  1.00  0.00     0.105 A 
HETATM   27  C11 UNL     1      18.578   7.515   3.987  1.00  0.00     0.052 A 
BRANCH  24  28
HETATM   28  O1  UNL     1      21.465  10.128   2.650  1.00  0.00    -0.353 OA
HETATM   29  C1  UNL     1      21.323  10.741   1.383  1.00  0.00     0.210 C 
ENDBRANCH  24  28
BRANCH  25  30
HETATM   30  O3  UNL     1      22.211   7.640   3.696  1.00  0.00    -0.293 OA
BRANCH  30  31
HETATM   31  C15 UNL     1      22.786   6.834   2.727  1.00  0.00     0.114 C 
HETATM   32  C16 UNL     1      23.066   7.362   1.347  1.00  0.00     0.097 C 
HETATM   33  N8  UNL     1      23.067   5.618   3.059  1.00  0.00    -0.384 N 
ATOM     34  H82 UNL     1      22.878   5.259   3.995  1.00  0.00     0.157 HD
ATOM     35  H81 UNL     1      23.490   5.024   2.346  1.00  0.00     0.157 HD
ENDBRANCH  30  31
ENDBRANCH  25  30
BRANCH  26  36
HETATM   36  O2  UNL     1      20.220   5.906   4.587  1.00  0.00    -0.353 OA
HETATM   37  C13 UNL     1      19.717   4.701   4.095  1.00  0.00     0.210 C 
ENDBRANCH  26  36
ENDBRANCH   1  22
TORSDOF 8
ENDMDL
MODEL 3
REMARK VINA RESULT: -7.247777384      5.619      9.676
REMARK  8 active torsions:
REMARK  status: ('A' for Active; 'I' for Inactive)
REMARK    1  A    between atoms: O1_2  and  C2_3 
REMARK    2  A    between atoms: C4_5  and  C5_6 
REMARK    3  A    between atoms: N1_7  and  N2_9 
REMARK    4  A    between atoms: N2_9  and  C6_11 
REMARK    5  A    between atoms: C7_16  and  C8_17 
REMARK    6  A    between atoms: C12_28  and  O2_29 
REMARK    7  A    between atoms: C14_31  and  O3_32 
REMARK    8  A    between atoms: O3_32  and  C15_33 
ROOT
HETATM    1  C5  UNL     1      17.861  10.622  -1.154  1.00  0.00     0.119 C 
HETATM    2  N1  UNL     1      18.411  11.788  -1.260  1.00  0.00    -0.297 N 
ATOM      3  H1  UNL     1      17.936  12.555  -1.736  1.00  0.00     0.186 HD
ENDROOT
BRANCH   2   4
HETATM    4  N2  UNL     1      19.677  11.957  -0.700  1.00  0.00    -0.131 N 
ATOM      5  H2  UNL     1      20.526  11.813  -1.246  1.00  0.00     0.205 HD
BRANCH   4   6
HETATM    6  C6  UNL     1      19.725  12.307   0.553  1.00  0.00     0.713 A 
HETATM    7  N3  UNL     1      19.709  11.487   1.627  1.00  0.00    -0.129 N 
HETATM    8  N4  UNL     1      19.774  12.234   2.716  1.00  0.00    -0.268 N 
ATOM      9  H3  UNL     1      19.655  10.469   1.602  1.00  0.00     0.205 HD
HETATM   10  C7  UNL     1      19.835  13.532   2.385  1.00  0.00     0.171 A 
ATOM     11  H4  UNL     1      19.778  11.875   3.671  1.00  0.00     0.189 HD
HETATM   12  N7  UNL     1      19.804  13.555   1.050  1.00  0.00    -0.170 N 
ATOM     13  H7  UNL     1      19.835  14.402   0.483  1.00  0.00     0.186 HD
BRANCH  10  14
HETATM   14  C8  UNL     1      19.917  14.658   3.307  1.00  0.00     0.137 A 
HETATM   15  N5  UNL     1      19.010  15.606   3.520  1.00  0.00    -0.290 N 
HETATM   16  N6  UNL     1      19.236  16.518   4.360  1.00  0.00    -0.297 N 
ATOM     17  H5  UNL     1      18.131  15.596   3.005  1.00  0.00     0.188 HD
HETATM   18  C9  UNL     1      20.380  16.538   5.036  1.00  0.00     0.064 A 
ATOM     19  H6  UNL     1      18.537  17.244   4.522  1.00  0.00     0.187 HD
HETATM   20  C10 UNL     1      20.854  17.515   6.068  1.00  0.00     0.078 C 
HETATM   21  S1  UNL     1      21.150  15.136   4.389  1.00  0.00    -0.053 SA
ENDBRANCH  10  14
ENDBRANCH   4   6
ENDBRANCH   2   4
BRANCH   1  22
HETATM   22  C4  UNL     1      16.522  10.437  -1.746  1.00  0.00    -0.014 A 
HETATM   23  C3  UNL     1      16.306  10.741  -3.062  1.00  0.00     0.052 A 
HETATM   24  C2  UNL     1      15.037  10.567  -3.622  1.00  0.00     0.105 A 
HETATM   25  C14 UNL     1      13.997  10.088  -2.854  1.00  0.00     0.144 A 
HETATM   26  C12 UNL     1      14.208   9.782  -1.534  1.00  0.00     0.105 A 
HETATM   27  C11 UNL     1      15.468   9.961  -0.996  1.00  0.00     0.052 A 
BRANCH  24  28
HETATM   28  O1  UNL     1      14.819  10.875  -4.958  1.00  0.00    -0.353 OA
HETATM   29  C1  UNL     1      15.700  10.376  -5.944  1.00  0.00     0.210 C 
ENDBRANCH  24  28
BRANCH  25  30
HETATM   30  O3  UNL     1      12.714   9.902  -3.387  1.00  0.00    -0.293 OA
BRANCH  30  31
HETATM   31  C15 UNL     1      12.528   9.233  -4.586  1.00  0.00     0.114 C 
HETATM   32  C16 UNL     1      13.167   7.894  -4.831  1.00  0.00     0.097 C 
HETATM   33  N8  UNL     1      11.788   9.806  -5.475  1.00  0.00    -0.384 N 
ATOM     34  H82 UNL     1      11.354  10.715  -5.309  1.00  0.00     0.157 HD
ATOM     35  H81 UNL     1      11.651   9.314  -6.358  1.00  0.00     0.157 HD
ENDBRANCH  30  31
ENDBRANCH  25  30
BRANCH  26  36
HETATM   36  O2  UNL     1      13.204   9.298  -0.710  1.00  0.00    -0.353 OA
HETATM   37  C13 UNL     1      13.328   9.160   0.673  1.00  0.00     0.210 C 
ENDBRANCH  26  36
ENDBRANCH   1  22
TORSDOF 8
ENDMDL
MODEL 4
REMARK VINA RESULT: -7.190245235      4.464      9.333
REMARK  8 active torsions:
REMARK  status: ('A' for Active; 'I' for Inactive)
REMARK    1  A    between atoms: O1_2  and  C2_3 
REMARK    2  A    between atoms: C4_5  and  C5_6 
REMARK    3  A    between atoms: N1_7  and  N2_9 
REMARK    4  A    between atoms: N2_9  and  C6_11 
REMARK    5  A    between atoms: C7_16  and  C8_17 
REMARK    6  A    between atoms: C12_28  and  O2_29 
REMARK    7  A    between atoms: C14_31  and  O3_32 
REMARK    8  A    between atoms: O3_32  and  C15_33 
ROOT
HETATM    1  C5  UNL     1      17.699  10.917  -1.042  1.00  0.00     0.119 C 
HETATM    2  N1  UNL     1      17.715  11.323   0.186  1.00  0.00    -0.297 N 
ATOM      3  H1  UNL     1      16.851  11.443   0.714  1.00  0.00     0.186 HD
ENDROOT
BRANCH   2   4
HETATM    4  N2  UNL     1      18.957  11.590   0.760  1.00  0.00    -0.131 N 
ATOM      5  H2  UNL     1      19.537  12.365   0.441  1.00  0.00     0.205 HD
BRANCH   4   6
HETATM    6  C6  UNL     1      19.343  10.804   1.723  1.00  0.00     0.713 A 
HETATM    7  N3  UNL     1      19.804  11.175   2.939  1.00  0.00    -0.129 N 
HETATM    8  N4  UNL     1      20.088  10.079   3.623  1.00  0.00    -0.268 N 
ATOM      9  H3  UNL     1      19.913  12.133   3.271  1.00  0.00     0.205 HD
HETATM   10  C7  UNL     1      19.824   8.991   2.885  1.00  0.00     0.171 A 
ATOM     11  H4  UNL     1      20.454  10.064   4.575  1.00  0.00     0.189 HD
HETATM   12  N7  UNL     1      19.366   9.460   1.721  1.00  0.00    -0.170 N 
ATOM     13  H7  UNL     1      19.075   8.877   0.936  1.00  0.00     0.186 HD
BRANCH  10  14
HETATM   14  C8  UNL     1      20.006   7.604   3.293  1.00  0.00     0.137 A 
HETATM   15  N5  UNL     1      19.092   6.768   3.775  1.00  0.00    -0.290 N 
HETATM   16  N6  UNL     1      19.415   5.589   4.083  1.00  0.00    -0.297 N 
ATOM     17  H5  UNL     1      18.129   7.080   3.897  1.00  0.00     0.188 HD
HETATM   18  C9  UNL     1      20.668   5.175   3.928  1.00  0.00     0.064 A 
ATOM     19  H6  UNL     1      18.710   4.950   4.452  1.00  0.00     0.187 HD
HETATM   20  C10 UNL     1      21.266   3.835   4.224  1.00  0.00     0.078 C 
HETATM   21  S1  UNL     1      21.394   6.607   3.296  1.00  0.00    -0.053 SA
ENDBRANCH  10  14
ENDBRANCH   4   6
ENDBRANCH   2   4
BRANCH   1  22
HETATM   22  C4  UNL     1      16.387  10.633  -1.655  1.00  0.00    -0.014 A 
HETATM   23  C3  UNL     1      16.181  10.887  -2.983  1.00  0.00     0.052 A 
HETATM   24  C2  UNL     1      14.937  10.618  -3.563  1.00  0.00     0.105 A 
HETATM   25  C14 UNL     1      13.913  10.096  -2.802  1.00  0.00     0.144 A 
HETATM   26  C12 UNL     1      14.114   9.839  -1.471  1.00  0.00     0.105 A 
HETATM   27  C11 UNL     1      15.349  10.111  -0.913  1.00  0.00     0.052 A 
BRANCH  24  28
HETATM   28  O1  UNL     1      14.729  10.876  -4.910  1.00  0.00    -0.353 OA
HETATM   29  C1  UNL     1      15.683  10.446  -5.862  1.00  0.00     0.210 C 
ENDBRANCH  24  28
BRANCH  25  30
HETATM   30  O3  UNL     1      12.656   9.816  -3.355  1.00  0.00    -0.293 OA
BRANCH  30  31
HETATM   31  C15 UNL     1      12.540   9.188  -4.585  1.00  0.00     0.114 C 
HETATM   32  C16 UNL     1      13.217   7.871  -4.849  1.00  0.00     0.097 C 
HETATM   33  N8  UNL     1      11.830   9.780  -5.487  1.00  0.00    -0.384 N 
ATOM     34  H82 UNL     1      11.371  10.674  -5.308  1.00  0.00     0.157 HD
ATOM     35  H81 UNL     1      11.745   9.319  -6.393  1.00  0.00     0.157 HD
ENDBRANCH  30  31
ENDBRANCH  25  30
BRANCH  26  36
HETATM   36  O2  UNL     1      13.125   9.315  -0.653  1.00  0.00    -0.353 OA
HETATM   37  C13 UNL     1      13.281   9.089   0.715  1.00  0.00     0.210 C 
ENDBRANCH  26  36
ENDBRANCH   1  22
TORSDOF 8
ENDMDL
MODEL 5
REMARK VINA RESULT: -7.176488071      4.466      9.119
REMARK  8 active torsions:
REMARK  status: ('A' for Active; 'I' for Inactive)
REMARK    1  A    between atoms: O1_2  and  C2_3 
REMARK    2  A    between atoms: C4_5  and  C5_6 
REMARK    3  A    between atoms: N1_7  and  N2_9 
REMARK    4  A    between atoms: N2_9  and  C6_11 
REMARK    5  A    between atoms: C7_16  and  C8_17 
REMARK    6  A    between atoms: C12_28  and  O2_29 
REMARK    7  A    between atoms: C14_31  and  O3_32 
REMARK    8  A    between atoms: O3_32  and  C15_33 
ROOT
HETATM    1  C5  UNL     1      17.669  10.944  -1.033  1.00  0.00     0.119 C 
HETATM    2  N1  UNL     1      17.699  11.291   0.212  1.00  0.00    -0.297 N 
ATOM      3  H1  UNL     1      16.843  11.357   0.763  1.00  0.00     0.186 HD
ENDROOT
BRANCH   2   4
HETATM    4  N2  UNL     1      18.944  11.571   0.774  1.00  0.00    -0.131 N 
ATOM      5  H2  UNL     1      19.511  12.355   0.451  1.00  0.00     0.205 HD
BRANCH   4   6
HETATM    6  C6  UNL     1      19.350  10.786   1.729  1.00  0.00     0.713 A 
HETATM    7  N3  UNL     1      19.853  11.157   2.928  1.00  0.00    -0.129 N 
HETATM    8  N4  UNL     1      20.145  10.062   3.609  1.00  0.00    -0.268 N 
ATOM      9  H3  UNL     1      19.984  12.115   3.251  1.00  0.00     0.205 HD
HETATM   10  C7  UNL     1      19.846   8.973   2.886  1.00  0.00     0.171 A 
ATOM     11  H4  UNL     1      20.541  10.048   4.549  1.00  0.00     0.189 HD
HETATM   12  N7  UNL     1      19.358   9.441   1.734  1.00  0.00    -0.170 N 
ATOM     13  H7  UNL     1      19.035   8.858   0.962  1.00  0.00     0.186 HD
BRANCH  10  14
HETATM   14  C8  UNL     1      20.024   7.586   3.295  1.00  0.00     0.137 A 
HETATM   15  N5  UNL     1      19.109   6.754   3.782  1.00  0.00    -0.290 N 
HETATM   16  N6  UNL     1      19.428   5.575   4.090  1.00  0.00    -0.297 N 
ATOM     17  H5  UNL     1      18.147   7.070   3.905  1.00  0.00     0.188 HD
HETATM   18  C9  UNL     1      20.679   5.156   3.933  1.00  0.00     0.064 A 
ATOM     19  H6  UNL     1      18.722   4.939   4.463  1.00  0.00     0.187 HD
HETATM   20  C10 UNL     1      21.273   3.814   4.230  1.00  0.00     0.078 C 
HETATM   21  S1  UNL     1      21.409   6.584   3.296  1.00  0.00    -0.053 SA
ENDBRANCH  10  14
ENDBRANCH   4   6
ENDBRANCH   2   4
BRANCH   1  22
HETATM   22  C4  UNL     1      16.353  10.647  -1.632  1.00  0.00    -0.014 A 
HETATM   23  C3  UNL     1      15.350  10.127  -0.861  1.00  0.00     0.052 A 
HETATM   24  C2  UNL     1      14.104   9.846  -1.429  1.00  0.00     0.105 A 
HETATM   25  C14 UNL     1      13.878  10.090  -2.768  1.00  0.00     0.144 A 
HETATM   26  C12 UNL     1      14.880  10.611  -3.545  1.00  0.00     0.105 A 
HETATM   27  C11 UNL     1      16.106  10.884  -2.968  1.00  0.00     0.052 A 
BRANCH  24  28
HETATM   28  O1  UNL     1      13.087   9.319  -0.646  1.00  0.00    -0.353 OA
HETATM   29  C1  UNL     1      13.313   9.083   0.730  1.00  0.00     0.210 C 
ENDBRANCH  24  28
BRANCH  25  30
HETATM   30  O3  UNL     1      12.640   9.819  -3.365  1.00  0.00    -0.293 OA
BRANCH  30  31
HETATM   31  C15 UNL     1      12.562   9.190  -4.596  1.00  0.00     0.114 C 
HETATM   32  C16 UNL     1      13.239   7.868  -4.833  1.00  0.00     0.097 C 
HETATM   33  N8  UNL     1      11.888   9.784  -5.524  1.00  0.00    -0.384 N 
ATOM     34  H82 UNL     1      11.429  10.681  -5.363  1.00  0.00     0.157 HD
ATOM     35  H81 UNL     1      11.831   9.321  -6.431  1.00  0.00     0.157 HD
ENDBRANCH  30  31
ENDBRANCH  25  30
BRANCH  26  36
HETATM   36  O2  UNL     1      14.715  10.879  -4.895  1.00  0.00    -0.353 OA
HETATM   37  C13 UNL     1      15.636  10.521  -5.880  1.00  0.00     0.210 C 
ENDBRANCH  26  36
ENDBRANCH   1  22
TORSDOF 8
ENDMDL
