MODEL 1
REMARK VINA RESULT: -7.640885711      0.000      0.000
REMARK  9 active torsions:
REMARK  status: ('A' for Active; 'I' for Inactive)
REMARK    1  A    between atoms: O1_2  and  C2_3 
REMARK    2  A    between atoms: C2_3  and  C3_5 
REMARK    3  A    between atoms: C4_7  and  N1_8 
REMARK    4  A    between atoms: N1_8  and  C5_10 
REMARK    5  A    between atoms: C5_10  and  C7_13 
REMARK    6  A    between atoms: C8_16  and  N4_17 
REMARK    7  A    between atoms: C9_22  and  O3_23 
REMARK    8  A    between atoms: C13_27  and  C14_28 
REMARK    9  A    between atoms: C14_28  and  O5_30 
ROOT
HETATM    1  C5  UNL     1      18.957  11.124   0.744  1.00  0.00     0.241 C 
HETATM    2  C6  UNL     1      19.274  12.233  -0.201  1.00  0.00     0.091 C 
HETATM    3  N2  UNL     1      19.521  13.093  -0.909  1.00  0.00    -0.195 NA
ENDROOT
BRANCH   1   4
HETATM    4  N1  UNL     1      17.837  10.372   0.387  1.00  0.00    -0.362 N 
ATOM      5  H1  UNL     1      17.878   9.456   0.834  1.00  0.00     0.162 HD
BRANCH   4   6
HETATM    6  C4  UNL     1      16.677  10.472  -0.385  1.00  0.00     0.089 A 
HETATM    7  S1  UNL     1      16.837  10.218  -2.116  1.00  0.00    -0.065 SA
HETATM    8  C3  UNL     1      15.225  10.458  -2.596  1.00  0.00     0.089 A 
HETATM    9  C16 UNL     1      14.606  10.724  -1.425  1.00  0.00    -0.020 A 
HETATM   10  C13 UNL     1      15.361  10.727  -0.276  1.00  0.00     0.080 A 
HETATM   11  C17 UNL     1      13.105  11.049  -1.418  1.00  0.00     0.051 C 
BRANCH   8  12
HETATM   12  C2  UNL     1      14.740  10.359  -3.991  1.00  0.00     0.300 C 
HETATM   13  O2  UNL     1      15.106  11.054  -4.933  1.00  0.00    -0.259 OA
BRANCH  12  14
HETATM   14  O1  UNL     1      13.766   9.383  -4.290  1.00  0.00    -0.322 OA
HETATM   15  C1  UNL     1      12.741   9.647  -5.223  1.00  0.00     0.213 C 
ENDBRANCH  12  14
ENDBRANCH   8  12
BRANCH  10  16
HETATM   16  C14 UNL     1      14.696  10.835   1.050  1.00  0.00     0.296 C 
HETATM   17  O4  UNL     1      15.198  11.567   1.942  1.00  0.00    -0.259 OA
BRANCH  16  18
HETATM   18  O5  UNL     1      13.552  10.210   1.412  1.00  0.00    -0.322 OA
HETATM   19  C15 UNL     1      13.387   8.850   1.663  1.00  0.00     0.213 C 
ENDBRANCH  16  18
ENDBRANCH  10  16
ENDBRANCH   4   6
ENDBRANCH   1   4
BRANCH   1  20
HETATM   20  C7  UNL     1      20.206  10.268   0.806  1.00  0.00     0.073 A 
HETATM   21  N3  UNL     1      21.097  10.290  -0.239  1.00  0.00    -0.192 N 
HETATM   22  C8  UNL     1      22.236   9.574  -0.199  1.00  0.00     0.678 A 
ATOM     23  H3  UNL     1      20.892  10.858  -1.060  1.00  0.00     0.184 HD
HETATM   24  N5  UNL     1      22.506   8.830   0.879  1.00  0.00    -0.170 N 
HETATM   25  C9  UNL     1      21.646   8.797   1.913  1.00  0.00     0.165 A 
ATOM     26  H5  UNL     1      23.367   8.286   0.918  1.00  0.00     0.186 HD
HETATM   27  C11 UNL     1      20.445   9.528   1.911  1.00  0.00     0.016 A 
HETATM   28  C12 UNL     1      19.594   9.366   3.062  1.00  0.00     0.055 C 
BRANCH  22  29
HETATM   29  N4  UNL     1      23.064   9.591  -1.164  1.00  0.00    -0.234 N 
ATOM     30  H42 UNL     1      23.203   8.744  -1.716  1.00  0.00     0.174 HD
ATOM     31  H41 UNL     1      23.593  10.431  -1.397  1.00  0.00     0.174 HD
ENDBRANCH  22  29
BRANCH  25  32
HETATM   32  O3  UNL     1      21.950   8.012   3.027  1.00  0.00    -0.340 OA
HETATM   33  C10 UNL     1      22.347   6.678   2.895  1.00  0.00     0.211 C 
ENDBRANCH  25  32
ENDBRANCH   1  20
TORSDOF 9
ENDMDL
MODEL 2
REMARK VINA RESULT: -7.618031399      3.082      4.501
REMARK  9 active torsions:
REMARK  status: ('A' for Active; 'I' for Inactive)
REMARK    1  A    between atoms: O1_2  and  C2_3 
REMARK    2  A    between atoms: C2_3  and  C3_5 
REMARK    3  A    between atoms: C4_7  and  N1_8 
REMARK    4  A    between atoms: N1_8  and  C5_10 
REMARK    5  A    between atoms: C5_10  and  C7_13 
REMARK    6  A    between atoms: C8_16  and  N4_17 
REMARK    7  A    between atoms: C9_22  and  O3_23 
REMARK    8  A    between atoms: C13_27  and  C14_28 
REMARK    9  A    between atoms: C14_28  and  O5_30 
ROOT
HETATM    1  C5  UNL     1      17.326  11.458   3.104  1.00  0.00     0.241 C 
HETATM    2  C6  UNL     1      16.104  12.228   3.479  1.00  0.00     0.091 C 
HETATM    3  N2  UNL     1      15.175  12.814   3.785  1.00  0.00    -0.195 NA
ENDROOT
BRANCH   1   4
HETATM    4  N1  UNL     1      17.136  10.567   2.047  1.00  0.00    -0.362 N 
ATOM      5  H1  UNL     1      17.377   9.622   2.344  1.00  0.00     0.162 HD
BRANCH   4   6
HETATM    6  C4  UNL     1      16.722  10.554   0.713  1.00  0.00     0.089 A 
HETATM    7  S1  UNL     1      15.078  10.029   0.384  1.00  0.00    -0.065 SA
HETATM    8  C3  UNL     1      15.063  10.162  -1.309  1.00  0.00     0.089 A 
HETATM    9  C16 UNL     1      16.310  10.605  -1.581  1.00  0.00    -0.020 A 
HETATM   10  C13 UNL     1      17.170  10.812  -0.529  1.00  0.00     0.080 A 
HETATM   11  C17 UNL     1      16.736  10.823  -3.041  1.00  0.00     0.051 C 
BRANCH   8  12
HETATM   12  C2  UNL     1      13.897   9.849  -2.166  1.00  0.00     0.300 C 
HETATM   13  O2  UNL     1      12.777  10.340  -2.068  1.00  0.00    -0.259 OA
BRANCH  12  14
HETATM   14  O1  UNL     1      14.064   8.901  -3.198  1.00  0.00    -0.322 OA
HETATM   15  C1  UNL     1      13.652   9.188  -4.517  1.00  0.00     0.213 C 
ENDBRANCH  12  14
ENDBRANCH   8  12
BRANCH  10  16
HETATM   16  C14 UNL     1      18.485  11.468  -0.761  1.00  0.00     0.296 C 
HETATM   17  O4  UNL     1      18.555  12.722  -0.824  1.00  0.00    -0.259 OA
BRANCH  16  18
HETATM   18  O5  UNL     1      19.669  10.829  -0.910  1.00  0.00    -0.322 OA
HETATM   19  C15 UNL     1      20.357  10.108   0.063  1.00  0.00     0.213 C 
ENDBRANCH  16  18
ENDBRANCH  10  16
ENDBRANCH   4   6
ENDBRANCH   1   4
BRANCH   1  20
HETATM   20  C7  UNL     1      18.380  12.496   2.776  1.00  0.00     0.073 A 
HETATM   21  N3  UNL     1      18.001  13.704   2.243  1.00  0.00    -0.192 N 
HETATM   22  C8  UNL     1      18.907  14.664   1.978  1.00  0.00     0.678 A 
ATOM     23  H3  UNL     1      17.016  13.877   2.045  1.00  0.00     0.184 HD
HETATM   24  N5  UNL     1      20.198  14.436   2.240  1.00  0.00    -0.170 N 
HETATM   25  C9  UNL     1      20.588  13.260   2.762  1.00  0.00     0.165 A 
ATOM     26  H5  UNL     1      20.891  15.159   2.043  1.00  0.00     0.186 HD
HETATM   27  C11 UNL     1      19.676  12.230   3.052  1.00  0.00     0.016 A 
HETATM   28  C12 UNL     1      20.232  11.005   3.565  1.00  0.00     0.055 C 
BRANCH  22  29
HETATM   29  N4  UNL     1      18.562  15.784   1.486  1.00  0.00    -0.234 N 
ATOM     30  H42 UNL     1      18.438  15.867   0.477  1.00  0.00     0.174 HD
ATOM     31  H41 UNL     1      18.408  16.601   2.078  1.00  0.00     0.174 HD
ENDBRANCH  22  29
BRANCH  25  32
HETATM   32  O3  UNL     1      21.943  13.047   3.026  1.00  0.00    -0.340 OA
HETATM   33  C10 UNL     1      22.830  14.113   3.200  1.00  0.00     0.211 C 
ENDBRANCH  25  32
ENDBRANCH   1  20
TORSDOF 9
ENDMDL
MODEL 3
REMARK VINA RESULT: -7.499718994      2.840      5.314
REMARK  9 active torsions:
REMARK  status: ('A' for Active; 'I' for Inactive)
REMARK    1  A    between atoms: O1_2  and  C2_3 
REMARK    2  A    between atoms: C2_3  and  C3_5 
REMARK    3  A    between atoms: C4_7  and  N1_8 
REMARK    4  A    between atoms: N1_8  and  C5_10 
REMARK    5  A    between atoms: C5_10  and  C7_13 
REMARK    6  A    between atoms: C8_16  and  N4_17 
REMARK    7  A    between atoms: C9_22  and  O3_23 
REMARK    8  A    between atoms: C13_27  and  C14_28 
REMARK    9  A    between atoms: C14_28  and  O5_30 
ROOT
HETATM    1  C5  UNL     1      17.689  10.971   0.306  1.00  0.00     0.241 C 
HETATM    2  C6  UNL     1      17.497  11.006  -1.173  1.00  0.00     0.091 C 
HETATM    3  N2  UNL     1      17.351  11.053  -2.304  1.00  0.00    -0.195 NA
ENDROOT
BRANCH   1   4
HETATM    4  N1  UNL     1      16.948   9.982   0.953  1.00  0.00    -0.362 N 
ATOM      5  H1  UNL     1      17.359   9.067   0.770  1.00  0.00     0.162 HD
BRANCH   4   6
HETATM    6  C4  UNL     1      15.825   9.844   1.773  1.00  0.00     0.089 A 
HETATM    7  S1  UNL     1      16.092   9.812   3.509  1.00  0.00    -0.065 SA
HETATM    8  C3  UNL     1      14.493   9.613   4.046  1.00  0.00     0.089 A 
HETATM    9  C16 UNL     1      13.796   9.579   2.889  1.00  0.00    -0.020 A 
HETATM   10  C13 UNL     1      14.489   9.703   1.708  1.00  0.00     0.080 A 
HETATM   11  C17 UNL     1      12.275   9.365   2.927  1.00  0.00     0.051 C 
BRANCH   8  12
HETATM   12  C2  UNL     1      14.089   9.526   5.468  1.00  0.00     0.300 C 
HETATM   13  O2  UNL     1      13.790   8.501   6.071  1.00  0.00    -0.259 OA
BRANCH  12  14
HETATM   14  O1  UNL     1      14.034  10.719   6.219  1.00  0.00    -0.322 OA
HETATM   15  C1  UNL     1      13.653  10.700   7.578  1.00  0.00     0.213 C 
ENDBRANCH  12  14
ENDBRANCH   8  12
BRANCH  10  16
HETATM   16  C14 UNL     1      13.751   9.851   0.425  1.00  0.00     0.296 C 
HETATM   17  O4  UNL     1      13.384   8.827  -0.206  1.00  0.00    -0.259 OA
BRANCH  16  18
HETATM   18  O5  UNL     1      13.409  11.025  -0.156  1.00  0.00    -0.322 OA
HETATM   19  C15 UNL     1      13.753  11.454  -1.436  1.00  0.00     0.213 C 
ENDBRANCH  16  18
ENDBRANCH  10  16
ENDBRANCH   4   6
ENDBRANCH   1   4
BRANCH   1  20
HETATM   20  C7  UNL     1      19.177  10.785   0.522  1.00  0.00     0.073 A 
HETATM   21  N3  UNL     1      19.764   9.582   0.214  1.00  0.00    -0.192 N 
HETATM   22  C8  UNL     1      21.089   9.396   0.355  1.00  0.00     0.678 A 
ATOM     23  H3  UNL     1      19.184   8.816  -0.128  1.00  0.00     0.184 HD
HETATM   24  N5  UNL     1      21.848  10.401   0.801  1.00  0.00    -0.170 N 
HETATM   25  C9  UNL     1      21.292  11.587   1.108  1.00  0.00     0.165 A 
ATOM     26  H5  UNL     1      22.854  10.269   0.910  1.00  0.00     0.186 HD
HETATM   27  C11 UNL     1      19.913  11.824   0.976  1.00  0.00     0.016 A 
HETATM   28  C12 UNL     1      19.443  13.123   1.383  1.00  0.00     0.055 C 
BRANCH  22  29
HETATM   29  N4  UNL     1      21.637   8.284   0.071  1.00  0.00    -0.234 N 
ATOM     30  H42 UNL     1      21.239   7.423   0.446  1.00  0.00     0.174 HD
ATOM     31  H41 UNL     1      22.465   8.235  -0.522  1.00  0.00     0.174 HD
ENDBRANCH  22  29
BRANCH  25  32
HETATM   32  O3  UNL     1      22.107  12.622   1.572  1.00  0.00    -0.340 OA
HETATM   33  C10 UNL     1      22.740  12.552   2.817  1.00  0.00     0.211 C 
ENDBRANCH  25  32
ENDBRANCH   1  20
TORSDOF 9
ENDMDL
MODEL 4
REMARK VINA RESULT: -7.408612950      2.207      4.472
REMARK  9 active torsions:
REMARK  status: ('A' for Active; 'I' for Inactive)
REMARK    1  A    between atoms: O1_2  and  C2_3 
REMARK    2  A    between atoms: C2_3  and  C3_5 
REMARK    3  A    between atoms: C4_7  and  N1_8 
REMARK    4  A    between atoms: N1_8  and  C5_10 
REMARK    5  A    between atoms: C5_10  and  C7_13 
REMARK    6  A    between atoms: C8_16  and  N4_17 
REMARK    7  A    between atoms: C9_22  and  O3_23 
REMARK    8  A    between atoms: C13_27  and  C14_28 
REMARK    9  A    between atoms: C14_28  and  O5_30 
ROOT
HETATM    1  C5  UNL     1      19.460  10.902   1.032  1.00  0.00     0.241 C 
HETATM    2  C6  UNL     1      19.644  12.012   0.052  1.00  0.00     0.091 C 
HETATM    3  N2  UNL     1      19.792  12.872  -0.683  1.00  0.00    -0.195 NA
ENDROOT
BRANCH   1   4
HETATM    4  N1  UNL     1      18.266  10.198   0.879  1.00  0.00    -0.362 N 
ATOM      5  H1  UNL     1      18.354   9.529   0.115  1.00  0.00     0.162 HD
BRANCH   4   6
HETATM    6  C4  UNL     1      16.987  10.116   1.438  1.00  0.00     0.089 A 
HETATM    7  S1  UNL     1      16.880   9.804   3.163  1.00  0.00    -0.065 SA
HETATM    8  C3  UNL     1      15.192   9.772   3.348  1.00  0.00     0.089 A 
HETATM    9  C16 UNL     1      14.753  10.002   2.091  1.00  0.00    -0.020 A 
HETATM   10  C13 UNL     1      15.687  10.185   1.100  1.00  0.00     0.080 A 
HETATM   11  C17 UNL     1      13.244  10.014   1.806  1.00  0.00     0.051 C 
BRANCH   8  12
HETATM   12  C2  UNL     1      14.491   9.550   4.634  1.00  0.00     0.300 C 
HETATM   13  O2  UNL     1      14.161   8.463   5.096  1.00  0.00    -0.259 OA
BRANCH  12  14
HETATM   14  O1  UNL     1      14.162  10.676   5.417  1.00  0.00    -0.322 OA
HETATM   15  C1  UNL     1      14.134  10.594   6.825  1.00  0.00     0.213 C 
ENDBRANCH  12  14
ENDBRANCH   8  12
BRANCH  10  16
HETATM   16  C14 UNL     1      15.257  10.618  -0.257  1.00  0.00     0.296 C 
HETATM   17  O4  UNL     1      15.639  11.729  -0.708  1.00  0.00    -0.259 OA
BRANCH  16  18
HETATM   18  O5  UNL     1      14.470   9.908  -1.098  1.00  0.00    -0.322 OA
HETATM   19  C15 UNL     1      13.478  10.409  -1.937  1.00  0.00     0.213 C 
ENDBRANCH  16  18
ENDBRANCH  10  16
ENDBRANCH   4   6
ENDBRANCH   1   4
BRANCH   1  20
HETATM   20  C7  UNL     1      20.665  10.000   0.860  1.00  0.00     0.073 A 
HETATM   21  N3  UNL     1      21.280   9.913  -0.365  1.00  0.00    -0.192 N 
HETATM   22  C8  UNL     1      22.377   9.154  -0.543  1.00  0.00     0.678 A 
ATOM     23  H3  UNL     1      20.899  10.434  -1.155  1.00  0.00     0.184 HD
HETATM   24  N5  UNL     1      22.877   8.472   0.493  1.00  0.00    -0.170 N 
HETATM   25  C9  UNL     1      22.289   8.545   1.701  1.00  0.00     0.165 A 
ATOM     26  H5  UNL     1      23.708   7.895   0.367  1.00  0.00     0.186 HD
HETATM   27  C11 UNL     1      21.142   9.325   1.929  1.00  0.00     0.016 A 
HETATM   28  C12 UNL     1      20.587   9.277   3.257  1.00  0.00     0.055 C 
BRANCH  22  29
HETATM   29  N4  UNL     1      22.950   9.070  -1.675  1.00  0.00    -0.234 N 
ATOM     30  H42 UNL     1      22.496   8.550  -2.426  1.00  0.00     0.174 HD
ATOM     31  H41 UNL     1      23.853   9.511  -1.848  1.00  0.00     0.174 HD
ENDBRANCH  22  29
BRANCH  25  32
HETATM   32  O3  UNL     1      22.831   7.824   2.767  1.00  0.00    -0.340 OA
HETATM   33  C10 UNL     1      23.045   6.445   2.683  1.00  0.00     0.211 C 
ENDBRANCH  25  32
ENDBRANCH   1  20
TORSDOF 9
ENDMDL
MODEL 5
REMARK VINA RESULT: -7.404606457      2.943      3.889
REMARK  9 active torsions:
REMARK  status: ('A' for Active; 'I' for Inactive)
REMARK    1  A    between atoms: O1_2  and  C2_3 
REMARK    2  A    between atoms: C2_3  and  C3_5 
REMARK    3  A    between atoms: C4_7  and  N1_8 
REMARK    4  A    between atoms: N1_8  and  C5_10 
REMARK    5  A    between atoms: C5_10  and  C7_13 
REMARK    6  A    between atoms: C8_16  and  N4_17 
REMARK    7  A    between atoms: C9_22  and  O3_23 
REMARK    8  A    between atoms: C13_27  and  C14_28 
REMARK    9  A    between atoms: C14_28  and  O5_30 
ROOT
HETATM    1  C5  UNL     1      17.351  11.651   1.489  1.00  0.00     0.241 C 
HETATM    2  C6  UNL     1      18.713  12.183   1.785  1.00  0.00     0.091 C 
HETATM    3  N2  UNL     1      19.746  12.604   2.021  1.00  0.00    -0.195 NA
ENDROOT
BRANCH   1   4
HETATM    4  N1  UNL     1      17.208  11.134   0.202  1.00  0.00    -0.362 N 
ATOM      5  H1  UNL     1      18.125  10.921  -0.190  1.00  0.00     0.162 HD
BRANCH   4   6
HETATM    6  C4  UNL     1      16.211  10.813  -0.724  1.00  0.00     0.089 A 
HETATM    7  S1  UNL     1      16.648  10.848  -2.424  1.00  0.00    -0.065 SA
HETATM    8  C3  UNL     1      15.156  10.426  -3.117  1.00  0.00     0.089 A 
HETATM    9  C16 UNL     1      14.362  10.269  -2.035  1.00  0.00    -0.020 A 
HETATM   10  C13 UNL     1      14.913  10.466  -0.791  1.00  0.00     0.080 A 
HETATM   11  C17 UNL     1      12.880   9.916  -2.227  1.00  0.00     0.051 C 
BRANCH   8  12
HETATM   12  C2  UNL     1      14.914  10.286  -4.572  1.00  0.00     0.300 C 
HETATM   13  O2  UNL     1      15.410  10.977  -5.455  1.00  0.00    -0.259 OA
BRANCH  12  14
HETATM   14  O1  UNL     1      14.035   9.272  -5.006  1.00  0.00    -0.322 OA
HETATM   15  C1  UNL     1      12.751   9.590  -5.498  1.00  0.00     0.213 C 
ENDBRANCH  12  14
ENDBRANCH   8  12
BRANCH  10  16
HETATM   16  C14 UNL     1      14.132  10.130   0.429  1.00  0.00     0.296 C 
HETATM   17  O4  UNL     1      13.316  10.965   0.898  1.00  0.00    -0.259 OA
BRANCH  16  18
HETATM   18  O5  UNL     1      14.202   8.965   1.114  1.00  0.00    -0.322 OA
HETATM   19  C15 UNL     1      13.309   8.508   2.080  1.00  0.00     0.213 C 
ENDBRANCH  16  18
ENDBRANCH  10  16
ENDBRANCH   4   6
ENDBRANCH   1   4
BRANCH   1  20
HETATM   20  C7  UNL     1      17.082  10.599   2.546  1.00  0.00     0.073 A 
HETATM   21  N3  UNL     1      17.847   9.459   2.580  1.00  0.00    -0.192 N 
HETATM   22  C8  UNL     1      17.663   8.523   3.529  1.00  0.00     0.678 A 
ATOM     23  H3  UNL     1      18.568   9.318   1.872  1.00  0.00     0.184 HD
HETATM   24  N5  UNL     1      16.719   8.709   4.458  1.00  0.00    -0.170 N 
HETATM   25  C9  UNL     1      15.960   9.819   4.442  1.00  0.00     0.165 A 
ATOM     26  H5  UNL     1      16.573   8.005   5.182  1.00  0.00     0.186 HD
HETATM   27  C11 UNL     1      16.118  10.820   3.467  1.00  0.00     0.016 A 
HETATM   28  C12 UNL     1      15.209  11.935   3.539  1.00  0.00     0.055 C 
BRANCH  22  29
HETATM   29  N4  UNL     1      18.368   7.466   3.565  1.00  0.00    -0.234 N 
ATOM     30  H42 UNL     1      18.985   7.306   4.361  1.00  0.00     0.174 HD
ATOM     31  H41 UNL     1      18.332   6.776   2.814  1.00  0.00     0.174 HD
ENDBRANCH  22  29
BRANCH  25  32
HETATM   32  O3  UNL     1      14.980   9.989   5.422  1.00  0.00    -0.340 OA
HETATM   33  C10 UNL     1      14.096   8.959   5.760  1.00  0.00     0.211 C 
ENDBRANCH  25  32
ENDBRANCH   1  20
TORSDOF 9
ENDMDL
