MODEL 1
REMARK VINA RESULT: -7.587438468      0.000      0.000
REMARK  8 active torsions:
REMARK  status: ('A' for Active; 'I' for Inactive)
REMARK    1  A    between atoms: O1_2  and  C2_3 
REMARK    2  A    between atoms: C4_5  and  C5_6 
REMARK    3  A    between atoms: C6_7  and  N1_8 
REMARK    4  A    between atoms: N1_8  and  N2_10 
REMARK    5  A    between atoms: N2_10  and  C7_11 
REMARK    6  A    between atoms: C8_15  and  N4_16 
REMARK    7  A    between atoms: C14_29  and  O3_30 
REMARK    8  A    between atoms: C16_33  and  O4_34 
ROOT
HETATM    1  O3  UNL     1      19.636  14.109   1.599  1.00  0.00    -0.238 OA
HETATM    2  C15 UNL     1      19.262  14.702   2.765  1.00  0.00     0.234 C 
HETATM    3  N6  UNL     1      18.968  15.198   3.745  1.00  0.00    -0.164 NA
ENDROOT
BRANCH   1   4
HETATM    4  C14 UNL     1      19.173  12.897   1.138  1.00  0.00     0.126 A 
HETATM    5  C13 UNL     1      17.832  12.528   1.291  1.00  0.00     0.053 A 
HETATM    6  C4  UNL     1      17.378  11.315   0.827  1.00  0.00    -0.022 A 
HETATM    7  C3  UNL     1      18.262  10.469   0.209  1.00  0.00     0.052 A 
HETATM    8  C2  UNL     1      19.604  10.800   0.037  1.00  0.00     0.105 A 
HETATM    9  C16 UNL     1      20.027  12.016   0.510  1.00  0.00     0.136 A 
BRANCH   6  10
HETATM   10  C5  UNL     1      15.994  10.939   1.027  1.00  0.00    -0.013 C 
HETATM   11  C6  UNL     1      15.123  11.002   0.005  1.00  0.00     0.046 C 
HETATM   12  C10 UNL     1      13.710  10.625   0.244  1.00  0.00     0.070 C 
HETATM   13  C11 UNL     1      13.544   9.188   0.678  1.00  0.00     0.080 C 
HETATM   14  S1  UNL     1      14.573   8.958   2.172  1.00  0.00    -0.164 SA
HETATM   15  C12 UNL     1      15.552  10.483   2.358  1.00  0.00     0.115 C 
BRANCH  11  16
HETATM   16  N1  UNL     1      15.603  11.433  -1.240  1.00  0.00    -0.242 N 
ATOM     17  H1  UNL     1      16.354  12.116  -1.137  1.00  0.00     0.201 HD
BRANCH  16  18
HETATM   18  N2  UNL     1      15.377  11.221  -2.340  1.00  0.00    -0.326 NA
BRANCH  18  19
HETATM   19  C7  UNL     1      15.122  11.002  -3.631  1.00  0.00     0.480 C 
HETATM   20  N3  UNL     1      16.199  10.302  -4.381  1.00  0.00     0.014 N 
HETATM   21  C8  UNL     1      15.535  10.082  -5.649  1.00  0.00     0.489 C 
ATOM     22  H32 UNL     1      17.094  10.791  -4.429  1.00  0.00     0.286 HD
ATOM     23  H31 UNL     1      16.582   9.470  -3.932  1.00  0.00     0.286 HD
HETATM   24  N5  UNL     1      14.258   9.526  -5.215  1.00  0.00    -0.307 N 
HETATM   25  C9  UNL     1      14.005  10.010  -3.917  1.00  0.00     0.286 C 
ATOM     26  H5  UNL     1      13.658   8.900  -5.753  1.00  0.00     0.166 HD
HETATM   27  O2  UNL     1      13.082   9.724  -3.128  1.00  0.00    -0.268 OA
BRANCH  21  28
HETATM   28  N4  UNL     1      15.316  11.356  -6.300  1.00  0.00    -0.032 N 
ATOM     29  H43 UNL     1      15.457  12.143  -5.668  1.00  0.00     0.278 HD
ATOM     30  H42 UNL     1      16.050  11.579  -6.973  1.00  0.00     0.278 HD
ATOM     31  H41 UNL     1      14.388  11.362  -6.724  1.00  0.00     0.278 HD
ENDBRANCH  21  28
ENDBRANCH  18  19
ENDBRANCH  16  18
ENDBRANCH  11  16
ENDBRANCH   6  10
BRANCH   8  32
HETATM   32  O1  UNL     1      20.495   9.964  -0.575  1.00  0.00    -0.353 OA
HETATM   33  C1  UNL     1      21.277   9.001   0.073  1.00  0.00     0.210 C 
ENDBRANCH   8  32
BRANCH   9  34
HETATM   34  O4  UNL     1      21.363  12.417   0.374  1.00  0.00    -0.351 OA
HETATM   35  C17 UNL     1      22.304  12.231   1.417  1.00  0.00     0.210 C 
ENDBRANCH   9  34
ENDBRANCH   1   4
TORSDOF 8
ENDMDL
MODEL 2
REMARK VINA RESULT: -7.580928668      1.400      2.836
REMARK  8 active torsions:
REMARK  status: ('A' for Active; 'I' for Inactive)
REMARK    1  A    between atoms: O1_2  and  C2_3 
REMARK    2  A    between atoms: C4_5  and  C5_6 
REMARK    3  A    between atoms: C6_7  and  N1_8 
REMARK    4  A    between atoms: N1_8  and  N2_10 
REMARK    5  A    between atoms: N2_10  and  C7_11 
REMARK    6  A    between atoms: C8_15  and  N4_16 
REMARK    7  A    between atoms: C14_29  and  O3_30 
REMARK    8  A    between atoms: C16_33  and  O4_34 
ROOT
HETATM    1  O3  UNL     1      20.479   9.955  -0.511  1.00  0.00    -0.238 OA
HETATM    2  C15 UNL     1      21.279   9.064   0.136  1.00  0.00     0.234 C 
HETATM    3  N6  UNL     1      21.939   8.305   0.665  1.00  0.00    -0.164 NA
ENDROOT
BRANCH   1   4
HETATM    4  C14 UNL     1      19.590  10.813   0.095  1.00  0.00     0.126 A 
HETATM    5  C13 UNL     1      18.248  10.460   0.273  1.00  0.00     0.053 A 
HETATM    6  C4  UNL     1      17.367  11.324   0.879  1.00  0.00    -0.022 A 
HETATM    7  C3  UNL     1      17.823  12.544   1.309  1.00  0.00     0.052 A 
HETATM    8  C2  UNL     1      19.151  12.933   1.149  1.00  0.00     0.105 A 
HETATM    9  C16 UNL     1      20.006  12.049   0.541  1.00  0.00     0.136 A 
BRANCH   6  10
HETATM   10  C5  UNL     1      15.975  10.952   1.023  1.00  0.00    -0.013 C 
HETATM   11  C6  UNL     1      15.155  10.979  -0.042  1.00  0.00     0.046 C 
HETATM   12  C10 UNL     1      13.732  10.607   0.140  1.00  0.00     0.070 C 
HETATM   13  C11 UNL     1      13.545   9.185   0.612  1.00  0.00     0.080 C 
HETATM   14  S1  UNL     1      14.499   9.007   2.162  1.00  0.00    -0.164 SA
HETATM   15  C12 UNL     1      15.467  10.540   2.345  1.00  0.00     0.115 C 
BRANCH  11  16
HETATM   16  N1  UNL     1      15.696  11.369  -1.276  1.00  0.00    -0.242 N 
ATOM     17  H1  UNL     1      16.538  11.932  -1.155  1.00  0.00     0.201 HD
BRANCH  16  18
HETATM   18  N2  UNL     1      15.444  11.223  -2.380  1.00  0.00    -0.326 NA
BRANCH  18  19
HETATM   19  C7  UNL     1      15.161  11.023  -3.669  1.00  0.00     0.480 C 
HETATM   20  N3  UNL     1      16.225  10.340  -4.454  1.00  0.00     0.014 N 
HETATM   21  C8  UNL     1      15.533  10.137  -5.711  1.00  0.00     0.489 C 
ATOM     22  H32 UNL     1      17.116  10.833  -4.514  1.00  0.00     0.286 HD
ATOM     23  H31 UNL     1      16.620   9.502  -4.027  1.00  0.00     0.286 HD
HETATM   24  N5  UNL     1      14.268   9.568  -5.257  1.00  0.00    -0.307 N 
HETATM   25  C9  UNL     1      14.042  10.031  -3.946  1.00  0.00     0.286 C 
ATOM     26  H5  UNL     1      13.659   8.948  -5.792  1.00  0.00     0.166 HD
HETATM   27  O2  UNL     1      13.138   9.727  -3.142  1.00  0.00    -0.268 OA
BRANCH  21  28
HETATM   28  N4  UNL     1      15.295  11.421  -6.336  1.00  0.00    -0.032 N 
ATOM     29  H43 UNL     1      15.628  12.197  -5.766  1.00  0.00     0.278 HD
ATOM     30  H42 UNL     1      15.892  11.572  -7.149  1.00  0.00     0.278 HD
ATOM     31  H41 UNL     1      14.303  11.505  -6.562  1.00  0.00     0.278 HD
ENDBRANCH  21  28
ENDBRANCH  18  19
ENDBRANCH  16  18
ENDBRANCH  11  16
ENDBRANCH   6  10
BRANCH   8  32
HETATM   32  O1  UNL     1      19.618  14.146   1.571  1.00  0.00    -0.353 OA
HETATM   33  C1  UNL     1      18.820  15.243   1.916  1.00  0.00     0.210 C 
ENDBRANCH   8  32
BRANCH   9  34
HETATM   34  O4  UNL     1      21.356  12.371   0.347  1.00  0.00    -0.351 OA
HETATM   35  C17 UNL     1      22.313  12.216   1.381  1.00  0.00     0.210 C 
ENDBRANCH   9  34
ENDBRANCH   1   4
TORSDOF 8
ENDMDL
MODEL 3
REMARK VINA RESULT: -7.480976253      2.397      2.889
REMARK  8 active torsions:
REMARK  status: ('A' for Active; 'I' for Inactive)
REMARK    1  A    between atoms: O1_2  and  C2_3 
REMARK    2  A    between atoms: C4_5  and  C5_6 
REMARK    3  A    between atoms: C6_7  and  N1_8 
REMARK    4  A    between atoms: N1_8  and  N2_10 
REMARK    5  A    between atoms: N2_10  and  C7_11 
REMARK    6  A    between atoms: C8_15  and  N4_16 
REMARK    7  A    between atoms: C14_29  and  O3_30 
REMARK    8  A    between atoms: C16_33  and  O4_34 
ROOT
HETATM    1  O3  UNL     1      19.849  12.053   1.192  1.00  0.00    -0.238 OA
HETATM    2  C15 UNL     1      19.576  12.636  -0.007  1.00  0.00     0.234 C 
HETATM    3  N6  UNL     1      19.348  13.141  -1.000  1.00  0.00    -0.164 NA
ENDROOT
BRANCH   1   4
HETATM    4  C14 UNL     1      19.092  11.073   1.791  1.00  0.00     0.126 A 
HETATM    5  C13 UNL     1      17.695  11.151   1.817  1.00  0.00     0.053 A 
HETATM    6  C4  UNL     1      16.946  10.167   2.419  1.00  0.00    -0.022 A 
HETATM    7  C3  UNL     1      17.589   9.104   2.998  1.00  0.00     0.052 A 
HETATM    8  C2  UNL     1      18.978   8.991   2.993  1.00  0.00     0.105 A 
HETATM    9  C16 UNL     1      19.697   9.987   2.385  1.00  0.00     0.136 A 
BRANCH   6  10
HETATM   10  C5  UNL     1      15.503  10.285   2.464  1.00  0.00    -0.013 C 
HETATM   11  C6  UNL     1      14.779  10.142   1.341  1.00  0.00     0.046 C 
HETATM   12  C10 UNL     1      13.305  10.283   1.416  1.00  0.00     0.070 C 
HETATM   13  C11 UNL     1      12.655   9.256   2.312  1.00  0.00     0.080 C 
HETATM   14  S1  UNL     1      13.439   9.410   3.957  1.00  0.00    -0.164 SA
HETATM   15  C12 UNL     1      14.837  10.559   3.752  1.00  0.00     0.115 C 
BRANCH  11  16
HETATM   16  N1  UNL     1      15.465   9.872   0.148  1.00  0.00    -0.242 N 
ATOM     17  H1  UNL     1      16.458   9.705   0.316  1.00  0.00     0.201 HD
BRANCH  16  18
HETATM   18  N2  UNL     1      15.207   9.789  -0.962  1.00  0.00    -0.326 NA
BRANCH  18  19
HETATM   19  C7  UNL     1      14.936   9.689  -2.264  1.00  0.00     0.480 C 
HETATM   20  N3  UNL     1      13.650  10.304  -2.694  1.00  0.00     0.014 N 
HETATM   21  C8  UNL     1      13.765  10.171  -4.132  1.00  0.00     0.489 C 
ATOM     22  H32 UNL     1      12.809   9.904  -2.279  1.00  0.00     0.286 HD
ATOM     23  H31 UNL     1      13.475  11.248  -2.350  1.00  0.00     0.286 HD
HETATM   24  N5  UNL     1      15.110  10.686  -4.365  1.00  0.00    -0.307 N 
HETATM   25  C9  UNL     1      15.852  10.481  -3.184  1.00  0.00     0.286 C 
ATOM     26  H5  UNL     1      15.452  11.115  -5.225  1.00  0.00     0.166 HD
HETATM   27  O2  UNL     1      17.010  10.847  -2.901  1.00  0.00    -0.268 OA
BRANCH  21  28
HETATM   28  N4  UNL     1      13.711   8.768  -4.487  1.00  0.00    -0.032 N 
ATOM     29  H43 UNL     1      14.050   8.595  -5.432  1.00  0.00     0.278 HD
ATOM     30  H42 UNL     1      14.402   8.214  -3.981  1.00  0.00     0.278 HD
ATOM     31  H41 UNL     1      12.760   8.423  -4.349  1.00  0.00     0.278 HD
ENDBRANCH  21  28
ENDBRANCH  18  19
ENDBRANCH  16  18
ENDBRANCH  11  16
ENDBRANCH   6  10
BRANCH   8  32
HETATM   32  O1  UNL     1      19.631   7.937   3.568  1.00  0.00    -0.353 OA
HETATM   33  C1  UNL     1      19.704   7.684   4.943  1.00  0.00     0.210 C 
ENDBRANCH   8  32
BRANCH   9  34
HETATM   34  O4  UNL     1      21.098   9.941   2.342  1.00  0.00    -0.351 OA
HETATM   35  C17 UNL     1      21.786   9.222   1.332  1.00  0.00     0.210 C 
ENDBRANCH   9  34
ENDBRANCH   1   4
TORSDOF 8
ENDMDL
MODEL 4
REMARK VINA RESULT: -7.478460931      3.532      6.044
REMARK  8 active torsions:
REMARK  status: ('A' for Active; 'I' for Inactive)
REMARK    1  A    between atoms: O1_2  and  C2_3 
REMARK    2  A    between atoms: C4_5  and  C5_6 
REMARK    3  A    between atoms: C6_7  and  N1_8 
REMARK    4  A    between atoms: N1_8  and  N2_10 
REMARK    5  A    between atoms: N2_10  and  C7_11 
REMARK    6  A    between atoms: C8_15  and  N4_16 
REMARK    7  A    between atoms: C14_29  and  O3_30 
REMARK    8  A    between atoms: C16_33  and  O4_34 
ROOT
HETATM    1  O3  UNL     1      20.955   9.760   0.743  1.00  0.00    -0.238 OA
HETATM    2  C15 UNL     1      21.499   8.980  -0.229  1.00  0.00     0.234 C 
HETATM    3  N6  UNL     1      21.972   8.336  -1.038  1.00  0.00    -0.164 NA
ENDROOT
BRANCH   1   4
HETATM    4  C14 UNL     1      19.926  10.657   0.563  1.00  0.00     0.126 A 
HETATM    5  C13 UNL     1      18.653  10.230   0.170  1.00  0.00     0.053 A 
HETATM    6  C4  UNL     1      17.631  11.133  -0.008  1.00  0.00    -0.022 A 
HETATM    7  C3  UNL     1      17.878  12.465   0.204  1.00  0.00     0.052 A 
HETATM    8  C2  UNL     1      19.132  12.929   0.595  1.00  0.00     0.105 A 
HETATM    9  C16 UNL     1      20.130  12.005   0.765  1.00  0.00     0.136 A 
BRANCH   6  10
HETATM   10  C5  UNL     1      16.330  10.672  -0.447  1.00  0.00    -0.013 C 
HETATM   11  C6  UNL     1      15.290  10.675   0.404  1.00  0.00     0.046 C 
HETATM   12  C10 UNL     1      13.975  10.183  -0.070  1.00  0.00     0.070 C 
HETATM   13  C11 UNL     1      13.414  10.994  -1.214  1.00  0.00     0.080 C 
HETATM   14  S1  UNL     1      14.668  10.979  -2.545  1.00  0.00    -0.164 SA
HETATM   15  C12 UNL     1      16.157  10.204  -1.835  1.00  0.00     0.115 C 
BRANCH  11  16
HETATM   16  N1  UNL     1      15.512  11.141   1.708  1.00  0.00    -0.242 N 
ATOM     17  H1  UNL     1      16.066  11.997   1.712  1.00  0.00     0.201 HD
BRANCH  16  18
HETATM   18  N2  UNL     1      15.235  10.815   2.768  1.00  0.00    -0.326 NA
BRANCH  18  19
HETATM   19  C7  UNL     1      14.941  10.443   4.015  1.00  0.00     0.480 C 
HETATM   20  N3  UNL     1      13.549   9.959   4.221  1.00  0.00     0.014 N 
HETATM   21  C8  UNL     1      13.634   9.492   5.589  1.00  0.00     0.489 C 
ATOM     22  H32 UNL     1      12.812  10.638   4.030  1.00  0.00     0.286 HD
ATOM     23  H31 UNL     1      13.213   9.276   3.541  1.00  0.00     0.286 HD
HETATM   24  N5  UNL     1      14.851   8.687   5.547  1.00  0.00    -0.307 N 
HETATM   25  C9  UNL     1      15.659   9.198   4.512  1.00  0.00     0.286 C 
ATOM     26  H5  UNL     1      15.075   7.899   6.154  1.00  0.00     0.166 HD
HETATM   27  O2  UNL     1      16.738   8.765   4.061  1.00  0.00    -0.268 OA
BRANCH  21  28
HETATM   28  N4  UNL     1      13.829  10.626   6.469  1.00  0.00    -0.032 N 
ATOM     29  H43 UNL     1      12.972  11.160   6.607  1.00  0.00     0.278 HD
ATOM     30  H42 UNL     1      13.981  10.343   7.437  1.00  0.00     0.278 HD
ATOM     31  H41 UNL     1      14.590  11.202   6.109  1.00  0.00     0.278 HD
ENDBRANCH  21  28
ENDBRANCH  18  19
ENDBRANCH  16  18
ENDBRANCH  11  16
ENDBRANCH   6  10
BRANCH   8  32
HETATM   32  O1  UNL     1      19.391  14.254   0.807  1.00  0.00    -0.353 OA
HETATM   33  C1  UNL     1      18.694  15.082   1.694  1.00  0.00     0.210 C 
ENDBRANCH   8  32
BRANCH   9  34
HETATM   34  O4  UNL     1      21.417  12.399   1.156  1.00  0.00    -0.351 OA
HETATM   35  C17 UNL     1      21.775  12.512   2.523  1.00  0.00     0.210 C 
ENDBRANCH   9  34
ENDBRANCH   1   4
TORSDOF 8
ENDMDL
MODEL 5
REMARK VINA RESULT: -7.428026129      3.432      5.920
REMARK  8 active torsions:
REMARK  status: ('A' for Active; 'I' for Inactive)
REMARK    1  A    between atoms: O1_2  and  C2_3 
REMARK    2  A    between atoms: C4_5  and  C5_6 
REMARK    3  A    between atoms: C6_7  and  N1_8 
REMARK    4  A    between atoms: N1_8  and  N2_10 
REMARK    5  A    between atoms: N2_10  and  C7_11 
REMARK    6  A    between atoms: C8_15  and  N4_16 
REMARK    7  A    between atoms: C14_29  and  O3_30 
REMARK    8  A    between atoms: C16_33  and  O4_34 
ROOT
HETATM    1  O3  UNL     1      21.039   9.909   0.666  1.00  0.00    -0.238 OA
HETATM    2  C15 UNL     1      21.514   9.003  -0.230  1.00  0.00     0.234 C 
HETATM    3  N6  UNL     1      21.930   8.254  -0.978  1.00  0.00    -0.164 NA
ENDROOT
BRANCH   1   4
HETATM    4  C14 UNL     1      19.969  10.749   0.458  1.00  0.00     0.126 A 
HETATM    5  C13 UNL     1      18.739  10.258   0.006  1.00  0.00     0.053 A 
HETATM    6  C4  UNL     1      17.675  11.105  -0.201  1.00  0.00    -0.022 A 
HETATM    7  C3  UNL     1      17.837  12.445   0.043  1.00  0.00     0.052 A 
HETATM    8  C2  UNL     1      19.045  12.972   0.494  1.00  0.00     0.105 A 
HETATM    9  C16 UNL     1      20.087  12.103   0.690  1.00  0.00     0.136 A 
BRANCH   6  10
HETATM   10  C5  UNL     1      16.422  10.581  -0.701  1.00  0.00    -0.013 C 
HETATM   11  C6  UNL     1      15.377  10.420   0.129  1.00  0.00     0.046 C 
HETATM   12  C10 UNL     1      14.113   9.866  -0.409  1.00  0.00     0.070 C 
HETATM   13  C11 UNL     1      13.496  10.729  -1.484  1.00  0.00     0.080 C 
HETATM   14  S1  UNL     1      14.759  10.939  -2.790  1.00  0.00    -0.164 SA
HETATM   15  C12 UNL     1      16.302  10.229  -2.129  1.00  0.00     0.115 C 
BRANCH  11  16
HETATM   16  N1  UNL     1      15.547  10.780   1.474  1.00  0.00    -0.242 N 
ATOM     17  H1  UNL     1      16.004  11.688   1.564  1.00  0.00     0.201 HD
BRANCH  16  18
HETATM   18  N2  UNL     1      15.309  10.327   2.495  1.00  0.00    -0.326 NA
BRANCH  18  19
HETATM   19  C7  UNL     1      15.001   9.806   3.684  1.00  0.00     0.480 C 
HETATM   20  N3  UNL     1      15.137  10.735   4.839  1.00  0.00     0.014 N 
HETATM   21  C8  UNL     1      14.573   9.922   5.896  1.00  0.00     0.489 C 
ATOM     22  H32 UNL     1      16.077  11.093   5.010  1.00  0.00     0.286 HD
ATOM     23  H31 UNL     1      14.717  11.656   4.717  1.00  0.00     0.286 HD
HETATM   24  N5  UNL     1      13.335   9.459   5.278  1.00  0.00    -0.307 N 
HETATM   25  C9  UNL     1      13.534   9.456   3.883  1.00  0.00     0.286 C 
ATOM     26  H5  UNL     1      12.481   9.188   5.765  1.00  0.00     0.166 HD
HETATM   27  O2  UNL     1      12.722   9.224   2.966  1.00  0.00    -0.268 OA
BRANCH  21  28
HETATM   28  N4  UNL     1      15.444   8.793   6.147  1.00  0.00    -0.032 N 
ATOM     29  H43 UNL     1      16.426   9.022   5.995  1.00  0.00     0.278 HD
ATOM     30  H42 UNL     1      15.502   8.562   7.139  1.00  0.00     0.278 HD
ATOM     31  H41 UNL     1      15.140   8.001   5.581  1.00  0.00     0.278 HD
ENDBRANCH  21  28
ENDBRANCH  18  19
ENDBRANCH  16  18
ENDBRANCH  11  16
ENDBRANCH   6  10
BRANCH   8  32
HETATM   32  O1  UNL     1      19.220  14.305   0.738  1.00  0.00    -0.353 OA
HETATM   33  C1  UNL     1      18.629  15.018   1.788  1.00  0.00     0.210 C 
ENDBRANCH   8  32
BRANCH   9  34
HETATM   34  O4  UNL     1      21.333  12.561   1.142  1.00  0.00    -0.351 OA
HETATM   35  C17 UNL     1      21.625  12.675   2.524  1.00  0.00     0.210 C 
ENDBRANCH   9  34
ENDBRANCH   1   4
TORSDOF 8
ENDMDL
