MODEL 1
REMARK VINA RESULT: -7.979809225      0.000      0.000
REMARK  10 active torsions:
REMARK  status: ('A' for Active; 'I' for Inactive)
REMARK    1  A    between atoms: O1_2  and  C2_3 
REMARK    2  A    between atoms: C2_3  and  C3_7 
REMARK    3  A    between atoms: C5_13  and  N4_14 
REMARK    4  A    between atoms: N4_14  and  N5_16 
REMARK    5  A    between atoms: C6_18  and  S1_19 
REMARK    6  A    between atoms: S1_19  and  N6_20 
REMARK    7  A    between atoms: C8_27  and  C9_28 
REMARK    8  A    between atoms: C11_30  and  O2_31 
REMARK    9  A    between atoms: C13_33  and  O3_34 
REMARK   10  A    between atoms: C15_36  and  O4_37 
ROOT
HETATM    1  C3  UNL     1      17.017   8.876   4.321  1.00  0.00     0.112 A 
HETATM    2  N2  UNL     1      16.979   8.649   5.666  1.00  0.00    -0.335 N 
ATOM      3  H2  UNL     1      17.718   8.104   6.111  1.00  0.00     0.168 HD
HETATM    4  C4  UNL     1      15.949   9.151   6.422  1.00  0.00     0.142 A 
HETATM    5  N3  UNL     1      15.815   8.988   7.731  1.00  0.00    -0.319 N 
ATOM      6  H3  UNL     1      16.502   8.459   8.266  1.00  0.00     0.169 HD
HETATM    7  C5  UNL     1      14.767   9.531   8.320  1.00  0.00     0.167 A 
HETATM    8  S2  UNL     1      13.931  10.290   7.051  1.00  0.00    -0.031 SA
HETATM    9  C7  UNL     1      14.988   9.872   5.773  1.00  0.00     0.122 A 
HETATM   10  N7  UNL     1      15.042  10.090   4.435  1.00  0.00    -0.345 N 
ATOM     11  H7  UNL     1      14.305  10.634   3.987  1.00  0.00     0.167 HD
HETATM   12  C8  UNL     1      16.073   9.590   3.668  1.00  0.00     0.075 A 
ENDROOT
BRANCH  12  13
HETATM   13  C9  UNL     1      16.011   9.886   2.273  1.00  0.00    -0.002 A 
HETATM   14  C10 UNL     1      14.956   9.347   1.523  1.00  0.00     0.053 A 
HETATM   15  C11 UNL     1      14.787   9.653   0.195  1.00  0.00     0.105 A 
HETATM   16  C13 UNL     1      15.631  10.500  -0.487  1.00  0.00     0.135 A 
HETATM   17  C15 UNL     1      16.673  11.036   0.240  1.00  0.00     0.105 A 
HETATM   18  C17 UNL     1      16.840  10.729   1.574  1.00  0.00     0.053 A 
BRANCH  15  19
HETATM   19  O2  UNL     1      13.735   9.114  -0.550  1.00  0.00    -0.353 OA
HETATM   20  C12 UNL     1      12.711   9.978  -1.069  1.00  0.00     0.210 C 
ENDBRANCH  15  19
BRANCH  16  21
HETATM   21  O3  UNL     1      15.478  10.815  -1.811  1.00  0.00    -0.351 OA
HETATM   22  C14 UNL     1      15.926  10.013  -2.886  1.00  0.00     0.210 C 
ENDBRANCH  16  21
BRANCH  17  23
HETATM   23  O4  UNL     1      17.560  11.896  -0.382  1.00  0.00    -0.353 OA
HETATM   24  C16 UNL     1      18.946  11.837  -0.110  1.00  0.00     0.210 C 
ENDBRANCH  17  23
ENDBRANCH  12  13
BRANCH   1  25
HETATM   25  C2  UNL     1      18.108   8.247   3.605  1.00  0.00     0.165 C 
HETATM   26  N1  UNL     1      18.162   6.934   3.596  1.00  0.00    -0.378 N 
ATOM     27  H12 UNL     1      18.931   6.491   3.092  1.00  0.00     0.158 HD
ATOM     28  H11 UNL     1      17.415   6.467   4.112  1.00  0.00     0.158 HD
BRANCH  25  29
HETATM   29  O1  UNL     1      19.099   8.866   2.921  1.00  0.00    -0.339 OA
HETATM   30  C1  UNL     1      20.387   8.332   2.663  1.00  0.00     0.211 C 
ENDBRANCH  25  29
ENDBRANCH   1  25
BRANCH   7  31
HETATM   31  N4  UNL     1      14.452   9.489   9.584  1.00  0.00    -0.279 N 
ATOM     32  H4  UNL     1      13.893   8.715   9.939  1.00  0.00     0.189 HD
BRANCH  31  33
HETATM   33  N5  UNL     1      14.873  10.496  10.456  1.00  0.00    -0.302 N 
HETATM   34  C6  UNL     1      14.084  11.461  10.706  1.00  0.00     0.174 C 
ATOM     35  H5  UNL     1      15.798  10.457  10.886  1.00  0.00     0.186 HD
BRANCH  34  36
HETATM   36  S1  UNL     1      12.448  11.627  10.012  1.00  0.00    -0.015 SA
BRANCH  36  37
HETATM   37  N6  UNL     1      11.907  13.303  10.034  1.00  0.00    -0.369 N 
ATOM     38  H62 UNL     1      12.458  14.077   9.662  1.00  0.00     0.164 HD
ATOM     39  H61 UNL     1      10.985  13.392  10.462  1.00  0.00     0.164 HD
ENDBRANCH  36  37
ENDBRANCH  34  36
ENDBRANCH  31  33
ENDBRANCH   7  31
TORSDOF 10
ENDMDL
MODEL 2
REMARK VINA RESULT: -7.657272505      4.782      8.429
REMARK  10 active torsions:
REMARK  status: ('A' for Active; 'I' for Inactive)
REMARK    1  A    between atoms: O1_2  and  C2_3 
REMARK    2  A    between atoms: C2_3  and  C3_7 
REMARK    3  A    between atoms: C5_13  and  N4_14 
REMARK    4  A    between atoms: N4_14  and  N5_16 
REMARK    5  A    between atoms: C6_18  and  S1_19 
REMARK    6  A    between atoms: S1_19  and  N6_20 
REMARK    7  A    between atoms: C8_27  and  C9_28 
REMARK    8  A    between atoms: C11_30  and  O2_31 
REMARK    9  A    between atoms: C13_33  and  O3_34 
REMARK   10  A    between atoms: C15_36  and  O4_37 
ROOT
HETATM    1  C3  UNL     1      17.368  11.095   0.481  1.00  0.00     0.112 A 
HETATM    2  N2  UNL     1      16.528  11.474  -0.526  1.00  0.00    -0.335 N 
ATOM      3  H2  UNL     1      16.773  12.263  -1.123  1.00  0.00     0.168 HD
HETATM    4  C4  UNL     1      15.353  10.795  -0.736  1.00  0.00     0.142 A 
HETATM    5  N3  UNL     1      14.467  11.080  -1.680  1.00  0.00    -0.319 N 
ATOM      6  H3  UNL     1      14.622  11.852  -2.328  1.00  0.00     0.169 HD
HETATM    7  C5  UNL     1      13.381  10.337  -1.757  1.00  0.00     0.167 A 
HETATM    8  S2  UNL     1      13.566   9.209  -0.501  1.00  0.00    -0.031 SA
HETATM    9  C7  UNL     1      15.076   9.747   0.095  1.00  0.00     0.122 A 
HETATM   10  N7  UNL     1      15.924   9.383   1.090  1.00  0.00    -0.345 N 
ATOM     11  H7  UNL     1      15.681   8.594   1.688  1.00  0.00     0.167 HD
HETATM   12  C8  UNL     1      17.106  10.058   1.307  1.00  0.00     0.075 A 
ENDROOT
BRANCH  12  13
HETATM   13  C9  UNL     1      17.907   9.578   2.387  1.00  0.00    -0.002 A 
HETATM   14  C10 UNL     1      17.325   9.488   3.660  1.00  0.00     0.053 A 
HETATM   15  C11 UNL     1      18.008   8.962   4.728  1.00  0.00     0.105 A 
HETATM   16  C13 UNL     1      19.298   8.490   4.628  1.00  0.00     0.135 A 
HETATM   17  C15 UNL     1      19.881   8.573   3.382  1.00  0.00     0.105 A 
HETATM   18  C17 UNL     1      19.192   9.102   2.309  1.00  0.00     0.053 A 
BRANCH  15  19
HETATM   19  O2  UNL     1      17.426   8.873   5.996  1.00  0.00    -0.353 OA
HETATM   20  C12 UNL     1      16.045   9.223   6.174  1.00  0.00     0.210 C 
ENDBRANCH  15  19
BRANCH  16  21
HETATM   21  O3  UNL     1      19.994   7.964   5.683  1.00  0.00    -0.351 OA
HETATM   22  C14 UNL     1      21.170   8.524   6.232  1.00  0.00     0.210 C 
ENDBRANCH  16  21
BRANCH  17  23
HETATM   23  O4  UNL     1      21.175   8.119   3.208  1.00  0.00    -0.353 OA
HETATM   24  C16 UNL     1      21.643   7.715   1.936  1.00  0.00     0.210 C 
ENDBRANCH  17  23
ENDBRANCH  12  13
BRANCH   1  25
HETATM   25  C2  UNL     1      18.547  11.916   0.661  1.00  0.00     0.165 C 
HETATM   26  N1  UNL     1      19.533  11.774  -0.197  1.00  0.00    -0.378 N 
ATOM     27  H12 UNL     1      20.364  12.352  -0.070  1.00  0.00     0.158 HD
ATOM     28  H11 UNL     1      19.374  11.078  -0.926  1.00  0.00     0.158 HD
BRANCH  25  29
HETATM   29  O1  UNL     1      18.759  12.839   1.629  1.00  0.00    -0.339 OA
HETATM   30  C1  UNL     1      17.873  13.888   1.982  1.00  0.00     0.211 C 
ENDBRANCH  25  29
ENDBRANCH   1  25
BRANCH   7  31
HETATM   31  N4  UNL     1      12.396  10.448  -2.604  1.00  0.00    -0.279 N 
ATOM     32  H4  UNL     1      11.924  11.345  -2.714  1.00  0.00     0.189 HD
BRANCH  31  33
HETATM   33  N5  UNL     1      11.981   9.351  -3.362  1.00  0.00    -0.302 N 
HETATM   34  C6  UNL     1      12.522   9.149  -4.495  1.00  0.00     0.174 C 
ATOM     35  H5  UNL     1      11.257   8.722  -3.013  1.00  0.00     0.186 HD
BRANCH  34  36
HETATM   36  S1  UNL     1      13.794  10.182  -5.200  1.00  0.00    -0.015 SA
BRANCH  36  37
HETATM   37  N6  UNL     1      15.403   9.597  -4.783  1.00  0.00    -0.369 N 
ATOM     38  H62 UNL     1      15.569   8.788  -4.185  1.00  0.00     0.164 HD
ATOM     39  H61 UNL     1      16.131  10.168  -5.213  1.00  0.00     0.164 HD
ENDBRANCH  36  37
ENDBRANCH  34  36
ENDBRANCH  31  33
ENDBRANCH   7  31
TORSDOF 10
ENDMDL
MODEL 3
REMARK VINA RESULT: -7.652393711      2.596      5.891
REMARK  10 active torsions:
REMARK  status: ('A' for Active; 'I' for Inactive)
REMARK    1  A    between atoms: O1_2  and  C2_3 
REMARK    2  A    between atoms: C2_3  and  C3_7 
REMARK    3  A    between atoms: C5_13  and  N4_14 
REMARK    4  A    between atoms: N4_14  and  N5_16 
REMARK    5  A    between atoms: C6_18  and  S1_19 
REMARK    6  A    between atoms: S1_19  and  N6_20 
REMARK    7  A    between atoms: C8_27  and  C9_28 
REMARK    8  A    between atoms: C11_30  and  O2_31 
REMARK    9  A    between atoms: C13_33  and  O3_34 
REMARK   10  A    between atoms: C15_36  and  O4_37 
ROOT
HETATM    1  C3  UNL     1      16.913   9.591   4.715  1.00  0.00     0.112 A 
HETATM    2  N2  UNL     1      15.773  10.187   5.171  1.00  0.00    -0.335 N 
ATOM      3  H2  UNL     1      15.326  10.918   4.618  1.00  0.00     0.168 HD
HETATM    4  C4  UNL     1      15.227   9.805   6.372  1.00  0.00     0.142 A 
HETATM    5  N3  UNL     1      14.128  10.319   6.906  1.00  0.00    -0.319 N 
ATOM      6  H3  UNL     1      13.609  11.056   6.430  1.00  0.00     0.169 HD
HETATM    7  C5  UNL     1      13.726   9.850   8.071  1.00  0.00     0.167 A 
HETATM    8  S2  UNL     1      14.883   8.667   8.457  1.00  0.00    -0.031 SA
HETATM    9  C7  UNL     1      15.869   8.822   7.069  1.00  0.00     0.122 A 
HETATM   10  N7  UNL     1      17.001   8.239   6.600  1.00  0.00    -0.345 N 
ATOM     11  H7  UNL     1      17.450   7.507   7.150  1.00  0.00     0.167 HD
HETATM   12  C8  UNL     1      17.555   8.615   5.395  1.00  0.00     0.075 A 
ENDROOT
BRANCH  12  13
HETATM   13  C9  UNL     1      18.748   7.927   5.017  1.00  0.00    -0.002 A 
HETATM   14  C10 UNL     1      19.979   8.438   5.454  1.00  0.00     0.053 A 
HETATM   15  C11 UNL     1      21.160   7.787   5.197  1.00  0.00     0.105 A 
HETATM   16  C13 UNL     1      21.220   6.600   4.501  1.00  0.00     0.135 A 
HETATM   17  C15 UNL     1      20.016   6.088   4.067  1.00  0.00     0.105 A 
HETATM   18  C17 UNL     1      18.830   6.743   4.327  1.00  0.00     0.053 A 
BRANCH  15  19
HETATM   19  O2  UNL     1      22.385   8.298   5.632  1.00  0.00    -0.353 OA
HETATM   20  C12 UNL     1      22.505   8.836   6.959  1.00  0.00     0.210 C 
ENDBRANCH  15  19
BRANCH  16  21
HETATM   21  O3  UNL     1      22.389   5.938   4.236  1.00  0.00    -0.351 OA
HETATM   22  C14 UNL     1      23.035   5.917   2.978  1.00  0.00     0.210 C 
ENDBRANCH  16  21
BRANCH  17  23
HETATM   23  O4  UNL     1      20.001   4.899   3.361  1.00  0.00    -0.353 OA
HETATM   24  C16 UNL     1      19.370   3.747   3.883  1.00  0.00     0.210 C 
ENDBRANCH  17  23
ENDBRANCH  12  13
BRANCH   1  25
HETATM   25  C2  UNL     1      17.444  10.111   3.472  1.00  0.00     0.165 C 
HETATM   26  N1  UNL     1      18.363  11.049   3.540  1.00  0.00    -0.378 N 
ATOM     27  H12 UNL     1      18.737  11.415   2.665  1.00  0.00     0.158 HD
ATOM     28  H11 UNL     1      18.620  11.333   4.486  1.00  0.00     0.158 HD
BRANCH  25  29
HETATM   29  O1  UNL     1      17.103   9.733   2.218  1.00  0.00    -0.339 OA
HETATM   30  C1  UNL     1      16.133  10.362   1.397  1.00  0.00     0.211 C 
ENDBRANCH  25  29
ENDBRANCH   1  25
BRANCH   7  31
HETATM   31  N4  UNL     1      12.682  10.214   8.761  1.00  0.00    -0.279 N 
ATOM     32  H4  UNL     1      12.086   9.504   9.186  1.00  0.00     0.189 HD
BRANCH  31  33
HETATM   33  N5  UNL     1      12.372  11.566   8.923  1.00  0.00    -0.302 N 
HETATM   34  C6  UNL     1      12.778  12.167   9.968  1.00  0.00     0.174 C 
ATOM     35  H5  UNL     1      11.830  12.063   8.217  1.00  0.00     0.186 HD
BRANCH  34  36
HETATM   36  S1  UNL     1      13.733  11.396  11.264  1.00  0.00    -0.015 SA
BRANCH  36  37
HETATM   37  N6  UNL     1      15.432  11.261  10.818  1.00  0.00    -0.369 N 
ATOM     38  H62 UNL     1      15.817  11.632   9.950  1.00  0.00     0.164 HD
ATOM     39  H61 UNL     1      15.968  10.769  11.534  1.00  0.00     0.164 HD
ENDBRANCH  36  37
ENDBRANCH  34  36
ENDBRANCH  31  33
ENDBRANCH   7  31
TORSDOF 10
ENDMDL
MODEL 4
REMARK VINA RESULT: -7.608477665      0.245      2.272
REMARK  10 active torsions:
REMARK  status: ('A' for Active; 'I' for Inactive)
REMARK    1  A    between atoms: O1_2  and  C2_3 
REMARK    2  A    between atoms: C2_3  and  C3_7 
REMARK    3  A    between atoms: C5_13  and  N4_14 
REMARK    4  A    between atoms: N4_14  and  N5_16 
REMARK    5  A    between atoms: C6_18  and  S1_19 
REMARK    6  A    between atoms: S1_19  and  N6_20 
REMARK    7  A    between atoms: C8_27  and  C9_28 
REMARK    8  A    between atoms: C11_30  and  O2_31 
REMARK    9  A    between atoms: C13_33  and  O3_34 
REMARK   10  A    between atoms: C15_36  and  O4_37 
ROOT
HETATM    1  C3  UNL     1      16.811   9.014   4.258  1.00  0.00     0.112 A 
HETATM    2  N2  UNL     1      16.843   8.772   5.600  1.00  0.00    -0.335 N 
ATOM      3  H2  UNL     1      17.624   8.256   6.005  1.00  0.00     0.168 HD
HETATM    4  C4  UNL     1      15.825   9.219   6.407  1.00  0.00     0.142 A 
HETATM    5  N3  UNL     1      15.756   9.036   7.718  1.00  0.00    -0.319 N 
ATOM      6  H3  UNL     1      16.490   8.532   8.216  1.00  0.00     0.169 HD
HETATM    7  C5  UNL     1      14.713   9.524   8.359  1.00  0.00     0.167 A 
HETATM    8  S2  UNL     1      13.788  10.258   7.137  1.00  0.00    -0.031 SA
HETATM    9  C7  UNL     1      14.805   9.902   5.809  1.00  0.00     0.122 A 
HETATM   10  N7  UNL     1      14.790  10.136   4.473  1.00  0.00    -0.345 N 
ATOM     11  H7  UNL     1      14.010  10.652   4.065  1.00  0.00     0.167 HD
HETATM   12  C8  UNL     1      15.808   9.692   3.656  1.00  0.00     0.075 A 
ENDROOT
BRANCH  12  13
HETATM   13  C9  UNL     1      15.671  10.000   2.269  1.00  0.00    -0.002 A 
HETATM   14  C10 UNL     1      16.575  10.905   1.694  1.00  0.00     0.053 A 
HETATM   15  C11 UNL     1      16.555  11.187   0.350  1.00  0.00     0.105 A 
HETATM   16  C13 UNL     1      15.656  10.609  -0.519  1.00  0.00     0.135 A 
HETATM   17  C15 UNL     1      14.763   9.717   0.035  1.00  0.00     0.105 A 
HETATM   18  C17 UNL     1      14.785   9.434   1.385  1.00  0.00     0.053 A 
BRANCH  15  19
HETATM   19  O2  UNL     1      17.456  12.090  -0.220  1.00  0.00    -0.353 OA
HETATM   20  C12 UNL     1      18.868  11.901  -0.039  1.00  0.00     0.210 C 
ENDBRANCH  15  19
BRANCH  16  21
HETATM   21  O3  UNL     1      15.621  10.880  -1.861  1.00  0.00    -0.351 OA
HETATM   22  C14 UNL     1      15.967   9.960  -2.877  1.00  0.00     0.210 C 
ENDBRANCH  16  21
BRANCH  17  23
HETATM   23  O4  UNL     1      13.831   9.098  -0.779  1.00  0.00    -0.353 OA
HETATM   24  C16 UNL     1      12.718   9.807  -1.286  1.00  0.00     0.210 C 
ENDBRANCH  17  23
ENDBRANCH  12  13
BRANCH   1  25
HETATM   25  C2  UNL     1      17.896   8.444   3.487  1.00  0.00     0.165 C 
HETATM   26  N1  UNL     1      18.095   7.147   3.571  1.00  0.00    -0.378 N 
ATOM     27  H12 UNL     1      18.859   6.745   3.028  1.00  0.00     0.158 HD
ATOM     28  H11 UNL     1      17.454   6.651   4.191  1.00  0.00     0.158 HD
BRANCH  25  29
HETATM   29  O1  UNL     1      18.747   9.102   2.665  1.00  0.00    -0.339 OA
HETATM   30  C1  UNL     1      20.029   8.648   2.263  1.00  0.00     0.211 C 
ENDBRANCH  25  29
ENDBRANCH   1  25
BRANCH   7  31
HETATM   31  N4  UNL     1      14.456   9.455   9.635  1.00  0.00    -0.279 N 
ATOM     32  H4  UNL     1      13.935   8.659  10.002  1.00  0.00     0.189 HD
BRANCH  31  33
HETATM   33  N5  UNL     1      14.888  10.460  10.504  1.00  0.00    -0.302 N 
HETATM   34  C6  UNL     1      14.116  11.444  10.735  1.00  0.00     0.174 C 
ATOM     35  H5  UNL     1      15.806  10.405  10.946  1.00  0.00     0.186 HD
BRANCH  34  36
HETATM   36  S1  UNL     1      12.494  11.638  10.019  1.00  0.00    -0.015 SA
BRANCH  36  37
HETATM   37  N6  UNL     1      11.957  13.315  10.088  1.00  0.00    -0.369 N 
ATOM     38  H62 UNL     1      12.532  14.075  10.451  1.00  0.00     0.164 HD
ATOM     39  H61 UNL     1      11.010  13.419   9.721  1.00  0.00     0.164 HD
ENDBRANCH  36  37
ENDBRANCH  34  36
ENDBRANCH  31  33
ENDBRANCH   7  31
TORSDOF 10
ENDMDL
MODEL 5
REMARK VINA RESULT: -7.595539855      3.527      6.395
REMARK  10 active torsions:
REMARK  status: ('A' for Active; 'I' for Inactive)
REMARK    1  A    between atoms: O1_2  and  C2_3 
REMARK    2  A    between atoms: C2_3  and  C3_7 
REMARK    3  A    between atoms: C5_13  and  N4_14 
REMARK    4  A    between atoms: N4_14  and  N5_16 
REMARK    5  A    between atoms: C6_18  and  S1_19 
REMARK    6  A    between atoms: S1_19  and  N6_20 
REMARK    7  A    between atoms: C8_27  and  C9_28 
REMARK    8  A    between atoms: C11_30  and  O2_31 
REMARK    9  A    between atoms: C13_33  and  O3_34 
REMARK   10  A    between atoms: C15_36  and  O4_37 
ROOT
HETATM    1  C3  UNL     1      16.398   8.908   4.652  1.00  0.00     0.112 A 
HETATM    2  N2  UNL     1      17.412   8.512   5.476  1.00  0.00    -0.335 N 
ATOM      3  H2  UNL     1      17.247   8.426   6.479  1.00  0.00     0.168 HD
HETATM    4  C4  UNL     1      18.652   8.231   4.958  1.00  0.00     0.142 A 
HETATM    5  N3  UNL     1      19.703   7.842   5.667  1.00  0.00    -0.319 N 
ATOM      6  H3  UNL     1      19.639   7.726   6.678  1.00  0.00     0.169 HD
HETATM    7  C5  UNL     1      20.832   7.609   5.027  1.00  0.00     0.167 A 
HETATM    8  S2  UNL     1      20.455   7.931   3.402  1.00  0.00    -0.031 SA
HETATM    9  C7  UNL     1      18.813   8.364   3.609  1.00  0.00     0.122 A 
HETATM   10  N7  UNL     1      17.795   8.757   2.804  1.00  0.00    -0.345 N 
ATOM     11  H7  UNL     1      17.956   8.844   1.801  1.00  0.00     0.167 HD
HETATM   12  C8  UNL     1      16.546   9.041   3.315  1.00  0.00     0.075 A 
ENDROOT
BRANCH  12  13
HETATM   13  C9  UNL     1      15.562   9.448   2.364  1.00  0.00    -0.002 A 
HETATM   14  C10 UNL     1      15.977  10.200   1.256  1.00  0.00     0.053 A 
HETATM   15  C11 UNL     1      15.102  10.558   0.260  1.00  0.00     0.105 A 
HETATM   16  C13 UNL     1      13.769  10.208   0.279  1.00  0.00     0.135 A 
HETATM   17  C15 UNL     1      13.350   9.468   1.363  1.00  0.00     0.105 A 
HETATM   18  C17 UNL     1      14.231   9.109   2.362  1.00  0.00     0.053 A 
BRANCH  15  19
HETATM   19  O2  UNL     1      15.517  11.308  -0.843  1.00  0.00    -0.353 OA
HETATM   20  C12 UNL     1      16.374  10.713  -1.830  1.00  0.00     0.210 C 
ENDBRANCH  15  19
BRANCH  16  21
HETATM   21  O3  UNL     1      12.883  10.558  -0.705  1.00  0.00    -0.351 OA
HETATM   22  C14 UNL     1      12.761   9.899  -1.949  1.00  0.00     0.210 C 
ENDBRANCH  16  21
BRANCH  17  23
HETATM   23  O4  UNL     1      12.025   9.082   1.448  1.00  0.00    -0.353 OA
HETATM   24  C16 UNL     1      11.408   8.855   2.699  1.00  0.00     0.210 C 
ENDBRANCH  17  23
ENDBRANCH  12  13
BRANCH   1  25
HETATM   25  C2  UNL     1      15.150   9.245   5.304  1.00  0.00     0.165 C 
HETATM   26  N1  UNL     1      14.884  10.517   5.503  1.00  0.00    -0.378 N 
ATOM     27  H12 UNL     1      14.004  10.755   5.963  1.00  0.00     0.158 HD
ATOM     28  H11 UNL     1      15.601  11.165   5.176  1.00  0.00     0.158 HD
BRANCH  25  29
HETATM   29  O1  UNL     1      14.198   8.386   5.738  1.00  0.00    -0.339 OA
HETATM   30  C1  UNL     1      13.891   8.104   7.094  1.00  0.00     0.211 C 
ENDBRANCH  25  29
ENDBRANCH   1  25
BRANCH   7  31
HETATM   31  N4  UNL     1      21.970   7.223   5.531  1.00  0.00    -0.279 N 
ATOM     32  H4  UNL     1      22.084   7.177   6.543  1.00  0.00     0.189 HD
BRANCH  31  33
HETATM   33  N5  UNL     1      23.035   6.871   4.698  1.00  0.00    -0.302 N 
HETATM   34  C6  UNL     1      23.035   5.721   4.156  1.00  0.00     0.174 C 
ATOM     35  H5  UNL     1      23.798   7.525   4.528  1.00  0.00     0.186 HD
BRANCH  34  36
HETATM   36  S1  UNL     1      21.752   4.502   4.385  1.00  0.00    -0.015 SA
BRANCH  36  37
HETATM   37  N6  UNL     1      20.756   4.337   2.941  1.00  0.00    -0.369 N 
ATOM     38  H62 UNL     1      20.921   4.860   2.081  1.00  0.00     0.164 HD
ATOM     39  H61 UNL     1      20.005   3.660   3.081  1.00  0.00     0.164 HD
ENDBRANCH  36  37
ENDBRANCH  34  36
ENDBRANCH  31  33
ENDBRANCH   7  31
TORSDOF 10
ENDMDL
