MODEL 1
REMARK VINA RESULT: -8.811707961      0.000      0.000
REMARK  10 active torsions:
REMARK  status: ('A' for Active; 'I' for Inactive)
REMARK    1  A    between atoms: O1_2  and  C2_3 
REMARK    2  A    between atoms: C4_5  and  O2_6 
REMARK    3  A    between atoms: C5_8  and  C6_9 
REMARK    4  A    between atoms: C6_9  and  C7_11 
REMARK    5  A    between atoms: C8_12  and  C9_13 
REMARK    6  A    between atoms: C11_17  and  C12_18 
REMARK    7  A    between atoms: C15_25  and  O6_26 
REMARK    8  A    between atoms: O6_26  and  C16_27 
REMARK    9  A    between atoms: C18_30  and  O8_31 
REMARK   10  A    between atoms: C20_34  and  O9_35 
ROOT
HETATM    1  C9  UNL     1      16.752  10.983   1.525  1.00  0.00     0.115 A 
HETATM    2  O4  UNL     1      17.190  11.041   0.307  1.00  0.00    -0.272 OA
HETATM    3  C10 UNL     1      16.500  10.775  -0.770  1.00  0.00     0.305 A 
HETATM    4  O5  UNL     1      17.022  10.861  -1.929  1.00  0.00    -0.259 OA
HETATM    5  C11 UNL     1      15.179  10.388  -0.704  1.00  0.00     0.120 A 
HETATM    6  C15 UNL     1      14.659  10.311   0.571  1.00  0.00     0.135 A 
HETATM    7  C18 UNL     1      15.397  10.594   1.683  1.00  0.00     0.135 A 
ENDROOT
BRANCH   1   8
HETATM    8  C8  UNL     1      17.516  11.273   2.720  1.00  0.00     0.044 C 
HETATM    9  C7  UNL     1      18.028  10.545   3.623  1.00  0.00     0.058 C 
BRANCH   9  10
HETATM   10  C6  UNL     1      18.065   9.135   3.841  1.00  0.00     0.185 C 
HETATM   11  O3  UNL     1      16.943   8.552   4.039  1.00  0.00    -0.287 OA
BRANCH  10  12
HETATM   12  C5  UNL     1      19.223   8.239   3.871  1.00  0.00     0.050 A 
HETATM   13  C4  UNL     1      19.429   7.252   4.819  1.00  0.00     0.082 A 
HETATM   14  C3  UNL     1      20.588   6.436   4.778  1.00  0.00     0.077 A 
HETATM   15  C2  UNL     1      21.525   6.597   3.813  1.00  0.00     0.104 A 
HETATM   16  C20 UNL     1      21.320   7.590   2.855  1.00  0.00     0.102 A 
HETATM   17  C19 UNL     1      20.203   8.382   2.886  1.00  0.00     0.058 A 
BRANCH  13  18
HETATM   18  O2  UNL     1      18.546   7.047   5.799  1.00  0.00    -0.360 OA
ATOM     19  H2  UNL     1      18.746   7.385   6.664  1.00  0.00     0.217 HD
ENDBRANCH  13  18
BRANCH  15  20
HETATM   20  O1  UNL     1      22.680   5.824   3.730  1.00  0.00    -0.353 OA
HETATM   21  C1  UNL     1      23.033   4.947   4.780  1.00  0.00     0.210 C 
ENDBRANCH  15  20
BRANCH  16  22
HETATM   22  O9  UNL     1      22.296   7.724   1.885  1.00  0.00    -0.353 OA
HETATM   23  C21 UNL     1      21.935   7.628   0.525  1.00  0.00     0.210 C 
ENDBRANCH  16  22
ENDBRANCH  10  12
ENDBRANCH   9  10
ENDBRANCH   1   8
BRANCH   7  24
HETATM   24  O8  UNL     1      14.845  10.506   2.943  1.00  0.00    -0.356 OA
ATOM     25  H8  UNL     1      15.406  10.413   3.705  1.00  0.00     0.218 HD
ENDBRANCH   7  24
BRANCH   6  26
HETATM   26  O6  UNL     1      13.328   9.931   0.737  1.00  0.00    -0.275 OA
BRANCH  26  27
HETATM   27  C16 UNL     1      12.984   8.772   1.416  1.00  0.00     0.260 C 
HETATM   28  C17 UNL     1      12.017   8.747   2.522  1.00  0.00     0.126 C 
HETATM   29  O7  UNL     1      13.544   7.708   1.039  1.00  0.00    -0.265 OA
ENDBRANCH  26  27
ENDBRANCH   6  26
BRANCH   5  30
HETATM   30  C12 UNL     1      14.343  10.034  -1.828  1.00  0.00     0.116 C 
HETATM   31  N1  UNL     1      14.615   9.290  -2.850  1.00  0.00    -0.374 N 
HETATM   32  C13 UNL     1      13.488   9.191  -3.755  1.00  0.00     0.141 C 
ATOM     33  H1  UNL     1      15.512   8.829  -3.000  1.00  0.00     0.161 HD
HETATM   34  C14 UNL     1      12.299   9.668  -2.932  1.00  0.00     0.141 C 
HETATM   35  N2  UNL     1      13.000  10.524  -1.978  1.00  0.00    -0.374 N 
ATOM     36  H2  UNL     1      12.603  11.332  -1.499  1.00  0.00     0.161 HD
ENDBRANCH   5  30
TORSDOF 10
ENDMDL
MODEL 2
REMARK VINA RESULT: -8.574864830      1.687      3.130
REMARK  10 active torsions:
REMARK  status: ('A' for Active; 'I' for Inactive)
REMARK    1  A    between atoms: O1_2  and  C2_3 
REMARK    2  A    between atoms: C4_5  and  O2_6 
REMARK    3  A    between atoms: C5_8  and  C6_9 
REMARK    4  A    between atoms: C6_9  and  C7_11 
REMARK    5  A    between atoms: C8_12  and  C9_13 
REMARK    6  A    between atoms: C11_17  and  C12_18 
REMARK    7  A    between atoms: C15_25  and  O6_26 
REMARK    8  A    between atoms: O6_26  and  C16_27 
REMARK    9  A    between atoms: C18_30  and  O8_31 
REMARK   10  A    between atoms: C20_34  and  O9_35 
ROOT
HETATM    1  C9  UNL     1      15.332   9.712   3.085  1.00  0.00     0.115 A 
HETATM    2  O4  UNL     1      14.530   8.762   2.719  1.00  0.00    -0.272 OA
HETATM    3  C10 UNL     1      14.056   8.578   1.515  1.00  0.00     0.305 A 
HETATM    4  O5  UNL     1      13.271   7.610   1.253  1.00  0.00    -0.259 OA
HETATM    5  C11 UNL     1      14.382   9.421   0.475  1.00  0.00     0.120 A 
HETATM    6  C15 UNL     1      15.235  10.452   0.807  1.00  0.00     0.135 A 
HETATM    7  C18 UNL     1      15.720  10.625   2.072  1.00  0.00     0.135 A 
ENDROOT
BRANCH   1   8
HETATM    8  C8  UNL     1      15.854   9.920   4.419  1.00  0.00     0.044 C 
HETATM    9  C7  UNL     1      17.026   9.929   4.903  1.00  0.00     0.058 C 
BRANCH   9  10
HETATM   10  C6  UNL     1      18.322   9.739   4.336  1.00  0.00     0.185 C 
HETATM   11  O3  UNL     1      18.803  10.710   3.657  1.00  0.00    -0.287 OA
BRANCH  10  12
HETATM   12  C5  UNL     1      19.200   8.571   4.421  1.00  0.00     0.050 A 
HETATM   13  C4  UNL     1      18.836   7.285   4.058  1.00  0.00     0.082 A 
HETATM   14  C3  UNL     1      19.750   6.208   4.186  1.00  0.00     0.077 A 
HETATM   15  C2  UNL     1      21.002   6.404   4.666  1.00  0.00     0.104 A 
HETATM   16  C20 UNL     1      21.372   7.698   5.031  1.00  0.00     0.102 A 
HETATM   17  C19 UNL     1      20.497   8.745   4.910  1.00  0.00     0.058 A 
BRANCH  13  18
HETATM   18  O2  UNL     1      17.616   7.026   3.584  1.00  0.00    -0.360 OA
ATOM     19  H2  UNL     1      17.536   6.723   2.688  1.00  0.00     0.217 HD
ENDBRANCH  13  18
BRANCH  15  20
HETATM   20  O1  UNL     1      21.934   5.381   4.813  1.00  0.00    -0.353 OA
HETATM   21  C1  UNL     1      21.770   4.156   4.127  1.00  0.00     0.210 C 
ENDBRANCH  15  20
BRANCH  16  22
HETATM   22  O9  UNL     1      22.658   7.860   5.515  1.00  0.00    -0.353 OA
HETATM   23  C21 UNL     1      22.858   8.567   6.718  1.00  0.00     0.210 C 
ENDBRANCH  16  22
ENDBRANCH  10  12
ENDBRANCH   9  10
ENDBRANCH   1   8
BRANCH   7  24
HETATM   24  O8  UNL     1      16.571  11.668   2.369  1.00  0.00    -0.356 OA
ATOM     25  H8  UNL     1      16.690  12.379   1.749  1.00  0.00     0.218 HD
ENDBRANCH   7  24
BRANCH   6  26
HETATM   26  O6  UNL     1      15.624  11.354  -0.181  1.00  0.00    -0.275 OA
BRANCH  26  27
HETATM   27  C16 UNL     1      16.813  11.198  -0.878  1.00  0.00     0.260 C 
HETATM   28  C17 UNL     1      18.074  11.829  -0.463  1.00  0.00     0.126 C 
HETATM   29  O7  UNL     1      16.776  10.473  -1.907  1.00  0.00    -0.265 OA
ENDBRANCH  26  27
ENDBRANCH   6  26
BRANCH   5  30
HETATM   30  C12 UNL     1      13.882   9.329  -0.877  1.00  0.00     0.116 C 
HETATM   31  N1  UNL     1      12.948  10.011  -1.455  1.00  0.00    -0.374 N 
HETATM   32  C13 UNL     1      12.757   9.600  -2.831  1.00  0.00     0.141 C 
ATOM     33  H1  UNL     1      12.411  10.748  -0.998  1.00  0.00     0.161 HD
HETATM   34  C14 UNL     1      14.015   8.811  -3.168  1.00  0.00     0.141 C 
HETATM   35  N2  UNL     1      14.386   8.372  -1.825  1.00  0.00    -0.374 N 
ATOM     36  H2  UNL     1      14.913   7.530  -1.598  1.00  0.00     0.161 HD
ENDBRANCH   5  30
TORSDOF 10
ENDMDL
MODEL 3
REMARK VINA RESULT: -8.555948174      1.188      2.648
REMARK  10 active torsions:
REMARK  status: ('A' for Active; 'I' for Inactive)
REMARK    1  A    between atoms: O1_2  and  C2_3 
REMARK    2  A    between atoms: C4_5  and  O2_6 
REMARK    3  A    between atoms: C5_8  and  C6_9 
REMARK    4  A    between atoms: C6_9  and  C7_11 
REMARK    5  A    between atoms: C8_12  and  C9_13 
REMARK    6  A    between atoms: C11_17  and  C12_18 
REMARK    7  A    between atoms: C15_25  and  O6_26 
REMARK    8  A    between atoms: O6_26  and  C16_27 
REMARK    9  A    between atoms: C18_30  and  O8_31 
REMARK   10  A    between atoms: C20_34  and  O9_35 
ROOT
HETATM    1  C9  UNL     1      15.520   9.470   2.940  1.00  0.00     0.115 A 
HETATM    2  O4  UNL     1      14.774   8.508   2.495  1.00  0.00    -0.272 OA
HETATM    3  C10 UNL     1      14.319   8.391   1.275  1.00  0.00     0.305 A 
HETATM    4  O5  UNL     1      13.589   7.405   0.933  1.00  0.00    -0.259 OA
HETATM    5  C11 UNL     1      14.606   9.327   0.305  1.00  0.00     0.120 A 
HETATM    6  C15 UNL     1      15.399  10.374   0.723  1.00  0.00     0.135 A 
HETATM    7  C18 UNL     1      15.865  10.477   2.003  1.00  0.00     0.135 A 
ENDROOT
BRANCH   1   8
HETATM    8  C8  UNL     1      16.020   9.604   4.291  1.00  0.00     0.044 C 
HETATM    9  C7  UNL     1      17.186   9.633   4.789  1.00  0.00     0.058 C 
BRANCH   9  10
HETATM   10  C6  UNL     1      18.495   9.546   4.225  1.00  0.00     0.185 C 
HETATM   11  O3  UNL     1      18.984  10.620   3.732  1.00  0.00    -0.287 OA
BRANCH  10  12
HETATM   12  C5  UNL     1      19.378   8.382   4.127  1.00  0.00     0.050 A 
HETATM   13  C4  UNL     1      19.338   7.291   4.979  1.00  0.00     0.082 A 
HETATM   14  C3  UNL     1      20.242   6.210   4.818  1.00  0.00     0.077 A 
HETATM   15  C2  UNL     1      21.169   6.213   3.830  1.00  0.00     0.104 A 
HETATM   16  C20 UNL     1      21.211   7.310   2.969  1.00  0.00     0.102 A 
HETATM   17  C19 UNL     1      20.341   8.358   3.116  1.00  0.00     0.058 A 
BRANCH  13  18
HETATM   18  O2  UNL     1      18.452   7.232   5.975  1.00  0.00    -0.360 OA
ATOM     19  H2  UNL     1      17.530   7.174   5.755  1.00  0.00     0.217 HD
ENDBRANCH  13  18
BRANCH  15  20
HETATM   20  O1  UNL     1      22.080   5.179   3.632  1.00  0.00    -0.353 OA
HETATM   21  C1  UNL     1      22.982   4.812   4.655  1.00  0.00     0.210 C 
ENDBRANCH  15  20
BRANCH  16  22
HETATM   22  O9  UNL     1      22.169   7.276   1.973  1.00  0.00    -0.353 OA
HETATM   23  C21 UNL     1      21.857   7.794   0.698  1.00  0.00     0.210 C 
ENDBRANCH  16  22
ENDBRANCH  10  12
ENDBRANCH   9  10
ENDBRANCH   1   8
BRANCH   7  24
HETATM   24  O8  UNL     1      16.656  11.539   2.386  1.00  0.00    -0.356 OA
ATOM     25  H8  UNL     1      16.624  12.357   1.904  1.00  0.00     0.218 HD
ENDBRANCH   7  24
BRANCH   6  26
HETATM   26  O6  UNL     1      15.746  11.367  -0.190  1.00  0.00    -0.275 OA
BRANCH  26  27
HETATM   27  C16 UNL     1      16.926  11.305  -0.917  1.00  0.00     0.260 C 
HETATM   28  C17 UNL     1      18.202  11.840  -0.422  1.00  0.00     0.126 C 
HETATM   29  O7  UNL     1      16.865  10.756  -2.048  1.00  0.00    -0.265 OA
ENDBRANCH  26  27
ENDBRANCH   6  26
BRANCH   5  30
HETATM   30  C12 UNL     1      14.122   9.310  -1.056  1.00  0.00     0.116 C 
HETATM   31  N1  UNL     1      14.486   8.563  -2.047  1.00  0.00    -0.374 N 
HETATM   32  C13 UNL     1      13.742   8.872  -3.251  1.00  0.00     0.141 C 
ATOM     33  H1  UNL     1      15.207   7.845  -1.988  1.00  0.00     0.161 HD
HETATM   34  C14 UNL     1      12.542   9.671  -2.761  1.00  0.00     0.141 C 
HETATM   35  N2  UNL     1      13.107  10.212  -1.527  1.00  0.00    -0.374 N 
ATOM     36  H2  UNL     1      12.827  11.083  -1.077  1.00  0.00     0.161 HD
ENDBRANCH   5  30
TORSDOF 10
ENDMDL
MODEL 4
REMARK VINA RESULT: -8.316354430      1.512      1.910
REMARK  10 active torsions:
REMARK  status: ('A' for Active; 'I' for Inactive)
REMARK    1  A    between atoms: O1_2  and  C2_3 
REMARK    2  A    between atoms: C4_5  and  O2_6 
REMARK    3  A    between atoms: C5_8  and  C6_9 
REMARK    4  A    between atoms: C6_9  and  C7_11 
REMARK    5  A    between atoms: C8_12  and  C9_13 
REMARK    6  A    between atoms: C11_17  and  C12_18 
REMARK    7  A    between atoms: C15_25  and  O6_26 
REMARK    8  A    between atoms: O6_26  and  C16_27 
REMARK    9  A    between atoms: C18_30  and  O8_31 
REMARK   10  A    between atoms: C20_34  and  O9_35 
ROOT
HETATM    1  C9  UNL     1      16.613  11.101   2.337  1.00  0.00     0.115 A 
HETATM    2  O4  UNL     1      17.267  11.312   1.237  1.00  0.00    -0.272 OA
HETATM    3  C10 UNL     1      16.823  11.096   0.027  1.00  0.00     0.305 A 
HETATM    4  O5  UNL     1      17.544  11.337  -0.995  1.00  0.00    -0.259 OA
HETATM    5  C11 UNL     1      15.558  10.598  -0.200  1.00  0.00     0.120 A 
HETATM    6  C15 UNL     1      14.817  10.356   0.936  1.00  0.00     0.135 A 
HETATM    7  C18 UNL     1      15.299  10.589   2.192  1.00  0.00     0.135 A 
ENDROOT
BRANCH   1   8
HETATM    8  C8  UNL     1      17.105  11.334   3.678  1.00  0.00     0.044 C 
HETATM    9  C7  UNL     1      17.492  10.566   4.609  1.00  0.00     0.058 C 
BRANCH   9  10
HETATM   10  C6  UNL     1      17.604   9.147   4.725  1.00  0.00     0.185 C 
HETATM   11  O3  UNL     1      16.513   8.486   4.811  1.00  0.00    -0.287 OA
BRANCH  10  12
HETATM   12  C5  UNL     1      18.813   8.321   4.760  1.00  0.00     0.050 A 
HETATM   13  C4  UNL     1      18.902   7.038   4.247  1.00  0.00     0.082 A 
HETATM   14  C3  UNL     1      20.112   6.303   4.335  1.00  0.00     0.077 A 
HETATM   15  C2  UNL     1      21.212   6.833   4.922  1.00  0.00     0.104 A 
HETATM   16  C20 UNL     1      21.126   8.126   5.438  1.00  0.00     0.102 A 
HETATM   17  C19 UNL     1      19.962   8.843   5.357  1.00  0.00     0.058 A 
BRANCH  13  18
HETATM   18  O2  UNL     1      17.851   6.459   3.662  1.00  0.00    -0.360 OA
ATOM     19  H2  UNL     1      17.103   7.001   3.441  1.00  0.00     0.217 HD
ENDBRANCH  13  18
BRANCH  15  20
HETATM   20  O1  UNL     1      22.422   6.152   5.035  1.00  0.00    -0.353 OA
HETATM   21  C1  UNL     1      22.619   4.924   4.366  1.00  0.00     0.210 C 
ENDBRANCH  15  20
BRANCH  16  22
HETATM   22  O9  UNL     1      22.269   8.633   6.028  1.00  0.00    -0.353 OA
HETATM   23  C21 UNL     1      22.285   8.858   7.420  1.00  0.00     0.210 C 
ENDBRANCH  16  22
ENDBRANCH  10  12
ENDBRANCH   9  10
ENDBRANCH   1   8
BRANCH   7  24
HETATM   24  O8  UNL     1      14.529  10.334   3.307  1.00  0.00    -0.356 OA
ATOM     25  H8  UNL     1      13.711  10.800   3.439  1.00  0.00     0.218 HD
ENDBRANCH   7  24
BRANCH   6  26
HETATM   26  O6  UNL     1      13.522   9.856   0.806  1.00  0.00    -0.275 OA
BRANCH  26  27
HETATM   27  C16 UNL     1      13.168   8.617   1.320  1.00  0.00     0.260 C 
HETATM   28  C17 UNL     1      13.926   7.388   1.045  1.00  0.00     0.126 C 
HETATM   29  O7  UNL     1      12.146   8.580   2.055  1.00  0.00    -0.265 OA
ENDBRANCH  26  27
ENDBRANCH   6  26
BRANCH   5  30
HETATM   30  C12 UNL     1      14.990  10.289  -1.491  1.00  0.00     0.116 C 
HETATM   31  N1  UNL     1      15.520   9.663  -2.492  1.00  0.00    -0.374 N 
HETATM   32  C13 UNL     1      14.602   9.565  -3.608  1.00  0.00     0.141 C 
ATOM     33  H1  UNL     1      16.467   9.286  -2.494  1.00  0.00     0.161 HD
HETATM   34  C14 UNL     1      13.238   9.876  -3.005  1.00  0.00     0.141 C 
HETATM   35  N2  UNL     1      13.662  10.690  -1.869  1.00  0.00    -0.374 N 
ATOM     36  H2  UNL     1      13.109  11.419  -1.419  1.00  0.00     0.161 HD
ENDBRANCH   5  30
TORSDOF 10
ENDMDL
MODEL 5
REMARK VINA RESULT: -8.296061110      3.018      8.029
REMARK  10 active torsions:
REMARK  status: ('A' for Active; 'I' for Inactive)
REMARK    1  A    between atoms: O1_2  and  C2_3 
REMARK    2  A    between atoms: C4_5  and  O2_6 
REMARK    3  A    between atoms: C5_8  and  C6_9 
REMARK    4  A    between atoms: C6_9  and  C7_11 
REMARK    5  A    between atoms: C8_12  and  C9_13 
REMARK    6  A    between atoms: C11_17  and  C12_18 
REMARK    7  A    between atoms: C15_25  and  O6_26 
REMARK    8  A    between atoms: O6_26  and  C16_27 
REMARK    9  A    between atoms: C18_30  and  O8_31 
REMARK   10  A    between atoms: C20_34  and  O9_35 
ROOT
HETATM    1  C9  UNL     1      17.959   9.273   4.533  1.00  0.00     0.115 A 
HETATM    2  O4  UNL     1      17.957   8.213   5.279  1.00  0.00    -0.272 OA
HETATM    3  C10 UNL     1      18.887   7.296   5.311  1.00  0.00     0.305 A 
HETATM    4  O5  UNL     1      18.794   6.285   6.082  1.00  0.00    -0.259 OA
HETATM    5  C11 UNL     1      20.009   7.377   4.516  1.00  0.00     0.120 A 
HETATM    6  C15 UNL     1      20.065   8.488   3.701  1.00  0.00     0.135 A 
HETATM    7  C18 UNL     1      19.082   9.435   3.683  1.00  0.00     0.135 A 
ENDROOT
BRANCH   1   8
HETATM    8  C8  UNL     1      16.927  10.287   4.492  1.00  0.00     0.044 C 
HETATM    9  C7  UNL     1      15.866  10.422   3.809  1.00  0.00     0.058 C 
BRANCH   9  10
HETATM   10  C6  UNL     1      15.246   9.631   2.796  1.00  0.00     0.185 C 
HETATM   11  O3  UNL     1      14.594   8.601   3.185  1.00  0.00    -0.287 OA
BRANCH  10  12
HETATM   12  C5  UNL     1      15.244   9.831   1.345  1.00  0.00     0.050 A 
HETATM   13  C4  UNL     1      14.204   9.476   0.504  1.00  0.00     0.082 A 
HETATM   14  C3  UNL     1      14.292   9.696  -0.894  1.00  0.00     0.077 A 
HETATM   15  C2  UNL     1      15.395  10.258  -1.446  1.00  0.00     0.104 A 
HETATM   16  C20 UNL     1      16.445  10.617  -0.602  1.00  0.00     0.102 A 
HETATM   17  C19 UNL     1      16.367  10.409   0.750  1.00  0.00     0.058 A 
BRANCH  13  18
HETATM   18  O2  UNL     1      13.093   8.914   0.987  1.00  0.00    -0.360 OA
ATOM     19  H2  UNL     1      12.617   9.372   1.669  1.00  0.00     0.217 HD
ENDBRANCH  13  18
BRANCH  15  20
HETATM   20  O1  UNL     1      15.532  10.492  -2.812  1.00  0.00    -0.353 OA
HETATM   21  C1  UNL     1      14.579   9.989  -3.725  1.00  0.00     0.210 C 
ENDBRANCH  15  20
BRANCH  16  22
HETATM   22  O9  UNL     1      17.552  11.189  -1.201  1.00  0.00    -0.353 OA
HETATM   23  C21 UNL     1      18.484  11.886  -0.405  1.00  0.00     0.210 C 
ENDBRANCH  16  22
ENDBRANCH  10  12
ENDBRANCH   9  10
ENDBRANCH   1   8
BRANCH   7  24
HETATM   24  O8  UNL     1      19.170  10.534   2.855  1.00  0.00    -0.356 OA
ATOM     25  H8  UNL     1      19.047  11.408   3.207  1.00  0.00     0.218 HD
ENDBRANCH   7  24
BRANCH   6  26
HETATM   26  O6  UNL     1      21.165   8.659   2.863  1.00  0.00    -0.275 OA
BRANCH  26  27
HETATM   27  C16 UNL     1      21.134   8.261   1.535  1.00  0.00     0.260 C 
HETATM   28  C17 UNL     1      22.029   7.233   0.985  1.00  0.00     0.126 C 
HETATM   29  O7  UNL     1      20.287   8.827   0.795  1.00  0.00    -0.265 OA
ENDBRANCH  26  27
ENDBRANCH   6  26
BRANCH   5  30
HETATM   30  C12 UNL     1      21.071   6.401   4.448  1.00  0.00     0.116 C 
HETATM   31  N1  UNL     1      22.291   6.485   4.871  1.00  0.00    -0.374 N 
HETATM   32  C13 UNL     1      23.035   5.271   4.603  1.00  0.00     0.141 C 
ATOM     33  H1  UNL     1      22.681   7.305   5.335  1.00  0.00     0.161 HD
HETATM   34  C14 UNL     1      21.965   4.230   4.302  1.00  0.00     0.141 C 
HETATM   35  N2  UNL     1      20.902   5.114   3.831  1.00  0.00    -0.374 N 
ATOM     36  H2  UNL     1      20.163   4.860   3.175  1.00  0.00     0.161 HD
ENDBRANCH   5  30
TORSDOF 10
ENDMDL
