MODEL 1
REMARK VINA RESULT: -7.817619901      0.000      0.000
REMARK  10 active torsions:
REMARK  status: ('A' for Active; 'I' for Inactive)
REMARK    1  A    between atoms: O1_2  and  C2_3 
REMARK    2  A    between atoms: C5_7  and  O3_8 
REMARK    3  A    between atoms: C6_10  and  C7_11 
REMARK    4  A    between atoms: C8_12  and  C9_13 
REMARK    5  A    between atoms: C10_15  and  O5_16 
REMARK    6  A    between atoms: C12_19  and  O6_20 
REMARK    7  A    between atoms: O6_20  and  C13_21 
REMARK    8  A    between atoms: C15_24  and  O8_25 
REMARK    9  A    between atoms: C19_30  and  O10_31 
REMARK   10  A    between atoms: C20_33  and  O11_34 
ROOT
HETATM    1  C2  UNL     1      15.373   9.118   7.537  1.00  0.00     0.107 A 
HETATM    2  C3  UNL     1      16.365   8.671   6.672  1.00  0.00     0.078 A 
HETATM    3  C4  UNL     1      16.401   9.076   5.354  1.00  0.00     0.098 A 
HETATM    4  O2  UNL     1      17.324   8.669   4.516  1.00  0.00    -0.286 OA
HETATM    5  C5  UNL     1      17.398   9.026   3.261  1.00  0.00     0.199 A 
HETATM    6  C6  UNL     1      16.451   9.901   2.714  1.00  0.00     0.087 A 
HETATM    7  C17 UNL     1      15.463  10.351   3.561  1.00  0.00     0.203 A 
HETATM    8  O9  UNL     1      14.585  11.132   3.138  1.00  0.00    -0.286 OA
HETATM    9  C18 UNL     1      15.452   9.930   4.873  1.00  0.00     0.085 A 
HETATM   10  C19 UNL     1      14.456  10.374   5.754  1.00  0.00     0.119 A 
HETATM   11  C20 UNL     1      14.402   9.983   7.074  1.00  0.00     0.136 A 
ENDROOT
BRANCH   6  12
HETATM   12  C7  UNL     1      16.570  10.285   1.322  1.00  0.00     0.035 A 
HETATM   13  C8  UNL     1      17.397  11.294   0.924  1.00  0.00     0.049 A 
HETATM   14  C10 UNL     1      17.495  11.653  -0.431  1.00  0.00     0.082 A 
HETATM   15  C11 UNL     1      16.770  11.007  -1.383  1.00  0.00     0.077 A 
HETATM   16  C12 UNL     1      15.933   9.990  -0.997  1.00  0.00     0.116 A 
HETATM   17  C15 UNL     1      15.818   9.614   0.344  1.00  0.00     0.114 A 
BRANCH  13  18
HETATM   18  C9  UNL     1      18.195  12.036   1.867  1.00  0.00     0.273 C 
HETATM   19  O4  UNL     1      19.380  12.327   1.660  1.00  0.00    -0.301 OA
ENDBRANCH  13  18
BRANCH  14  20
HETATM   20  O5  UNL     1      18.342  12.680  -0.802  1.00  0.00    -0.360 OA
ATOM     21  H5  UNL     1      18.378  13.469  -0.274  1.00  0.00     0.217 HD
ENDBRANCH  14  20
BRANCH  16  22
HETATM   22  O6  UNL     1      15.187   9.323  -1.961  1.00  0.00    -0.276 OA
BRANCH  22  23
HETATM   23  C13 UNL     1      14.348   9.920  -2.866  1.00  0.00     0.260 C 
HETATM   24  C14 UNL     1      14.640  10.037  -4.318  1.00  0.00     0.126 C 
HETATM   25  O7  UNL     1      13.267  10.396  -2.446  1.00  0.00    -0.265 OA
ENDBRANCH  22  23
ENDBRANCH  16  22
BRANCH  17  26
HETATM   26  O8  UNL     1      14.971   8.589   0.725  1.00  0.00    -0.352 OA
HETATM   27  C16 UNL     1      13.586   8.708   0.829  1.00  0.00     0.210 C 
ENDBRANCH  17  26
ENDBRANCH   6  12
BRANCH   5  28
HETATM   28  O3  UNL     1      18.409   8.562   2.406  1.00  0.00    -0.340 OA
ATOM     29  H3  UNL     1      18.257   7.880   1.762  1.00  0.00     0.220 HD
ENDBRANCH   5  28
BRANCH  10  30
HETATM   30  O10 UNL     1      13.507  11.240   5.238  1.00  0.00    -0.357 OA
ATOM     31  H10 UNL     1      12.663  10.866   5.012  1.00  0.00     0.218 HD
ENDBRANCH  10  30
BRANCH  11  32
HETATM   32  O11 UNL     1      13.413  10.438   7.907  1.00  0.00    -0.351 OA
HETATM   33  C21 UNL     1      13.639  11.242   9.046  1.00  0.00     0.210 C 
ENDBRANCH  11  32
BRANCH   1  34
HETATM   34  O1  UNL     1      15.401   8.672   8.843  1.00  0.00    -0.353 OA
HETATM   35  C1  UNL     1      14.520   7.664   9.300  1.00  0.00     0.210 C 
ENDBRANCH   1  34
TORSDOF 10
ENDMDL
MODEL 2
REMARK VINA RESULT: -7.506646065      1.470      7.836
REMARK  10 active torsions:
REMARK  status: ('A' for Active; 'I' for Inactive)
REMARK    1  A    between atoms: O1_2  and  C2_3 
REMARK    2  A    between atoms: C5_7  and  O3_8 
REMARK    3  A    between atoms: C6_10  and  C7_11 
REMARK    4  A    between atoms: C8_12  and  C9_13 
REMARK    5  A    between atoms: C10_15  and  O5_16 
REMARK    6  A    between atoms: C12_19  and  O6_20 
REMARK    7  A    between atoms: O6_20  and  C13_21 
REMARK    8  A    between atoms: C15_24  and  O8_25 
REMARK    9  A    between atoms: C19_30  and  O10_31 
REMARK   10  A    between atoms: C20_33  and  O11_34 
ROOT
HETATM    1  C2  UNL     1      15.191  10.315  -2.910  1.00  0.00     0.107 A 
HETATM    2  C3  UNL     1      16.009  11.008  -2.026  1.00  0.00     0.078 A 
HETATM    3  C4  UNL     1      16.015  10.717  -0.677  1.00  0.00     0.098 A 
HETATM    4  O2  UNL     1      16.776  11.355   0.179  1.00  0.00    -0.286 OA
HETATM    5  C5  UNL     1      16.814  11.114   1.462  1.00  0.00     0.199 A 
HETATM    6  C6  UNL     1      16.007  10.116   2.022  1.00  0.00     0.087 A 
HETATM    7  C17 UNL     1      15.192   9.422   1.157  1.00  0.00     0.203 A 
HETATM    8  O9  UNL     1      14.445   8.520   1.589  1.00  0.00    -0.286 OA
HETATM    9  C18 UNL     1      15.207   9.734  -0.185  1.00  0.00     0.085 A 
HETATM   10  C19 UNL     1      14.386   9.041  -1.086  1.00  0.00     0.119 A 
HETATM   11  C20 UNL     1      14.365   9.316  -2.436  1.00  0.00     0.136 A 
ENDROOT
BRANCH   6  12
HETATM   12  C7  UNL     1      16.085   9.866   3.448  1.00  0.00     0.035 A 
HETATM   13  C8  UNL     1      17.045   9.060   3.984  1.00  0.00     0.049 A 
HETATM   14  C10 UNL     1      17.100   8.829   5.370  1.00  0.00     0.082 A 
HETATM   15  C11 UNL     1      16.199   9.399   6.213  1.00  0.00     0.077 A 
HETATM   16  C12 UNL     1      15.226  10.213   5.687  1.00  0.00     0.116 A 
HETATM   17  C15 UNL     1      15.151  10.459   4.313  1.00  0.00     0.114 A 
BRANCH  13  18
HETATM   18  C9  UNL     1      18.033   8.408   3.163  1.00  0.00     0.273 C 
HETATM   19  O4  UNL     1      19.221   8.753   3.143  1.00  0.00    -0.301 OA
ENDBRANCH  13  18
BRANCH  14  20
HETATM   20  O5  UNL     1      18.085   8.007   5.883  1.00  0.00    -0.360 OA
ATOM     21  H5  UNL     1      18.309   8.066   6.804  1.00  0.00     0.217 HD
ENDBRANCH  14  20
BRANCH  16  22
HETATM   22  O6  UNL     1      14.301  10.801   6.540  1.00  0.00    -0.276 OA
BRANCH  22  23
HETATM   23  C13 UNL     1      13.712  10.188   7.615  1.00  0.00     0.260 C 
HETATM   24  C14 UNL     1      13.912  10.610   9.025  1.00  0.00     0.126 C 
HETATM   25  O7  UNL     1      12.957   9.210   7.398  1.00  0.00    -0.265 OA
ENDBRANCH  22  23
ENDBRANCH  16  22
BRANCH  17  26
HETATM   26  O8  UNL     1      14.166  11.278   3.791  1.00  0.00    -0.352 OA
HETATM   27  C16 UNL     1      12.978  10.820   3.223  1.00  0.00     0.210 C 
ENDBRANCH  17  26
ENDBRANCH   6  12
BRANCH   5  28
HETATM   28  O3  UNL     1      17.649  11.827   2.337  1.00  0.00    -0.340 OA
ATOM     29  H3  UNL     1      17.372  12.629   2.763  1.00  0.00     0.220 HD
ENDBRANCH   5  28
BRANCH  10  30
HETATM   30  O10 UNL     1      13.577   8.049  -0.558  1.00  0.00    -0.357 OA
ATOM     31  H10 UNL     1      14.006   7.245  -0.289  1.00  0.00     0.218 HD
ENDBRANCH  10  30
BRANCH  11  32
HETATM   32  O11 UNL     1      13.549   8.617  -3.287  1.00  0.00    -0.351 OA
HETATM   33  C21 UNL     1      12.315   9.099  -3.780  1.00  0.00     0.210 C 
ENDBRANCH  11  32
BRANCH   1  34
HETATM   34  O1  UNL     1      15.239  10.660  -4.246  1.00  0.00    -0.353 OA
HETATM   35  C1  UNL     1      15.526   9.704  -5.247  1.00  0.00     0.210 C 
ENDBRANCH   1  34
TORSDOF 10
ENDMDL
MODEL 3
REMARK VINA RESULT: -7.133302945      2.716      5.076
REMARK  10 active torsions:
REMARK  status: ('A' for Active; 'I' for Inactive)
REMARK    1  A    between atoms: O1_2  and  C2_3 
REMARK    2  A    between atoms: C5_7  and  O3_8 
REMARK    3  A    between atoms: C6_10  and  C7_11 
REMARK    4  A    between atoms: C8_12  and  C9_13 
REMARK    5  A    between atoms: C10_15  and  O5_16 
REMARK    6  A    between atoms: C12_19  and  O6_20 
REMARK    7  A    between atoms: O6_20  and  C13_21 
REMARK    8  A    between atoms: C15_24  and  O8_25 
REMARK    9  A    between atoms: C19_30  and  O10_31 
REMARK   10  A    between atoms: C20_33  and  O11_34 
ROOT
HETATM    1  C2  UNL     1      20.910   8.480   5.169  1.00  0.00     0.107 A 
HETATM    2  C3  UNL     1      20.362   9.700   4.791  1.00  0.00     0.078 A 
HETATM    3  C4  UNL     1      19.153   9.768   4.128  1.00  0.00     0.098 A 
HETATM    4  O2  UNL     1      18.614  10.905   3.759  1.00  0.00    -0.286 OA
HETATM    5  C5  UNL     1      17.474  11.017   3.132  1.00  0.00     0.199 A 
HETATM    6  C6  UNL     1      16.729   9.877   2.801  1.00  0.00     0.087 A 
HETATM    7  C17 UNL     1      17.261   8.662   3.171  1.00  0.00     0.203 A 
HETATM    8  O9  UNL     1      16.651   7.606   2.907  1.00  0.00    -0.286 OA
HETATM    9  C18 UNL     1      18.470   8.625   3.831  1.00  0.00     0.085 A 
HETATM   10  C19 UNL     1      19.032   7.400   4.218  1.00  0.00     0.119 A 
HETATM   11  C20 UNL     1      20.237   7.310   4.880  1.00  0.00     0.136 A 
ENDROOT
BRANCH   6  12
HETATM   12  C7  UNL     1      15.462  10.040   2.116  1.00  0.00     0.035 A 
HETATM   13  C8  UNL     1      14.276  10.033   2.790  1.00  0.00     0.049 A 
HETATM   14  C10 UNL     1      13.059  10.189   2.105  1.00  0.00     0.082 A 
HETATM   15  C11 UNL     1      13.027  10.348   0.755  1.00  0.00     0.077 A 
HETATM   16  C12 UNL     1      14.213  10.355   0.064  1.00  0.00     0.116 A 
HETATM   17  C15 UNL     1      15.437  10.203   0.722  1.00  0.00     0.114 A 
BRANCH  13  18
HETATM   18  C9  UNL     1      14.217   9.862   4.219  1.00  0.00     0.273 C 
HETATM   19  O4  UNL     1      13.897   8.794   4.754  1.00  0.00    -0.301 OA
ENDBRANCH  13  18
BRANCH  14  20
HETATM   20  O5  UNL     1      11.874  10.179   2.816  1.00  0.00    -0.360 OA
ATOM     21  H5  UNL     1      11.844  10.578   3.678  1.00  0.00     0.217 HD
ENDBRANCH  14  20
BRANCH  16  22
HETATM   22  O6  UNL     1      14.193  10.516  -1.316  1.00  0.00    -0.276 OA
BRANCH  22  23
HETATM   23  C13 UNL     1      13.951   9.521  -2.226  1.00  0.00     0.260 C 
HETATM   24  C14 UNL     1      13.105   9.690  -3.436  1.00  0.00     0.126 C 
HETATM   25  O7  UNL     1      14.474   8.399  -2.029  1.00  0.00    -0.265 OA
ENDBRANCH  22  23
ENDBRANCH  16  22
BRANCH  17  26
HETATM   26  O8  UNL     1      16.628  10.208   0.018  1.00  0.00    -0.352 OA
HETATM   27  C16 UNL     1      17.199  11.342  -0.558  1.00  0.00     0.210 C 
ENDBRANCH  17  26
ENDBRANCH   6  12
BRANCH   5  28
HETATM   28  O3  UNL     1      16.940  12.260   2.759  1.00  0.00    -0.340 OA
ATOM     29  H3  UNL     1      17.233  13.076   3.147  1.00  0.00     0.220 HD
ENDBRANCH   5  28
BRANCH  10  30
HETATM   30  O10 UNL     1      18.315   6.258   3.903  1.00  0.00    -0.357 OA
ATOM     31  H10 UNL     1      17.372   6.347   3.841  1.00  0.00     0.218 HD
ENDBRANCH  10  30
BRANCH  11  32
HETATM   32  O11 UNL     1      20.755   6.094   5.242  1.00  0.00    -0.351 OA
HETATM   33  C21 UNL     1      21.590   5.307   4.418  1.00  0.00     0.210 C 
ENDBRANCH  11  32
BRANCH   1  34
HETATM   34  O1  UNL     1      22.122   8.490   5.829  1.00  0.00    -0.353 OA
HETATM   35  C1  UNL     1      22.222   8.865   7.189  1.00  0.00     0.210 C 
ENDBRANCH   1  34
TORSDOF 10
ENDMDL
MODEL 4
REMARK VINA RESULT: -7.006686740      1.005      2.415
REMARK  10 active torsions:
REMARK  status: ('A' for Active; 'I' for Inactive)
REMARK    1  A    between atoms: O1_2  and  C2_3 
REMARK    2  A    between atoms: C5_7  and  O3_8 
REMARK    3  A    between atoms: C6_10  and  C7_11 
REMARK    4  A    between atoms: C8_12  and  C9_13 
REMARK    5  A    between atoms: C10_15  and  O5_16 
REMARK    6  A    between atoms: C12_19  and  O6_20 
REMARK    7  A    between atoms: O6_20  and  C13_21 
REMARK    8  A    between atoms: C15_24  and  O8_25 
REMARK    9  A    between atoms: C19_30  and  O10_31 
REMARK   10  A    between atoms: C20_33  and  O11_34 
ROOT
HETATM    1  C2  UNL     1      14.148   9.430   7.434  1.00  0.00     0.107 A 
HETATM    2  C3  UNL     1      13.556  10.175   6.422  1.00  0.00     0.078 A 
HETATM    3  C4  UNL     1      14.093  10.211   5.152  1.00  0.00     0.098 A 
HETATM    4  O2  UNL     1      13.556  10.906   4.178  1.00  0.00    -0.286 OA
HETATM    5  C5  UNL     1      14.028  10.969   2.962  1.00  0.00     0.199 A 
HETATM    6  C6  UNL     1      15.189  10.268   2.613  1.00  0.00     0.087 A 
HETATM    7  C17 UNL     1      15.786   9.526   3.607  1.00  0.00     0.203 A 
HETATM    8  O9  UNL     1      16.825   8.877   3.366  1.00  0.00    -0.286 OA
HETATM    9  C18 UNL     1      15.227   9.509   4.867  1.00  0.00     0.085 A 
HETATM   10  C19 UNL     1      15.816   8.760   5.896  1.00  0.00     0.119 A 
HETATM   11  C20 UNL     1      15.296   8.710   7.171  1.00  0.00     0.136 A 
ENDROOT
BRANCH   6  12
HETATM   12  C7  UNL     1      15.679  10.351   1.251  1.00  0.00     0.035 A 
HETATM   13  C8  UNL     1      16.754  11.123   0.921  1.00  0.00     0.049 A 
HETATM   14  C10 UNL     1      17.210  11.191  -0.407  1.00  0.00     0.082 A 
HETATM   15  C11 UNL     1      16.593  10.495  -1.399  1.00  0.00     0.077 A 
HETATM   16  C12 UNL     1      15.509   9.715  -1.081  1.00  0.00     0.116 A 
HETATM   17  C15 UNL     1      15.037   9.630   0.232  1.00  0.00     0.114 A 
BRANCH  13  18
HETATM   18  C9  UNL     1      17.461  11.899   1.906  1.00  0.00     0.273 C 
HETATM   19  O4  UNL     1      17.646  13.118   1.794  1.00  0.00    -0.301 OA
ENDBRANCH  13  18
BRANCH  14  20
HETATM   20  O5  UNL     1      18.302  11.982  -0.710  1.00  0.00    -0.360 OA
ATOM     21  H5  UNL     1      18.222  12.652  -1.378  1.00  0.00     0.217 HD
ENDBRANCH  14  20
BRANCH  16  22
HETATM   22  O6  UNL     1      14.871   8.999  -2.086  1.00  0.00    -0.276 OA
BRANCH  22  23
HETATM   23  C13 UNL     1      14.046   9.536  -3.040  1.00  0.00     0.260 C 
HETATM   24  C14 UNL     1      14.400   9.645  -4.479  1.00  0.00     0.126 C 
HETATM   25  O7  UNL     1      12.923   9.962  -2.680  1.00  0.00    -0.265 OA
ENDBRANCH  22  23
ENDBRANCH  16  22
BRANCH  17  26
HETATM   26  O8  UNL     1      13.942   8.843   0.544  1.00  0.00    -0.352 OA
HETATM   27  C16 UNL     1      14.019   7.531   1.007  1.00  0.00     0.210 C 
ENDBRANCH  17  26
ENDBRANCH   6  12
BRANCH   5  28
HETATM   28  O3  UNL     1      13.413  11.729   1.955  1.00  0.00    -0.340 OA
ATOM     29  H3  UNL     1      13.467  11.494   1.036  1.00  0.00     0.220 HD
ENDBRANCH   5  28
BRANCH  10  30
HETATM   30  O10 UNL     1      16.966   8.057   5.577  1.00  0.00    -0.357 OA
ATOM     31  H10 UNL     1      17.732   8.223   6.114  1.00  0.00     0.218 HD
ENDBRANCH  10  30
BRANCH  11  32
HETATM   32  O11 UNL     1      15.900   7.967   8.152  1.00  0.00    -0.351 OA
HETATM   33  C21 UNL     1      15.206   7.313   9.195  1.00  0.00     0.210 C 
ENDBRANCH  11  32
BRANCH   1  34
HETATM   34  O1  UNL     1      13.555   9.440   8.680  1.00  0.00    -0.353 OA
HETATM   35  C1  UNL     1      13.139  10.645   9.293  1.00  0.00     0.210 C 
ENDBRANCH   1  34
TORSDOF 10
ENDMDL
MODEL 5
REMARK VINA RESULT: -6.642713249      1.666      7.950
REMARK  10 active torsions:
REMARK  status: ('A' for Active; 'I' for Inactive)
REMARK    1  A    between atoms: O1_2  and  C2_3 
REMARK    2  A    between atoms: C5_7  and  O3_8 
REMARK    3  A    between atoms: C6_10  and  C7_11 
REMARK    4  A    between atoms: C8_12  and  C9_13 
REMARK    5  A    between atoms: C10_15  and  O5_16 
REMARK    6  A    between atoms: C12_19  and  O6_20 
REMARK    7  A    between atoms: O6_20  and  C13_21 
REMARK    8  A    between atoms: C15_24  and  O8_25 
REMARK    9  A    between atoms: C19_30  and  O10_31 
REMARK   10  A    between atoms: C20_33  and  O11_34 
ROOT
HETATM    1  C2  UNL     1      14.732  10.076  -2.532  1.00  0.00     0.107 A 
HETATM    2  C3  UNL     1      15.211  10.941  -1.556  1.00  0.00     0.078 A 
HETATM    3  C4  UNL     1      15.336  10.539  -0.242  1.00  0.00     0.098 A 
HETATM    4  O2  UNL     1      15.785  11.335   0.699  1.00  0.00    -0.286 OA
HETATM    5  C5  UNL     1      15.920  10.999   1.954  1.00  0.00     0.199 A 
HETATM    6  C6  UNL     1      15.577   9.711   2.386  1.00  0.00     0.087 A 
HETATM    7  C17 UNL     1      15.101   8.844   1.428  1.00  0.00     0.203 A 
HETATM    8  O9  UNL     1      14.775   7.681   1.744  1.00  0.00    -0.286 OA
HETATM    9  C18 UNL     1      14.987   9.273   0.124  1.00  0.00     0.085 A 
HETATM   10  C19 UNL     1      14.505   8.408  -0.869  1.00  0.00     0.119 A 
HETATM   11  C20 UNL     1      14.373   8.788  -2.187  1.00  0.00     0.136 A 
ENDROOT
BRANCH   6  12
HETATM   12  C7  UNL     1      15.752   9.368   3.783  1.00  0.00     0.035 A 
HETATM   13  C8  UNL     1      16.946   8.921   4.268  1.00  0.00     0.049 A 
HETATM   14  C10 UNL     1      17.093   8.591   5.627  1.00  0.00     0.082 A 
HETATM   15  C11 UNL     1      16.052   8.705   6.494  1.00  0.00     0.077 A 
HETATM   16  C12 UNL     1      14.844   9.152   6.019  1.00  0.00     0.116 A 
HETATM   17  C15 UNL     1      14.673   9.488   4.673  1.00  0.00     0.114 A 
BRANCH  13  18
HETATM   18  C9  UNL     1      18.098   8.763   3.419  1.00  0.00     0.273 C 
HETATM   19  O4  UNL     1      18.887   7.816   3.527  1.00  0.00    -0.301 OA
ENDBRANCH  13  18
BRANCH  14  20
HETATM   20  O5  UNL     1      18.315   8.142   6.088  1.00  0.00    -0.360 OA
ATOM     21  H5  UNL     1      18.820   8.688   6.679  1.00  0.00     0.217 HD
ENDBRANCH  14  20
BRANCH  16  22
HETATM   22  O6  UNL     1      13.773   9.272   6.896  1.00  0.00    -0.276 OA
BRANCH  22  23
HETATM   23  C13 UNL     1      13.869   9.606   8.223  1.00  0.00     0.260 C 
HETATM   24  C14 UNL     1      13.476  10.926   8.778  1.00  0.00     0.126 C 
HETATM   25  O7  UNL     1      14.315   8.745   9.018  1.00  0.00    -0.265 OA
ENDBRANCH  22  23
ENDBRANCH  16  22
BRANCH  17  26
HETATM   26  O8  UNL     1      13.452   9.935   4.202  1.00  0.00    -0.352 OA
HETATM   27  C16 UNL     1      12.529   9.142   3.522  1.00  0.00     0.210 C 
ENDBRANCH  17  26
ENDBRANCH   6  12
BRANCH   5  28
HETATM   28  O3  UNL     1      16.406  11.890   2.923  1.00  0.00    -0.340 OA
ATOM     29  H3  UNL     1      16.495  12.821   2.759  1.00  0.00     0.220 HD
ENDBRANCH   5  28
BRANCH  10  30
HETATM   30  O10 UNL     1      14.159   7.129  -0.469  1.00  0.00    -0.357 OA
ATOM     31  H10 UNL     1      14.755   6.690   0.126  1.00  0.00     0.218 HD
ENDBRANCH  10  30
BRANCH  11  32
HETATM   32  O11 UNL     1      13.898   7.916  -3.131  1.00  0.00    -0.351 OA
HETATM   33  C21 UNL     1      12.905   8.237  -4.084  1.00  0.00     0.210 C 
ENDBRANCH  11  32
BRANCH   1  34
HETATM   34  O1  UNL     1      14.635  10.546  -3.826  1.00  0.00    -0.353 OA
HETATM   35  C1  UNL     1      15.663  10.329  -4.772  1.00  0.00     0.210 C 
ENDBRANCH   1  34
TORSDOF 10
ENDMDL
