MODEL 1
REMARK VINA RESULT: -7.247485718      0.000      0.000
REMARK  11 active torsions:
REMARK  status: ('A' for Active; 'I' for Inactive)
REMARK    1  A    between atoms: N1_2  and  O1_3 
REMARK    2  A    between atoms: O1_3  and  C2_4 
REMARK    3  A    between atoms: C2_4  and  N3_9 
REMARK    4  A    between atoms: N2_5  and  O2_7 
REMARK    5  A    between atoms: N3_9  and  C3_11 
REMARK    6  A    between atoms: C4_12  and  C5_13 
REMARK    7  A    between atoms: C7_15  and  O3_16 
REMARK    8  A    between atoms: C9_18  and  O4_19 
REMARK    9  A    between atoms: C11_21  and  O5_22 
REMARK   10  A    between atoms: C13_24  and  O6_25 
REMARK   11  A    between atoms: C17_30  and  O7_31 
ROOT
HETATM    1  C3  UNL     1      16.210  10.756   0.810  1.00  0.00     0.124 A 
HETATM    2  C4  UNL     1      15.537   9.747   1.454  1.00  0.00     0.036 A 
HETATM    3  C15 UNL     1      14.702   8.932   0.732  1.00  0.00     0.116 A 
HETATM    4  C16 UNL     1      13.955   7.882   1.325  1.00  0.00     0.105 C 
HETATM    5  N4  UNL     1      13.350   7.035   1.826  1.00  0.00    -0.191 NA
HETATM    6  C17 UNL     1      14.575   9.162  -0.619  1.00  0.00     0.210 A 
HETATM    7  O8  UNL     1      15.237  10.136  -1.190  1.00  0.00    -0.248 OA
HETATM    8  C19 UNL     1      16.039  10.937  -0.559  1.00  0.00     0.318 A 
HETATM    9  O9  UNL     1      16.669  11.876  -1.143  1.00  0.00    -0.257 OA
ENDROOT
BRANCH   2  10
HETATM   10  C5  UNL     1      15.705   9.555   2.880  1.00  0.00     0.017 A 
HETATM   11  C6  UNL     1      16.704   8.713   3.355  1.00  0.00     0.055 A 
HETATM   12  C7  UNL     1      16.940   8.513   4.692  1.00  0.00     0.105 A 
HETATM   13  C9  UNL     1      16.125   9.198   5.566  1.00  0.00     0.138 A 
HETATM   14  C11 UNL     1      15.127  10.039   5.172  1.00  0.00     0.138 A 
HETATM   15  C13 UNL     1      14.915  10.220   3.798  1.00  0.00     0.115 A 
BRANCH  12  16
HETATM   16  O3  UNL     1      17.951   7.660   5.165  1.00  0.00    -0.353 OA
HETATM   17  C8  UNL     1      19.235   8.233   5.327  1.00  0.00     0.210 C 
ENDBRANCH  12  16
BRANCH  13  18
HETATM   18  O4  UNL     1      16.332   9.023   6.927  1.00  0.00    -0.351 OA
HETATM   19  C10 UNL     1      15.726   7.998   7.685  1.00  0.00     0.210 C 
ENDBRANCH  13  18
BRANCH  14  20
HETATM   20  O5  UNL     1      14.311  10.726   6.081  1.00  0.00    -0.351 OA
HETATM   21  C12 UNL     1      13.361   9.972   6.805  1.00  0.00     0.210 C 
ENDBRANCH  14  20
BRANCH  15  22
HETATM   22  O6  UNL     1      13.903  11.068   3.404  1.00  0.00    -0.352 OA
HETATM   23  C14 UNL     1      12.647  10.693   2.919  1.00  0.00     0.210 C 
ENDBRANCH  15  22
ENDBRANCH   2  10
BRANCH   6  24
HETATM   24  O7  UNL     1      13.732   8.337  -1.344  1.00  0.00    -0.334 OA
HETATM   25  C18 UNL     1      13.559   8.499  -2.748  1.00  0.00     0.212 C 
ENDBRANCH   6  24
BRANCH   1  26
HETATM   26  N3  UNL     1      17.069  11.592   1.526  1.00  0.00    -0.314 N 
ATOM     27  H3  UNL     1      16.671  12.215   2.230  1.00  0.00     0.170 HD
BRANCH  26  28
HETATM   28  C2  UNL     1      18.465  11.613   1.315  1.00  0.00     0.263 C 
HETATM   29  N2  UNL     1      19.108  12.467   0.621  1.00  0.00    -0.231 N 
ATOM     30  H2  UNL     1      20.121  12.364   0.548  1.00  0.00     0.198 HD
BRANCH  28  31
HETATM   31  O1  UNL     1      19.286  10.616   1.901  1.00  0.00    -0.207 OA
BRANCH  31  32
HETATM   32  N1  UNL     1      19.642   9.505   1.174  1.00  0.00    -0.096 NA
HETATM   33  C1  UNL     1      20.217   8.545   2.096  1.00  0.00     0.168 C 
ENDBRANCH  31  32
ENDBRANCH  28  31
BRANCH  29  34
HETATM   34  O2  UNL     1      18.521  13.506  -0.027  1.00  0.00    -0.287 OA
ATOM     35  H2  UNL     1      18.982  14.080  -0.628  1.00  0.00     0.244 HD
ENDBRANCH  29  34
ENDBRANCH  26  28
ENDBRANCH   1  26
TORSDOF 11
ENDMDL
MODEL 2
REMARK VINA RESULT: -6.706965694      1.096      1.742
REMARK  11 active torsions:
REMARK  status: ('A' for Active; 'I' for Inactive)
REMARK    1  A    between atoms: N1_2  and  O1_3 
REMARK    2  A    between atoms: O1_3  and  C2_4 
REMARK    3  A    between atoms: C2_4  and  N3_9 
REMARK    4  A    between atoms: N2_5  and  O2_7 
REMARK    5  A    between atoms: N3_9  and  C3_11 
REMARK    6  A    between atoms: C4_12  and  C5_13 
REMARK    7  A    between atoms: C7_15  and  O3_16 
REMARK    8  A    between atoms: C9_18  and  O4_19 
REMARK    9  A    between atoms: C11_21  and  O5_22 
REMARK   10  A    between atoms: C13_24  and  O6_25 
REMARK   11  A    between atoms: C17_30  and  O7_31 
ROOT
HETATM    1  C3  UNL     1      16.706  10.492   0.615  1.00  0.00     0.124 A 
HETATM    2  C4  UNL     1      15.760   9.780   1.310  1.00  0.00     0.036 A 
HETATM    3  C15 UNL     1      14.677   9.273   0.639  1.00  0.00     0.116 A 
HETATM    4  C16 UNL     1      13.644   8.547   1.286  1.00  0.00     0.105 C 
HETATM    5  N4  UNL     1      12.811   7.962   1.831  1.00  0.00    -0.191 NA
HETATM    6  C17 UNL     1      14.585   9.500  -0.716  1.00  0.00     0.210 A 
HETATM    7  O8  UNL     1      15.512  10.184  -1.337  1.00  0.00    -0.248 OA
HETATM    8  C19 UNL     1      16.556  10.687  -0.755  1.00  0.00     0.318 A 
HETATM    9  O9  UNL     1      17.440  11.348  -1.387  1.00  0.00    -0.257 OA
ENDROOT
BRANCH   2  10
HETATM   10  C5  UNL     1      15.905   9.578   2.737  1.00  0.00     0.017 A 
HETATM   11  C6  UNL     1      16.834   8.662   3.218  1.00  0.00     0.055 A 
HETATM   12  C7  UNL     1      17.047   8.446   4.556  1.00  0.00     0.105 A 
HETATM   13  C9  UNL     1      16.284   9.193   5.426  1.00  0.00     0.138 A 
HETATM   14  C11 UNL     1      15.355  10.107   5.026  1.00  0.00     0.138 A 
HETATM   15  C13 UNL     1      15.164  10.302   3.651  1.00  0.00     0.115 A 
BRANCH  12  16
HETATM   16  O3  UNL     1      17.988   7.519   5.035  1.00  0.00    -0.353 OA
HETATM   17  C8  UNL     1      19.346   7.914   4.985  1.00  0.00     0.210 C 
ENDBRANCH  12  16
BRANCH  13  18
HETATM   18  O4  UNL     1      16.469   9.004   6.788  1.00  0.00    -0.351 OA
HETATM   19  C10 UNL     1      15.770   8.041   7.547  1.00  0.00     0.210 C 
ENDBRANCH  13  18
BRANCH  14  20
HETATM   20  O5  UNL     1      14.589  10.855   5.930  1.00  0.00    -0.351 OA
HETATM   21  C12 UNL     1      13.595  10.172   6.666  1.00  0.00     0.210 C 
ENDBRANCH  14  20
BRANCH  15  22
HETATM   22  O6  UNL     1      14.222  11.225   3.251  1.00  0.00    -0.352 OA
HETATM   23  C14 UNL     1      12.858  10.988   3.056  1.00  0.00     0.210 C 
ENDBRANCH  15  22
ENDBRANCH   2  10
BRANCH   6  24
HETATM   24  O7  UNL     1      13.490   8.986  -1.390  1.00  0.00    -0.334 OA
HETATM   25  C18 UNL     1      12.745   9.775  -2.311  1.00  0.00     0.212 C 
ENDBRANCH   6  24
BRANCH   1  26
HETATM   26  N3  UNL     1      17.819  11.011   1.279  1.00  0.00    -0.314 N 
ATOM     27  H3  UNL     1      18.373  10.388   1.866  1.00  0.00     0.170 HD
BRANCH  26  28
HETATM   28  C2  UNL     1      18.209  12.364   1.172  1.00  0.00     0.263 C 
HETATM   29  N2  UNL     1      19.155  12.819   0.449  1.00  0.00    -0.231 N 
ATOM     30  H2  UNL     1      19.334  13.824   0.466  1.00  0.00     0.198 HD
BRANCH  28  31
HETATM   31  O1  UNL     1      17.526  13.361   1.915  1.00  0.00    -0.207 OA
BRANCH  31  32
HETATM   32  N1  UNL     1      17.081  13.086   3.186  1.00  0.00    -0.096 NA
HETATM   33  C1  UNL     1      15.910  13.906   3.426  1.00  0.00     0.168 C 
ENDBRANCH  31  32
ENDBRANCH  28  31
BRANCH  29  34
HETATM   34  O2  UNL     1      19.938  12.042  -0.342  1.00  0.00    -0.287 OA
ATOM     35  H2  UNL     1      19.915  11.092  -0.335  1.00  0.00     0.244 HD
ENDBRANCH  29  34
ENDBRANCH  26  28
ENDBRANCH   1  26
TORSDOF 11
ENDMDL
MODEL 3
REMARK VINA RESULT: -6.335906496      1.222      3.168
REMARK  11 active torsions:
REMARK  status: ('A' for Active; 'I' for Inactive)
REMARK    1  A    between atoms: N1_2  and  O1_3 
REMARK    2  A    between atoms: O1_3  and  C2_4 
REMARK    3  A    between atoms: C2_4  and  N3_9 
REMARK    4  A    between atoms: N2_5  and  O2_7 
REMARK    5  A    between atoms: N3_9  and  C3_11 
REMARK    6  A    between atoms: C4_12  and  C5_13 
REMARK    7  A    between atoms: C7_15  and  O3_16 
REMARK    8  A    between atoms: C9_18  and  O4_19 
REMARK    9  A    between atoms: C11_21  and  O5_22 
REMARK   10  A    between atoms: C13_24  and  O6_25 
REMARK   11  A    between atoms: C17_30  and  O7_31 
ROOT
HETATM    1  C3  UNL     1      16.534  10.672   0.996  1.00  0.00     0.124 A 
HETATM    2  C4  UNL     1      15.628   9.928   1.710  1.00  0.00     0.036 A 
HETATM    3  C15 UNL     1      14.521   9.429   1.072  1.00  0.00     0.116 A 
HETATM    4  C16 UNL     1      13.526   8.671   1.741  1.00  0.00     0.105 C 
HETATM    5  N4  UNL     1      12.724   8.059   2.303  1.00  0.00    -0.191 NA
HETATM    6  C17 UNL     1      14.366   9.696  -0.270  1.00  0.00     0.210 A 
HETATM    7  O8  UNL     1      15.258  10.410  -0.909  1.00  0.00    -0.248 OA
HETATM    8  C19 UNL     1      16.322  10.908  -0.359  1.00  0.00     0.318 A 
HETATM    9  O9  UNL     1      17.170  11.598  -1.008  1.00  0.00    -0.257 OA
ENDROOT
BRANCH   2  10
HETATM   10  C5  UNL     1      15.838   9.682   3.122  1.00  0.00     0.017 A 
HETATM   11  C6  UNL     1      14.930  10.169   4.055  1.00  0.00     0.055 A 
HETATM   12  C7  UNL     1      15.050   9.944   5.404  1.00  0.00     0.105 A 
HETATM   13  C9  UNL     1      16.136   9.198   5.805  1.00  0.00     0.138 A 
HETATM   14  C11 UNL     1      17.066   8.690   4.947  1.00  0.00     0.138 A 
HETATM   15  C13 UNL     1      16.912   8.940   3.577  1.00  0.00     0.115 A 
BRANCH  12  16
HETATM   16  O3  UNL     1      14.127  10.438   6.340  1.00  0.00    -0.353 OA
HETATM   17  C8  UNL     1      13.120   9.540   6.769  1.00  0.00     0.210 C 
ENDBRANCH  12  16
BRANCH  13  18
HETATM   18  O4  UNL     1      16.294   8.948   7.160  1.00  0.00    -0.351 OA
HETATM   19  C10 UNL     1      15.687   7.866   7.833  1.00  0.00     0.210 C 
ENDBRANCH  13  18
BRANCH  14  20
HETATM   20  O5  UNL     1      18.164   7.934   5.380  1.00  0.00    -0.351 OA
HETATM   21  C12 UNL     1      19.359   8.627   5.677  1.00  0.00     0.210 C 
ENDBRANCH  14  20
BRANCH  15  22
HETATM   22  O6  UNL     1      17.856   8.428   2.713  1.00  0.00    -0.352 OA
HETATM   23  C14 UNL     1      19.175   8.867   2.570  1.00  0.00     0.210 C 
ENDBRANCH  15  22
ENDBRANCH   2  10
BRANCH   6  24
HETATM   24  O7  UNL     1      13.248   9.191  -0.911  1.00  0.00    -0.334 OA
HETATM   25  C18 UNL     1      12.660   9.861  -2.021  1.00  0.00     0.212 C 
ENDBRANCH   6  24
BRANCH   1  26
HETATM   26  N3  UNL     1      17.670  11.183   1.627  1.00  0.00    -0.314 N 
ATOM     27  H3  UNL     1      18.235  10.557   2.202  1.00  0.00     0.170 HD
BRANCH  26  28
HETATM   28  C2  UNL     1      18.070  12.532   1.503  1.00  0.00     0.263 C 
HETATM   29  N2  UNL     1      19.002  12.974   0.754  1.00  0.00    -0.231 N 
ATOM     30  H2  UNL     1      19.191  13.977   0.760  1.00  0.00     0.198 HD
BRANCH  28  31
HETATM   31  O1  UNL     1      17.416  13.539   2.257  1.00  0.00    -0.207 OA
BRANCH  31  32
HETATM   32  N1  UNL     1      16.941  13.255   3.515  1.00  0.00    -0.096 NA
HETATM   33  C1  UNL     1      15.511  13.494   3.507  1.00  0.00     0.168 C 
ENDBRANCH  31  32
ENDBRANCH  28  31
BRANCH  29  34
HETATM   34  O2  UNL     1      19.758  12.185  -0.053  1.00  0.00    -0.287 OA
ATOM     35  H2  UNL     1      20.106  12.468  -0.891  1.00  0.00     0.244 HD
ENDBRANCH  29  34
ENDBRANCH  26  28
ENDBRANCH   1  26
TORSDOF 11
ENDMDL
MODEL 4
REMARK VINA RESULT: -6.258449757      1.721      5.792
REMARK  11 active torsions:
REMARK  status: ('A' for Active; 'I' for Inactive)
REMARK    1  A    between atoms: N1_2  and  O1_3 
REMARK    2  A    between atoms: O1_3  and  C2_4 
REMARK    3  A    between atoms: C2_4  and  N3_9 
REMARK    4  A    between atoms: N2_5  and  O2_7 
REMARK    5  A    between atoms: N3_9  and  C3_11 
REMARK    6  A    between atoms: C4_12  and  C5_13 
REMARK    7  A    between atoms: C7_15  and  O3_16 
REMARK    8  A    between atoms: C9_18  and  O4_19 
REMARK    9  A    between atoms: C11_21  and  O5_22 
REMARK   10  A    between atoms: C13_24  and  O6_25 
REMARK   11  A    between atoms: C17_30  and  O7_31 
ROOT
HETATM    1  C3  UNL     1      16.814   9.042   3.453  1.00  0.00     0.124 A 
HETATM    2  C4  UNL     1      15.761   9.740   2.916  1.00  0.00     0.036 A 
HETATM    3  C15 UNL     1      14.731  10.131   3.732  1.00  0.00     0.116 A 
HETATM    4  C16 UNL     1      13.597  10.835   3.252  1.00  0.00     0.105 C 
HETATM    5  N4  UNL     1      12.679  11.404   2.842  1.00  0.00    -0.191 NA
HETATM    6  C17 UNL     1      14.799   9.807   5.068  1.00  0.00     0.210 A 
HETATM    7  O8  UNL     1      15.824   9.140   5.536  1.00  0.00    -0.248 OA
HETATM    8  C19 UNL     1      16.825   8.744   4.812  1.00  0.00     0.318 A 
HETATM    9  O9  UNL     1      17.807   8.097   5.298  1.00  0.00    -0.257 OA
ENDROOT
BRANCH   2  10
HETATM   10  C5  UNL     1      15.740  10.050   1.500  1.00  0.00     0.017 A 
HETATM   11  C6  UNL     1      16.706  10.889   0.958  1.00  0.00     0.055 A 
HETATM   12  C7  UNL     1      16.766  11.196  -0.379  1.00  0.00     0.105 A 
HETATM   13  C9  UNL     1      15.803  10.623  -1.180  1.00  0.00     0.138 A 
HETATM   14  C11 UNL     1      14.826   9.792  -0.718  1.00  0.00     0.138 A 
HETATM   15  C13 UNL     1      14.796   9.501   0.653  1.00  0.00     0.115 A 
BRANCH  12  16
HETATM   16  O3  UNL     1      17.745  12.045  -0.920  1.00  0.00    -0.353 OA
HETATM   17  C8  UNL     1      18.976  12.112  -0.224  1.00  0.00     0.210 C 
ENDBRANCH  12  16
BRANCH  13  18
HETATM   18  O4  UNL     1      15.828  10.909  -2.538  1.00  0.00    -0.351 OA
HETATM   19  C10 UNL     1      15.667   9.934  -3.546  1.00  0.00     0.210 C 
ENDBRANCH  13  18
BRANCH  14  20
HETATM   20  O5  UNL     1      13.857   9.222  -1.554  1.00  0.00    -0.351 OA
HETATM   21  C12 UNL     1      12.669   9.955  -1.772  1.00  0.00     0.210 C 
ENDBRANCH  14  20
BRANCH  15  22
HETATM   22  O6  UNL     1      13.806   8.663   1.117  1.00  0.00    -0.352 OA
HETATM   23  C14 UNL     1      13.889   7.274   1.252  1.00  0.00     0.210 C 
ENDBRANCH  15  22
ENDBRANCH   2  10
BRANCH   6  24
HETATM   24  O7  UNL     1      13.757  10.204   5.889  1.00  0.00    -0.334 OA
HETATM   25  C18 UNL     1      13.891  10.218   7.307  1.00  0.00     0.212 C 
ENDBRANCH   6  24
BRANCH   1  26
HETATM   26  N3  UNL     1      17.876   8.640   2.639  1.00  0.00    -0.314 N 
ATOM     27  H3  UNL     1      17.720   7.888   1.968  1.00  0.00     0.170 HD
BRANCH  26  28
HETATM   28  C2  UNL     1      19.156   9.232   2.708  1.00  0.00     0.263 C 
HETATM   29  N2  UNL     1      19.428  10.385   3.179  1.00  0.00    -0.231 N 
ATOM     30  H2  UNL     1      20.400  10.694   3.166  1.00  0.00     0.198 HD
BRANCH  28  31
HETATM   31  O1  UNL     1      20.289   8.530   2.222  1.00  0.00    -0.207 OA
BRANCH  31  32
HETATM   32  N1  UNL     1      20.700   8.707   0.922  1.00  0.00    -0.096 NA
HETATM   33  C1  UNL     1      21.842   7.840   0.704  1.00  0.00     0.168 C 
ENDBRANCH  31  32
ENDBRANCH  28  31
BRANCH  29  34
HETATM   34  O2  UNL     1      18.495  11.225   3.697  1.00  0.00    -0.287 OA
ATOM     35  H2  UNL     1      18.290  11.278   4.624  1.00  0.00     0.244 HD
ENDBRANCH  29  34
ENDBRANCH  26  28
ENDBRANCH   1  26
TORSDOF 11
ENDMDL
MODEL 5
REMARK VINA RESULT: -6.256084000      1.856      6.387
REMARK  11 active torsions:
REMARK  status: ('A' for Active; 'I' for Inactive)
REMARK    1  A    between atoms: N1_2  and  O1_3 
REMARK    2  A    between atoms: O1_3  and  C2_4 
REMARK    3  A    between atoms: C2_4  and  N3_9 
REMARK    4  A    between atoms: N2_5  and  O2_7 
REMARK    5  A    between atoms: N3_9  and  C3_11 
REMARK    6  A    between atoms: C4_12  and  C5_13 
REMARK    7  A    between atoms: C7_15  and  O3_16 
REMARK    8  A    between atoms: C9_18  and  O4_19 
REMARK    9  A    between atoms: C11_21  and  O5_22 
REMARK   10  A    between atoms: C13_24  and  O6_25 
REMARK   11  A    between atoms: C17_30  and  O7_31 
ROOT
HETATM    1  C3  UNL     1      16.170   9.245   4.388  1.00  0.00     0.124 A 
HETATM    2  C4  UNL     1      17.014   9.240   3.306  1.00  0.00     0.036 A 
HETATM    3  C15 UNL     1      18.306   8.808   3.466  1.00  0.00     0.116 A 
HETATM    4  C16 UNL     1      19.248   8.794   2.405  1.00  0.00     0.105 C 
HETATM    5  N4  UNL     1      20.001   8.794   1.531  1.00  0.00    -0.191 NA
HETATM    6  C17 UNL     1      18.703   8.391   4.716  1.00  0.00     0.210 A 
HETATM    7  O8  UNL     1      17.862   8.412   5.719  1.00  0.00    -0.248 OA
HETATM    8  C19 UNL     1      16.631   8.811   5.627  1.00  0.00     0.318 A 
HETATM    9  O9  UNL     1      15.838   8.819   6.622  1.00  0.00    -0.257 OA
ENDROOT
BRANCH   2  10
HETATM   10  C5  UNL     1      16.543   9.697   2.014  1.00  0.00     0.017 A 
HETATM   11  C6  UNL     1      17.246  10.679   1.326  1.00  0.00     0.055 A 
HETATM   12  C7  UNL     1      16.876  11.132   0.084  1.00  0.00     0.105 A 
HETATM   13  C9  UNL     1      15.751  10.558  -0.466  1.00  0.00     0.138 A 
HETATM   14  C11 UNL     1      15.013   9.591   0.151  1.00  0.00     0.138 A 
HETATM   15  C13 UNL     1      15.421   9.153   1.418  1.00  0.00     0.115 A 
BRANCH  12  16
HETATM   16  O3  UNL     1      17.590  12.125  -0.605  1.00  0.00    -0.353 OA
HETATM   17  C8  UNL     1      18.949  12.292  -0.244  1.00  0.00     0.210 C 
ENDBRANCH  12  16
BRANCH  13  18
HETATM   18  O4  UNL     1      15.343  10.989  -1.720  1.00  0.00    -0.351 OA
HETATM   19  C10 UNL     1      15.641  10.304  -2.918  1.00  0.00     0.210 C 
ENDBRANCH  13  18
BRANCH  14  20
HETATM   20  O5  UNL     1      13.872   9.023  -0.429  1.00  0.00    -0.351 OA
HETATM   21  C12 UNL     1      12.766   9.871  -0.664  1.00  0.00     0.210 C 
ENDBRANCH  14  20
BRANCH  15  22
HETATM   22  O6  UNL     1      14.672   8.178   2.039  1.00  0.00    -0.352 OA
HETATM   23  C14 UNL     1      13.987   7.132   1.413  1.00  0.00     0.210 C 
ENDBRANCH  15  22
ENDBRANCH   2  10
BRANCH   6  24
HETATM   24  O7  UNL     1      20.008   7.955   4.875  1.00  0.00    -0.334 OA
HETATM   25  C18 UNL     1      20.820   8.413   5.950  1.00  0.00     0.212 C 
ENDBRANCH   6  24
BRANCH   1  26
HETATM   26  N3  UNL     1      14.849   9.676   4.244  1.00  0.00    -0.314 N 
ATOM     27  H3  UNL     1      14.096   9.000   4.381  1.00  0.00     0.170 HD
BRANCH  26  28
HETATM   28  C2  UNL     1      14.513  11.007   3.915  1.00  0.00     0.263 C 
HETATM   29  N2  UNL     1      13.477  11.384   3.274  1.00  0.00    -0.231 N 
ATOM     30  H2  UNL     1      13.355  12.382   3.100  1.00  0.00     0.198 HD
BRANCH  28  31
HETATM   31  O1  UNL     1      15.366  12.071   4.302  1.00  0.00    -0.207 OA
BRANCH  31  32
HETATM   32  N1  UNL     1      15.510  13.168   3.486  1.00  0.00    -0.096 NA
HETATM   33  C1  UNL     1      16.931  13.419   3.339  1.00  0.00     0.168 C 
ENDBRANCH  31  32
ENDBRANCH  28  31
BRANCH  29  34
HETATM   34  O2  UNL     1      12.527  10.532   2.809  1.00  0.00    -0.287 OA
ATOM     35  H2  UNL     1      11.740  10.815   2.359  1.00  0.00     0.244 HD
ENDBRANCH  29  34
ENDBRANCH  26  28
ENDBRANCH   1  26
TORSDOF 11
ENDMDL
