MODEL 1
REMARK VINA RESULT: -8.368275484      0.000      0.000
REMARK  9 active torsions:
REMARK  status: ('A' for Active; 'I' for Inactive)
REMARK    1  A    between atoms: O1_2  and  C2_3 
REMARK    2  A    between atoms: C2_3  and  C3_5 
REMARK    3  A    between atoms: C3_5  and  N1_6 
REMARK    4  A    between atoms: C9_13  and  N3_14 
REMARK    5  A    between atoms: N3_14  and  N4_16 
REMARK    6  A    between atoms: C10_18  and  C11_19 
REMARK    7  A    between atoms: N5_21  and  N6_23 
REMARK    8  A    between atoms: N6_23  and  C13_25 
REMARK    9  A    between atoms: C13_25  and  C14_29 
ROOT
HETATM    1  N1  UNL     1      19.137  10.463   2.213  1.00  0.00    -0.326 N 
HETATM    2  C4  UNL     1      20.256  10.385   2.958  1.00  0.00     0.011 A 
HETATM    3  C5  UNL     1      21.637  10.708   2.576  1.00  0.00     0.068 C 
HETATM    4  C6  UNL     1      19.868   9.927   4.200  1.00  0.00     0.051 A 
HETATM    5  C7  UNL     1      18.484   9.726   4.203  1.00  0.00     0.092 A 
HETATM    6  C8  UNL     1      17.714   9.257   5.320  1.00  0.00     0.103 C 
HETATM    7  N2  UNL     1      17.071   8.880   6.216  1.00  0.00    -0.191 NA
HETATM    8  C9  UNL     1      18.071  10.067   2.958  1.00  0.00     0.144 A 
ENDROOT
BRANCH   8   9
HETATM    9  N3  UNL     1      16.704  10.027   2.484  1.00  0.00    -0.284 N 
ATOM     10  H3  UNL     1      16.365   9.196   2.001  1.00  0.00     0.188 HD
BRANCH   9  11
HETATM   11  N4  UNL     1      15.863  11.081   2.672  1.00  0.00    -0.308 N 
HETATM   12  C10 UNL     1      14.818  11.123   3.374  1.00  0.00     0.133 C 
ATOM     13  H4  UNL     1      16.109  11.942   2.185  1.00  0.00     0.186 HD
BRANCH  12  14
HETATM   14  C11 UNL     1      14.201  10.094   4.177  1.00  0.00     0.038 C 
HETATM   15  C12 UNL     1      13.562   8.870   3.659  1.00  0.00     0.071 C 
HETATM   16  N5  UNL     1      14.215  10.282   5.477  1.00  0.00    -0.302 N 
ATOM     17  H5  UNL     1      14.642  11.116   5.882  1.00  0.00     0.186 HD
BRANCH  16  18
HETATM   18  N6  UNL     1      13.631   9.315   6.286  1.00  0.00    -0.283 N 
ATOM     19  H6  UNL     1      12.770   8.860   5.985  1.00  0.00     0.188 HD
BRANCH  18  20
HETATM   20  C13 UNL     1      14.219   8.952   7.527  1.00  0.00     0.161 C 
HETATM   21  N7  UNL     1      14.649   7.763   7.767  1.00  0.00    -0.381 N 
ATOM     22  H72 UNL     1      14.562   7.060   7.033  1.00  0.00     0.157 HD
ATOM     23  H71 UNL     1      15.071   7.502   8.658  1.00  0.00     0.157 HD
BRANCH  20  24
HETATM   24  C14 UNL     1      14.344   9.955   8.576  1.00  0.00     0.183 A 
HETATM   25  N8  UNL     1      15.242   9.955   9.578  1.00  0.00    -0.266 N 
HETATM   26  N9  UNL     1      15.010  11.046  10.313  1.00  0.00    -0.226 N 
ATOM     27  H8  UNL     1      15.964   9.255   9.745  1.00  0.00     0.190 HD
HETATM   28  N10 UNL     1      14.004  11.727   9.809  1.00  0.00    -0.226 N 
ATOM     29  H9  UNL     1      15.537  11.313  11.145  1.00  0.00     0.210 HD
HETATM   30  N11 UNL     1      13.583  11.071   8.742  1.00  0.00    -0.266 N 
ATOM     31  H10 UNL     1      13.621  12.599  10.173  1.00  0.00     0.210 HD
ATOM     32  H11 UNL     1      12.811  11.355   8.139  1.00  0.00     0.190 HD
ENDBRANCH  20  24
ENDBRANCH  18  20
ENDBRANCH  16  18
ENDBRANCH  12  14
ENDBRANCH   9  11
ENDBRANCH   8   9
BRANCH   1  33
HETATM   33  C3  UNL     1      19.025  10.881   0.851  1.00  0.00     0.241 C 
BRANCH  33  34
HETATM   34  C2  UNL     1      18.309  12.135   0.650  1.00  0.00     0.276 C 
HETATM   35  O2  UNL     1      18.710  13.228   1.096  1.00  0.00    -0.263 OA
BRANCH  34  36
HETATM   36  O1  UNL     1      17.130  12.115  -0.070  1.00  0.00    -0.325 OA
HETATM   37  C1  UNL     1      16.753  10.987  -0.822  1.00  0.00     0.213 C 
ENDBRANCH  34  36
ENDBRANCH  33  34
ENDBRANCH   1  33
TORSDOF 9
ENDMDL
MODEL 2
REMARK VINA RESULT: -8.368237255      2.138      4.464
REMARK  9 active torsions:
REMARK  status: ('A' for Active; 'I' for Inactive)
REMARK    1  A    between atoms: O1_2  and  C2_3 
REMARK    2  A    between atoms: C2_3  and  C3_5 
REMARK    3  A    between atoms: C3_5  and  N1_6 
REMARK    4  A    between atoms: C9_13  and  N3_14 
REMARK    5  A    between atoms: N3_14  and  N4_16 
REMARK    6  A    between atoms: C10_18  and  C11_19 
REMARK    7  A    between atoms: N5_21  and  N6_23 
REMARK    8  A    between atoms: N6_23  and  C13_25 
REMARK    9  A    between atoms: C13_25  and  C14_29 
ROOT
HETATM    1  N1  UNL     1      15.345   9.626   0.759  1.00  0.00    -0.326 N 
HETATM    2  C4  UNL     1      14.831  10.158  -0.365  1.00  0.00     0.011 A 
HETATM    3  C5  UNL     1      13.533   9.887  -0.997  1.00  0.00     0.068 C 
HETATM    4  C6  UNL     1      15.773  11.040  -0.849  1.00  0.00     0.051 A 
HETATM    5  C7  UNL     1      16.882  11.041   0.004  1.00  0.00     0.092 A 
HETATM    6  C8  UNL     1      18.064  11.836  -0.168  1.00  0.00     0.103 C 
HETATM    7  N2  UNL     1      19.031  12.475  -0.289  1.00  0.00    -0.191 NA
HETATM    8  C9  UNL     1      16.578  10.155   0.984  1.00  0.00     0.144 A 
ENDROOT
BRANCH   8   9
HETATM    9  N3  UNL     1      17.426   9.819   2.108  1.00  0.00    -0.284 N 
ATOM     10  H3  UNL     1      17.787   8.870   2.197  1.00  0.00     0.188 HD
BRANCH   9  11
HETATM   11  N4  UNL     1      17.749  10.749   3.049  1.00  0.00    -0.308 N 
HETATM   12  C10 UNL     1      17.787  10.606   4.299  1.00  0.00     0.133 C 
ATOM     13  H4  UNL     1      17.990  11.675   2.697  1.00  0.00     0.186 HD
BRANCH  12  14
HETATM   14  C11 UNL     1      17.507   9.442   5.106  1.00  0.00     0.038 C 
HETATM   15  C12 UNL     1      18.340   8.227   5.177  1.00  0.00     0.071 C 
HETATM   16  N5  UNL     1      16.411   9.484   5.830  1.00  0.00    -0.302 N 
ATOM     17  H5  UNL     1      15.802  10.302   5.811  1.00  0.00     0.186 HD
BRANCH  16  18
HETATM   18  N6  UNL     1      16.105   8.384   6.622  1.00  0.00    -0.283 N 
ATOM     19  H6  UNL     1      16.719   7.570   6.612  1.00  0.00     0.188 HD
BRANCH  18  20
HETATM   20  C13 UNL     1      14.948   8.379   7.445  1.00  0.00     0.161 C 
HETATM   21  N7  UNL     1      14.120   7.394   7.470  1.00  0.00    -0.381 N 
ATOM     22  H72 UNL     1      14.311   6.589   6.874  1.00  0.00     0.157 HD
ATOM     23  H71 UNL     1      13.289   7.390   8.061  1.00  0.00     0.157 HD
BRANCH  20  24
HETATM   24  C14 UNL     1      14.676   9.530   8.298  1.00  0.00     0.183 A 
HETATM   25  N8  UNL     1      13.757  10.487   8.077  1.00  0.00    -0.266 N 
HETATM   26  N9  UNL     1      13.837  11.350   9.093  1.00  0.00    -0.226 N 
ATOM     27  H8  UNL     1      13.118  10.543   7.284  1.00  0.00     0.190 HD
HETATM   28  N10 UNL     1      14.769  10.968   9.939  1.00  0.00    -0.226 N 
ATOM     29  H9  UNL     1      13.259  12.184   9.198  1.00  0.00     0.210 HD
HETATM   30  N11 UNL     1      15.295   9.852   9.466  1.00  0.00    -0.266 N 
ATOM     31  H10 UNL     1      15.036  11.445  10.800  1.00  0.00     0.210 HD
ATOM     32  H11 UNL     1      16.045   9.319   9.905  1.00  0.00     0.190 HD
ENDBRANCH  20  24
ENDBRANCH  18  20
ENDBRANCH  16  18
ENDBRANCH  12  14
ENDBRANCH   9  11
ENDBRANCH   8   9
BRANCH   1  33
HETATM   33  C3  UNL     1      14.745   8.656   1.619  1.00  0.00     0.241 C 
BRANCH  33  34
HETATM   34  C2  UNL     1      14.246   9.179   2.884  1.00  0.00     0.276 C 
HETATM   35  O2  UNL     1      14.298   8.541   3.954  1.00  0.00    -0.263 OA
BRANCH  34  36
HETATM   36  O1  UNL     1      13.688  10.443   2.902  1.00  0.00    -0.325 OA
HETATM   37  C1  UNL     1      14.284  11.494   3.623  1.00  0.00     0.213 C 
ENDBRANCH  34  36
ENDBRANCH  33  34
ENDBRANCH   1  33
TORSDOF 9
ENDMDL
MODEL 3
REMARK VINA RESULT: -8.340933664      4.258      7.764
REMARK  9 active torsions:
REMARK  status: ('A' for Active; 'I' for Inactive)
REMARK    1  A    between atoms: O1_2  and  C2_3 
REMARK    2  A    between atoms: C2_3  and  C3_5 
REMARK    3  A    between atoms: C3_5  and  N1_6 
REMARK    4  A    between atoms: C9_13  and  N3_14 
REMARK    5  A    between atoms: N3_14  and  N4_16 
REMARK    6  A    between atoms: C10_18  and  C11_19 
REMARK    7  A    between atoms: N5_21  and  N6_23 
REMARK    8  A    between atoms: N6_23  and  C13_25 
REMARK    9  A    between atoms: C13_25  and  C14_29 
ROOT
HETATM    1  N1  UNL     1      19.126   8.742   3.760  1.00  0.00    -0.326 N 
HETATM    2  C4  UNL     1      20.375   8.969   4.208  1.00  0.00     0.011 A 
HETATM    3  C5  UNL     1      21.035   8.422   5.401  1.00  0.00     0.068 C 
HETATM    4  C6  UNL     1      20.959   9.844   3.316  1.00  0.00     0.051 A 
HETATM    5  C7  UNL     1      20.040  10.152   2.307  1.00  0.00     0.092 A 
HETATM    6  C8  UNL     1      20.285  11.028   1.197  1.00  0.00     0.103 C 
HETATM    7  N2  UNL     1      20.466  11.734   0.288  1.00  0.00    -0.191 NA
HETATM    8  C9  UNL     1      18.922   9.452   2.618  1.00  0.00     0.144 A 
ENDROOT
BRANCH   8   9
HETATM    9  N3  UNL     1      17.692   9.447   1.854  1.00  0.00    -0.284 N 
ATOM     10  H3  UNL     1      17.533   8.712   1.165  1.00  0.00     0.188 HD
BRANCH   9  11
HETATM   11  N4  UNL     1      16.745  10.407   2.039  1.00  0.00    -0.308 N 
HETATM   12  C10 UNL     1      15.645  10.535   1.440  1.00  0.00     0.133 C 
ATOM     13  H4  UNL     1      16.952  11.109   2.749  1.00  0.00     0.186 HD
BRANCH  12  14
HETATM   14  C11 UNL     1      15.058   9.727   0.398  1.00  0.00     0.038 C 
HETATM   15  C12 UNL     1      13.870   8.866   0.547  1.00  0.00     0.071 C 
HETATM   16  N5  UNL     1      15.647   9.771  -0.776  1.00  0.00    -0.302 N 
ATOM     17  H5  UNL     1      16.474  10.349  -0.926  1.00  0.00     0.186 HD
BRANCH  16  18
HETATM   18  N6  UNL     1      15.113   9.007  -1.807  1.00  0.00    -0.283 N 
ATOM     19  H6  UNL     1      14.912   8.020  -1.650  1.00  0.00     0.188 HD
BRANCH  18  20
HETATM   20  C13 UNL     1      14.843   9.584  -3.076  1.00  0.00     0.161 C 
HETATM   21  N7  UNL     1      15.755  10.150  -3.786  1.00  0.00    -0.381 N 
ATOM     22  H72 UNL     1      16.706  10.178  -3.418  1.00  0.00     0.157 HD
ATOM     23  H71 UNL     1      15.562  10.565  -4.698  1.00  0.00     0.157 HD
BRANCH  20  24
HETATM   24  C14 UNL     1      13.485   9.544  -3.602  1.00  0.00     0.183 A 
HETATM   25  N8  UNL     1      12.349   9.545  -2.882  1.00  0.00    -0.266 N 
HETATM   26  N9  UNL     1      11.334   9.498  -3.749  1.00  0.00    -0.226 N 
ATOM     27  H8  UNL     1      12.276   9.577  -1.865  1.00  0.00     0.190 HD
HETATM   28  N10 UNL     1      11.792   9.469  -4.981  1.00  0.00    -0.226 N 
ATOM     29  H9  UNL     1      10.347   9.487  -3.492  1.00  0.00     0.210 HD
HETATM   30  N11 UNL     1      13.112   9.495  -4.910  1.00  0.00    -0.266 N 
ATOM     31  H10 UNL     1      11.233   9.432  -5.834  1.00  0.00     0.210 HD
ATOM     32  H11 UNL     1      13.748   9.482  -5.707  1.00  0.00     0.190 HD
ENDBRANCH  20  24
ENDBRANCH  18  20
ENDBRANCH  16  18
ENDBRANCH  12  14
ENDBRANCH   9  11
ENDBRANCH   8   9
BRANCH   1  33
HETATM   33  C3  UNL     1      18.127   7.906   4.348  1.00  0.00     0.241 C 
BRANCH  33  34
HETATM   34  C2  UNL     1      17.066   8.617   5.049  1.00  0.00     0.276 C 
HETATM   35  O2  UNL     1      17.219   9.135   6.173  1.00  0.00    -0.263 OA
BRANCH  34  36
HETATM   36  O1  UNL     1      15.828   8.723   4.443  1.00  0.00    -0.325 OA
HETATM   37  C1  UNL     1      14.793   9.478   5.023  1.00  0.00     0.213 C 
ENDBRANCH  34  36
ENDBRANCH  33  34
ENDBRANCH   1  33
TORSDOF 9
ENDMDL
MODEL 4
REMARK VINA RESULT: -8.321798302      2.032      3.784
REMARK  9 active torsions:
REMARK  status: ('A' for Active; 'I' for Inactive)
REMARK    1  A    between atoms: O1_2  and  C2_3 
REMARK    2  A    between atoms: C2_3  and  C3_5 
REMARK    3  A    between atoms: C3_5  and  N1_6 
REMARK    4  A    between atoms: C9_13  and  N3_14 
REMARK    5  A    between atoms: N3_14  and  N4_16 
REMARK    6  A    between atoms: C10_18  and  C11_19 
REMARK    7  A    between atoms: N5_21  and  N6_23 
REMARK    8  A    between atoms: N6_23  and  C13_25 
REMARK    9  A    between atoms: C13_25  and  C14_29 
ROOT
HETATM    1  N1  UNL     1      15.681  10.371  -0.411  1.00  0.00    -0.326 N 
HETATM    2  C4  UNL     1      15.220   9.748  -1.512  1.00  0.00     0.011 A 
HETATM    3  C5  UNL     1      15.422  10.109  -2.921  1.00  0.00     0.068 C 
HETATM    4  C6  UNL     1      14.491   8.663  -1.073  1.00  0.00     0.051 A 
HETATM    5  C7  UNL     1      14.513   8.631   0.326  1.00  0.00     0.092 A 
HETATM    6  C8  UNL     1      13.869   7.645   1.146  1.00  0.00     0.103 C 
HETATM    7  N2  UNL     1      13.354   6.853   1.828  1.00  0.00    -0.191 NA
HETATM    8  C9  UNL     1      15.257   9.702   0.695  1.00  0.00     0.144 A 
ENDROOT
BRANCH   8   9
HETATM    9  N3  UNL     1      15.567  10.082   2.057  1.00  0.00    -0.284 N 
ATOM     10  H3  UNL     1      15.140  10.920   2.452  1.00  0.00     0.188 HD
BRANCH   9  11
HETATM   11  N4  UNL     1      16.418   9.341   2.819  1.00  0.00    -0.308 N 
HETATM   12  C10 UNL     1      16.275   8.987   4.018  1.00  0.00     0.133 C 
ATOM     13  H4  UNL     1      17.276   9.036   2.362  1.00  0.00     0.186 HD
BRANCH  12  14
HETATM   14  C11 UNL     1      15.194   9.250   4.939  1.00  0.00     0.038 C 
HETATM   15  C12 UNL     1      13.796   8.812   4.766  1.00  0.00     0.071 C 
HETATM   16  N5  UNL     1      15.498   9.940   6.014  1.00  0.00    -0.302 N 
ATOM     17  H5  UNL     1      16.451  10.266   6.176  1.00  0.00     0.186 HD
BRANCH  16  18
HETATM   18  N6  UNL     1      14.485  10.213   6.927  1.00  0.00    -0.283 N 
ATOM     19  H6  UNL     1      13.644  10.698   6.614  1.00  0.00     0.188 HD
BRANCH  18  20
HETATM   20  C13 UNL     1      14.607   9.826   8.287  1.00  0.00     0.161 C 
HETATM   21  N7  UNL     1      15.032   8.663   8.640  1.00  0.00    -0.381 N 
ATOM     22  H72 UNL     1      15.291   8.001   7.908  1.00  0.00     0.157 HD
ATOM     23  H71 UNL     1      15.119   8.385   9.617  1.00  0.00     0.157 HD
BRANCH  20  24
HETATM   24  C14 UNL     1      14.237  10.771   9.333  1.00  0.00     0.183 A 
HETATM   25  N8  UNL     1      13.152  11.567   9.342  1.00  0.00    -0.266 N 
HETATM   26  N9  UNL     1      13.193  12.273  10.475  1.00  0.00    -0.226 N 
ATOM     27  H8  UNL     1      12.434  11.621   8.620  1.00  0.00     0.190 HD
HETATM   28  N10 UNL     1      14.259  11.948  11.173  1.00  0.00    -0.226 N 
ATOM     29  H9  UNL     1      12.498  12.964  10.758  1.00  0.00     0.210 HD
HETATM   30  N11 UNL     1      14.912  11.027  10.486  1.00  0.00    -0.266 N 
ATOM     31  H10 UNL     1      14.532  12.335  12.077  1.00  0.00     0.210 HD
ATOM     32  H11 UNL     1      15.783  10.581  10.773  1.00  0.00     0.190 HD
ENDBRANCH  20  24
ENDBRANCH  18  20
ENDBRANCH  16  18
ENDBRANCH  12  14
ENDBRANCH   9  11
ENDBRANCH   8   9
BRANCH   1  33
HETATM   33  C3  UNL     1      16.485  11.551  -0.348  1.00  0.00     0.241 C 
BRANCH  33  34
HETATM   34  C2  UNL     1      17.916  11.313  -0.211  1.00  0.00     0.276 C 
HETATM   35  O2  UNL     1      18.757  11.724  -1.035  1.00  0.00    -0.263 OA
BRANCH  34  36
HETATM   36  O1  UNL     1      18.366  10.598   0.882  1.00  0.00    -0.325 OA
HETATM   37  C1  UNL     1      19.440  11.059   1.664  1.00  0.00     0.213 C 
ENDBRANCH  34  36
ENDBRANCH  33  34
ENDBRANCH   1  33
TORSDOF 9
ENDMDL
MODEL 5
REMARK VINA RESULT: -8.283055623      4.698      8.415
REMARK  9 active torsions:
REMARK  status: ('A' for Active; 'I' for Inactive)
REMARK    1  A    between atoms: O1_2  and  C2_3 
REMARK    2  A    between atoms: C2_3  and  C3_5 
REMARK    3  A    between atoms: C3_5  and  N1_6 
REMARK    4  A    between atoms: C9_13  and  N3_14 
REMARK    5  A    between atoms: N3_14  and  N4_16 
REMARK    6  A    between atoms: C10_18  and  C11_19 
REMARK    7  A    between atoms: N5_21  and  N6_23 
REMARK    8  A    between atoms: N6_23  and  C13_25 
REMARK    9  A    between atoms: C13_25  and  C14_29 
ROOT
HETATM    1  N1  UNL     1      17.139   9.402   3.409  1.00  0.00    -0.326 N 
HETATM    2  C4  UNL     1      18.471   9.595   3.397  1.00  0.00     0.011 A 
HETATM    3  C5  UNL     1      19.464   9.201   4.405  1.00  0.00     0.068 C 
HETATM    4  C6  UNL     1      18.760  10.256   2.222  1.00  0.00     0.051 A 
HETATM    5  C7  UNL     1      17.575  10.467   1.509  1.00  0.00     0.092 A 
HETATM    6  C8  UNL     1      17.474  11.121   0.236  1.00  0.00     0.103 C 
HETATM    7  N2  UNL     1      17.372  11.648  -0.798  1.00  0.00    -0.191 NA
HETATM    8  C9  UNL     1      16.597   9.925   2.276  1.00  0.00     0.144 A 
ENDROOT
BRANCH   8   9
HETATM    9  N3  UNL     1      15.188   9.896   1.947  1.00  0.00    -0.284 N 
ATOM     10  H3  UNL     1      14.607  10.707   2.158  1.00  0.00     0.188 HD
BRANCH   9  11
HETATM   11  N4  UNL     1      14.624   8.804   1.361  1.00  0.00    -0.308 N 
HETATM   12  C10 UNL     1      14.294   8.655   0.156  1.00  0.00     0.133 C 
ATOM     13  H4  UNL     1      14.448   8.008   1.975  1.00  0.00     0.186 HD
BRANCH  12  14
HETATM   14  C11 UNL     1      14.405   9.571  -0.954  1.00  0.00     0.038 C 
HETATM   15  C12 UNL     1      13.575  10.773  -1.160  1.00  0.00     0.071 C 
HETATM   16  N5  UNL     1      15.327   9.295  -1.849  1.00  0.00    -0.302 N 
ATOM     17  H5  UNL     1      15.923   8.473  -1.751  1.00  0.00     0.186 HD
BRANCH  16  18
HETATM   18  N6  UNL     1      15.467  10.153  -2.933  1.00  0.00    -0.283 N 
ATOM     19  H6  UNL     1      15.894  11.069  -2.798  1.00  0.00     0.188 HD
BRANCH  18  20
HETATM   20  C13 UNL     1      15.023   9.771  -4.227  1.00  0.00     0.161 C 
HETATM   21  N7  UNL     1      15.776   9.847  -5.267  1.00  0.00    -0.381 N 
ATOM     22  H72 UNL     1      16.728  10.194  -5.150  1.00  0.00     0.157 HD
ATOM     23  H71 UNL     1      15.458   9.572  -6.196  1.00  0.00     0.157 HD
BRANCH  20  24
HETATM   24  C14 UNL     1      13.663   9.274  -4.395  1.00  0.00     0.183 A 
HETATM   25  N8  UNL     1      13.227   8.032  -4.120  1.00  0.00    -0.266 N 
HETATM   26  N9  UNL     1      11.925   7.998  -4.417  1.00  0.00    -0.226 N 
ATOM     27  H8  UNL     1      13.785   7.261  -3.753  1.00  0.00     0.190 HD
HETATM   28  N10 UNL     1      11.532   9.170  -4.866  1.00  0.00    -0.226 N 
ATOM     29  H9  UNL     1      11.323   7.181  -4.312  1.00  0.00     0.210 HD
HETATM   30  N11 UNL     1      12.587   9.966  -4.859  1.00  0.00    -0.266 N 
ATOM     31  H10 UNL     1      10.589   9.418  -5.163  1.00  0.00     0.210 HD
ATOM     32  H11 UNL     1      12.594  10.942  -5.155  1.00  0.00     0.190 HD
ENDBRANCH  20  24
ENDBRANCH  18  20
ENDBRANCH  16  18
ENDBRANCH  12  14
ENDBRANCH   9  11
ENDBRANCH   8   9
BRANCH   1  33
HETATM   33  C3  UNL     1      16.360   8.762   4.422  1.00  0.00     0.241 C 
BRANCH  33  34
HETATM   34  C2  UNL     1      15.881   9.645   5.479  1.00  0.00     0.276 C 
HETATM   35  O2  UNL     1      15.118  10.608   5.269  1.00  0.00    -0.263 OA
BRANCH  34  36
HETATM   36  O1  UNL     1      16.292   9.405   6.777  1.00  0.00    -0.325 OA
HETATM   37  C1  UNL     1      15.360   9.203   7.811  1.00  0.00     0.213 C 
ENDBRANCH  34  36
ENDBRANCH  33  34
ENDBRANCH   1  33
TORSDOF 9
ENDMDL
