MODEL 1
REMARK VINA RESULT: -7.112834956      0.000      0.000
REMARK  12 active torsions:
REMARK  status: ('A' for Active; 'I' for Inactive)
REMARK    1  A    between atoms: C2_2  and  O1_3 
REMARK    2  A    between atoms: O1_3  and  C3_4 
REMARK       I    between atoms: C3_4  and  N1_6 
REMARK    3  A    between atoms: N1_6  and  S1_8 
REMARK    4  A    between atoms: S1_8  and  N2_11 
REMARK    5  A    between atoms: C5_13  and  O5_14 
REMARK    6  A    between atoms: N3_16  and  N4_17 
REMARK    7  A    between atoms: N4_17  and  C6_18 
REMARK    8  A    between atoms: C6_18  and  C7_19 
REMARK    9  A    between atoms: C6_18  and  C10_22 
REMARK   10  A    between atoms: C10_22  and  O6_23 
REMARK   11  A    between atoms: C10_22  and  N5_25 
REMARK   12  A    between atoms: C12_29  and  N6_30 
ROOT
HETATM    1  N2  UNL     1      16.289  10.130   5.290  1.00  0.00    -0.059 N 
HETATM    2  C4  UNL     1      15.929  11.247   4.701  1.00  0.00     0.188 A 
HETATM    3  C5  UNL     1      16.964  11.624   3.874  1.00  0.00     0.209 A 
HETATM    4  N3  UNL     1      17.979  10.710   3.964  1.00  0.00     0.007 N 
HETATM    5  C12 UNL     1      17.492   9.801   4.868  1.00  0.00     0.727 A 
ENDROOT
BRANCH   4   6
HETATM    6  N4  UNL     1      19.112  10.733   3.351  1.00  0.00    -0.306 NA
BRANCH   6   7
HETATM    7  C6  UNL     1      20.071  10.653   2.655  1.00  0.00     0.147 C 
BRANCH   7   8
HETATM    8  C7  UNL     1      21.341   9.985   3.104  1.00  0.00     0.044 C 
HETATM    9  C8  UNL     1      21.529  10.072   4.592  1.00  0.00     0.017 C 
HETATM   10  C9  UNL     1      21.274   8.488   2.782  1.00  0.00     0.017 C 
ENDBRANCH   7   8
BRANCH   7  11
HETATM   11  C10 UNL     1      20.134  11.186   1.243  1.00  0.00     0.381 C 
BRANCH  11  12
HETATM   12  O6  UNL     1      21.444  11.475   0.855  1.00  0.00    -0.365 OA
ATOM     13  H6  UNL     1      21.567  12.401   0.686  1.00  0.00     0.212 HD
ENDBRANCH  11  12
BRANCH  11  14
HETATM   14  N5  UNL     1      19.295  12.379   1.091  1.00  0.00    -0.046 N 
HETATM   15  C11 UNL     1      18.334  12.253   0.015  1.00  0.00     0.270 C 
ATOM     16  H52 UNL     1      18.833  12.615   1.969  1.00  0.00     0.280 HD
ATOM     17  H51 UNL     1      19.866  13.215   0.976  1.00  0.00     0.280 HD
ENDBRANCH  11  14
ENDBRANCH   7  11
ENDBRANCH   6   7
ENDBRANCH   4   6
BRANCH   3  18
HETATM   18  O5  UNL     1      16.883  12.777   3.110  1.00  0.00    -0.343 OA
ATOM     19  H5  UNL     1      17.639  13.341   2.994  1.00  0.00     0.219 HD
ENDBRANCH   3  18
BRANCH   5  20
HETATM   20  N6  UNL     1      18.126   8.771   5.259  1.00  0.00    -0.231 N 
ATOM     21  H62 UNL     1      17.945   8.283   6.136  1.00  0.00     0.174 HD
ATOM     22  H61 UNL     1      18.874   8.326   4.728  1.00  0.00     0.174 HD
ENDBRANCH   5  20
BRANCH   1  23
HETATM   23  S1  UNL     1      15.292   9.264   6.435  1.00  0.00     0.347 S 
HETATM   24  O3  UNL     1      14.367   8.327   5.683  1.00  0.00    -0.181 OA
HETATM   25  O4  UNL     1      16.167   8.444   7.330  1.00  0.00    -0.181 OA
BRANCH  23  26
HETATM   26  N1  UNL     1      14.270  10.336   7.314  1.00  0.00    -0.212 N 
HETATM   27  C3  UNL     1      13.541   9.958   8.479  1.00  0.00     0.375 C 
HETATM   28  O2  UNL     1      13.608   8.801   8.928  1.00  0.00    -0.237 OA
ATOM     29  H1  UNL     1      14.182  11.297   6.983  1.00  0.00     0.185 HD
BRANCH  27  30
HETATM   30  O1  UNL     1      12.759  10.883   9.108  1.00  0.00    -0.304 OA
BRANCH  30  31
HETATM   31  C2  UNL     1      13.256  11.898   9.919  1.00  0.00     0.176 C 
HETATM   32  C1  UNL     1      13.804  11.444  11.228  1.00  0.00     0.034 C 
ENDBRANCH  30  31
ENDBRANCH  27  30
ENDBRANCH  23  26
ENDBRANCH   1  23
TORSDOF 12
ENDMDL
MODEL 2
REMARK VINA RESULT: -7.051249527      3.934      6.966
REMARK  12 active torsions:
REMARK  status: ('A' for Active; 'I' for Inactive)
REMARK    1  A    between atoms: C2_2  and  O1_3 
REMARK    2  A    between atoms: O1_3  and  C3_4 
REMARK       I    between atoms: C3_4  and  N1_6 
REMARK    3  A    between atoms: N1_6  and  S1_8 
REMARK    4  A    between atoms: S1_8  and  N2_11 
REMARK    5  A    between atoms: C5_13  and  O5_14 
REMARK    6  A    between atoms: N3_16  and  N4_17 
REMARK    7  A    between atoms: N4_17  and  C6_18 
REMARK    8  A    between atoms: C6_18  and  C7_19 
REMARK    9  A    between atoms: C6_18  and  C10_22 
REMARK   10  A    between atoms: C10_22  and  O6_23 
REMARK   11  A    between atoms: C10_22  and  N5_25 
REMARK   12  A    between atoms: C12_29  and  N6_30 
ROOT
HETATM    1  N2  UNL     1      18.370  10.095   2.960  1.00  0.00    -0.059 N 
HETATM    2  C4  UNL     1      17.658   9.919   4.049  1.00  0.00     0.188 A 
HETATM    3  C5  UNL     1      18.077   8.741   4.625  1.00  0.00     0.209 A 
HETATM    4  N3  UNL     1      19.071   8.187   3.865  1.00  0.00     0.007 N 
HETATM    5  C12 UNL     1      19.207   9.085   2.837  1.00  0.00     0.727 A 
ENDROOT
BRANCH   4   6
HETATM    6  N4  UNL     1      19.699   7.082   4.078  1.00  0.00    -0.306 NA
BRANCH   6   7
HETATM    7  C6  UNL     1      20.212   6.012   4.107  1.00  0.00     0.147 C 
BRANCH   7   8
HETATM    8  C7  UNL     1      21.701   5.827   3.997  1.00  0.00     0.044 C 
HETATM    9  C8  UNL     1      22.214   6.192   2.633  1.00  0.00     0.017 C 
HETATM   10  C9  UNL     1      22.408   6.773   4.972  1.00  0.00     0.017 C 
ENDBRANCH   7   8
BRANCH   7  11
HETATM   11  C10 UNL     1      19.453   4.718   4.279  1.00  0.00     0.381 C 
BRANCH  11  12
HETATM   12  O6  UNL     1      18.964   4.570   5.579  1.00  0.00    -0.365 OA
ATOM     13  H6  UNL     1      18.899   3.657   5.831  1.00  0.00     0.212 HD
ENDBRANCH  11  12
BRANCH  11  14
HETATM   14  N5  UNL     1      20.288   3.565   3.927  1.00  0.00    -0.046 N 
HETATM   15  C11 UNL     1      19.745   2.797   2.826  1.00  0.00     0.270 C 
ATOM     16  H52 UNL     1      21.247   3.854   3.734  1.00  0.00     0.280 HD
ATOM     17  H51 UNL     1      20.454   2.972   4.740  1.00  0.00     0.280 HD
ENDBRANCH  11  14
ENDBRANCH   7  11
ENDBRANCH   6   7
ENDBRANCH   4   6
BRANCH   3  18
HETATM   18  O5  UNL     1      17.507   8.279   5.800  1.00  0.00    -0.343 OA
ATOM     19  H5  UNL     1      16.804   7.639   5.785  1.00  0.00     0.219 HD
ENDBRANCH   3  18
BRANCH   5  20
HETATM   20  N6  UNL     1      20.030   8.956   1.878  1.00  0.00    -0.231 N 
ATOM     21  H62 UNL     1      19.824   8.469   1.005  1.00  0.00     0.174 HD
ATOM     22  H61 UNL     1      20.976   9.335   1.883  1.00  0.00     0.174 HD
ENDBRANCH   5  20
BRANCH   1  23
HETATM   23  S1  UNL     1      18.197  11.466   1.889  1.00  0.00     0.347 S 
HETATM   24  O3  UNL     1      17.312  12.505   2.547  1.00  0.00    -0.181 OA
HETATM   25  O4  UNL     1      19.543  12.076   1.649  1.00  0.00    -0.181 OA
BRANCH  23  26
HETATM   26  N1  UNL     1      17.404  11.023   0.426  1.00  0.00    -0.212 N 
HETATM   27  C3  UNL     1      16.038  10.619   0.357  1.00  0.00     0.375 C 
HETATM   28  O2  UNL     1      15.335  10.564   1.379  1.00  0.00    -0.237 OA
ATOM     29  H1  UNL     1      17.941  11.051  -0.441  1.00  0.00     0.185 HD
BRANCH  27  30
HETATM   30  O1  UNL     1      15.499  10.289  -0.854  1.00  0.00    -0.304 OA
BRANCH  30  31
HETATM   31  C2  UNL     1      14.473  11.001  -1.467  1.00  0.00     0.176 C 
HETATM   32  C1  UNL     1      13.280  10.188  -1.837  1.00  0.00     0.034 C 
ENDBRANCH  30  31
ENDBRANCH  27  30
ENDBRANCH  23  26
ENDBRANCH   1  23
TORSDOF 12
ENDMDL
MODEL 3
REMARK VINA RESULT: -6.996458472      4.934      8.519
REMARK  12 active torsions:
REMARK  status: ('A' for Active; 'I' for Inactive)
REMARK    1  A    between atoms: C2_2  and  O1_3 
REMARK    2  A    between atoms: O1_3  and  C3_4 
REMARK       I    between atoms: C3_4  and  N1_6 
REMARK    3  A    between atoms: N1_6  and  S1_8 
REMARK    4  A    between atoms: S1_8  and  N2_11 
REMARK    5  A    between atoms: C5_13  and  O5_14 
REMARK    6  A    between atoms: N3_16  and  N4_17 
REMARK    7  A    between atoms: N4_17  and  C6_18 
REMARK    8  A    between atoms: C6_18  and  C7_19 
REMARK    9  A    between atoms: C6_18  and  C10_22 
REMARK   10  A    between atoms: C10_22  and  O6_23 
REMARK   11  A    between atoms: C10_22  and  N5_25 
REMARK   12  A    between atoms: C12_29  and  N6_30 
ROOT
HETATM    1  N2  UNL     1      14.494   9.840   0.749  1.00  0.00    -0.059 N 
HETATM    2  C4  UNL     1      13.219   9.663   1.006  1.00  0.00     0.188 A 
HETATM    3  C5  UNL     1      13.104   9.433   2.359  1.00  0.00     0.209 A 
HETATM    4  N3  UNL     1      14.344   9.473   2.938  1.00  0.00     0.007 N 
HETATM    5  C12 UNL     1      15.170   9.732   1.874  1.00  0.00     0.727 A 
ENDROOT
BRANCH   4   6
HETATM    6  N4  UNL     1      14.637   9.292   4.179  1.00  0.00    -0.306 NA
BRANCH   6   7
HETATM    7  C6  UNL     1      14.964   9.301   5.321  1.00  0.00     0.147 C 
BRANCH   7   8
HETATM    8  C7  UNL     1      13.975   9.144   6.444  1.00  0.00     0.044 C 
HETATM    9  C8  UNL     1      14.152   7.843   7.172  1.00  0.00     0.017 C 
HETATM   10  C9  UNL     1      14.209  10.240   7.489  1.00  0.00     0.017 C 
ENDBRANCH   7   8
BRANCH   7  11
HETATM   11  C10 UNL     1      16.392   9.449   5.788  1.00  0.00     0.381 C 
BRANCH  11  12
HETATM   12  O6  UNL     1      17.058  10.472   5.108  1.00  0.00    -0.365 OA
ATOM     13  H6  UNL     1      17.140  11.254   5.640  1.00  0.00     0.212 HD
ENDBRANCH  11  12
BRANCH  11  14
HETATM   14  N5  UNL     1      17.129   8.190   5.639  1.00  0.00    -0.046 N 
HETATM   15  C11 UNL     1      18.213   8.287   4.683  1.00  0.00     0.270 C 
ATOM     16  H52 UNL     1      17.466   7.854   6.541  1.00  0.00     0.280 HD
ATOM     17  H51 UNL     1      16.500   7.423   5.402  1.00  0.00     0.280 HD
ENDBRANCH  11  14
ENDBRANCH   7  11
ENDBRANCH   6   7
ENDBRANCH   4   6
BRANCH   3  18
HETATM   18  O5  UNL     1      11.868   9.206   2.942  1.00  0.00    -0.343 OA
ATOM     19  H5  UNL     1      11.776   9.148   3.886  1.00  0.00     0.219 HD
ENDBRANCH   3  18
BRANCH   5  20
HETATM   20  N6  UNL     1      16.433   9.845   1.959  1.00  0.00    -0.231 N 
ATOM     21  H62 UNL     1      17.052   9.118   2.318  1.00  0.00     0.174 HD
ATOM     22  H61 UNL     1      16.952  10.672   1.668  1.00  0.00     0.174 HD
ENDBRANCH   5  20
BRANCH   1  23
HETATM   23  S1  UNL     1      15.132  10.169  -0.845  1.00  0.00     0.347 S 
HETATM   24  O3  UNL     1      15.050  11.657  -1.120  1.00  0.00    -0.181 OA
HETATM   25  O4  UNL     1      16.571   9.759  -0.894  1.00  0.00    -0.181 OA
BRANCH  23  26
HETATM   26  N1  UNL     1      14.189   9.406  -2.068  1.00  0.00    -0.212 N 
HETATM   27  C3  UNL     1      14.472   9.503  -3.462  1.00  0.00     0.375 C 
HETATM   28  O2  UNL     1      15.441  10.163  -3.874  1.00  0.00    -0.237 OA
ATOM     29  H1  UNL     1      13.381   8.854  -1.779  1.00  0.00     0.185 HD
BRANCH  27  30
HETATM   30  O1  UNL     1      13.664   8.858  -4.355  1.00  0.00    -0.304 OA
BRANCH  30  31
HETATM   31  C2  UNL     1      12.460   9.372  -4.824  1.00  0.00     0.176 C 
HETATM   32  C1  UNL     1      11.254   8.933  -4.068  1.00  0.00     0.034 C 
ENDBRANCH  30  31
ENDBRANCH  27  30
ENDBRANCH  23  26
ENDBRANCH   1  23
TORSDOF 12
ENDMDL
MODEL 4
REMARK VINA RESULT: -6.960806831      4.941      8.490
REMARK  12 active torsions:
REMARK  status: ('A' for Active; 'I' for Inactive)
REMARK    1  A    between atoms: C2_2  and  O1_3 
REMARK    2  A    between atoms: O1_3  and  C3_4 
REMARK       I    between atoms: C3_4  and  N1_6 
REMARK    3  A    between atoms: N1_6  and  S1_8 
REMARK    4  A    between atoms: S1_8  and  N2_11 
REMARK    5  A    between atoms: C5_13  and  O5_14 
REMARK    6  A    between atoms: N3_16  and  N4_17 
REMARK    7  A    between atoms: N4_17  and  C6_18 
REMARK    8  A    between atoms: C6_18  and  C7_19 
REMARK    9  A    between atoms: C6_18  and  C10_22 
REMARK   10  A    between atoms: C10_22  and  O6_23 
REMARK   11  A    between atoms: C10_22  and  N5_25 
REMARK   12  A    between atoms: C12_29  and  N6_30 
ROOT
HETATM    1  N2  UNL     1      14.784  10.200   0.370  1.00  0.00    -0.059 N 
HETATM    2  C4  UNL     1      13.568  10.128   0.862  1.00  0.00     0.188 A 
HETATM    3  C5  UNL     1      13.684   9.760   2.184  1.00  0.00     0.209 A 
HETATM    4  N3  UNL     1      15.006   9.606   2.503  1.00  0.00     0.007 N 
HETATM    5  C12 UNL     1      15.641   9.896   1.323  1.00  0.00     0.727 A 
ENDROOT
BRANCH   4   6
HETATM    6  N4  UNL     1      15.504   9.256   3.638  1.00  0.00    -0.306 NA
BRANCH   6   7
HETATM    7  C6  UNL     1      16.005   9.113   4.706  1.00  0.00     0.147 C 
BRANCH   7   8
HETATM    8  C7  UNL     1      17.495   9.024   4.892  1.00  0.00     0.044 C 
HETATM    9  C8  UNL     1      18.104   7.938   4.052  1.00  0.00     0.017 C 
HETATM   10  C9  UNL     1      18.149  10.327   4.422  1.00  0.00     0.017 C 
ENDBRANCH   7   8
BRANCH   7  11
HETATM   11  C10 UNL     1      15.227   9.024   5.997  1.00  0.00     0.381 C 
BRANCH  11  12
HETATM   12  O6  UNL     1      14.302   7.978   5.975  1.00  0.00    -0.365 OA
ATOM     13  H6  UNL     1      14.575   7.252   6.524  1.00  0.00     0.212 HD
ENDBRANCH  11  12
BRANCH  11  14
HETATM   14  N5  UNL     1      14.544  10.287   6.290  1.00  0.00    -0.046 N 
HETATM   15  C11 UNL     1      14.010  10.335   7.635  1.00  0.00     0.270 C 
ATOM     16  H52 UNL     1      15.155  11.084   6.110  1.00  0.00     0.280 HD
ATOM     17  H51 UNL     1      13.817  10.478   5.601  1.00  0.00     0.280 HD
ENDBRANCH  11  14
ENDBRANCH   7  11
ENDBRANCH   6   7
ENDBRANCH   4   6
BRANCH   3  18
HETATM   18  O5  UNL     1      12.562   9.599   2.981  1.00  0.00    -0.343 OA
ATOM     19  H5  UNL     1      12.552   8.965   3.689  1.00  0.00     0.219 HD
ENDBRANCH   3  18
BRANCH   5  20
HETATM   20  N6  UNL     1      16.902   9.866   1.162  1.00  0.00    -0.231 N 
ATOM     21  H62 UNL     1      17.450  10.635   0.776  1.00  0.00     0.174 HD
ATOM     22  H61 UNL     1      17.490   9.072   1.411  1.00  0.00     0.174 HD
ENDBRANCH   5  20
BRANCH   1  23
HETATM   23  S1  UNL     1      15.145  10.638  -1.283  1.00  0.00     0.347 S 
HETATM   24  O3  UNL     1      14.663  12.052  -1.542  1.00  0.00    -0.181 OA
HETATM   25  O4  UNL     1      16.627  10.600  -1.491  1.00  0.00    -0.181 OA
BRANCH  23  26
HETATM   26  N1  UNL     1      14.297   9.634  -2.397  1.00  0.00    -0.212 N 
HETATM   27  C3  UNL     1      14.500   9.671  -3.808  1.00  0.00     0.375 C 
HETATM   28  O2  UNL     1      15.321  10.453  -4.316  1.00  0.00    -0.237 OA
ATOM     29  H1  UNL     1      13.611   8.976  -2.027  1.00  0.00     0.185 HD
BRANCH  27  30
HETATM   30  O1  UNL     1      13.780   8.831  -4.609  1.00  0.00    -0.304 OA
BRANCH  30  31
HETATM   31  C2  UNL     1      12.623   8.174  -4.204  1.00  0.00     0.176 C 
HETATM   32  C1  UNL     1      11.390   9.011  -4.216  1.00  0.00     0.034 C 
ENDBRANCH  30  31
ENDBRANCH  27  30
ENDBRANCH  23  26
ENDBRANCH   1  23
TORSDOF 12
ENDMDL
MODEL 5
REMARK VINA RESULT: -6.878733556      4.128      7.869
REMARK  12 active torsions:
REMARK  status: ('A' for Active; 'I' for Inactive)
REMARK    1  A    between atoms: C2_2  and  O1_3 
REMARK    2  A    between atoms: O1_3  and  C3_4 
REMARK       I    between atoms: C3_4  and  N1_6 
REMARK    3  A    between atoms: N1_6  and  S1_8 
REMARK    4  A    between atoms: S1_8  and  N2_11 
REMARK    5  A    between atoms: C5_13  and  O5_14 
REMARK    6  A    between atoms: N3_16  and  N4_17 
REMARK    7  A    between atoms: N4_17  and  C6_18 
REMARK    8  A    between atoms: C6_18  and  C7_19 
REMARK    9  A    between atoms: C6_18  and  C10_22 
REMARK   10  A    between atoms: C10_22  and  O6_23 
REMARK   11  A    between atoms: C10_22  and  N5_25 
REMARK   12  A    between atoms: C12_29  and  N6_30 
ROOT
HETATM    1  N2  UNL     1      19.998   7.908   3.480  1.00  0.00    -0.059 N 
HETATM    2  C4  UNL     1      19.814   8.783   2.518  1.00  0.00     0.188 A 
HETATM    3  C5  UNL     1      18.534   9.271   2.650  1.00  0.00     0.209 A 
HETATM    4  N3  UNL     1      17.925   8.676   3.722  1.00  0.00     0.007 N 
HETATM    5  C12 UNL     1      18.896   7.834   4.198  1.00  0.00     0.727 A 
ENDROOT
BRANCH   4   6
HETATM    6  N4  UNL     1      16.724   8.868   4.149  1.00  0.00    -0.306 NA
BRANCH   6   7
HETATM    7  C6  UNL     1      15.696   9.146   4.675  1.00  0.00     0.147 C 
BRANCH   7   8
HETATM    8  C7  UNL     1      14.497   9.622   3.903  1.00  0.00     0.044 C 
HETATM    9  C8  UNL     1      14.535  11.103   3.660  1.00  0.00     0.017 C 
HETATM   10  C9  UNL     1      14.491   8.974   2.515  1.00  0.00     0.017 C 
ENDBRANCH   7   8
BRANCH   7  11
HETATM   11  C10 UNL     1      15.456   9.040   6.162  1.00  0.00     0.381 C 
BRANCH  11  12
HETATM   12  O6  UNL     1      16.409   8.231   6.786  1.00  0.00    -0.365 OA
ATOM     13  H6  UNL     1      17.291   8.553   6.648  1.00  0.00     0.212 HD
ENDBRANCH  11  12
BRANCH  11  14
HETATM   14  N5  UNL     1      14.110   8.531   6.444  1.00  0.00    -0.046 N 
HETATM   15  C11 UNL     1      14.081   7.619   7.568  1.00  0.00     0.270 C 
ATOM     16  H52 UNL     1      13.450   9.298   6.578  1.00  0.00     0.280 HD
ATOM     17  H51 UNL     1      13.699   8.103   5.615  1.00  0.00     0.280 HD
ENDBRANCH  11  14
ENDBRANCH   7  11
ENDBRANCH   6   7
ENDBRANCH   4   6
BRANCH   3  18
HETATM   18  O5  UNL     1      18.037  10.221   1.772  1.00  0.00    -0.343 OA
ATOM     19  H5  UNL     1      18.348  11.119   1.795  1.00  0.00     0.219 HD
ENDBRANCH   3  18
BRANCH   5  20
HETATM   20  N6  UNL     1      18.751   7.067   5.201  1.00  0.00    -0.231 N 
ATOM     21  H62 UNL     1      17.872   6.936   5.702  1.00  0.00     0.174 HD
ATOM     22  H61 UNL     1      19.499   6.500   5.598  1.00  0.00     0.174 HD
ENDBRANCH   5  20
BRANCH   1  23
HETATM   23  S1  UNL     1      21.485   7.022   3.724  1.00  0.00     0.347 S 
HETATM   24  O3  UNL     1      22.599   7.690   2.942  1.00  0.00    -0.181 OA
HETATM   25  O4  UNL     1      21.845   7.052   5.177  1.00  0.00    -0.181 OA
BRANCH  23  26
HETATM   26  N1  UNL     1      21.367   5.418   3.107  1.00  0.00    -0.212 N 
HETATM   27  C3  UNL     1      20.666   4.366   3.767  1.00  0.00     0.375 C 
HETATM   28  O2  UNL     1      20.091   4.562   4.851  1.00  0.00    -0.237 OA
ATOM     29  H1  UNL     1      21.825   5.208   2.220  1.00  0.00     0.185 HD
BRANCH  27  30
HETATM   30  O1  UNL     1      20.628   3.127   3.195  1.00  0.00    -0.304 OA
BRANCH  30  31
HETATM   31  C2  UNL     1      19.469   2.531   2.708  1.00  0.00     0.176 C 
HETATM   32  C1  UNL     1      19.673   1.621   1.545  1.00  0.00     0.034 C 
ENDBRANCH  30  31
ENDBRANCH  27  30
ENDBRANCH  23  26
ENDBRANCH   1  23
TORSDOF 12
ENDMDL
