MODEL 1
REMARK VINA RESULT: -8.402860164      0.000      0.000
REMARK  11 active torsions:
REMARK  status: ('A' for Active; 'I' for Inactive)
REMARK    1  A    between atoms: N1_1  and  C1_4 
REMARK    2  A    between atoms: C2_7  and  O1_8 
REMARK    3  A    between atoms: O1_8  and  C3_9 
REMARK    4  A    between atoms: C3_9  and  C4_10 
REMARK       I    between atoms: C4_10  and  N3_12 
REMARK    5  A    between atoms: C6_16  and  C7_17 
REMARK    6  A    between atoms: C8_19  and  N4_20 
REMARK    7  A    between atoms: C9_25  and  C10_26 
REMARK    8  A    between atoms: C10_26  and  O6_28 
REMARK    9  A    between atoms: O6_28  and  C11_29 
REMARK   10  A    between atoms: C11_29  and  O7_30 
REMARK   11  A    between atoms: O7_30  and  N6_31 
ROOT
HETATM    1  C1  UNL     1      16.787   8.592   3.799  1.00  0.00     0.678 A 
HETATM    2  N2  UNL     1      16.150   9.121   4.844  1.00  0.00    -0.171 N 
ATOM      3  H2  UNL     1      16.406   8.845   5.792  1.00  0.00     0.186 HD
HETATM    4  C2  UNL     1      15.170  10.016   4.647  1.00  0.00     0.160 A 
HETATM    5  C5  UNL     1      14.839  10.377   3.325  1.00  0.00     0.088 A 
HETATM    6  C6  UNL     1      15.466   9.854   2.251  1.00  0.00     0.073 A 
HETATM    7  N7  UNL     1      16.459   8.942   2.559  1.00  0.00    -0.191 N 
ATOM      8  H7  UNL     1      16.971   8.513   1.789  1.00  0.00     0.184 HD
ENDROOT
BRANCH   6   9
HETATM    9  C7  UNL     1      15.184  10.061   0.843  1.00  0.00     0.068 A 
HETATM   10  S1  UNL     1      13.637   9.565   0.143  1.00  0.00    -0.050 SA
HETATM   11  C8  UNL     1      13.903  10.098  -1.435  1.00  0.00     0.143 A 
HETATM   12  N5  UNL     1      15.116  10.621  -1.380  1.00  0.00    -0.331 N 
HETATM   13  C9  UNL     1      15.778  10.614  -0.234  1.00  0.00     0.130 A 
ATOM     14  H5  UNL     1      15.538  11.028  -2.216  1.00  0.00     0.168 HD
BRANCH  11  15
HETATM   15  N4  UNL     1      13.103  10.020  -2.482  1.00  0.00    -0.380 N 
ATOM     16  H42 UNL     1      12.750   9.178  -2.936  1.00  0.00     0.158 HD
ATOM     17  H41 UNL     1      12.690  10.774  -3.030  1.00  0.00     0.158 HD
ENDBRANCH  11  15
BRANCH  13  18
HETATM   18  C10 UNL     1      17.106  11.293  -0.174  1.00  0.00     0.313 C 
HETATM   19  O5  UNL     1      17.860  11.415  -1.119  1.00  0.00    -0.257 OA
BRANCH  18  20
HETATM   20  O6  UNL     1      17.577  11.848   1.028  1.00  0.00    -0.288 OA
BRANCH  20  21
HETATM   21  C11 UNL     1      18.695  11.300   1.703  1.00  0.00     0.379 C 
BRANCH  21  22
HETATM   22  O7  UNL     1      19.759  12.148   1.415  1.00  0.00    -0.261 OA
BRANCH  22  23
HETATM   23  N6  UNL     1      20.566  11.640   0.448  1.00  0.00    -0.309 N 
ATOM     24  H62 UNL     1      21.153  10.817   0.586  1.00  0.00     0.184 HD
ATOM     25  H61 UNL     1      20.509  12.177  -0.417  1.00  0.00     0.184 HD
ENDBRANCH  22  23
ENDBRANCH  21  22
ENDBRANCH  20  21
ENDBRANCH  18  20
ENDBRANCH  13  18
ENDBRANCH   6   9
BRANCH   4  26
HETATM   26  O1  UNL     1      14.502  10.572   5.717  1.00  0.00    -0.326 OA
BRANCH  26  27
HETATM   27  C3  UNL     1      13.951   9.724   6.705  1.00  0.00     0.286 C 
BRANCH  27  28
HETATM   28  C4  UNL     1      14.719   9.805   7.973  1.00  0.00     0.308 C 
HETATM   29  O2  UNL     1      15.808   9.215   8.126  1.00  0.00    -0.264 OA
HETATM   30  N3  UNL     1      14.199  10.573   9.043  1.00  0.00    -0.076 N 
HETATM   31  O3  UNL     1      14.813  10.657  10.103  1.00  0.00    -0.529 OA
HETATM   32  O4  UNL     1      13.004  11.253   8.954  1.00  0.00    -0.529 OA
ENDBRANCH  27  28
ENDBRANCH  26  27
ENDBRANCH   4  26
BRANCH   1  33
HETATM   33  N1  UNL     1      17.736   7.724   4.034  1.00  0.00    -0.234 N 
ATOM     34  H12 UNL     1      17.822   7.261   4.939  1.00  0.00     0.174 HD
ATOM     35  H11 UNL     1      18.395   7.520   3.282  1.00  0.00     0.174 HD
ENDBRANCH   1  33
TORSDOF 11
ENDMDL
MODEL 2
REMARK VINA RESULT: -8.346540633      3.429      6.816
REMARK  11 active torsions:
REMARK  status: ('A' for Active; 'I' for Inactive)
REMARK    1  A    between atoms: N1_1  and  C1_4 
REMARK    2  A    between atoms: C2_7  and  O1_8 
REMARK    3  A    between atoms: O1_8  and  C3_9 
REMARK    4  A    between atoms: C3_9  and  C4_10 
REMARK       I    between atoms: C4_10  and  N3_12 
REMARK    5  A    between atoms: C6_16  and  C7_17 
REMARK    6  A    between atoms: C8_19  and  N4_20 
REMARK    7  A    between atoms: C9_25  and  C10_26 
REMARK    8  A    between atoms: C10_26  and  O6_28 
REMARK    9  A    between atoms: O6_28  and  C11_29 
REMARK   10  A    between atoms: C11_29  and  O7_30 
REMARK   11  A    between atoms: O7_30  and  N6_31 
ROOT
HETATM    1  C1  UNL     1      18.877   7.157   4.379  1.00  0.00     0.678 A 
HETATM    2  N2  UNL     1      19.546   7.771   3.402  1.00  0.00    -0.171 N 
ATOM      3  H2  UNL     1      20.426   7.383   3.062  1.00  0.00     0.186 HD
HETATM    4  C2  UNL     1      19.060   8.902   2.868  1.00  0.00     0.160 A 
HETATM    5  C5  UNL     1      17.842   9.414   3.360  1.00  0.00     0.088 A 
HETATM    6  C6  UNL     1      17.149   8.813   4.348  1.00  0.00     0.073 A 
HETATM    7  N7  UNL     1      17.732   7.655   4.831  1.00  0.00    -0.191 N 
ATOM      8  H7  UNL     1      17.254   7.154   5.580  1.00  0.00     0.184 HD
ENDROOT
BRANCH   6   9
HETATM    9  C7  UNL     1      15.937   9.258   5.010  1.00  0.00     0.068 A 
HETATM   10  S1  UNL     1      15.795   9.214   6.773  1.00  0.00    -0.050 SA
HETATM   11  C8  UNL     1      14.249   9.874   6.909  1.00  0.00     0.143 A 
HETATM   12  N5  UNL     1      13.903  10.102   5.654  1.00  0.00    -0.331 N 
HETATM   13  C9  UNL     1      14.747   9.799   4.680  1.00  0.00     0.130 A 
ATOM     14  H5  UNL     1      12.993  10.509   5.437  1.00  0.00     0.168 HD
BRANCH  11  15
HETATM   15  N4  UNL     1      13.543  10.112   7.998  1.00  0.00    -0.380 N 
ATOM     16  H42 UNL     1      13.240  11.017   8.361  1.00  0.00     0.158 HD
ATOM     17  H41 UNL     1      13.169   9.449   8.677  1.00  0.00     0.158 HD
ENDBRANCH  11  15
BRANCH  13  18
HETATM   18  C10 UNL     1      14.373  10.151   3.277  1.00  0.00     0.313 C 
HETATM   19  O5  UNL     1      14.216  11.285   2.871  1.00  0.00    -0.257 OA
BRANCH  18  20
HETATM   20  O6  UNL     1      14.174   9.149   2.313  1.00  0.00    -0.288 OA
BRANCH  20  21
HETATM   21  C11 UNL     1      12.976   8.394   2.274  1.00  0.00     0.379 C 
BRANCH  21  22
HETATM   22  O7  UNL     1      13.340   7.138   1.801  1.00  0.00    -0.261 OA
BRANCH  22  23
HETATM   23  N6  UNL     1      14.390   7.204   0.942  1.00  0.00    -0.309 N 
ATOM     24  H62 UNL     1      14.312   7.562  -0.010  1.00  0.00     0.184 HD
ATOM     25  H61 UNL     1      15.251   6.856   1.365  1.00  0.00     0.184 HD
ENDBRANCH  22  23
ENDBRANCH  21  22
ENDBRANCH  20  21
ENDBRANCH  18  20
ENDBRANCH  13  18
ENDBRANCH   6   9
BRANCH   4  26
HETATM   26  O1  UNL     1      19.739   9.548   1.858  1.00  0.00    -0.326 OA
BRANCH  26  27
HETATM   27  C3  UNL     1      20.154  10.887   2.048  1.00  0.00     0.286 C 
BRANCH  27  28
HETATM   28  C4  UNL     1      19.853  11.718   0.856  1.00  0.00     0.308 C 
HETATM   29  O2  UNL     1      20.610  11.751  -0.136  1.00  0.00    -0.264 OA
HETATM   30  N3  UNL     1      18.672  12.500   0.844  1.00  0.00    -0.076 N 
HETATM   31  O3  UNL     1      18.399  13.197  -0.129  1.00  0.00    -0.529 OA
HETATM   32  O4  UNL     1      17.786  12.519   1.899  1.00  0.00    -0.529 OA
ENDBRANCH  27  28
ENDBRANCH  26  27
ENDBRANCH   4  26
BRANCH   1  33
HETATM   33  N1  UNL     1      19.385   6.057   4.872  1.00  0.00    -0.234 N 
ATOM     34  H12 UNL     1      20.356   6.011   5.181  1.00  0.00     0.174 HD
ATOM     35  H11 UNL     1      18.780   5.238   4.939  1.00  0.00     0.174 HD
ENDBRANCH   1  33
TORSDOF 11
ENDMDL
MODEL 3
REMARK VINA RESULT: -8.338489959      2.957      7.571
REMARK  11 active torsions:
REMARK  status: ('A' for Active; 'I' for Inactive)
REMARK    1  A    between atoms: N1_1  and  C1_4 
REMARK    2  A    between atoms: C2_7  and  O1_8 
REMARK    3  A    between atoms: O1_8  and  C3_9 
REMARK    4  A    between atoms: C3_9  and  C4_10 
REMARK       I    between atoms: C4_10  and  N3_12 
REMARK    5  A    between atoms: C6_16  and  C7_17 
REMARK    6  A    between atoms: C8_19  and  N4_20 
REMARK    7  A    between atoms: C9_25  and  C10_26 
REMARK    8  A    between atoms: C10_26  and  O6_28 
REMARK    9  A    between atoms: O6_28  and  C11_29 
REMARK   10  A    between atoms: C11_29  and  O7_30 
REMARK   11  A    between atoms: O7_30  and  N6_31 
ROOT
HETATM    1  C1  UNL     1      16.578  11.025  -0.246  1.00  0.00     0.678 A 
HETATM    2  N2  UNL     1      15.623  10.848  -1.160  1.00  0.00    -0.171 N 
ATOM      3  H2  UNL     1      15.826  11.003  -2.147  1.00  0.00     0.186 HD
HETATM    4  C2  UNL     1      14.395  10.467  -0.778  1.00  0.00     0.160 A 
HETATM    5  C5  UNL     1      14.146  10.260   0.594  1.00  0.00     0.088 A 
HETATM    6  C6  UNL     1      15.094  10.436   1.538  1.00  0.00     0.073 A 
HETATM    7  N7  UNL     1      16.325  10.828   1.044  1.00  0.00    -0.191 N 
ATOM      8  H7  UNL     1      17.083  10.976   1.709  1.00  0.00     0.184 HD
ENDROOT
BRANCH   6   9
HETATM    9  C7  UNL     1      14.969  10.344   2.981  1.00  0.00     0.068 A 
HETATM   10  S1  UNL     1      13.865   9.180   3.726  1.00  0.00    -0.050 SA
HETATM   11  C8  UNL     1      14.205   9.523   5.341  1.00  0.00     0.143 A 
HETATM   12  N5  UNL     1      15.118  10.475   5.266  1.00  0.00    -0.331 N 
HETATM   13  C9  UNL     1      15.519  10.901   4.079  1.00  0.00     0.130 A 
ATOM     14  H5  UNL     1      15.511  10.880   6.117  1.00  0.00     0.168 HD
BRANCH  11  15
HETATM   15  N4  UNL     1      13.692   8.979   6.429  1.00  0.00    -0.380 N 
ATOM     16  H42 UNL     1      12.889   8.353   6.496  1.00  0.00     0.158 HD
ATOM     17  H41 UNL     1      13.995   9.078   7.398  1.00  0.00     0.158 HD
ENDBRANCH  11  15
BRANCH  13  18
HETATM   18  C10 UNL     1      16.617  11.911   4.017  1.00  0.00     0.313 C 
HETATM   19  O5  UNL     1      16.475  13.061   3.649  1.00  0.00    -0.257 OA
BRANCH  18  20
HETATM   20  O6  UNL     1      17.927  11.574   4.394  1.00  0.00    -0.288 OA
BRANCH  20  21
HETATM   21  C11 UNL     1      18.722  10.712   3.599  1.00  0.00     0.379 C 
BRANCH  21  22
HETATM   22  O7  UNL     1      18.892  11.371   2.386  1.00  0.00    -0.261 OA
BRANCH  22  23
HETATM   23  N6  UNL     1      20.188  11.716   2.173  1.00  0.00    -0.309 N 
ATOM     24  H62 UNL     1      20.862  11.851   2.927  1.00  0.00     0.184 HD
ATOM     25  H61 UNL     1      20.396  11.821   1.180  1.00  0.00     0.184 HD
ENDBRANCH  22  23
ENDBRANCH  21  22
ENDBRANCH  20  21
ENDBRANCH  18  20
ENDBRANCH  13  18
ENDBRANCH   6   9
BRANCH   4  26
HETATM   26  O1  UNL     1      13.398  10.279  -1.710  1.00  0.00    -0.326 OA
BRANCH  26  27
HETATM   27  C3  UNL     1      13.411   9.116  -2.515  1.00  0.00     0.286 C 
BRANCH  27  28
HETATM   28  C4  UNL     1      13.422   9.460  -3.959  1.00  0.00     0.308 C 
HETATM   29  O2  UNL     1      12.385   9.433  -4.653  1.00  0.00    -0.264 OA
HETATM   30  N3  UNL     1      14.647   9.829  -4.568  1.00  0.00    -0.076 N 
HETATM   31  O3  UNL     1      14.684  10.117  -5.761  1.00  0.00    -0.529 OA
HETATM   32  O4  UNL     1      15.833   9.882  -3.871  1.00  0.00    -0.529 OA
ENDBRANCH  27  28
ENDBRANCH  26  27
ENDBRANCH   4  26
BRANCH   1  33
HETATM   33  N1  UNL     1      17.762  11.397  -0.659  1.00  0.00    -0.234 N 
ATOM     34  H12 UNL     1      17.875  12.135  -1.354  1.00  0.00     0.174 HD
ATOM     35  H11 UNL     1      18.577  10.924  -0.267  1.00  0.00     0.174 HD
ENDBRANCH   1  33
TORSDOF 11
ENDMDL
MODEL 4
REMARK VINA RESULT: -8.316068863      3.092      6.548
REMARK  11 active torsions:
REMARK  status: ('A' for Active; 'I' for Inactive)
REMARK    1  A    between atoms: N1_1  and  C1_4 
REMARK    2  A    between atoms: C2_7  and  O1_8 
REMARK    3  A    between atoms: O1_8  and  C3_9 
REMARK    4  A    between atoms: C3_9  and  C4_10 
REMARK       I    between atoms: C4_10  and  N3_12 
REMARK    5  A    between atoms: C6_16  and  C7_17 
REMARK    6  A    between atoms: C8_19  and  N4_20 
REMARK    7  A    between atoms: C9_25  and  C10_26 
REMARK    8  A    between atoms: C10_26  and  O6_28 
REMARK    9  A    between atoms: O6_28  and  C11_29 
REMARK   10  A    between atoms: C11_29  and  O7_30 
REMARK   11  A    between atoms: O7_30  and  N6_31 
ROOT
HETATM    1  C1  UNL     1      18.737   7.133   4.316  1.00  0.00     0.678 A 
HETATM    2  N2  UNL     1      19.461   7.756   3.385  1.00  0.00    -0.171 N 
ATOM      3  H2  UNL     1      20.287   7.304   2.992  1.00  0.00     0.186 HD
HETATM    4  C2  UNL     1      19.101   8.979   2.966  1.00  0.00     0.160 A 
HETATM    5  C5  UNL     1      17.954   9.577   3.527  1.00  0.00     0.088 A 
HETATM    6  C6  UNL     1      17.208   8.969   4.472  1.00  0.00     0.073 A 
HETATM    7  N7  UNL     1      17.661   7.713   4.836  1.00  0.00    -0.191 N 
ATOM      8  H7  UNL     1      17.137   7.202   5.546  1.00  0.00     0.184 HD
ENDROOT
BRANCH   6   9
HETATM    9  C7  UNL     1      16.062   9.484   5.197  1.00  0.00     0.068 A 
HETATM   10  S1  UNL     1      15.643   8.859   6.799  1.00  0.00    -0.050 SA
HETATM   11  C8  UNL     1      14.315   9.851   7.107  1.00  0.00     0.143 A 
HETATM   12  N5  UNL     1      14.237  10.602   6.022  1.00  0.00    -0.331 N 
HETATM   13  C9  UNL     1      15.115  10.432   5.046  1.00  0.00     0.130 A 
ATOM     14  H5  UNL     1      13.505  11.308   5.936  1.00  0.00     0.168 HD
BRANCH  11  15
HETATM   15  N4  UNL     1      13.533   9.882   8.169  1.00  0.00    -0.380 N 
ATOM     16  H42 UNL     1      13.679   9.419   9.066  1.00  0.00     0.158 HD
ATOM     17  H41 UNL     1      12.645  10.367   8.297  1.00  0.00     0.158 HD
ENDBRANCH  11  15
BRANCH  13  18
HETATM   18  C10 UNL     1      15.065  11.354   3.872  1.00  0.00     0.313 C 
HETATM   19  O5  UNL     1      15.657  12.413   3.803  1.00  0.00    -0.257 OA
BRANCH  18  20
HETATM   20  O6  UNL     1      14.300  11.034   2.739  1.00  0.00    -0.288 OA
BRANCH  20  21
HETATM   21  C11 UNL     1      14.713  10.025   1.834  1.00  0.00     0.379 C 
BRANCH  21  22
HETATM   22  O7  UNL     1      15.310  10.696   0.772  1.00  0.00    -0.261 OA
BRANCH  22  23
HETATM   23  N6  UNL     1      16.431  10.063   0.338  1.00  0.00    -0.309 N 
ATOM     24  H62 UNL     1      16.633   9.084   0.541  1.00  0.00     0.184 HD
ATOM     25  H61 UNL     1      17.031  10.682  -0.208  1.00  0.00     0.184 HD
ENDBRANCH  22  23
ENDBRANCH  21  22
ENDBRANCH  20  21
ENDBRANCH  18  20
ENDBRANCH  13  18
ENDBRANCH   6   9
BRANCH   4  26
HETATM   26  O1  UNL     1      19.838   9.635   2.004  1.00  0.00    -0.326 OA
BRANCH  26  27
HETATM   27  C3  UNL     1      20.138  11.006   2.176  1.00  0.00     0.286 C 
BRANCH  27  28
HETATM   28  C4  UNL     1      19.917  11.767   0.921  1.00  0.00     0.308 C 
HETATM   29  O2  UNL     1      20.747  11.761  -0.012  1.00  0.00    -0.264 OA
HETATM   30  N3  UNL     1      18.729  12.525   0.777  1.00  0.00    -0.076 N 
HETATM   31  O3  UNL     1      18.522  13.165  -0.251  1.00  0.00    -0.529 OA
HETATM   32  O4  UNL     1      17.765  12.584   1.759  1.00  0.00    -0.529 OA
ENDBRANCH  27  28
ENDBRANCH  26  27
ENDBRANCH   4  26
BRANCH   1  33
HETATM   33  N1  UNL     1      19.122   5.943   4.697  1.00  0.00    -0.234 N 
ATOM     34  H12 UNL     1      19.177   5.692   5.684  1.00  0.00     0.174 HD
ATOM     35  H11 UNL     1      19.371   5.266   3.975  1.00  0.00     0.174 HD
ENDBRANCH   1  33
TORSDOF 11
ENDMDL
MODEL 5
REMARK VINA RESULT: -8.230856066      3.074      7.452
REMARK  11 active torsions:
REMARK  status: ('A' for Active; 'I' for Inactive)
REMARK    1  A    between atoms: N1_1  and  C1_4 
REMARK    2  A    between atoms: C2_7  and  O1_8 
REMARK    3  A    between atoms: O1_8  and  C3_9 
REMARK    4  A    between atoms: C3_9  and  C4_10 
REMARK       I    between atoms: C4_10  and  N3_12 
REMARK    5  A    between atoms: C6_16  and  C7_17 
REMARK    6  A    between atoms: C8_19  and  N4_20 
REMARK    7  A    between atoms: C9_25  and  C10_26 
REMARK    8  A    between atoms: C10_26  and  O6_28 
REMARK    9  A    between atoms: O6_28  and  C11_29 
REMARK   10  A    between atoms: C11_29  and  O7_30 
REMARK   11  A    between atoms: O7_30  and  N6_31 
ROOT
HETATM    1  C1  UNL     1      14.503   7.714   0.860  1.00  0.00     0.678 A 
HETATM    2  N2  UNL     1      14.612   8.459  -0.241  1.00  0.00    -0.171 N 
ATOM      3  H2  UNL     1      14.555   8.022  -1.161  1.00  0.00     0.186 HD
HETATM    4  C2  UNL     1      14.799   9.783  -0.136  1.00  0.00     0.160 A 
HETATM    5  C5  UNL     1      14.874  10.357   1.149  1.00  0.00     0.088 A 
HETATM    6  C6  UNL     1      14.769   9.625   2.277  1.00  0.00     0.073 A 
HETATM    7  N7  UNL     1      14.578   8.271   2.064  1.00  0.00    -0.191 N 
ATOM      8  H7  UNL     1      14.491   7.665   2.879  1.00  0.00     0.184 HD
ENDROOT
BRANCH   6   9
HETATM    9  C7  UNL     1      14.908  10.054   3.657  1.00  0.00     0.068 A 
HETATM   10  S1  UNL     1      13.993   9.267   4.950  1.00  0.00    -0.050 SA
HETATM   11  C8  UNL     1      14.606  10.147   6.251  1.00  0.00     0.143 A 
HETATM   12  N5  UNL     1      15.459  10.981   5.681  1.00  0.00    -0.331 N 
HETATM   13  C9  UNL     1      15.627  10.945   4.369  1.00  0.00     0.130 A 
ATOM     14  H5  UNL     1      15.985  11.646   6.249  1.00  0.00     0.168 HD
BRANCH  11  15
HETATM   15  N4  UNL     1      14.314  10.042   7.534  1.00  0.00    -0.380 N 
ATOM     16  H42 UNL     1      13.407   9.837   7.953  1.00  0.00     0.158 HD
ATOM     17  H41 UNL     1      14.930  10.142   8.341  1.00  0.00     0.158 HD
ENDBRANCH  11  15
BRANCH  13  18
HETATM   18  C10 UNL     1      16.663  11.830   3.758  1.00  0.00     0.313 C 
HETATM   19  O5  UNL     1      16.499  13.007   3.502  1.00  0.00    -0.257 OA
BRANCH  18  20
HETATM   20  O6  UNL     1      17.935  11.331   3.432  1.00  0.00    -0.288 OA
BRANCH  20  21
HETATM   21  C11 UNL     1      18.324  11.135   2.084  1.00  0.00     0.379 C 
BRANCH  21  22
HETATM   22  O7  UNL     1      19.225  12.155   1.801  1.00  0.00    -0.261 OA
BRANCH  22  23
HETATM   23  N6  UNL     1      18.639  13.180   1.130  1.00  0.00    -0.309 N 
ATOM     24  H62 UNL     1      17.657  13.175   0.851  1.00  0.00     0.184 HD
ATOM     25  H61 UNL     1      19.294  13.940   0.946  1.00  0.00     0.184 HD
ENDBRANCH  22  23
ENDBRANCH  21  22
ENDBRANCH  20  21
ENDBRANCH  18  20
ENDBRANCH  13  18
ENDBRANCH   6   9
BRANCH   4  26
HETATM   26  O1  UNL     1      14.913  10.566  -1.265  1.00  0.00    -0.326 OA
BRANCH  26  27
HETATM   27  C3  UNL     1      15.057   9.945  -2.527  1.00  0.00     0.286 C 
BRANCH  27  28
HETATM   28  C4  UNL     1      13.744   9.778  -3.198  1.00  0.00     0.308 C 
HETATM   29  O2  UNL     1      12.674   9.734  -2.557  1.00  0.00    -0.264 OA
HETATM   30  N3  UNL     1      13.704   9.664  -4.609  1.00  0.00    -0.076 N 
HETATM   31  O3  UNL     1      12.631   9.524  -5.190  1.00  0.00    -0.529 OA
HETATM   32  O4  UNL     1      14.839   9.703  -5.388  1.00  0.00    -0.529 OA
ENDBRANCH  27  28
ENDBRANCH  26  27
ENDBRANCH   4  26
BRANCH   1  33
HETATM   33  N1  UNL     1      14.321   6.427   0.715  1.00  0.00    -0.234 N 
ATOM     34  H12 UNL     1      14.678   5.928  -0.101  1.00  0.00     0.174 HD
ATOM     35  H11 UNL     1      13.808   5.930   1.444  1.00  0.00     0.174 HD
ENDBRANCH   1  33
TORSDOF 11
ENDMDL
