MODEL 1
REMARK VINA RESULT: -8.937220250      0.000      0.000
REMARK  10 active torsions:
REMARK  status: ('A' for Active; 'I' for Inactive)
REMARK       I    between atoms: C2_2  and  N1_4 
REMARK    1  A    between atoms: N1_4  and  N2_6 
REMARK    2  A    between atoms: N2_6  and  C3_8 
REMARK    3  A    between atoms: C3_8  and  C4_13 
REMARK    4  A    between atoms: N3_9  and  O2_11 
REMARK    5  A    between atoms: N6_24  and  O4_26 
REMARK    6  A    between atoms: O4_26  and  C11_27 
REMARK    7  A    between atoms: C11_27  and  C12_28 
REMARK    8  A    between atoms: C12_28  and  N7_30 
REMARK    9  A    between atoms: N7_30  and  N8_32 
REMARK   10  A    between atoms: N8_32  and  O5_34 
ROOT
HETATM    1  C4  UNL     1      15.109  10.090   4.872  1.00  0.00     0.089 A 
HETATM    2  C5  UNL     1      16.176  10.959   4.613  1.00  0.00     0.108 A 
HETATM    3  C6  UNL     1      16.480  11.340   3.339  1.00  0.00     0.249 A 
HETATM    4  O3  UNL     1      17.448  12.127   3.128  1.00  0.00    -0.268 OA
HETATM    5  N4  UNL     1      15.723  10.850   2.350  1.00  0.00    -0.308 N 
ATOM      6  H4  UNL     1      15.926  11.116   1.386  1.00  0.00     0.170 HD
HETATM    7  C7  UNL     1      14.682  10.000   2.609  1.00  0.00     0.136 A 
HETATM    8  N5  UNL     1      14.362   9.610   3.860  1.00  0.00    -0.328 N 
HETATM    9  C8  UNL     1      13.238   8.721   3.885  1.00  0.00     0.137 A 
HETATM   10  C9  UNL     1      12.781   8.617   2.448  1.00  0.00     0.083 A 
HETATM   11  C10 UNL     1      13.760   9.389   1.659  1.00  0.00     0.078 A 
HETATM   12  N6  UNL     1      13.812   9.524   0.366  1.00  0.00    -0.267 N 
ATOM     13  H6  UNL     1      13.105   9.043  -0.191  1.00  0.00     0.194 HD
ENDROOT
BRANCH   1  14
HETATM   14  C3  UNL     1      14.825   9.752   6.253  1.00  0.00     0.167 C 
HETATM   15  N3  UNL     1      15.613   8.905   6.847  1.00  0.00    -0.250 N 
ATOM     16  H3  UNL     1      15.411   8.642   7.812  1.00  0.00     0.196 HD
BRANCH  14  17
HETATM   17  N2  UNL     1      13.744  10.241   7.015  1.00  0.00    -0.280 N 
ATOM     18  H2  UNL     1      12.782  10.077   6.720  1.00  0.00     0.189 HD
BRANCH  17  19
HETATM   19  N1  UNL     1      14.019  10.958   8.187  1.00  0.00    -0.269 N 
HETATM   20  C2  UNL     1      13.560  10.533   9.452  1.00  0.00     0.232 C 
HETATM   21  C1  UNL     1      13.855  11.296  10.690  1.00  0.00     0.119 C 
HETATM   22  O1  UNL     1      12.885   9.479   9.524  1.00  0.00    -0.272 OA
ATOM     23  H1  UNL     1      14.569  11.815   8.124  1.00  0.00     0.190 HD
ENDBRANCH  17  19
ENDBRANCH  14  17
BRANCH  15  24
HETATM   24  O2  UNL     1      16.682   8.361   6.240  1.00  0.00    -0.288 OA
ATOM     25  H2  UNL     1      17.502   8.205   6.691  1.00  0.00     0.244 HD
ENDBRANCH  15  24
ENDBRANCH   1  14
BRANCH  12  26
HETATM   26  O4  UNL     1      14.739  10.257  -0.291  1.00  0.00    -0.278 OA
BRANCH  26  27
HETATM   27  C11 UNL     1      15.435   9.767  -1.416  1.00  0.00     0.227 C 
BRANCH  27  28
HETATM   28  C12 UNL     1      14.851  10.309  -2.710  1.00  0.00     0.123 C 
HETATM   29  C13 UNL     1      13.661   9.458  -3.101  1.00  0.00     0.036 C 
BRANCH  28  30
HETATM   30  N7  UNL     1      15.865  10.211  -3.728  1.00  0.00    -0.311 N 
ATOM     31  H7  UNL     1      16.846  10.131  -3.462  1.00  0.00     0.182 HD
BRANCH  30  32
HETATM   32  N8  UNL     1      15.512  10.227  -5.071  1.00  0.00    -0.214 N 
ATOM     33  H8  UNL     1      14.580  10.558  -5.320  1.00  0.00     0.215 HD
BRANCH  32  34
HETATM   34  O5  UNL     1      16.275   9.857  -5.992  1.00  0.00    -0.275 OA
ATOM     35  H5  UNL     1      16.220   9.004  -6.408  1.00  0.00     0.246 HD
ENDBRANCH  32  34
ENDBRANCH  30  32
ENDBRANCH  28  30
ENDBRANCH  27  28
ENDBRANCH  26  27
ENDBRANCH  12  26
TORSDOF 10
ENDMDL
MODEL 2
REMARK VINA RESULT: -8.930827599      1.787      2.984
REMARK  10 active torsions:
REMARK  status: ('A' for Active; 'I' for Inactive)
REMARK       I    between atoms: C2_2  and  N1_4 
REMARK    1  A    between atoms: N1_4  and  N2_6 
REMARK    2  A    between atoms: N2_6  and  C3_8 
REMARK    3  A    between atoms: C3_8  and  C4_13 
REMARK    4  A    between atoms: N3_9  and  O2_11 
REMARK    5  A    between atoms: N6_24  and  O4_26 
REMARK    6  A    between atoms: O4_26  and  C11_27 
REMARK    7  A    between atoms: C11_27  and  C12_28 
REMARK    8  A    between atoms: C12_28  and  N7_30 
REMARK    9  A    between atoms: N7_30  and  N8_32 
REMARK   10  A    between atoms: N8_32  and  O5_34 
ROOT
HETATM    1  C4  UNL     1      15.218   9.533   3.229  1.00  0.00     0.089 A 
HETATM    2  C5  UNL     1      13.938   8.969   3.179  1.00  0.00     0.108 A 
HETATM    3  C6  UNL     1      13.231   8.930   2.012  1.00  0.00     0.249 A 
HETATM    4  O3  UNL     1      12.077   8.415   1.989  1.00  0.00    -0.268 OA
HETATM    5  N4  UNL     1      13.807   9.452   0.923  1.00  0.00    -0.308 N 
ATOM      6  H4  UNL     1      13.304   9.439   0.036  1.00  0.00     0.170 HD
HETATM    7  C7  UNL     1      15.058  10.004   0.979  1.00  0.00     0.136 A 
HETATM    8  N5  UNL     1      15.776  10.053   2.120  1.00  0.00    -0.328 N 
HETATM    9  C8  UNL     1      17.055  10.674   1.936  1.00  0.00     0.137 A 
HETATM   10  C9  UNL     1      17.139  10.980   0.457  1.00  0.00     0.083 A 
HETATM   11  C10 UNL     1      15.829  10.601  -0.106  1.00  0.00     0.078 A 
HETATM   12  N6  UNL     1      15.415  10.752  -1.330  1.00  0.00    -0.267 N 
ATOM     13  H6  UNL     1      16.053  11.185  -1.997  1.00  0.00     0.194 HD
ENDROOT
BRANCH   1  14
HETATM   14  C3  UNL     1      15.922   9.513   4.496  1.00  0.00     0.167 C 
HETATM   15  N3  UNL     1      16.793   8.568   4.694  1.00  0.00    -0.250 N 
ATOM     16  H3  UNL     1      17.279   8.530   5.590  1.00  0.00     0.196 HD
BRANCH  14  17
HETATM   17  N2  UNL     1      15.731  10.419   5.560  1.00  0.00    -0.280 N 
ATOM     18  H2  UNL     1      16.364  11.208   5.693  1.00  0.00     0.189 HD
BRANCH  17  19
HETATM   19  N1  UNL     1      14.652  10.214   6.431  1.00  0.00    -0.269 N 
HETATM   20  C2  UNL     1      14.765   9.416   7.590  1.00  0.00     0.232 C 
HETATM   21  C1  UNL     1      13.620   9.202   8.509  1.00  0.00     0.119 C 
HETATM   22  O1  UNL     1      15.869   8.878   7.844  1.00  0.00    -0.272 OA
ATOM     23  H1  UNL     1      13.757  10.654   6.220  1.00  0.00     0.190 HD
ENDBRANCH  17  19
ENDBRANCH  14  17
BRANCH  15  24
HETATM   24  O2  UNL     1      17.076   7.637   3.766  1.00  0.00    -0.288 OA
ATOM     25  H2  UNL     1      17.886   7.143   3.768  1.00  0.00     0.244 HD
ENDBRANCH  15  24
ENDBRANCH   1  14
BRANCH  12  26
HETATM   26  O4  UNL     1      14.197  10.372  -1.779  1.00  0.00    -0.278 OA
BRANCH  26  27
HETATM   27  C11 UNL     1      14.007   9.223  -2.575  1.00  0.00     0.227 C 
BRANCH  27  28
HETATM   28  C12 UNL     1      13.531   9.588  -3.971  1.00  0.00     0.123 C 
HETATM   29  C13 UNL     1      12.221   8.878  -4.242  1.00  0.00     0.036 C 
BRANCH  28  30
HETATM   30  N7  UNL     1      14.525   9.135  -4.910  1.00  0.00    -0.311 N 
ATOM     31  H7  UNL     1      14.355   8.298  -5.466  1.00  0.00     0.182 HD
BRANCH  30  32
HETATM   32  N8  UNL     1      15.715   9.835  -5.060  1.00  0.00    -0.214 N 
ATOM     33  H8  UNL     1      16.043  10.401  -4.277  1.00  0.00     0.215 HD
BRANCH  32  34
HETATM   34  O5  UNL     1      16.407   9.808  -6.102  1.00  0.00    -0.275 OA
ATOM     35  H5  UNL     1      16.247  10.367  -6.854  1.00  0.00     0.246 HD
ENDBRANCH  32  34
ENDBRANCH  30  32
ENDBRANCH  28  30
ENDBRANCH  27  28
ENDBRANCH  26  27
ENDBRANCH  12  26
TORSDOF 10
ENDMDL
MODEL 3
REMARK VINA RESULT: -8.909208803      2.239      3.229
REMARK  10 active torsions:
REMARK  status: ('A' for Active; 'I' for Inactive)
REMARK       I    between atoms: C2_2  and  N1_4 
REMARK    1  A    between atoms: N1_4  and  N2_6 
REMARK    2  A    between atoms: N2_6  and  C3_8 
REMARK    3  A    between atoms: C3_8  and  C4_13 
REMARK    4  A    between atoms: N3_9  and  O2_11 
REMARK    5  A    between atoms: N6_24  and  O4_26 
REMARK    6  A    between atoms: O4_26  and  C11_27 
REMARK    7  A    between atoms: C11_27  and  C12_28 
REMARK    8  A    between atoms: C12_28  and  N7_30 
REMARK    9  A    between atoms: N7_30  and  N8_32 
REMARK   10  A    between atoms: N8_32  and  O5_34 
ROOT
HETATM    1  C4  UNL     1      15.129   9.539   3.453  1.00  0.00     0.089 A 
HETATM    2  C5  UNL     1      13.911   8.874   3.263  1.00  0.00     0.108 A 
HETATM    3  C6  UNL     1      13.398   8.689   2.013  1.00  0.00     0.249 A 
HETATM    4  O3  UNL     1      12.296   8.085   1.865  1.00  0.00    -0.268 OA
HETATM    5  N4  UNL     1      14.100   9.167   0.979  1.00  0.00    -0.308 N 
ATOM      6  H4  UNL     1      13.742   9.045   0.031  1.00  0.00     0.170 HD
HETATM    7  C7  UNL     1      15.288   9.818   1.170  1.00  0.00     0.136 A 
HETATM    8  N5  UNL     1      15.816  10.012   2.396  1.00  0.00    -0.328 N 
HETATM    9  C8  UNL     1      17.065  10.715   2.349  1.00  0.00     0.137 A 
HETATM   10  C9  UNL     1      17.357  10.909   0.878  1.00  0.00     0.083 A 
HETATM   11  C10 UNL     1      16.177  10.386   0.163  1.00  0.00     0.078 A 
HETATM   12  N6  UNL     1      15.948  10.408  -1.118  1.00  0.00    -0.267 N 
ATOM     13  H6  UNL     1      16.652  10.836  -1.719  1.00  0.00     0.194 HD
ENDROOT
BRANCH   1  14
HETATM   14  C3  UNL     1      15.628   9.674   4.806  1.00  0.00     0.167 C 
HETATM   15  N3  UNL     1      16.541   8.838   5.205  1.00  0.00    -0.250 N 
ATOM     16  H3  UNL     1      16.885   8.909   6.163  1.00  0.00     0.196 HD
BRANCH  14  17
HETATM   17  N2  UNL     1      15.192  10.622   5.755  1.00  0.00    -0.280 N 
ATOM     18  H2  UNL     1      15.616  11.548   5.799  1.00  0.00     0.189 HD
BRANCH  17  19
HETATM   19  N1  UNL     1      14.163  10.265   6.637  1.00  0.00    -0.269 N 
HETATM   20  C2  UNL     1      14.420   9.633   7.873  1.00  0.00     0.232 C 
HETATM   21  C1  UNL     1      13.327   9.257   8.803  1.00  0.00     0.119 C 
HETATM   22  O1  UNL     1      15.609   9.386   8.187  1.00  0.00    -0.272 OA
ATOM     23  H1  UNL     1      13.198  10.468   6.378  1.00  0.00     0.190 HD
ENDBRANCH  17  19
ENDBRANCH  14  17
BRANCH  15  24
HETATM   24  O2  UNL     1      17.048   7.884   4.405  1.00  0.00    -0.288 OA
ATOM     25  H2  UNL     1      17.689   7.251   4.706  1.00  0.00     0.244 HD
ENDBRANCH  15  24
ENDBRANCH   1  14
BRANCH  12  26
HETATM   26  O4  UNL     1      14.842   9.900  -1.706  1.00  0.00    -0.278 OA
BRANCH  26  27
HETATM   27  C11 UNL     1      14.273  10.465  -2.867  1.00  0.00     0.227 C 
BRANCH  27  28
HETATM   28  C12 UNL     1      14.169   9.445  -3.988  1.00  0.00     0.123 C 
HETATM   29  C13 UNL     1      15.203   9.772  -5.044  1.00  0.00     0.036 C 
BRANCH  28  30
HETATM   30  N7  UNL     1      12.850   9.549  -4.559  1.00  0.00    -0.311 N 
ATOM     31  H7  UNL     1      12.546  10.428  -4.978  1.00  0.00     0.182 HD
BRANCH  30  32
HETATM   32  N8  UNL     1      11.992   8.458  -4.541  1.00  0.00    -0.214 N 
ATOM     33  H8  UNL     1      12.362   7.550  -4.821  1.00  0.00     0.215 HD
BRANCH  32  34
HETATM   34  O5  UNL     1      10.790   8.528  -4.199  1.00  0.00    -0.275 OA
ATOM     35  H5  UNL     1      10.121   7.926  -4.505  1.00  0.00     0.246 HD
ENDBRANCH  32  34
ENDBRANCH  30  32
ENDBRANCH  28  30
ENDBRANCH  27  28
ENDBRANCH  26  27
ENDBRANCH  12  26
TORSDOF 10
ENDMDL
MODEL 4
REMARK VINA RESULT: -8.895974532      2.145      8.949
REMARK  10 active torsions:
REMARK  status: ('A' for Active; 'I' for Inactive)
REMARK       I    between atoms: C2_2  and  N1_4 
REMARK    1  A    between atoms: N1_4  and  N2_6 
REMARK    2  A    between atoms: N2_6  and  C3_8 
REMARK    3  A    between atoms: C3_8  and  C4_13 
REMARK    4  A    between atoms: N3_9  and  O2_11 
REMARK    5  A    between atoms: N6_24  and  O4_26 
REMARK    6  A    between atoms: O4_26  and  C11_27 
REMARK    7  A    between atoms: C11_27  and  C12_28 
REMARK    8  A    between atoms: C12_28  and  N7_30 
REMARK    9  A    between atoms: N7_30  and  N8_32 
REMARK   10  A    between atoms: N8_32  and  O5_34 
ROOT
HETATM    1  C4  UNL     1      14.302   9.199   1.272  1.00  0.00     0.089 A 
HETATM    2  C5  UNL     1      12.938   9.067   1.560  1.00  0.00     0.108 A 
HETATM    3  C6  UNL     1      12.487   9.078   2.848  1.00  0.00     0.249 A 
HETATM    4  O3  UNL     1      11.251   8.958   3.086  1.00  0.00    -0.268 OA
HETATM    5  N4  UNL     1      13.396   9.217   3.820  1.00  0.00    -0.308 N 
ATOM      6  H4  UNL     1      13.090   9.228   4.793  1.00  0.00     0.170 HD
HETATM    7  C7  UNL     1      14.728   9.344   3.532  1.00  0.00     0.136 A 
HETATM    8  N5  UNL     1      15.197   9.336   2.268  1.00  0.00    -0.328 N 
HETATM    9  C8  UNL     1      16.622   9.485   2.212  1.00  0.00     0.137 A 
HETATM   10  C9  UNL     1      17.059   9.674   3.648  1.00  0.00     0.083 A 
HETATM   11  C10 UNL     1      15.839   9.513   4.462  1.00  0.00     0.078 A 
HETATM   12  N6  UNL     1      15.741   9.522   5.759  1.00  0.00    -0.267 N 
ATOM     13  H6  UNL     1      16.597   9.650   6.299  1.00  0.00     0.194 HD
ENDROOT
BRANCH   1  14
HETATM   14  C3  UNL     1      14.706   9.208  -0.120  1.00  0.00     0.167 C 
HETATM   15  N3  UNL     1      14.843   8.064  -0.723  1.00  0.00    -0.250 N 
ATOM     16  H3  UNL     1      15.148   8.057  -1.697  1.00  0.00     0.196 HD
BRANCH  14  17
HETATM   17  N2  UNL     1      14.996  10.357  -0.886  1.00  0.00    -0.280 N 
ATOM     18  H2  UNL     1      14.834  11.290  -0.507  1.00  0.00     0.189 HD
BRANCH  17  19
HETATM   19  N1  UNL     1      15.509  10.190  -2.179  1.00  0.00    -0.269 N 
HETATM   20  C2  UNL     1      14.672   9.983  -3.297  1.00  0.00     0.232 C 
HETATM   21  C1  UNL     1      15.221   9.807  -4.665  1.00  0.00     0.119 C 
HETATM   22  O1  UNL     1      13.431   9.950  -3.122  1.00  0.00    -0.272 OA
ATOM     23  H1  UNL     1      16.519  10.218  -2.317  1.00  0.00     0.190 HD
ENDBRANCH  17  19
ENDBRANCH  14  17
BRANCH  15  24
HETATM   24  O2  UNL     1      14.600   6.891  -0.113  1.00  0.00    -0.288 OA
ATOM     25  H2  UNL     1      14.276   6.130  -0.580  1.00  0.00     0.244 HD
ENDBRANCH  15  24
ENDBRANCH   1  14
BRANCH  12  26
HETATM   26  O4  UNL     1      14.582   9.375   6.441  1.00  0.00    -0.278 OA
BRANCH  26  27
HETATM   27  C11 UNL     1      14.066  10.381   7.285  1.00  0.00     0.227 C 
BRANCH  27  28
HETATM   28  C12 UNL     1      13.689   9.823   8.647  1.00  0.00     0.123 C 
HETATM   29  C13 UNL     1      13.186  10.956   9.516  1.00  0.00     0.036 C 
BRANCH  28  30
HETATM   30  N7  UNL     1      14.876   9.257   9.236  1.00  0.00    -0.311 N 
ATOM     31  H7  UNL     1      15.477   9.835   9.823  1.00  0.00     0.182 HD
BRANCH  30  32
HETATM   32  N8  UNL     1      15.204   7.928   9.006  1.00  0.00    -0.214 N 
ATOM     33  H8  UNL     1      14.781   7.217   9.603  1.00  0.00     0.215 HD
BRANCH  32  34
HETATM   34  O5  UNL     1      15.991   7.555   8.107  1.00  0.00    -0.275 OA
ATOM     35  H5  UNL     1      16.368   6.683   8.068  1.00  0.00     0.246 HD
ENDBRANCH  32  34
ENDBRANCH  30  32
ENDBRANCH  28  30
ENDBRANCH  27  28
ENDBRANCH  26  27
ENDBRANCH  12  26
TORSDOF 10
ENDMDL
MODEL 5
REMARK VINA RESULT: -8.884261129      1.592      2.695
REMARK  10 active torsions:
REMARK  status: ('A' for Active; 'I' for Inactive)
REMARK       I    between atoms: C2_2  and  N1_4 
REMARK    1  A    between atoms: N1_4  and  N2_6 
REMARK    2  A    between atoms: N2_6  and  C3_8 
REMARK    3  A    between atoms: C3_8  and  C4_13 
REMARK    4  A    between atoms: N3_9  and  O2_11 
REMARK    5  A    between atoms: N6_24  and  O4_26 
REMARK    6  A    between atoms: O4_26  and  C11_27 
REMARK    7  A    between atoms: C11_27  and  C12_28 
REMARK    8  A    between atoms: C12_28  and  N7_30 
REMARK    9  A    between atoms: N7_30  and  N8_32 
REMARK   10  A    between atoms: N8_32  and  O5_34 
ROOT
HETATM    1  C4  UNL     1      15.145   9.518   3.710  1.00  0.00     0.089 A 
HETATM    2  C5  UNL     1      14.023   8.747   3.378  1.00  0.00     0.108 A 
HETATM    3  C6  UNL     1      13.670   8.544   2.077  1.00  0.00     0.249 A 
HETATM    4  O3  UNL     1      12.653   7.844   1.800  1.00  0.00    -0.268 OA
HETATM    5  N4  UNL     1      14.433   9.108   1.133  1.00  0.00    -0.308 N 
ATOM      6  H4  UNL     1      14.194   8.974   0.150  1.00  0.00     0.170 HD
HETATM    7  C7  UNL     1      15.527   9.861   1.463  1.00  0.00     0.136 A 
HETATM    8  N5  UNL     1      15.896  10.076   2.742  1.00  0.00    -0.328 N 
HETATM    9  C8  UNL     1      17.071  10.891   2.843  1.00  0.00     0.137 A 
HETATM   10  C9  UNL     1      17.502  11.145   1.416  1.00  0.00     0.083 A 
HETATM   11  C10 UNL     1      16.463  10.531   0.568  1.00  0.00     0.078 A 
HETATM   12  N6  UNL     1      16.375  10.560  -0.730  1.00  0.00    -0.267 N 
ATOM     13  H6  UNL     1      17.097  11.065  -1.243  1.00  0.00     0.194 HD
ENDROOT
BRANCH   1  14
HETATM   14  C3  UNL     1      15.478   9.668   5.113  1.00  0.00     0.167 C 
HETATM   15  N3  UNL     1      16.366   8.863   5.617  1.00  0.00    -0.250 N 
ATOM     16  H3  UNL     1      16.594   8.945   6.608  1.00  0.00     0.196 HD
BRANCH  14  17
HETATM   17  N2  UNL     1      14.901  10.599   6.002  1.00  0.00    -0.280 N 
ATOM     18  H2  UNL     1      15.208  11.571   6.009  1.00  0.00     0.189 HD
BRANCH  17  19
HETATM   19  N1  UNL     1      13.897  10.160   6.875  1.00  0.00    -0.269 N 
HETATM   20  C2  UNL     1      14.182   9.716   8.184  1.00  0.00     0.232 C 
HETATM   21  C1  UNL     1      13.115   9.253   9.105  1.00  0.00     0.119 C 
HETATM   22  O1  UNL     1      15.375   9.717   8.574  1.00  0.00    -0.272 OA
ATOM     23  H1  UNL     1      12.929  10.161   6.555  1.00  0.00     0.190 HD
ENDBRANCH  17  19
ENDBRANCH  14  17
BRANCH  15  24
HETATM   24  O2  UNL     1      16.997   7.929   4.884  1.00  0.00    -0.288 OA
ATOM     25  H2  UNL     1      16.924   7.000   5.067  1.00  0.00     0.244 HD
ENDBRANCH  15  24
ENDBRANCH   1  14
BRANCH  12  26
HETATM   26  O4  UNL     1      15.393   9.965  -1.444  1.00  0.00    -0.278 OA
BRANCH  26  27
HETATM   27  C11 UNL     1      14.427  10.701  -2.164  1.00  0.00     0.227 C 
BRANCH  27  28
HETATM   28  C12 UNL     1      14.280  10.182  -3.584  1.00  0.00     0.123 C 
HETATM   29  C13 UNL     1      13.769   8.757  -3.533  1.00  0.00     0.036 C 
BRANCH  28  30
HETATM   30  N7  UNL     1      15.582  10.202  -4.199  1.00  0.00    -0.311 N 
ATOM     31  H7  UNL     1      16.420  10.163  -3.618  1.00  0.00     0.182 HD
BRANCH  30  32
HETATM   32  N8  UNL     1      15.702  10.276  -5.580  1.00  0.00    -0.214 N 
ATOM     33  H8  UNL     1      15.086  10.914  -6.084  1.00  0.00     0.215 HD
BRANCH  32  34
HETATM   34  O5  UNL     1      16.524   9.602  -6.241  1.00  0.00    -0.275 OA
ATOM     35  H5  UNL     1      16.294   8.816  -6.722  1.00  0.00     0.246 HD
ENDBRANCH  32  34
ENDBRANCH  30  32
ENDBRANCH  28  30
ENDBRANCH  27  28
ENDBRANCH  26  27
ENDBRANCH  12  26
TORSDOF 10
ENDMDL
