MODEL 1
REMARK VINA RESULT: -5.818879115      0.000      0.000
REMARK  6 active torsions:
REMARK  status: ('A' for Active; 'I' for Inactive)
REMARK    1  A    between atoms: C2_2  and  O1_3 
REMARK    2  A    between atoms: O1_3  and  C3_4 
REMARK    3  A    between atoms: C3_4  and  C4_5 
REMARK    4  A    between atoms: C4_5  and  C5_6 
REMARK    5  A    between atoms: C5_6  and  C6_7 
REMARK    6  A    between atoms: C6_7  and  O2_8 
ROOT
HETATM    1  C3  UNL     1       4.920  48.073  48.376  1.00  0.00     0.078 C 
HETATM    2  C7  UNL     1       4.427  47.468  49.645  1.00  0.00     0.089 C 
HETATM    3  C8  UNL     1       4.895  46.105  49.989  1.00  0.00     0.025 C 
HETATM    4  S1  UNL     1       4.805  48.442  51.148  1.00  0.00    -0.090 SA
HETATM    5  S2  UNL     1       5.961  50.140  50.746  1.00  0.00    -0.092 SA
HETATM    6  C9  UNL     1       5.725  50.448  48.977  1.00  0.00     0.065 C 
HETATM    7  C10 UNL     1       5.318  51.895  48.829  1.00  0.00     0.016 C 
HETATM    8  C11 UNL     1       3.875  52.194  48.916  1.00  0.00     0.001 C 
HETATM    9  C12 UNL     1       3.043  51.270  48.013  1.00  0.00     0.001 C 
HETATM   10  C13 UNL     1       3.300  49.900  48.604  1.00  0.00     0.009 C 
HETATM   11  C14 UNL     1       4.775  49.580  48.306  1.00  0.00     0.036 C 
ENDROOT
BRANCH   1  12
HETATM   12  O1  UNL     1       3.900  47.781  47.424  1.00  0.00    -0.379 OA
BRANCH  12  13
HETATM   13  C2  UNL     1       3.997  46.749  46.620  1.00  0.00     0.164 C 
HETATM   14  C1  UNL     1       2.831  45.795  47.010  1.00  0.00     0.033 C 
ENDBRANCH  12  13
ENDBRANCH   1  12
BRANCH   1  15
HETATM   15  C4  UNL     1       6.147  47.506  47.799  1.00  0.00     0.042 C 
BRANCH  15  16
HETATM   16  C5  UNL     1       7.153  48.316  47.120  1.00  0.00     0.029 C 
BRANCH  16  17
HETATM   17  C6  UNL     1       7.585  47.521  45.862  1.00  0.00     0.164 C 
BRANCH  17  18
HETATM   18  O2  UNL     1       8.228  46.352  46.265  1.00  0.00    -0.401 OA
ATOM     19  H2  UNL     1       7.657  45.872  46.853  1.00  0.00     0.209 HD
ENDBRANCH  17  18
ENDBRANCH  16  17
ENDBRANCH  15  16
ENDBRANCH   1  15
TORSDOF 6
ENDMDL
MODEL 2
REMARK VINA RESULT: -5.643020327      2.382      4.284
REMARK  6 active torsions:
REMARK  status: ('A' for Active; 'I' for Inactive)
REMARK    1  A    between atoms: C2_2  and  O1_3 
REMARK    2  A    between atoms: O1_3  and  C3_4 
REMARK    3  A    between atoms: C3_4  and  C4_5 
REMARK    4  A    between atoms: C4_5  and  C5_6 
REMARK    5  A    between atoms: C5_6  and  C6_7 
REMARK    6  A    between atoms: C6_7  and  O2_8 
ROOT
HETATM    1  C3  UNL     1       4.324  48.201  49.381  1.00  0.00     0.078 C 
HETATM    2  C7  UNL     1       3.485  49.313  48.854  1.00  0.00     0.089 C 
HETATM    3  C8  UNL     1       2.735  50.137  49.832  1.00  0.00     0.025 C 
HETATM    4  S1  UNL     1       4.400  50.551  47.864  1.00  0.00    -0.090 SA
HETATM    5  S2  UNL     1       6.459  50.179  47.800  1.00  0.00    -0.092 SA
HETATM    6  C9  UNL     1       6.623  48.429  48.236  1.00  0.00     0.065 C 
HETATM    7  C10 UNL     1       7.467  47.782  47.163  1.00  0.00     0.016 C 
HETATM    8  C11 UNL     1       6.755  47.261  45.979  1.00  0.00     0.001 C 
HETATM    9  C12 UNL     1       5.557  46.384  46.371  1.00  0.00     0.001 C 
HETATM   10  C13 UNL     1       4.653  47.354  47.103  1.00  0.00     0.009 C 
HETATM   11  C14 UNL     1       5.379  47.703  48.414  1.00  0.00     0.036 C 
ENDROOT
BRANCH   1  12
HETATM   12  O1  UNL     1       3.486  47.051  49.290  1.00  0.00    -0.379 OA
BRANCH  12  13
HETATM   13  C2  UNL     1       3.332  46.241  50.312  1.00  0.00     0.164 C 
HETATM   14  C1  UNL     1       1.854  45.759  50.252  1.00  0.00     0.033 C 
ENDBRANCH  12  13
ENDBRANCH   1  12
BRANCH   1  15
HETATM   15  C4  UNL     1       4.715  48.271  50.796  1.00  0.00     0.042 C 
BRANCH  15  16
HETATM   16  C5  UNL     1       5.948  48.908  51.249  1.00  0.00     0.029 C 
BRANCH  16  17
HETATM   17  C6  UNL     1       5.542  50.276  51.852  1.00  0.00     0.164 C 
BRANCH  17  18
HETATM   18  O2  UNL     1       6.178  51.291  51.140  1.00  0.00    -0.401 OA
ATOM     19  H2  UNL     1       7.117  51.157  51.183  1.00  0.00     0.209 HD
ENDBRANCH  17  18
ENDBRANCH  16  17
ENDBRANCH  15  16
ENDBRANCH   1  15
TORSDOF 6
ENDMDL
MODEL 3
REMARK VINA RESULT: -5.608347757      2.107      5.133
REMARK  6 active torsions:
REMARK  status: ('A' for Active; 'I' for Inactive)
REMARK    1  A    between atoms: C2_2  and  O1_3 
REMARK    2  A    between atoms: O1_3  and  C3_4 
REMARK    3  A    between atoms: C3_4  and  C4_5 
REMARK    4  A    between atoms: C4_5  and  C5_6 
REMARK    5  A    between atoms: C5_6  and  C6_7 
REMARK    6  A    between atoms: C6_7  and  O2_8 
ROOT
HETATM    1  C3  UNL     1       4.767  49.415  48.738  1.00  0.00     0.078 C 
HETATM    2  C7  UNL     1       4.951  48.782  50.074  1.00  0.00     0.089 C 
HETATM    3  C8  UNL     1       4.191  49.344  51.216  1.00  0.00     0.025 C 
HETATM    4  S1  UNL     1       4.549  46.998  50.130  1.00  0.00    -0.090 SA
HETATM    5  S2  UNL     1       3.800  46.276  48.313  1.00  0.00    -0.092 SA
HETATM    6  C9  UNL     1       4.343  47.487  47.080  1.00  0.00     0.065 C 
HETATM    7  C10 UNL     1       5.030  46.720  45.976  1.00  0.00     0.016 C 
HETATM    8  C11 UNL     1       6.475  46.468  46.138  1.00  0.00     0.001 C 
HETATM    9  C12 UNL     1       7.241  47.748  46.507  1.00  0.00     0.001 C 
HETATM   10  C13 UNL     1       6.650  48.119  47.852  1.00  0.00     0.009 C 
HETATM   11  C14 UNL     1       5.200  48.550  47.573  1.00  0.00     0.036 C 
ENDROOT
BRANCH   1  12
HETATM   12  O1  UNL     1       5.841  50.347  48.637  1.00  0.00    -0.379 OA
BRANCH  12  13
HETATM   13  C2  UNL     1       5.656  51.624  48.876  1.00  0.00     0.164 C 
HETATM   14  C1  UNL     1       6.622  51.983  50.042  1.00  0.00     0.033 C 
ENDBRANCH  12  13
ENDBRANCH   1  12
BRANCH   1  15
HETATM   15  C4  UNL     1       3.552  50.218  48.541  1.00  0.00     0.042 C 
BRANCH  15  16
HETATM   16  C5  UNL     1       2.212  49.714  48.823  1.00  0.00     0.029 C 
BRANCH  16  17
HETATM   17  C6  UNL     1       1.255  50.929  48.732  1.00  0.00     0.164 C 
BRANCH  17  18
HETATM   18  O2  UNL     1       1.727  51.804  47.755  1.00  0.00    -0.401 OA
ATOM     19  H2  UNL     1       1.062  52.460  47.581  1.00  0.00     0.209 HD
ENDBRANCH  17  18
ENDBRANCH  16  17
ENDBRANCH  15  16
ENDBRANCH   1  15
TORSDOF 6
ENDMDL
MODEL 4
REMARK VINA RESULT: -5.573996802      2.665      5.113
REMARK  6 active torsions:
REMARK  status: ('A' for Active; 'I' for Inactive)
REMARK    1  A    between atoms: C2_2  and  O1_3 
REMARK    2  A    between atoms: O1_3  and  C3_4 
REMARK    3  A    between atoms: C3_4  and  C4_5 
REMARK    4  A    between atoms: C4_5  and  C5_6 
REMARK    5  A    between atoms: C5_6  and  C6_7 
REMARK    6  A    between atoms: C6_7  and  O2_8 
ROOT
HETATM    1  C3  UNL     1       3.872  49.512  49.572  1.00  0.00     0.078 C 
HETATM    2  C7  UNL     1       3.731  48.445  50.602  1.00  0.00     0.089 C 
HETATM    3  C8  UNL     1       2.453  48.371  51.349  1.00  0.00     0.025 C 
HETATM    4  S1  UNL     1       3.954  46.743  49.967  1.00  0.00    -0.090 SA
HETATM    5  S2  UNL     1       4.241  46.680  47.894  1.00  0.00    -0.092 SA
HETATM    6  C9  UNL     1       4.778  48.352  47.454  1.00  0.00     0.065 C 
HETATM    7  C10 UNL     1       6.047  48.214  46.647  1.00  0.00     0.016 C 
HETATM    8  C11 UNL     1       7.316  48.171  47.401  1.00  0.00     0.001 C 
HETATM    9  C12 UNL     1       7.412  49.312  48.425  1.00  0.00     0.001 C 
HETATM   10  C13 UNL     1       6.266  49.015  49.369  1.00  0.00     0.009 C 
HETATM   11  C14 UNL     1       4.978  49.265  48.565  1.00  0.00     0.036 C 
ENDROOT
BRANCH   1  12
HETATM   12  O1  UNL     1       4.529  50.578  50.254  1.00  0.00    -0.379 OA
BRANCH  12  13
HETATM   13  C2  UNL     1       4.044  51.071  51.369  1.00  0.00     0.164 C 
HETATM   14  C1  UNL     1       5.277  51.470  52.230  1.00  0.00     0.033 C 
ENDBRANCH  12  13
ENDBRANCH   1  12
BRANCH   1  15
HETATM   15  C4  UNL     1       2.634  50.105  49.050  1.00  0.00     0.042 C 
BRANCH  15  16
HETATM   16  C5  UNL     1       2.618  51.296  48.206  1.00  0.00     0.029 C 
BRANCH  16  17
HETATM   17  C6  UNL     1       1.161  51.825  48.217  1.00  0.00     0.164 C 
BRANCH  17  18
HETATM   18  O2  UNL     1       0.962  52.625  47.093  1.00  0.00    -0.401 OA
ATOM     19  H2  UNL     1       1.153  53.528  47.319  1.00  0.00     0.209 HD
ENDBRANCH  17  18
ENDBRANCH  16  17
ENDBRANCH  15  16
ENDBRANCH   1  15
TORSDOF 6
ENDMDL
MODEL 5
REMARK VINA RESULT: -5.546627481      1.939      4.311
REMARK  6 active torsions:
REMARK  status: ('A' for Active; 'I' for Inactive)
REMARK    1  A    between atoms: C2_2  and  O1_3 
REMARK    2  A    between atoms: O1_3  and  C3_4 
REMARK    3  A    between atoms: C3_4  and  C4_5 
REMARK    4  A    between atoms: C4_5  and  C5_6 
REMARK    5  A    between atoms: C5_6  and  C6_7 
REMARK    6  A    between atoms: C6_7  and  O2_8 
ROOT
HETATM    1  C3  UNL     1       4.918  49.100  48.235  1.00  0.00     0.078 C 
HETATM    2  C7  UNL     1       5.976  48.750  49.223  1.00  0.00     0.089 C 
HETATM    3  C8  UNL     1       7.049  49.743  49.468  1.00  0.00     0.025 C 
HETATM    4  S1  UNL     1       5.353  48.372  50.902  1.00  0.00    -0.090 SA
HETATM    5  S2  UNL     1       3.284  48.639  51.079  1.00  0.00    -0.092 SA
HETATM    6  C9  UNL     1       2.666  48.578  49.378  1.00  0.00     0.065 C 
HETATM    7  C10 UNL     1       1.544  47.567  49.348  1.00  0.00     0.016 C 
HETATM    8  C11 UNL     1       1.920  46.162  49.098  1.00  0.00     0.001 C 
HETATM    9  C12 UNL     1       2.846  46.024  47.879  1.00  0.00     0.001 C 
HETATM   10  C13 UNL     1       4.077  46.797  48.303  1.00  0.00     0.009 C 
HETATM   11  C14 UNL     1       3.653  48.275  48.357  1.00  0.00     0.036 C 
ENDROOT
BRANCH   1  12
HETATM   12  O1  UNL     1       5.362  48.510  47.016  1.00  0.00    -0.379 OA
BRANCH  12  13
HETATM   13  C2  UNL     1       6.288  49.081  46.283  1.00  0.00     0.164 C 
HETATM   14  C1  UNL     1       7.270  47.945  45.876  1.00  0.00     0.033 C 
ENDBRANCH  12  13
ENDBRANCH   1  12
BRANCH   1  15
HETATM   15  C4  UNL     1       4.742  50.525  47.921  1.00  0.00     0.042 C 
BRANCH  15  16
HETATM   16  C5  UNL     1       3.785  51.379  48.617  1.00  0.00     0.029 C 
BRANCH  16  17
HETATM   17  C6  UNL     1       4.614  52.321  49.526  1.00  0.00     0.164 C 
BRANCH  17  18
HETATM   18  O2  UNL     1       5.662  52.860  48.783  1.00  0.00    -0.401 OA
ATOM     19  H2  UNL     1       5.433  53.745  48.522  1.00  0.00     0.209 HD
ENDBRANCH  17  18
ENDBRANCH  16  17
ENDBRANCH  15  16
ENDBRANCH   1  15
TORSDOF 6
ENDMDL
