MODEL 1
REMARK VINA RESULT: -5.746162224      0.000      0.000
REMARK  6 active torsions:
REMARK  status: ('A' for Active; 'I' for Inactive)
REMARK    1  A    between atoms: C4_8  and  C5_9 
REMARK    2  A    between atoms: C5_9  and  C6_10 
REMARK    3  A    between atoms: C6_10  and  C7_11 
REMARK    4  A    between atoms: C7_11  and  S1_12 
REMARK    5  A    between atoms: S1_12  and  C8_13 
REMARK    6  A    between atoms: C8_13  and  C9_14 
ROOT
HETATM    1  C6  UNL     1       6.735  46.748  46.955  1.00  0.00     0.016 C 
ENDROOT
BRANCH   1   2
HETATM    2  C5  UNL     1       5.287  46.347  46.695  1.00  0.00     0.060 C 
BRANCH   2   3
HETATM    3  C4  UNL     1       4.523  46.270  47.963  1.00  0.00     0.032 A 
HETATM    4  C2  UNL     1       3.216  45.924  48.127  1.00  0.00     0.029 A 
HETATM    5  C1  UNL     1       2.224  45.538  47.108  1.00  0.00     0.070 C 
HETATM    6  N1  UNL     1       2.951  45.991  49.453  1.00  0.00    -0.354 N 
HETATM    7  C3  UNL     1       4.044  46.365  50.111  1.00  0.00     0.180 A 
ATOM      8  H1  UNL     1       2.049  45.786  49.882  1.00  0.00     0.166 HD
HETATM    9  N2  UNL     1       5.003  46.532  49.182  1.00  0.00    -0.354 N 
ATOM     10  H2  UNL     1       5.961  46.820  49.380  1.00  0.00     0.166 HD
ENDBRANCH   2   3
ENDBRANCH   1   2
BRANCH   1  11
HETATM   11  C7  UNL     1       7.075  47.854  45.986  1.00  0.00     0.074 C 
BRANCH  11  12
HETATM   12  S1  UNL     1       6.841  49.439  46.810  1.00  0.00    -0.168 SA
BRANCH  12  13
HETATM   13  C8  UNL     1       7.206  49.412  48.546  1.00  0.00     0.089 C 
BRANCH  13  14
HETATM   14  C9  UNL     1       6.041  49.774  49.427  1.00  0.00     0.066 C 
HETATM   15  C10 UNL     1       4.781  49.990  48.590  1.00  0.00     0.089 C 
HETATM   16  S2  UNL     1       3.684  51.213  49.319  1.00  0.00    -0.167 SA
HETATM   17  C11 UNL     1       4.402  52.875  49.289  1.00  0.00     0.084 C 
HETATM   18  C12 UNL     1       5.909  52.686  49.104  1.00  0.00     0.084 C 
HETATM   19  S3  UNL     1       6.400  51.356  50.233  1.00  0.00    -0.162 SA
ENDBRANCH  13  14
ENDBRANCH  12  13
ENDBRANCH  11  12
ENDBRANCH   1  11
TORSDOF 6
ENDMDL
MODEL 2
REMARK VINA RESULT: -5.740469219      2.897      5.075
REMARK  6 active torsions:
REMARK  status: ('A' for Active; 'I' for Inactive)
REMARK    1  A    between atoms: C4_8  and  C5_9 
REMARK    2  A    between atoms: C5_9  and  C6_10 
REMARK    3  A    between atoms: C6_10  and  C7_11 
REMARK    4  A    between atoms: C7_11  and  S1_12 
REMARK    5  A    between atoms: S1_12  and  C8_13 
REMARK    6  A    between atoms: C8_13  and  C9_14 
ROOT
HETATM    1  C6  UNL     1       7.125  49.377  46.667  1.00  0.00     0.016 C 
ENDROOT
BRANCH   1   2
HETATM    2  C5  UNL     1       7.243  49.139  48.168  1.00  0.00     0.060 C 
BRANCH   2   3
HETATM    3  C4  UNL     1       6.734  50.304  48.931  1.00  0.00     0.032 A 
HETATM    4  C2  UNL     1       6.278  50.325  50.214  1.00  0.00     0.029 A 
HETATM    5  C1  UNL     1       6.170  49.215  51.177  1.00  0.00     0.070 C 
HETATM    6  N1  UNL     1       5.919  51.601  50.488  1.00  0.00    -0.354 N 
HETATM    7  C3  UNL     1       6.136  52.367  49.422  1.00  0.00     0.180 A 
ATOM      8  H1  UNL     1       5.539  51.926  51.376  1.00  0.00     0.166 HD
HETATM    9  N2  UNL     1       6.637  51.556  48.473  1.00  0.00    -0.354 N 
ATOM     10  H2  UNL     1       6.905  51.854  47.535  1.00  0.00     0.166 HD
ENDBRANCH   2   3
ENDBRANCH   1   2
BRANCH   1  11
HETATM   11  C7  UNL     1       7.091  48.024  45.999  1.00  0.00     0.074 C 
BRANCH  11  12
HETATM   12  S1  UNL     1       6.276  46.855  47.100  1.00  0.00    -0.168 SA
BRANCH  12  13
HETATM   13  C8  UNL     1       4.520  46.744  46.865  1.00  0.00     0.089 C 
BRANCH  13  14
HETATM   14  C9  UNL     1       3.794  46.020  47.966  1.00  0.00     0.066 C 
HETATM   15  C10 UNL     1       2.337  45.775  47.578  1.00  0.00     0.089 C 
HETATM   16  S2  UNL     1       1.245  45.778  49.006  1.00  0.00    -0.167 SA
HETATM   17  C11 UNL     1       1.125  47.417  49.767  1.00  0.00     0.084 C 
HETATM   18  C12 UNL     1       2.345  48.203  49.284  1.00  0.00     0.084 C 
HETATM   19  S3  UNL     1       3.764  47.085  49.432  1.00  0.00    -0.162 SA
ENDBRANCH  13  14
ENDBRANCH  12  13
ENDBRANCH  11  12
ENDBRANCH   1  11
TORSDOF 6
ENDMDL
MODEL 3
REMARK VINA RESULT: -5.629409318      1.034      1.664
REMARK  6 active torsions:
REMARK  status: ('A' for Active; 'I' for Inactive)
REMARK    1  A    between atoms: C4_8  and  C5_9 
REMARK    2  A    between atoms: C5_9  and  C6_10 
REMARK    3  A    between atoms: C6_10  and  C7_11 
REMARK    4  A    between atoms: C7_11  and  S1_12 
REMARK    5  A    between atoms: S1_12  and  C8_13 
REMARK    6  A    between atoms: C8_13  and  C9_14 
ROOT
HETATM    1  C6  UNL     1       5.513  46.438  46.277  1.00  0.00     0.016 C 
ENDROOT
BRANCH   1   2
HETATM    2  C5  UNL     1       5.121  46.321  47.746  1.00  0.00     0.060 C 
BRANCH   2   3
HETATM    3  C4  UNL     1       3.669  46.065  47.888  1.00  0.00     0.032 A 
HETATM    4  C2  UNL     1       2.878  46.328  48.965  1.00  0.00     0.029 A 
HETATM    5  C1  UNL     1       3.245  46.930  50.259  1.00  0.00     0.070 C 
HETATM    6  N1  UNL     1       1.625  45.929  48.646  1.00  0.00    -0.354 N 
HETATM    7  C3  UNL     1       1.612  45.430  47.413  1.00  0.00     0.180 A 
ATOM      8  H1  UNL     1       0.812  46.000  49.258  1.00  0.00     0.166 HD
HETATM    9  N2  UNL     1       2.876  45.520  46.959  1.00  0.00    -0.354 N 
ATOM     10  H2  UNL     1       3.186  45.215  46.037  1.00  0.00     0.166 HD
ENDBRANCH   2   3
ENDBRANCH   1   2
BRANCH   1  11
HETATM   11  C7  UNL     1       6.911  47.004  46.228  1.00  0.00     0.074 C 
BRANCH  11  12
HETATM   12  S1  UNL     1       6.824  48.784  46.492  1.00  0.00    -0.168 SA
BRANCH  12  13
HETATM   13  C8  UNL     1       7.272  49.294  48.132  1.00  0.00     0.089 C 
BRANCH  13  14
HETATM   14  C9  UNL     1       6.100  49.536  49.045  1.00  0.00     0.066 C 
HETATM   15  C10 UNL     1       4.857  49.904  48.237  1.00  0.00     0.089 C 
HETATM   16  S2  UNL     1       3.770  51.019  49.135  1.00  0.00    -0.167 SA
HETATM   17  C11 UNL     1       4.517  52.651  49.374  1.00  0.00     0.084 C 
HETATM   18  C12 UNL     1       6.023  52.465  49.180  1.00  0.00     0.084 C 
HETATM   19  S3  UNL     1       6.475  50.965  50.093  1.00  0.00    -0.162 SA
ENDBRANCH  13  14
ENDBRANCH  12  13
ENDBRANCH  11  12
ENDBRANCH   1  11
TORSDOF 6
ENDMDL
MODEL 4
REMARK VINA RESULT: -5.598137138      4.206      6.372
REMARK  6 active torsions:
REMARK  status: ('A' for Active; 'I' for Inactive)
REMARK    1  A    between atoms: C4_8  and  C5_9 
REMARK    2  A    between atoms: C5_9  and  C6_10 
REMARK    3  A    between atoms: C6_10  and  C7_11 
REMARK    4  A    between atoms: C7_11  and  S1_12 
REMARK    5  A    between atoms: S1_12  and  C8_13 
REMARK    6  A    between atoms: C8_13  and  C9_14 
ROOT
HETATM    1  C6  UNL     1       4.305  46.116  48.712  1.00  0.00     0.016 C 
ENDROOT
BRANCH   1   2
HETATM    2  C5  UNL     1       4.968  47.489  48.697  1.00  0.00     0.060 C 
BRANCH   2   3
HETATM    3  C4  UNL     1       6.118  47.512  47.762  1.00  0.00     0.032 A 
HETATM    4  C2  UNL     1       6.973  48.543  47.519  1.00  0.00     0.029 A 
HETATM    5  C1  UNL     1       6.989  49.892  48.110  1.00  0.00     0.070 C 
HETATM    6  N1  UNL     1       7.864  48.112  46.595  1.00  0.00    -0.354 N 
HETATM    7  C3  UNL     1       7.590  46.854  46.259  1.00  0.00     0.180 A 
ATOM      8  H1  UNL     1       8.629  48.667  46.214  1.00  0.00     0.166 HD
HETATM    9  N2  UNL     1       6.514  46.499  46.985  1.00  0.00    -0.354 N 
ATOM     10  H2  UNL     1       6.063  45.584  46.947  1.00  0.00     0.166 HD
ENDBRANCH   2   3
ENDBRANCH   1   2
BRANCH   1  11
HETATM   11  C7  UNL     1       3.114  46.183  47.788  1.00  0.00     0.074 C 
BRANCH  11  12
HETATM   12  S1  UNL     1       1.621  45.855  48.742  1.00  0.00    -0.168 SA
BRANCH  12  13
HETATM   13  C8  UNL     1       1.783  46.193  50.476  1.00  0.00     0.089 C 
BRANCH  13  14
HETATM   14  C9  UNL     1       0.807  45.446  51.344  1.00  0.00     0.066 C 
HETATM   15  C10 UNL     1      -0.408  45.005  50.530  1.00  0.00     0.089 C 
HETATM   16  S2  UNL     1      -1.907  44.952  51.521  1.00  0.00    -0.167 SA
HETATM   17  C11 UNL     1      -2.432  46.603  52.049  1.00  0.00     0.084 C 
HETATM   18  C12 UNL     1      -1.203  47.504  51.918  1.00  0.00     0.084 C 
HETATM   19  S3  UNL     1       0.189  46.578  52.618  1.00  0.00    -0.162 SA
ENDBRANCH  13  14
ENDBRANCH  12  13
ENDBRANCH  11  12
ENDBRANCH   1  11
TORSDOF 6
ENDMDL
MODEL 5
REMARK VINA RESULT: -5.582815705      1.291      1.681
REMARK  6 active torsions:
REMARK  status: ('A' for Active; 'I' for Inactive)
REMARK    1  A    between atoms: C4_8  and  C5_9 
REMARK    2  A    between atoms: C5_9  and  C6_10 
REMARK    3  A    between atoms: C6_10  and  C7_11 
REMARK    4  A    between atoms: C7_11  and  S1_12 
REMARK    5  A    between atoms: S1_12  and  C8_13 
REMARK    6  A    between atoms: C8_13  and  C9_14 
ROOT
HETATM    1  C6  UNL     1       5.449  46.195  46.178  1.00  0.00     0.016 C 
ENDROOT
BRANCH   1   2
HETATM    2  C5  UNL     1       4.005  46.122  46.660  1.00  0.00     0.060 C 
BRANCH   2   3
HETATM    3  C4  UNL     1       3.940  46.122  48.141  1.00  0.00     0.032 A 
HETATM    4  C2  UNL     1       2.828  46.074  48.926  1.00  0.00     0.029 A 
HETATM    5  C1  UNL     1       1.412  46.008  48.523  1.00  0.00     0.070 C 
HETATM    6  N1  UNL     1       3.248  46.095  50.212  1.00  0.00    -0.354 N 
HETATM    7  C3  UNL     1       4.576  46.154  50.250  1.00  0.00     0.180 A 
ATOM      8  H1  UNL     1       2.638  46.069  51.029  1.00  0.00     0.166 HD
HETATM    9  N2  UNL     1       4.988  46.171  48.969  1.00  0.00    -0.354 N 
ATOM     10  H2  UNL     1       5.962  46.214  48.671  1.00  0.00     0.166 HD
ENDBRANCH   2   3
ENDBRANCH   1   2
BRANCH   1  11
HETATM   11  C7  UNL     1       5.754  47.646  45.892  1.00  0.00     0.074 C 
BRANCH  11  12
HETATM   12  S1  UNL     1       7.232  48.118  46.807  1.00  0.00    -0.168 SA
BRANCH  12  13
HETATM   13  C8  UNL     1       6.903  49.062  48.274  1.00  0.00     0.089 C 
BRANCH  13  14
HETATM   14  C9  UNL     1       6.028  50.265  48.050  1.00  0.00     0.066 C 
HETATM   15  C10 UNL     1       6.468  51.423  48.945  1.00  0.00     0.089 C 
HETATM   16  S2  UNL     1       5.089  52.472  49.424  1.00  0.00    -0.167 SA
HETATM   17  C11 UNL     1       3.931  51.615  50.520  1.00  0.00     0.084 C 
HETATM   18  C12 UNL     1       4.192  50.120  50.333  1.00  0.00     0.084 C 
HETATM   19  S3  UNL     1       4.337  49.845  48.547  1.00  0.00    -0.162 SA
ENDBRANCH  13  14
ENDBRANCH  12  13
ENDBRANCH  11  12
ENDBRANCH   1  11
TORSDOF 6
ENDMDL
