MODEL 1
REMARK VINA RESULT: -7.056944410      0.000      0.000
REMARK  6 active torsions:
REMARK  status: ('A' for Active; 'I' for Inactive)
REMARK    1  A    between atoms: C2_2  and  C3_3 
REMARK    2  A    between atoms: C3_3  and  C4_4 
REMARK    3  A    between atoms: C4_4  and  C5_5 
REMARK    4  A    between atoms: C5_5  and  S1_6 
REMARK    5  A    between atoms: S1_6  and  C6_7 
REMARK    6  A    between atoms: N3_14  and  C8_15 
ROOT
HETATM    1  C6  UNL     1       6.910  48.358  47.694  1.00  0.00     0.165 A 
HETATM    2  N1  UNL     1       7.982  47.985  46.978  1.00  0.00    -0.276 N 
ATOM      3  H1  UNL     1       8.939  48.313  47.107  1.00  0.00     0.189 HD
HETATM    4  N2  UNL     1       7.575  47.126  46.087  1.00  0.00    -0.249 N 
ATOM      5  H2  UNL     1       8.164  46.663  45.394  1.00  0.00     0.192 HD
HETATM    6  C7  UNL     1       6.240  46.950  46.233  1.00  0.00     0.343 A 
HETATM    7  O1  UNL     1       5.646  46.146  45.456  1.00  0.00    -0.245 OA
HETATM    8  N3  UNL     1       5.816  47.721  47.242  1.00  0.00    -0.273 N 
ENDROOT
BRANCH   8   9
HETATM    9  C8  UNL     1       4.456  47.775  47.666  1.00  0.00     0.097 C 
HETATM   10  C9  UNL     1       4.150  49.129  48.244  1.00  0.00     0.026 C 
HETATM   11  C10 UNL     1       2.855  49.126  49.009  1.00  0.00     0.002 C 
HETATM   12  C11 UNL     1       2.878  48.488  50.346  1.00  0.00     0.000 C 
HETATM   13  C12 UNL     1       4.173  47.909  50.790  1.00  0.00     0.000 C 
HETATM   14  C13 UNL     1       4.728  46.851  49.879  1.00  0.00     0.002 C 
HETATM   15  C14 UNL     1       3.979  46.739  48.581  1.00  0.00     0.026 C 
ENDBRANCH   8   9
BRANCH   1  16
HETATM   16  S1  UNL     1       6.947  49.508  49.030  1.00  0.00    -0.092 SA
BRANCH  16  17
HETATM   17  C5  UNL     1       6.762  51.206  48.428  1.00  0.00     0.082 C 
BRANCH  17  18
HETATM   18  C4  UNL     1       6.193  52.116  49.497  1.00  0.00     0.010 C 
BRANCH  18  19
HETATM   19  C3  UNL     1       6.166  51.363  50.809  1.00  0.00     0.000 C 
BRANCH  19  20
HETATM   20  C2  UNL     1       4.840  51.565  51.508  1.00  0.00    -0.005 C 
HETATM   21  C1  UNL     1       4.988  51.664  52.994  1.00  0.00     0.005 C 
ENDBRANCH  19  20
ENDBRANCH  18  19
ENDBRANCH  17  18
ENDBRANCH  16  17
ENDBRANCH   1  16
TORSDOF 6
ENDMDL
MODEL 2
REMARK VINA RESULT: -6.997380079      1.097      1.423
REMARK  6 active torsions:
REMARK  status: ('A' for Active; 'I' for Inactive)
REMARK    1  A    between atoms: C2_2  and  C3_3 
REMARK    2  A    between atoms: C3_3  and  C4_4 
REMARK    3  A    between atoms: C4_4  and  C5_5 
REMARK    4  A    between atoms: C5_5  and  S1_6 
REMARK    5  A    between atoms: S1_6  and  C6_7 
REMARK    6  A    between atoms: N3_14  and  C8_15 
ROOT
HETATM    1  C6  UNL     1       6.605  48.327  47.052  1.00  0.00     0.165 A 
HETATM    2  N1  UNL     1       7.566  47.654  46.400  1.00  0.00    -0.276 N 
ATOM      3  H1  UNL     1       8.523  47.969  46.240  1.00  0.00     0.189 HD
HETATM    4  N2  UNL     1       7.051  46.523  46.009  1.00  0.00    -0.249 N 
ATOM      5  H2  UNL     1       7.540  45.796  45.486  1.00  0.00     0.192 HD
HETATM    6  C7  UNL     1       5.758  46.473  46.411  1.00  0.00     0.343 A 
HETATM    7  O1  UNL     1       5.075  45.446  46.127  1.00  0.00    -0.245 OA
HETATM    8  N3  UNL     1       5.472  47.604  47.068  1.00  0.00    -0.273 N 
ENDROOT
BRANCH   8   9
HETATM    9  C8  UNL     1       4.191  47.877  47.629  1.00  0.00     0.097 C 
HETATM   10  C9  UNL     1       4.115  49.316  48.063  1.00  0.00     0.026 C 
HETATM   11  C10 UNL     1       2.934  49.563  48.962  1.00  0.00     0.002 C 
HETATM   12  C11 UNL     1       3.053  49.080  50.357  1.00  0.00     0.000 C 
HETATM   13  C12 UNL     1       4.319  48.394  50.725  1.00  0.00     0.000 C 
HETATM   14  C13 UNL     1       4.632  47.179  49.898  1.00  0.00     0.002 C 
HETATM   15  C14 UNL     1       3.718  47.019  48.716  1.00  0.00     0.026 C 
ENDBRANCH   8   9
BRANCH   1  16
HETATM   16  S1  UNL     1       6.813  49.919  47.781  1.00  0.00    -0.092 SA
BRANCH  16  17
HETATM   17  C5  UNL     1       7.343  49.777  49.507  1.00  0.00     0.082 C 
BRANCH  17  18
HETATM   18  C4  UNL     1       6.866  50.953  50.334  1.00  0.00     0.010 C 
BRANCH  18  19
HETATM   19  C3  UNL     1       6.310  52.006  49.400  1.00  0.00     0.000 C 
BRANCH  19  20
HETATM   20  C2  UNL     1       4.976  52.510  49.906  1.00  0.00    -0.005 C 
HETATM   21  C1  UNL     1       4.380  53.547  49.006  1.00  0.00     0.005 C 
ENDBRANCH  19  20
ENDBRANCH  18  19
ENDBRANCH  17  18
ENDBRANCH  16  17
ENDBRANCH   1  16
TORSDOF 6
ENDMDL
MODEL 3
REMARK VINA RESULT: -6.956897490      0.978      1.243
REMARK  6 active torsions:
REMARK  status: ('A' for Active; 'I' for Inactive)
REMARK    1  A    between atoms: C2_2  and  C3_3 
REMARK    2  A    between atoms: C3_3  and  C4_4 
REMARK    3  A    between atoms: C4_4  and  C5_5 
REMARK    4  A    between atoms: C5_5  and  S1_6 
REMARK    5  A    between atoms: S1_6  and  C6_7 
REMARK    6  A    between atoms: N3_14  and  C8_15 
ROOT
HETATM    1  C6  UNL     1       6.862  48.780  47.211  1.00  0.00     0.165 A 
HETATM    2  N1  UNL     1       8.014  48.481  46.590  1.00  0.00    -0.276 N 
ATOM      3  H1  UNL     1       8.884  49.010  46.643  1.00  0.00     0.189 HD
HETATM    4  N2  UNL     1       7.816  47.389  45.908  1.00  0.00    -0.249 N 
ATOM      5  H2  UNL     1       8.510  46.914  45.331  1.00  0.00     0.192 HD
HETATM    6  C7  UNL     1       6.535  46.989  46.092  1.00  0.00     0.343 A 
HETATM    7  O1  UNL     1       6.138  45.937  45.510  1.00  0.00    -0.245 OA
HETATM    8  N3  UNL     1       5.930  47.859  46.911  1.00  0.00    -0.273 N 
ENDROOT
BRANCH   8   9
HETATM    9  C8  UNL     1       4.570  47.734  47.316  1.00  0.00     0.097 C 
HETATM   10  C9  UNL     1       4.171  48.917  48.156  1.00  0.00     0.026 C 
HETATM   11  C10 UNL     1       2.878  48.670  48.884  1.00  0.00     0.002 C 
HETATM   12  C11 UNL     1       2.944  47.773  50.062  1.00  0.00     0.000 C 
HETATM   13  C12 UNL     1       4.275  47.201  50.397  1.00  0.00     0.000 C 
HETATM   14  C13 UNL     1       4.902  46.394  49.296  1.00  0.00     0.002 C 
HETATM   15  C14 UNL     1       4.163  46.502  47.992  1.00  0.00     0.026 C 
ENDBRANCH   8   9
BRANCH   1  16
HETATM   16  S1  UNL     1       6.623  50.173  48.265  1.00  0.00    -0.092 SA
BRANCH  16  17
HETATM   17  C5  UNL     1       7.264  49.845  49.927  1.00  0.00     0.082 C 
BRANCH  17  18
HETATM   18  C4  UNL     1       6.166  49.906  50.969  1.00  0.00     0.010 C 
BRANCH  18  19
HETATM   19  C3  UNL     1       5.739  51.348  51.136  1.00  0.00     0.000 C 
BRANCH  19  20
HETATM   20  C2  UNL     1       4.233  51.467  51.042  1.00  0.00    -0.005 C 
HETATM   21  C1  UNL     1       3.797  52.243  49.838  1.00  0.00     0.005 C 
ENDBRANCH  19  20
ENDBRANCH  18  19
ENDBRANCH  17  18
ENDBRANCH  16  17
ENDBRANCH   1  16
TORSDOF 6
ENDMDL
MODEL 4
REMARK VINA RESULT: -6.934665213      2.139      4.249
REMARK  6 active torsions:
REMARK  status: ('A' for Active; 'I' for Inactive)
REMARK    1  A    between atoms: C2_2  and  C3_3 
REMARK    2  A    between atoms: C3_3  and  C4_4 
REMARK    3  A    between atoms: C4_4  and  C5_5 
REMARK    4  A    between atoms: C5_5  and  S1_6 
REMARK    5  A    between atoms: S1_6  and  C6_7 
REMARK    6  A    between atoms: N3_14  and  C8_15 
ROOT
HETATM    1  C6  UNL     1       5.469  46.832  46.735  1.00  0.00     0.165 A 
HETATM    2  N1  UNL     1       6.487  46.068  46.311  1.00  0.00    -0.276 N 
ATOM      3  H1  UNL     1       6.411  45.161  45.848  1.00  0.00     0.189 HD
HETATM    4  N2  UNL     1       7.591  46.696  46.598  1.00  0.00    -0.249 N 
ATOM      5  H2  UNL     1       8.535  46.363  46.397  1.00  0.00     0.192 HD
HETATM    6  C7  UNL     1       7.279  47.864  47.208  1.00  0.00     0.343 A 
HETATM    7  O1  UNL     1       8.221  48.630  47.570  1.00  0.00    -0.245 OA
HETATM    8  N3  UNL     1       5.947  47.956  47.297  1.00  0.00    -0.273 N 
ENDROOT
BRANCH   8   9
HETATM    9  C8  UNL     1       5.279  49.068  47.886  1.00  0.00     0.097 C 
HETATM   10  C9  UNL     1       6.262  50.173  48.162  1.00  0.00     0.026 C 
HETATM   11  C10 UNL     1       5.685  51.213  49.084  1.00  0.00     0.002 C 
HETATM   12  C11 UNL     1       5.594  50.848  50.517  1.00  0.00     0.000 C 
HETATM   13  C12 UNL     1       6.070  49.492  50.896  1.00  0.00     0.000 C 
HETATM   14  C13 UNL     1       5.368  48.365  50.194  1.00  0.00     0.002 C 
HETATM   15  C14 UNL     1       4.471  48.831  49.082  1.00  0.00     0.026 C 
ENDBRANCH   8   9
BRANCH   1  16
HETATM   16  S1  UNL     1       3.764  46.415  46.570  1.00  0.00    -0.092 SA
BRANCH  16  17
HETATM   17  C5  UNL     1       3.093  45.799  48.134  1.00  0.00     0.082 C 
BRANCH  17  18
HETATM   18  C4  UNL     1       1.585  45.658  48.077  1.00  0.00     0.010 C 
BRANCH  18  19
HETATM   19  C3  UNL     1       1.047  45.658  49.491  1.00  0.00     0.000 C 
BRANCH  19  20
HETATM   20  C2  UNL     1       2.068  46.238  50.445  1.00  0.00    -0.005 C 
HETATM   21  C1  UNL     1       1.600  47.514  51.074  1.00  0.00     0.005 C 
ENDBRANCH  19  20
ENDBRANCH  18  19
ENDBRANCH  17  18
ENDBRANCH  16  17
ENDBRANCH   1  16
TORSDOF 6
ENDMDL
MODEL 5
REMARK VINA RESULT: -6.881366443      1.336      1.838
REMARK  6 active torsions:
REMARK  status: ('A' for Active; 'I' for Inactive)
REMARK    1  A    between atoms: C2_2  and  C3_3 
REMARK    2  A    between atoms: C3_3  and  C4_4 
REMARK    3  A    between atoms: C4_4  and  C5_5 
REMARK    4  A    between atoms: C5_5  and  S1_6 
REMARK    5  A    between atoms: S1_6  and  C6_7 
REMARK    6  A    between atoms: N3_14  and  C8_15 
ROOT
HETATM    1  C6  UNL     1       6.743  48.975  48.173  1.00  0.00     0.165 A 
HETATM    2  N1  UNL     1       7.881  49.044  47.465  1.00  0.00    -0.276 N 
ATOM      3  H1  UNL     1       8.783  49.384  47.800  1.00  0.00     0.189 HD
HETATM    4  N2  UNL     1       7.622  48.599  46.269  1.00  0.00    -0.249 N 
ATOM      5  H2  UNL     1       8.291  48.529  45.502  1.00  0.00     0.192 HD
HETATM    6  C7  UNL     1       6.316  48.244  46.212  1.00  0.00     0.343 A 
HETATM    7  O1  UNL     1       5.860  47.781  45.125  1.00  0.00    -0.245 OA
HETATM    8  N3  UNL     1       5.758  48.477  47.406  1.00  0.00    -0.273 N 
ENDROOT
BRANCH   8   9
HETATM    9  C8  UNL     1       4.388  48.212  47.694  1.00  0.00     0.097 C 
HETATM   10  C9  UNL     1       3.948  49.011  48.890  1.00  0.00     0.026 C 
HETATM   11  C10 UNL     1       2.637  48.515  49.437  1.00  0.00     0.002 C 
HETATM   12  C11 UNL     1       2.679  47.254  50.213  1.00  0.00     0.000 C 
HETATM   13  C12 UNL     1       4.006  46.602  50.363  1.00  0.00     0.000 C 
HETATM   14  C13 UNL     1       4.678  46.248  49.067  1.00  0.00     0.002 C 
HETATM   15  C14 UNL     1       3.978  46.818  47.866  1.00  0.00     0.026 C 
ENDBRANCH   8   9
BRANCH   1  16
HETATM   16  S1  UNL     1       6.581  49.461  49.861  1.00  0.00    -0.092 SA
BRANCH  16  17
HETATM   17  C5  UNL     1       6.828  51.245  50.047  1.00  0.00     0.082 C 
BRANCH  17  18
HETATM   18  C4  UNL     1       5.994  52.029  49.056  1.00  0.00     0.010 C 
BRANCH  18  19
HETATM   19  C3  UNL     1       4.747  52.523  49.758  1.00  0.00     0.000 C 
BRANCH  19  20
HETATM   20  C2  UNL     1       4.042  53.563  48.915  1.00  0.00    -0.005 C 
HETATM   21  C1  UNL     1       4.941  54.702  48.547  1.00  0.00     0.005 C 
ENDBRANCH  19  20
ENDBRANCH  18  19
ENDBRANCH  17  18
ENDBRANCH  16  17
ENDBRANCH   1  16
TORSDOF 6
ENDMDL
