MODEL 1
REMARK VINA RESULT: -7.951422937      0.000      0.000
REMARK  5 active torsions:
REMARK  status: ('A' for Active; 'I' for Inactive)
REMARK    1  A    between atoms: N1_1  and  C1_4 
REMARK    2  A    between atoms: C2_7  and  O1_8 
REMARK    3  A    between atoms: C3_10  and  C4_11 
REMARK    4  A    between atoms: C4_11  and  C5_13 
REMARK    5  A    between atoms: C10_20  and  O3_21 
ROOT
HETATM    1  C4  UNL     1       3.622   3.171  70.641  1.00  0.00     0.177 C 
HETATM    2  O2  UNL     1       3.373   3.284  71.859  1.00  0.00    -0.291 OA
ENDROOT
BRANCH   1   3
HETATM    3  C3  UNL     1       2.617   3.678  69.694  1.00  0.00     0.105 A 
HETATM    4  C2  UNL     1       1.310   3.978  69.935  1.00  0.00     0.163 A 
HETATM    5  N2  UNL     1       0.589   4.423  68.927  1.00  0.00    -0.316 N 
HETATM    6  C1  UNL     1       1.169   4.554  67.740  1.00  0.00     0.145 A 
ATOM      7  H2  UNL     1      -0.395   4.661  69.055  1.00  0.00     0.170 HD
HETATM    8  S1  UNL     1       2.765   4.043  68.033  1.00  0.00    -0.046 SA
BRANCH   4   9
HETATM    9  O1  UNL     1       0.758   3.810  71.246  1.00  0.00    -0.345 OA
ATOM     10  H1  UNL     1       0.420   2.975  71.547  1.00  0.00     0.219 HD
ENDBRANCH   4   9
BRANCH   6  11
HETATM   11  N1  UNL     1       0.645   4.973  66.612  1.00  0.00    -0.380 N 
ATOM     12  H12 UNL     1       0.016   4.473  65.984  1.00  0.00     0.158 HD
ATOM     13  H11 UNL     1       0.764   5.874  66.149  1.00  0.00     0.158 HD
ENDBRANCH   6  11
ENDBRANCH   1   3
BRANCH   1  14
HETATM   14  C5  UNL     1       4.866   2.556  70.226  1.00  0.00     0.096 C 
HETATM   15  C6  UNL     1       4.846   1.054  70.174  1.00  0.00     0.015 C 
HETATM   16  C7  UNL     1       6.232   0.554  69.843  1.00  0.00     0.007 C 
HETATM   17  C8  UNL     1       7.167   1.675  69.468  1.00  0.00     0.082 C 
HETATM   18  C9  UNL     1       7.313   2.696  70.546  1.00  0.00     0.269 C 
HETATM   19  F1  UNL     1       8.192   2.279  71.533  1.00  0.00    -0.203 F 
HETATM   20  F2  UNL     1       7.873   3.854  70.008  1.00  0.00    -0.203 F 
HETATM   21  C10 UNL     1       5.976   2.979  71.159  1.00  0.00     0.202 C 
BRANCH  21  22
HETATM   22  O3  UNL     1       5.925   4.355  71.423  1.00  0.00    -0.389 OA
ATOM     23  H3  UNL     1       6.198   4.863  70.668  1.00  0.00     0.210 HD
ENDBRANCH  21  22
ENDBRANCH   1  14
TORSDOF 5
ENDMDL
MODEL 2
REMARK VINA RESULT: -7.514571809      3.840      5.462
REMARK  5 active torsions:
REMARK  status: ('A' for Active; 'I' for Inactive)
REMARK    1  A    between atoms: N1_1  and  C1_4 
REMARK    2  A    between atoms: C2_7  and  O1_8 
REMARK    3  A    between atoms: C3_10  and  C4_11 
REMARK    4  A    between atoms: C4_11  and  C5_13 
REMARK    5  A    between atoms: C10_20  and  O3_21 
ROOT
HETATM    1  C4  UNL     1       3.361   2.854  70.914  1.00  0.00     0.177 C 
HETATM    2  O2  UNL     1       2.941   2.876  72.090  1.00  0.00    -0.291 OA
ENDROOT
BRANCH   1   3
HETATM    3  C3  UNL     1       4.817   2.793  70.716  1.00  0.00     0.105 A 
HETATM    4  C2  UNL     1       5.748   3.741  71.019  1.00  0.00     0.163 A 
HETATM    5  N2  UNL     1       7.008   3.467  70.752  1.00  0.00    -0.316 N 
HETATM    6  C1  UNL     1       7.301   2.293  70.207  1.00  0.00     0.145 A 
ATOM      7  H2  UNL     1       7.743   4.144  70.959  1.00  0.00     0.170 HD
HETATM    8  S1  UNL     1       5.780   1.546  70.060  1.00  0.00    -0.046 SA
BRANCH   4   9
HETATM    9  O1  UNL     1       5.350   4.984  71.607  1.00  0.00    -0.345 OA
ATOM     10  H1  UNL     1       5.701   5.285  72.437  1.00  0.00     0.219 HD
ENDBRANCH   4   9
BRANCH   6  11
HETATM   11  N1  UNL     1       8.476   1.819  69.862  1.00  0.00    -0.380 N 
ATOM     12  H12 UNL     1       9.005   2.001  69.009  1.00  0.00     0.158 HD
ATOM     13  H11 UNL     1       9.083   1.181  70.377  1.00  0.00     0.158 HD
ENDBRANCH   6  11
ENDBRANCH   1   3
BRANCH   1  14
HETATM   14  C5  UNL     1       2.410   2.889  69.821  1.00  0.00     0.096 C 
HETATM   15  C6  UNL     1       2.506   1.739  68.859  1.00  0.00     0.015 C 
HETATM   16  C7  UNL     1       1.543   1.968  67.719  1.00  0.00     0.007 C 
HETATM   17  C8  UNL     1       0.639   3.148  67.966  1.00  0.00     0.082 C 
HETATM   18  C9  UNL     1       1.388   4.422  68.173  1.00  0.00     0.269 C 
HETATM   19  F1  UNL     1       1.800   4.976  66.972  1.00  0.00    -0.203 F 
HETATM   20  F2  UNL     1       0.539   5.364  68.752  1.00  0.00    -0.203 F 
HETATM   21  C10 UNL     1       2.583   4.170  69.040  1.00  0.00     0.202 C 
BRANCH  21  22
HETATM   22  O3  UNL     1       2.715   5.275  69.894  1.00  0.00    -0.389 OA
ATOM     23  H3  UNL     1       2.098   5.961  69.670  1.00  0.00     0.210 HD
ENDBRANCH  21  22
ENDBRANCH   1  14
TORSDOF 5
ENDMDL
MODEL 3
REMARK VINA RESULT: -7.476511177      1.380      1.588
REMARK  5 active torsions:
REMARK  status: ('A' for Active; 'I' for Inactive)
REMARK    1  A    between atoms: N1_1  and  C1_4 
REMARK    2  A    between atoms: C2_7  and  O1_8 
REMARK    3  A    between atoms: C3_10  and  C4_11 
REMARK    4  A    between atoms: C4_11  and  C5_13 
REMARK    5  A    between atoms: C10_20  and  O3_21 
ROOT
HETATM    1  C4  UNL     1       3.348   4.206  70.147  1.00  0.00     0.177 C 
HETATM    2  O2  UNL     1       3.396   5.263  70.810  1.00  0.00    -0.291 OA
ENDROOT
BRANCH   1   3
HETATM    3  C3  UNL     1       2.404   4.155  69.020  1.00  0.00     0.105 A 
HETATM    4  C2  UNL     1       1.043   4.131  69.063  1.00  0.00     0.163 A 
HETATM    5  N2  UNL     1       0.396   4.086  67.917  1.00  0.00    -0.316 N 
HETATM    6  C1  UNL     1       1.099   4.068  66.791  1.00  0.00     0.145 A 
ATOM      7  H2  UNL     1      -0.624   4.066  67.895  1.00  0.00     0.170 HD
HETATM    8  S1  UNL     1       2.708   4.113  67.341  1.00  0.00    -0.046 SA
BRANCH   4   9
HETATM    9  O1  UNL     1       0.358   4.155  70.321  1.00  0.00    -0.345 OA
ATOM     10  H1  UNL     1       0.041   4.963  70.707  1.00  0.00     0.219 HD
ENDBRANCH   4   9
BRANCH   6  11
HETATM   11  N1  UNL     1       0.665   4.025  65.553  1.00  0.00    -0.380 N 
ATOM     12  H12 UNL     1      -0.101   4.553  65.134  1.00  0.00     0.158 HD
ATOM     13  H11 UNL     1       1.007   3.460  64.776  1.00  0.00     0.158 HD
ENDBRANCH   6  11
ENDBRANCH   1   3
BRANCH   1  14
HETATM   14  C5  UNL     1       4.208   3.099  70.515  1.00  0.00     0.096 C 
HETATM   15  C6  UNL     1       3.999   2.567  71.904  1.00  0.00     0.015 C 
HETATM   16  C7  UNL     1       5.034   1.504  72.186  1.00  0.00     0.007 C 
HETATM   17  C8  UNL     1       5.830   1.145  70.958  1.00  0.00     0.082 C 
HETATM   18  C9  UNL     1       6.547   2.313  70.367  1.00  0.00     0.269 C 
HETATM   19  F1  UNL     1       7.716   2.600  71.054  1.00  0.00    -0.203 F 
HETATM   20  F2  UNL     1       6.941   2.000  69.066  1.00  0.00    -0.203 F 
HETATM   21  C10 UNL     1       5.654   3.516  70.384  1.00  0.00     0.202 C 
BRANCH  21  22
HETATM   22  O3  UNL     1       5.878   4.214  69.189  1.00  0.00    -0.389 OA
ATOM     23  H3  UNL     1       5.970   5.147  69.345  1.00  0.00     0.210 HD
ENDBRANCH  21  22
ENDBRANCH   1  14
TORSDOF 5
ENDMDL
MODEL 4
REMARK VINA RESULT: -7.163211501      1.824      2.215
REMARK  5 active torsions:
REMARK  status: ('A' for Active; 'I' for Inactive)
REMARK    1  A    between atoms: N1_1  and  C1_4 
REMARK    2  A    between atoms: C2_7  and  O1_8 
REMARK    3  A    between atoms: C3_10  and  C4_11 
REMARK    4  A    between atoms: C4_11  and  C5_13 
REMARK    5  A    between atoms: C10_20  and  O3_21 
ROOT
HETATM    1  C4  UNL     1       3.349   4.226  70.133  1.00  0.00     0.177 C 
HETATM    2  O2  UNL     1       3.378   5.282  70.799  1.00  0.00    -0.291 OA
ENDROOT
BRANCH   1   3
HETATM    3  C3  UNL     1       2.462   4.188  68.960  1.00  0.00     0.105 A 
HETATM    4  C2  UNL     1       2.810   4.115  67.645  1.00  0.00     0.163 A 
HETATM    5  N2  UNL     1       1.839   4.093  66.756  1.00  0.00    -0.316 N 
HETATM    6  C1  UNL     1       0.584   4.142  67.186  1.00  0.00     0.145 A 
ATOM      7  H2  UNL     1       2.047   4.040  65.759  1.00  0.00     0.170 HD
HETATM    8  S1  UNL     1       0.758   4.222  68.876  1.00  0.00    -0.046 SA
BRANCH   4   9
HETATM    9  O1  UNL     1       4.190   4.065  67.262  1.00  0.00    -0.345 OA
ATOM     10  H1  UNL     1       4.607   3.257  66.989  1.00  0.00     0.219 HD
ENDBRANCH   4   9
BRANCH   6  11
HETATM   11  N1  UNL     1      -0.525   4.132  66.483  1.00  0.00    -0.380 N 
ATOM     12  H12 UNL     1      -0.709   4.585  65.588  1.00  0.00     0.158 HD
ATOM     13  H11 UNL     1      -1.411   3.672  66.694  1.00  0.00     0.158 HD
ENDBRANCH   6  11
ENDBRANCH   1   3
BRANCH   1  14
HETATM   14  C5  UNL     1       4.176   3.108  70.541  1.00  0.00     0.096 C 
HETATM   15  C6  UNL     1       3.874   2.561  71.908  1.00  0.00     0.015 C 
HETATM   16  C7  UNL     1       4.882   1.487  72.243  1.00  0.00     0.007 C 
HETATM   17  C8  UNL     1       5.751   1.135  71.063  1.00  0.00     0.082 C 
HETATM   18  C9  UNL     1       6.513   2.303  70.533  1.00  0.00     0.269 C 
HETATM   19  F1  UNL     1       7.638   2.572  71.296  1.00  0.00    -0.203 F 
HETATM   20  F2  UNL     1       6.986   2.001  69.256  1.00  0.00    -0.203 F 
HETATM   21  C10 UNL     1       5.630   3.513  70.507  1.00  0.00     0.202 C 
BRANCH  21  22
HETATM   22  O3  UNL     1       5.935   4.223  69.337  1.00  0.00    -0.389 OA
ATOM     23  H3  UNL     1       6.719   4.748  69.445  1.00  0.00     0.210 HD
ENDBRANCH  21  22
ENDBRANCH   1  14
TORSDOF 5
ENDMDL
MODEL 5
REMARK VINA RESULT: -6.917192451      1.885      2.011
REMARK  5 active torsions:
REMARK  status: ('A' for Active; 'I' for Inactive)
REMARK    1  A    between atoms: N1_1  and  C1_4 
REMARK    2  A    between atoms: C2_7  and  O1_8 
REMARK    3  A    between atoms: C3_10  and  C4_11 
REMARK    4  A    between atoms: C4_11  and  C5_13 
REMARK    5  A    between atoms: C10_20  and  O3_21 
ROOT
HETATM    1  C4  UNL     1       2.591   3.166  70.379  1.00  0.00     0.177 C 
HETATM    2  O2  UNL     1       2.071   3.895  71.249  1.00  0.00    -0.291 OA
ENDROOT
BRANCH   1   3
HETATM    3  C3  UNL     1       1.802   2.889  69.169  1.00  0.00     0.105 A 
HETATM    4  C2  UNL     1       0.909   3.704  68.541  1.00  0.00     0.163 A 
HETATM    5  N2  UNL     1       0.315   3.242  67.461  1.00  0.00    -0.316 N 
HETATM    6  C1  UNL     1       0.614   2.018  67.045  1.00  0.00     0.145 A 
ATOM      7  H2  UNL     1      -0.363   3.813  66.955  1.00  0.00     0.170 HD
HETATM    8  S1  UNL     1       1.757   1.491  68.190  1.00  0.00    -0.046 SA
BRANCH   4   9
HETATM    9  O1  UNL     1       0.641   5.015  69.053  1.00  0.00    -0.345 OA
ATOM     10  H1  UNL     1       1.179   5.764  68.827  1.00  0.00     0.219 HD
ENDBRANCH   4   9
BRANCH   6  11
HETATM   11  N1  UNL     1       0.146   1.366  66.005  1.00  0.00    -0.380 N 
ATOM     12  H12 UNL     1      -0.123   0.384  65.945  1.00  0.00     0.158 HD
ATOM     13  H11 UNL     1      -0.037   1.714  65.064  1.00  0.00     0.158 HD
ENDBRANCH   6  11
ENDBRANCH   1   3
BRANCH   1  14
HETATM   14  C5  UNL     1       3.922   2.638  70.599  1.00  0.00     0.096 C 
HETATM   15  C6  UNL     1       4.072   1.789  71.830  1.00  0.00     0.015 C 
HETATM   16  C7  UNL     1       5.525   1.409  71.992  1.00  0.00     0.007 C 
HETATM   17  C8  UNL     1       6.353   1.805  70.798  1.00  0.00     0.082 C 
HETATM   18  C9  UNL     1       6.310   3.270  70.519  1.00  0.00     0.269 C 
HETATM   19  F1  UNL     1       7.159   3.978  71.355  1.00  0.00    -0.203 F 
HETATM   20  F2  UNL     1       6.773   3.505  69.225  1.00  0.00    -0.203 F 
HETATM   21  C10 UNL     1       4.910   3.776  70.689  1.00  0.00     0.202 C 
BRANCH  21  22
HETATM   22  O3  UNL     1       4.688   4.727  69.682  1.00  0.00    -0.389 OA
ATOM     23  H3  UNL     1       5.481   4.898  69.188  1.00  0.00     0.210 HD
ENDBRANCH  21  22
ENDBRANCH   1  14
TORSDOF 5
ENDMDL
