MODEL 1
REMARK VINA RESULT: -7.775475694      0.000      0.000
REMARK  5 active torsions:
REMARK  status: ('A' for Active; 'I' for Inactive)
REMARK    1  A    between atoms: C2_2  and  C5_5 
REMARK    2  A    between atoms: C5_5  and  S1_8 
REMARK    3  A    between atoms: S1_8  and  C6_9 
REMARK    4  A    between atoms: C7_12  and  C8_13 
REMARK    5  A    between atoms: C10_19  and  N4_20 
ROOT
HETATM    1  C6  UNL     1       3.530   4.037  68.301  1.00  0.00     0.215 A 
HETATM    2  N1  UNL     1       4.416   3.017  68.290  1.00  0.00    -0.313 N 
ATOM      3  H1  UNL     1       4.475   2.294  67.573  1.00  0.00     0.170 HD
HETATM    4  C7  UNL     1       5.194   3.101  69.355  1.00  0.00     0.143 A 
HETATM    5  N5  UNL     1       4.751   4.208  70.012  1.00  0.00    -0.241 N 
ATOM      6  H5  UNL     1       5.141   4.563  70.885  1.00  0.00     0.196 HD
HETATM    7  O1  UNL     1       3.763   4.749  69.370  1.00  0.00    -0.210 OA
ENDROOT
BRANCH   4   8
HETATM    8  C8  UNL     1       6.291   2.277  69.824  1.00  0.00     0.071 A 
HETATM    9  C9  UNL     1       6.350   0.875  69.711  1.00  0.00     0.126 A 
HETATM   10  N2  UNL     1       7.490   0.432  70.240  1.00  0.00    -0.309 N 
HETATM   11  N3  UNL     1       8.177   1.445  70.690  1.00  0.00    -0.285 N 
ATOM     12  H2  UNL     1       7.779  -0.546  70.285  1.00  0.00     0.186 HD
HETATM   13  C10 UNL     1       7.466   2.602  70.449  1.00  0.00     0.129 A 
ATOM     14  H3  UNL     1       9.088   1.390  71.144  1.00  0.00     0.188 HD
BRANCH  13  15
HETATM   15  N4  UNL     1       7.872   3.758  70.772  1.00  0.00    -0.384 N 
ATOM     16  H42 UNL     1       7.429   4.622  70.461  1.00  0.00     0.157 HD
ATOM     17  H41 UNL     1       8.669   3.992  71.366  1.00  0.00     0.157 HD
ENDBRANCH  13  15
ENDBRANCH   4   8
BRANCH   1  18
HETATM   18  S1  UNL     1       2.401   4.303  67.180  1.00  0.00    -0.006 SA
BRANCH  18  19
HETATM   19  C5  UNL     1       0.645   4.371  67.649  1.00  0.00     0.306 C 
HETATM   20  F1  UNL     1       0.431   5.402  68.549  1.00  0.00    -0.192 F 
HETATM   21  F2  UNL     1       0.302   3.143  68.187  1.00  0.00    -0.192 F 
BRANCH  19  22
HETATM   22  C2  UNL     1      -0.254   4.619  66.467  1.00  0.00     0.025 C 
HETATM   23  C1  UNL     1      -0.977   3.350  66.059  1.00  0.00     0.021 C 
HETATM   24  C3  UNL     1       0.646   5.043  65.311  1.00  0.00     0.021 C 
HETATM   25  C4  UNL     1      -1.223   5.755  66.715  1.00  0.00     0.021 C 
ENDBRANCH  19  22
ENDBRANCH  18  19
ENDBRANCH   1  18
TORSDOF 5
ENDMDL
MODEL 2
REMARK VINA RESULT: -7.652910442      0.691      1.606
REMARK  5 active torsions:
REMARK  status: ('A' for Active; 'I' for Inactive)
REMARK    1  A    between atoms: C2_2  and  C5_5 
REMARK    2  A    between atoms: C5_5  and  S1_8 
REMARK    3  A    between atoms: S1_8  and  C6_9 
REMARK    4  A    between atoms: C7_12  and  C8_13 
REMARK    5  A    between atoms: C10_19  and  N4_20 
ROOT
HETATM    1  C6  UNL     1       3.441   4.148  68.235  1.00  0.00     0.215 A 
HETATM    2  N1  UNL     1       4.498   3.308  68.183  1.00  0.00    -0.313 N 
ATOM      3  H1  UNL     1       4.716   2.682  67.408  1.00  0.00     0.170 HD
HETATM    4  C7  UNL     1       5.205   3.423  69.293  1.00  0.00     0.143 A 
HETATM    5  N5  UNL     1       4.541   4.364  70.021  1.00  0.00    -0.241 N 
ATOM      6  H5  UNL     1       4.824   4.694  70.943  1.00  0.00     0.196 HD
HETATM    7  O1  UNL     1       3.497   4.780  69.375  1.00  0.00    -0.210 OA
ENDROOT
BRANCH   4   8
HETATM    8  C8  UNL     1       6.415   2.766  69.748  1.00  0.00     0.071 A 
HETATM    9  C9  UNL     1       7.144   3.129  70.897  1.00  0.00     0.126 A 
HETATM   10  N2  UNL     1       8.198   2.324  71.028  1.00  0.00    -0.309 N 
HETATM   11  N3  UNL     1       8.208   1.465  70.047  1.00  0.00    -0.285 N 
ATOM     12  H2  UNL     1       8.888   2.373  71.778  1.00  0.00     0.186 HD
HETATM   13  C10 UNL     1       7.119   1.709  69.236  1.00  0.00     0.129 A 
ATOM     14  H3  UNL     1       8.905   0.735  69.903  1.00  0.00     0.188 HD
BRANCH  13  15
HETATM   15  N4  UNL     1       6.853   1.038  68.195  1.00  0.00    -0.384 N 
ATOM     16  H42 UNL     1       6.345   1.413  67.393  1.00  0.00     0.157 HD
ATOM     17  H41 UNL     1       7.094   0.065  68.006  1.00  0.00     0.157 HD
ENDBRANCH  13  15
ENDBRANCH   4   8
BRANCH   1  18
HETATM   18  S1  UNL     1       2.327   4.317  67.080  1.00  0.00    -0.006 SA
BRANCH  18  19
HETATM   19  C5  UNL     1       0.566   4.427  67.518  1.00  0.00     0.306 C 
HETATM   20  F1  UNL     1       0.366   5.440  68.441  1.00  0.00    -0.192 F 
HETATM   21  F2  UNL     1       0.174   3.197  68.014  1.00  0.00    -0.192 F 
BRANCH  19  22
HETATM   22  C2  UNL     1      -0.302   4.736  66.326  1.00  0.00     0.025 C 
HETATM   23  C1  UNL     1      -1.315   5.814  66.657  1.00  0.00     0.021 C 
HETATM   24  C3  UNL     1      -1.064   3.457  65.994  1.00  0.00     0.021 C 
HETATM   25  C4  UNL     1       0.514   5.097  65.104  1.00  0.00     0.021 C 
ENDBRANCH  19  22
ENDBRANCH  18  19
ENDBRANCH   1  18
TORSDOF 5
ENDMDL
MODEL 3
REMARK VINA RESULT: -7.545985359      1.180      1.649
REMARK  5 active torsions:
REMARK  status: ('A' for Active; 'I' for Inactive)
REMARK    1  A    between atoms: C2_2  and  C5_5 
REMARK    2  A    between atoms: C5_5  and  S1_8 
REMARK    3  A    between atoms: S1_8  and  C6_9 
REMARK    4  A    between atoms: C7_12  and  C8_13 
REMARK    5  A    between atoms: C10_19  and  N4_20 
ROOT
HETATM    1  C6  UNL     1       3.105   4.102  69.059  1.00  0.00     0.215 A 
HETATM    2  N1  UNL     1       3.970   3.120  68.726  1.00  0.00    -0.313 N 
ATOM      3  H1  UNL     1       3.792   2.383  68.043  1.00  0.00     0.170 HD
HETATM    4  C7  UNL     1       5.084   3.261  69.423  1.00  0.00     0.143 A 
HETATM    5  N5  UNL     1       4.865   4.364  70.191  1.00  0.00    -0.241 N 
ATOM      6  H5  UNL     1       5.534   4.756  70.854  1.00  0.00     0.196 HD
HETATM    7  O1  UNL     1       3.684   4.848  69.960  1.00  0.00    -0.210 OA
ENDROOT
BRANCH   4   8
HETATM    8  C8  UNL     1       6.314   2.495  69.455  1.00  0.00     0.071 A 
HETATM    9  C9  UNL     1       6.540   1.305  68.737  1.00  0.00     0.126 A 
HETATM   10  N2  UNL     1       7.770   0.858  68.989  1.00  0.00    -0.309 N 
HETATM   11  N3  UNL     1       8.361   1.672  69.819  1.00  0.00    -0.285 N 
ATOM     12  H2  UNL     1       8.184   0.014  68.594  1.00  0.00     0.186 HD
HETATM   13  C10 UNL     1       7.490   2.696  70.128  1.00  0.00     0.129 A 
ATOM     14  H3  UNL     1       9.309   1.569  70.180  1.00  0.00     0.188 HD
BRANCH  13  15
HETATM   15  N4  UNL     1       7.774   3.648  70.915  1.00  0.00    -0.384 N 
ATOM     16  H42 UNL     1       7.076   4.187  71.428  1.00  0.00     0.157 HD
ATOM     17  H41 UNL     1       8.701   4.007  71.145  1.00  0.00     0.157 HD
ENDBRANCH  13  15
ENDBRANCH   4   8
BRANCH   1  18
HETATM   18  S1  UNL     1       1.628   4.294  68.438  1.00  0.00    -0.006 SA
BRANCH  18  19
HETATM   19  C5  UNL     1       1.368   4.175  66.643  1.00  0.00     0.306 C 
HETATM   20  F1  UNL     1       1.534   2.866  66.223  1.00  0.00    -0.192 F 
HETATM   21  F2  UNL     1       2.266   5.028  66.026  1.00  0.00    -0.192 F 
BRANCH  19  22
HETATM   22  C2  UNL     1      -0.018   4.599  66.236  1.00  0.00     0.025 C 
HETATM   23  C1  UNL     1      -0.660   5.457  67.308  1.00  0.00     0.021 C 
HETATM   24  C3  UNL     1      -0.844   3.324  66.092  1.00  0.00     0.021 C 
HETATM   25  C4  UNL     1      -0.031   5.290  64.890  1.00  0.00     0.021 C 
ENDBRANCH  19  22
ENDBRANCH  18  19
ENDBRANCH   1  18
TORSDOF 5
ENDMDL
MODEL 4
REMARK VINA RESULT: -7.441650976      1.578      1.907
REMARK  5 active torsions:
REMARK  status: ('A' for Active; 'I' for Inactive)
REMARK    1  A    between atoms: C2_2  and  C5_5 
REMARK    2  A    between atoms: C5_5  and  S1_8 
REMARK    3  A    between atoms: S1_8  and  C6_9 
REMARK    4  A    between atoms: C7_12  and  C8_13 
REMARK    5  A    between atoms: C10_19  and  N4_20 
ROOT
HETATM    1  C6  UNL     1       3.113   4.153  69.823  1.00  0.00     0.215 A 
HETATM    2  N1  UNL     1       3.995   3.180  69.506  1.00  0.00    -0.313 N 
ATOM      3  H1  UNL     1       3.903   2.534  68.722  1.00  0.00     0.170 HD
HETATM    4  C7  UNL     1       4.995   3.195  70.369  1.00  0.00     0.143 A 
HETATM    5  N5  UNL     1       4.689   4.213  71.222  1.00  0.00    -0.241 N 
ATOM      6  H5  UNL     1       5.261   4.498  72.017  1.00  0.00     0.196 HD
HETATM    7  O1  UNL     1       3.569   4.768  70.881  1.00  0.00    -0.210 OA
ENDROOT
BRANCH   4   8
HETATM    8  C8  UNL     1       6.187   2.381  70.490  1.00  0.00     0.071 A 
HETATM    9  C9  UNL     1       6.227   0.983  70.322  1.00  0.00     0.126 A 
HETATM   10  N2  UNL     1       7.475   0.548  70.499  1.00  0.00    -0.309 N 
HETATM   11  N3  UNL     1       8.249   1.561  70.771  1.00  0.00    -0.285 N 
ATOM     12  H2  UNL     1       7.776  -0.425  70.432  1.00  0.00     0.186 HD
HETATM   13  C10 UNL     1       7.486   2.711  70.773  1.00  0.00     0.129 A 
ATOM     14  H3  UNL     1       9.251   1.512  70.952  1.00  0.00     0.188 HD
BRANCH  13  15
HETATM   15  N4  UNL     1       7.954   3.865  71.006  1.00  0.00    -0.384 N 
ATOM     16  H42 UNL     1       7.515   4.729  70.688  1.00  0.00     0.157 HD
ATOM     17  H41 UNL     1       8.802   4.098  71.523  1.00  0.00     0.157 HD
ENDBRANCH  13  15
ENDBRANCH   4   8
BRANCH   1  18
HETATM   18  S1  UNL     1       1.751   4.475  69.021  1.00  0.00    -0.006 SA
BRANCH  18  19
HETATM   19  C5  UNL     1       1.715   4.385  67.205  1.00  0.00     0.306 C 
HETATM   20  F1  UNL     1       2.965   4.683  66.688  1.00  0.00    -0.192 F 
HETATM   21  F2  UNL     1       0.751   5.268  66.755  1.00  0.00    -0.192 F 
BRANCH  19  22
HETATM   22  C2  UNL     1       1.345   3.012  66.708  1.00  0.00     0.025 C 
HETATM   23  C1  UNL     1       0.674   2.202  67.799  1.00  0.00     0.021 C 
HETATM   24  C3  UNL     1       2.649   2.314  66.333  1.00  0.00     0.021 C 
HETATM   25  C4  UNL     1       0.496   3.069  65.456  1.00  0.00     0.021 C 
ENDBRANCH  19  22
ENDBRANCH  18  19
ENDBRANCH   1  18
TORSDOF 5
ENDMDL
MODEL 5
REMARK VINA RESULT: -7.316141559      1.335      2.040
REMARK  5 active torsions:
REMARK  status: ('A' for Active; 'I' for Inactive)
REMARK    1  A    between atoms: C2_2  and  C5_5 
REMARK    2  A    between atoms: C5_5  and  S1_8 
REMARK    3  A    between atoms: S1_8  and  C6_9 
REMARK    4  A    between atoms: C7_12  and  C8_13 
REMARK    5  A    between atoms: C10_19  and  N4_20 
ROOT
HETATM    1  C6  UNL     1       3.061   4.183  69.396  1.00  0.00     0.215 A 
HETATM    2  N1  UNL     1       3.996   3.244  69.129  1.00  0.00    -0.313 N 
ATOM      3  H1  UNL     1       3.909   2.507  68.431  1.00  0.00     0.170 HD
HETATM    4  C7  UNL     1       5.041   3.430  69.916  1.00  0.00     0.143 A 
HETATM    5  N5  UNL     1       4.709   4.516  70.669  1.00  0.00    -0.241 N 
ATOM      6  H5  UNL     1       5.303   4.932  71.386  1.00  0.00     0.196 HD
HETATM    7  O1  UNL     1       3.530   4.947  70.344  1.00  0.00    -0.210 OA
ENDROOT
BRANCH   4   8
HETATM    8  C8  UNL     1       6.299   2.722  70.045  1.00  0.00     0.071 A 
HETATM    9  C9  UNL     1       7.198   2.867  71.119  1.00  0.00     0.126 A 
HETATM   10  N2  UNL     1       8.252   2.074  70.929  1.00  0.00    -0.309 N 
HETATM   11  N3  UNL     1       8.104   1.423  69.808  1.00  0.00    -0.285 N 
ATOM     12  H2  UNL     1       9.049   1.989  71.561  1.00  0.00     0.186 HD
HETATM   13  C10 UNL     1       6.907   1.799  69.235  1.00  0.00     0.129 A 
ATOM     14  H3  UNL     1       8.763   0.749  69.420  1.00  0.00     0.188 HD
BRANCH  13  15
HETATM   15  N4  UNL     1       6.478   1.339  68.135  1.00  0.00    -0.384 N 
ATOM     16  H42 UNL     1       5.632   1.671  67.673  1.00  0.00     0.157 HD
ATOM     17  H41 UNL     1       6.894   0.600  67.568  1.00  0.00     0.157 HD
ENDBRANCH  13  15
ENDBRANCH   4   8
BRANCH   1  18
HETATM   18  S1  UNL     1       1.633   4.312  68.657  1.00  0.00    -0.006 SA
BRANCH  18  19
HETATM   19  C5  UNL     1       1.515   4.117  66.853  1.00  0.00     0.306 C 
HETATM   20  F1  UNL     1       1.681   2.787  66.506  1.00  0.00    -0.192 F 
HETATM   21  F2  UNL     1       2.480   4.922  66.275  1.00  0.00    -0.192 F 
BRANCH  19  22
HETATM   22  C2  UNL     1       0.176   4.552  66.317  1.00  0.00     0.025 C 
HETATM   23  C1  UNL     1      -0.528   5.470  67.295  1.00  0.00     0.021 C 
HETATM   24  C3  UNL     1      -0.666   3.290  66.161  1.00  0.00     0.021 C 
HETATM   25  C4  UNL     1       0.289   5.182  64.946  1.00  0.00     0.021 C 
ENDBRANCH  19  22
ENDBRANCH  18  19
ENDBRANCH   1  18
TORSDOF 5
ENDMDL
