MODEL 1
REMARK VINA RESULT: -7.094211918      0.000      0.000
REMARK  4 active torsions:
REMARK  status: ('A' for Active; 'I' for Inactive)
REMARK    1  A    between atoms: C2_2  and  C3_3 
REMARK    2  A    between atoms: C3_3  and  C5_5 
REMARK    3  A    between atoms: C9_16  and  N4_17 
REMARK    4  A    between atoms: S1_20  and  C10_21 
ROOT
HETATM    1  C5  UNL     1       5.676   2.147  68.258  1.00  0.00     0.149 C 
HETATM    2  N1  UNL     1       4.346   2.316  67.748  1.00  0.00    -0.371 N 
ATOM      3  H1  UNL     1       4.122   2.049  66.790  1.00  0.00     0.161 HD
HETATM    4  C6  UNL     1       3.374   2.847  68.575  1.00  0.00     0.106 A 
HETATM    5  C7  UNL     1       3.361   2.487  69.881  1.00  0.00     0.101 A 
HETATM    6  N2  UNL     1       2.497   2.882  70.759  1.00  0.00    -0.301 N 
ATOM      7  H2  UNL     1       2.568   2.554  71.722  1.00  0.00     0.171 HD
HETATM    8  C8  UNL     1       1.482   3.745  70.400  1.00  0.00     0.326 A 
HETATM    9  O1  UNL     1       0.642   4.141  71.218  1.00  0.00    -0.247 OA
HETATM   10  N3  UNL     1       1.434   4.146  69.124  1.00  0.00    -0.293 N 
ATOM     11  H3  UNL     1       0.695   4.784  68.831  1.00  0.00     0.172 HD
HETATM   12  C9  UNL     1       2.325   3.733  68.230  1.00  0.00     0.132 A 
HETATM   13  S1  UNL     1       5.067   1.244  70.028  1.00  0.00    -0.080 SA
ENDROOT
BRANCH   1  14
HETATM   14  C3  UNL     1       6.636   1.436  67.502  1.00  0.00     0.014 C 
HETATM   15  C4  UNL     1       5.825   0.874  66.268  1.00  0.00     0.012 C 
BRANCH  14  16
HETATM   16  C2  UNL     1       7.445   0.306  67.930  1.00  0.00     0.002 C 
HETATM   17  C1  UNL     1       7.057  -1.075  67.513  1.00  0.00     0.005 C 
ENDBRANCH  14  16
ENDBRANCH   1  14
BRANCH  13  18
HETATM   18  C10 UNL     1       6.099   1.224  71.560  1.00  0.00     0.414 C 
HETATM   19  F1  UNL     1       6.974   2.284  71.633  1.00  0.00    -0.203 F 
HETATM   20  F2  UNL     1       5.386   1.207  72.736  1.00  0.00    -0.203 F 
ENDBRANCH  13  18
BRANCH  12  21
HETATM   21  N4  UNL     1       2.196   4.176  67.002  1.00  0.00    -0.383 N 
ATOM     22  H42 UNL     1       2.908   4.822  66.660  1.00  0.00     0.157 HD
ATOM     23  H41 UNL     1       1.410   3.884  66.421  1.00  0.00     0.157 HD
ENDBRANCH  12  21
TORSDOF 4
ENDMDL
MODEL 2
REMARK VINA RESULT: -7.059214508      1.820      2.176
REMARK  4 active torsions:
REMARK  status: ('A' for Active; 'I' for Inactive)
REMARK    1  A    between atoms: C2_2  and  C3_3 
REMARK    2  A    between atoms: C3_3  and  C5_5 
REMARK    3  A    between atoms: C9_16  and  N4_17 
REMARK    4  A    between atoms: S1_20  and  C10_21 
ROOT
HETATM    1  C5  UNL     1       5.112   0.606  68.819  1.00  0.00     0.149 C 
HETATM    2  N1  UNL     1       3.723   0.844  69.084  1.00  0.00    -0.371 N 
ATOM      3  H1  UNL     1       3.044   0.089  69.003  1.00  0.00     0.161 HD
HETATM    4  C6  UNL     1       3.319   2.115  69.450  1.00  0.00     0.106 A 
HETATM    5  C7  UNL     1       4.111   2.837  70.278  1.00  0.00     0.101 A 
HETATM    6  N2  UNL     1       3.847   4.023  70.723  1.00  0.00    -0.301 N 
ATOM      7  H2  UNL     1       4.507   4.489  71.346  1.00  0.00     0.171 HD
HETATM    8  C8  UNL     1       2.679   4.661  70.359  1.00  0.00     0.326 A 
HETATM    9  O1  UNL     1       2.400   5.795  70.768  1.00  0.00    -0.247 OA
HETATM   10  N3  UNL     1       1.848   4.006  69.540  1.00  0.00    -0.293 N 
ATOM     11  H3  UNL     1       0.977   4.454  69.255  1.00  0.00     0.172 HD
HETATM   12  C9  UNL     1       2.128   2.788  69.090  1.00  0.00     0.132 A 
HETATM   13  S1  UNL     1       5.781   1.563  70.538  1.00  0.00    -0.080 SA
ENDROOT
BRANCH   1  14
HETATM   14  C3  UNL     1       5.577  -0.715  68.629  1.00  0.00     0.014 C 
HETATM   15  C4  UNL     1       6.844  -0.556  67.699  1.00  0.00     0.012 C 
BRANCH  14  16
HETATM   16  C2  UNL     1       4.856  -1.836  68.047  1.00  0.00     0.002 C 
HETATM   17  C1  UNL     1       5.235  -3.230  68.427  1.00  0.00     0.005 C 
ENDBRANCH  14  16
ENDBRANCH   1  14
BRANCH  13  18
HETATM   18  C10 UNL     1       7.486   2.254  70.712  1.00  0.00     0.414 C 
HETATM   19  F1  UNL     1       8.252   2.088  69.581  1.00  0.00    -0.203 F 
HETATM   20  F2  UNL     1       7.536   3.589  71.043  1.00  0.00    -0.203 F 
ENDBRANCH  13  18
BRANCH  12  21
HETATM   21  N4  UNL     1       1.250   2.224  68.294  1.00  0.00    -0.383 N 
ATOM     22  H42 UNL     1       1.601   1.808  67.431  1.00  0.00     0.157 HD
ATOM     23  H41 UNL     1       0.260   2.209  68.535  1.00  0.00     0.157 HD
ENDBRANCH  12  21
TORSDOF 4
ENDMDL
MODEL 3
REMARK VINA RESULT: -7.031893658      1.301      1.427
REMARK  4 active torsions:
REMARK  status: ('A' for Active; 'I' for Inactive)
REMARK    1  A    between atoms: C2_2  and  C3_3 
REMARK    2  A    between atoms: C3_3  and  C5_5 
REMARK    3  A    between atoms: C9_16  and  N4_17 
REMARK    4  A    between atoms: S1_20  and  C10_21 
ROOT
HETATM    1  C5  UNL     1       5.895   1.919  67.888  1.00  0.00     0.149 C 
HETATM    2  N1  UNL     1       4.473   2.002  67.724  1.00  0.00    -0.371 N 
ATOM      3  H1  UNL     1       3.989   1.375  67.082  1.00  0.00     0.161 HD
HETATM    4  C6  UNL     1       3.769   2.947  68.447  1.00  0.00     0.106 A 
HETATM    5  C7  UNL     1       4.134   3.192  69.728  1.00  0.00     0.101 A 
HETATM    6  N2  UNL     1       3.551   4.025  70.527  1.00  0.00    -0.301 N 
ATOM      7  H2  UNL     1       3.898   4.141  71.480  1.00  0.00     0.171 HD
HETATM    8  C8  UNL     1       2.463   4.758  70.099  1.00  0.00     0.326 A 
HETATM    9  O1  UNL     1       1.886   5.563  70.841  1.00  0.00    -0.247 OA
HETATM   10  N3  UNL     1       2.048   4.570  68.841  1.00  0.00    -0.293 N 
ATOM     11  H3  UNL     1       1.247   5.098  68.498  1.00  0.00     0.172 HD
HETATM   12  C9  UNL     1       2.653   3.710  68.029  1.00  0.00     0.132 A 
HETATM   13  S1  UNL     1       5.829   1.947  69.965  1.00  0.00    -0.080 SA
ENDROOT
BRANCH   1  14
HETATM   14  C3  UNL     1       6.610   0.844  67.310  1.00  0.00     0.014 C 
HETATM   15  C4  UNL     1       5.544   0.105  66.408  1.00  0.00     0.012 C 
BRANCH  14  16
HETATM   16  C2  UNL     1       7.296  -0.238  67.995  1.00  0.00     0.002 C 
HETATM   17  C1  UNL     1       6.626  -1.568  68.125  1.00  0.00     0.005 C 
ENDBRANCH  14  16
ENDBRANCH   1  14
BRANCH  13  18
HETATM   18  C10 UNL     1       7.256   2.474  71.015  1.00  0.00     0.414 C 
HETATM   19  F1  UNL     1       8.208   1.492  71.160  1.00  0.00    -0.203 F 
HETATM   20  F2  UNL     1       7.903   3.607  70.580  1.00  0.00    -0.203 F 
ENDBRANCH  13  18
BRANCH  12  21
HETATM   21  N4  UNL     1       2.173   3.590  66.814  1.00  0.00    -0.383 N 
ATOM     22  H42 UNL     1       1.624   2.755  66.608  1.00  0.00     0.157 HD
ATOM     23  H41 UNL     1       2.348   4.306  66.110  1.00  0.00     0.157 HD
ENDBRANCH  12  21
TORSDOF 4
ENDMDL
MODEL 4
REMARK VINA RESULT: -6.982441165      3.618      5.058
REMARK  4 active torsions:
REMARK  status: ('A' for Active; 'I' for Inactive)
REMARK    1  A    between atoms: C2_2  and  C3_3 
REMARK    2  A    between atoms: C3_3  and  C5_5 
REMARK    3  A    between atoms: C9_16  and  N4_17 
REMARK    4  A    between atoms: S1_20  and  C10_21 
ROOT
HETATM    1  C5  UNL     1       3.624   1.957  68.114  1.00  0.00     0.149 C 
HETATM    2  N1  UNL     1       5.022   1.856  67.813  1.00  0.00    -0.371 N 
ATOM      3  H1  UNL     1       5.333   1.533  66.898  1.00  0.00     0.161 HD
HETATM    4  C6  UNL     1       5.943   2.204  68.784  1.00  0.00     0.106 A 
HETATM    5  C7  UNL     1       5.683   3.271  69.577  1.00  0.00     0.101 A 
HETATM    6  N2  UNL     1       6.463   3.724  70.504  1.00  0.00    -0.301 N 
ATOM      7  H2  UNL     1       6.181   4.538  71.051  1.00  0.00     0.171 HD
HETATM    8  C8  UNL     1       7.674   3.113  70.758  1.00  0.00     0.326 A 
HETATM    9  O1  UNL     1       8.441   3.523  71.638  1.00  0.00    -0.247 OA
HETATM   10  N3  UNL     1       7.997   2.049  70.013  1.00  0.00    -0.293 N 
ATOM     11  H3  UNL     1       8.885   1.578  70.179  1.00  0.00     0.172 HD
HETATM   12  C9  UNL     1       7.189   1.593  69.062  1.00  0.00     0.132 A 
HETATM   13  S1  UNL     1       3.759   3.865  68.925  1.00  0.00    -0.080 SA
ENDROOT
BRANCH   1  14
HETATM   14  C3  UNL     1       2.668   1.791  67.086  1.00  0.00     0.014 C 
HETATM   15  C4  UNL     1       1.411   1.171  67.814  1.00  0.00     0.012 C 
BRANCH  14  16
HETATM   16  C2  UNL     1       2.794   0.997  65.874  1.00  0.00     0.002 C 
HETATM   17  C1  UNL     1       1.847   1.228  64.742  1.00  0.00     0.005 C 
ENDBRANCH  14  16
ENDBRANCH   1  14
BRANCH  13  18
HETATM   18  C10 UNL     1       2.521   4.548  70.115  1.00  0.00     0.414 C 
HETATM   19  F1  UNL     1       1.508   5.243  69.497  1.00  0.00    -0.203 F 
HETATM   20  F2  UNL     1       1.932   3.613  70.934  1.00  0.00    -0.203 F 
ENDBRANCH  13  18
BRANCH  12  21
HETATM   21  N4  UNL     1       7.592   0.546  68.382  1.00  0.00    -0.383 N 
ATOM     22  H42 UNL     1       6.951  -0.245  68.316  1.00  0.00     0.157 HD
ATOM     23  H41 UNL     1       8.511   0.532  67.941  1.00  0.00     0.157 HD
ENDBRANCH  12  21
TORSDOF 4
ENDMDL
MODEL 5
REMARK VINA RESULT: -6.888259195      1.199      1.430
REMARK  4 active torsions:
REMARK  status: ('A' for Active; 'I' for Inactive)
REMARK    1  A    between atoms: C2_2  and  C3_3 
REMARK    2  A    between atoms: C3_3  and  C5_5 
REMARK    3  A    between atoms: C9_16  and  N4_17 
REMARK    4  A    between atoms: S1_20  and  C10_21 
ROOT
HETATM    1  C5  UNL     1       5.609   1.751  67.881  1.00  0.00     0.149 C 
HETATM    2  N1  UNL     1       4.226   1.372  67.858  1.00  0.00    -0.371 N 
ATOM      3  H1  UNL     1       3.915   0.583  67.293  1.00  0.00     0.161 HD
HETATM    4  C6  UNL     1       3.321   2.094  68.615  1.00  0.00     0.106 A 
HETATM    5  C7  UNL     1       3.696   2.525  69.843  1.00  0.00     0.101 A 
HETATM    6  N2  UNL     1       2.947   3.185  70.666  1.00  0.00    -0.301 N 
ATOM      7  H2  UNL     1       3.318   3.466  71.574  1.00  0.00     0.171 HD
HETATM    8  C8  UNL     1       1.650   3.509  70.324  1.00  0.00     0.326 A 
HETATM    9  O1  UNL     1       0.911   4.139  71.091  1.00  0.00    -0.247 OA
HETATM   10  N3  UNL     1       1.212   3.116  69.123  1.00  0.00    -0.293 N 
ATOM     11  H3  UNL     1       0.258   3.342  68.843  1.00  0.00     0.172 HD
HETATM   12  C9  UNL     1       1.989   2.438  68.285  1.00  0.00     0.132 A 
HETATM   13  S1  UNL     1       5.713   1.895  69.952  1.00  0.00    -0.080 SA
ENDROOT
BRANCH   1  14
HETATM   14  C3  UNL     1       6.577   0.920  67.272  1.00  0.00     0.014 C 
HETATM   15  C4  UNL     1       5.797   0.199  66.103  1.00  0.00     0.012 C 
BRANCH  14  16
HETATM   16  C2  UNL     1       7.345  -0.150  67.889  1.00  0.00     0.002 C 
HETATM   17  C1  UNL     1       6.720  -1.496  68.064  1.00  0.00     0.005 C 
ENDBRANCH  14  16
ENDBRANCH   1  14
BRANCH  13  18
HETATM   18  C10 UNL     1       6.980   2.912  70.832  1.00  0.00     0.414 C 
HETATM   19  F1  UNL     1       7.851   2.155  71.582  1.00  0.00    -0.203 F 
HETATM   20  F2  UNL     1       7.742   3.717  70.016  1.00  0.00    -0.203 F 
ENDBRANCH  13  18
BRANCH  12  21
HETATM   21  N4  UNL     1       1.471   2.093  67.130  1.00  0.00    -0.383 N 
ATOM     22  H42 UNL     1       1.969   2.383  66.288  1.00  0.00     0.157 HD
ATOM     23  H41 UNL     1       0.604   1.559  67.085  1.00  0.00     0.157 HD
ENDBRANCH  12  21
TORSDOF 4
ENDMDL
