MODEL 1
REMARK VINA RESULT: -6.816035640      0.000      0.000
REMARK  5 active torsions:
REMARK  status: ('A' for Active; 'I' for Inactive)
REMARK    1  A    between atoms: C2_2  and  S1_5 
REMARK    2  A    between atoms: S1_5  and  C3_6 
REMARK    3  A    between atoms: C5_13  and  O1_14 
REMARK    4  A    between atoms: C6_16  and  C7_17 
REMARK    5  A    between atoms: C7_17  and  C8_18 
ROOT
HETATM    1  C3  UNL     1       4.803   1.819  68.915  1.00  0.00     0.088 A 
HETATM    2  N1  UNL     1       3.866   2.363  68.116  1.00  0.00    -0.327 N 
ATOM      3  H1  UNL     1       3.483   1.801  67.356  1.00  0.00     0.169 HD
HETATM    4  C4  UNL     1       3.414   3.630  68.282  1.00  0.00     0.178 A 
HETATM    5  S2  UNL     1       2.274   4.278  67.300  1.00  0.00    -0.040 SA
HETATM    6  N2  UNL     1       3.938   4.342  69.288  1.00  0.00    -0.313 N 
ATOM      7  H2  UNL     1       3.610   5.298  69.430  1.00  0.00     0.170 HD
HETATM    8  C5  UNL     1       4.874   3.856  70.120  1.00  0.00     0.151 A 
HETATM    9  C6  UNL     1       5.337   2.559  69.949  1.00  0.00     0.036 A 
ENDROOT
BRANCH   1  10
HETATM   10  S1  UNL     1       5.320   0.294  68.675  1.00  0.00    -0.035 SA
BRANCH  10  11
HETATM   11  C2  UNL     1       6.450  -0.152  67.309  1.00  0.00     0.294 C 
HETATM   12  C1  UNL     1       5.775  -0.960  66.250  1.00  0.00     0.103 C 
HETATM   13  F1  UNL     1       7.538  -0.858  67.764  1.00  0.00    -0.194 F 
HETATM   14  F2  UNL     1       6.930   1.023  66.767  1.00  0.00    -0.194 F 
ENDBRANCH  10  11
ENDBRANCH   1  10
BRANCH   9  15
HETATM   15  C7  UNL     1       6.372   2.040  70.879  1.00  0.00     0.159 C 
BRANCH  15  16
HETATM   16  C8  UNL     1       7.717   2.462  70.365  1.00  0.00     0.177 C 
HETATM   17  O2  UNL     1       8.365   1.714  69.589  1.00  0.00    -0.648 OA
HETATM   18  O3  UNL     1       8.270   3.672  70.730  1.00  0.00    -0.648 OA
ENDBRANCH  15  16
ENDBRANCH   9  15
BRANCH   8  19
HETATM   19  O1  UNL     1       5.396   4.635  71.160  1.00  0.00    -0.346 OA
ATOM     20  H1  UNL     1       5.987   4.264  71.805  1.00  0.00     0.219 HD
ENDBRANCH   8  19
TORSDOF 5
ENDMDL
MODEL 2
REMARK VINA RESULT: -6.712666341      1.435      1.509
REMARK  5 active torsions:
REMARK  status: ('A' for Active; 'I' for Inactive)
REMARK    1  A    between atoms: C2_2  and  S1_5 
REMARK    2  A    between atoms: S1_5  and  C3_6 
REMARK    3  A    between atoms: C5_13  and  O1_14 
REMARK    4  A    between atoms: C6_16  and  C7_17 
REMARK    5  A    between atoms: C7_17  and  C8_18 
ROOT
HETATM    1  C3  UNL     1       4.960   2.795  68.702  1.00  0.00     0.088 A 
HETATM    2  N1  UNL     1       3.630   2.940  68.551  1.00  0.00    -0.327 N 
ATOM      3  H1  UNL     1       3.170   2.463  67.776  1.00  0.00     0.169 HD
HETATM    4  C4  UNL     1       2.880   3.695  69.390  1.00  0.00     0.178 A 
HETATM    5  S2  UNL     1       1.263   3.861  69.193  1.00  0.00    -0.040 SA
HETATM    6  N2  UNL     1       3.514   4.308  70.398  1.00  0.00    -0.313 N 
ATOM      7  H2  UNL     1       2.967   4.881  71.040  1.00  0.00     0.170 HD
HETATM    8  C5  UNL     1       4.838   4.203  70.602  1.00  0.00     0.151 A 
HETATM    9  C6  UNL     1       5.606   3.430  69.743  1.00  0.00     0.036 A 
ENDROOT
BRANCH   1  10
HETATM   10  S1  UNL     1       5.822   1.881  67.667  1.00  0.00    -0.035 SA
BRANCH  10  11
HETATM   11  C2  UNL     1       6.412   0.206  68.100  1.00  0.00     0.294 C 
HETATM   12  C1  UNL     1       6.074  -0.807  67.055  1.00  0.00     0.103 C 
HETATM   13  F1  UNL     1       5.891  -0.220  69.298  1.00  0.00    -0.194 F 
HETATM   14  F2  UNL     1       7.782   0.275  68.258  1.00  0.00    -0.194 F 
ENDBRANCH  10  11
ENDBRANCH   1  10
BRANCH   9  15
HETATM   15  C7  UNL     1       7.067   3.326  69.986  1.00  0.00     0.159 C 
BRANCH  15  16
HETATM   16  C8  UNL     1       7.296   2.259  71.015  1.00  0.00     0.177 C 
HETATM   17  O2  UNL     1       8.345   1.567  70.993  1.00  0.00    -0.648 OA
HETATM   18  O3  UNL     1       6.365   2.014  72.004  1.00  0.00    -0.648 OA
ENDBRANCH  15  16
ENDBRANCH   9  15
BRANCH   8  19
HETATM   19  O1  UNL     1       5.462   4.862  71.669  1.00  0.00    -0.346 OA
ATOM     20  H1  UNL     1       5.616   5.799  71.647  1.00  0.00     0.219 HD
ENDBRANCH   8  19
TORSDOF 5
ENDMDL
MODEL 3
REMARK VINA RESULT: -6.432108222      2.584      3.186
REMARK  5 active torsions:
REMARK  status: ('A' for Active; 'I' for Inactive)
REMARK    1  A    between atoms: C2_2  and  S1_5 
REMARK    2  A    between atoms: S1_5  and  C3_6 
REMARK    3  A    between atoms: C5_13  and  O1_14 
REMARK    4  A    between atoms: C6_16  and  C7_17 
REMARK    5  A    between atoms: C7_17  and  C8_18 
ROOT
HETATM    1  C3  UNL     1       4.094   3.762  68.641  1.00  0.00     0.088 A 
HETATM    2  N1  UNL     1       3.388   3.956  67.511  1.00  0.00    -0.327 N 
ATOM      3  H1  UNL     1       3.852   3.816  66.613  1.00  0.00     0.169 HD
HETATM    4  C4  UNL     1       2.085   4.328  67.521  1.00  0.00     0.178 A 
HETATM    5  S2  UNL     1       1.240   4.560  66.138  1.00  0.00    -0.040 SA
HETATM    6  N2  UNL     1       1.506   4.503  68.716  1.00  0.00    -0.313 N 
ATOM      7  H2  UNL     1       0.525   4.784  68.745  1.00  0.00     0.170 HD
HETATM    8  C5  UNL     1       2.155   4.326  69.879  1.00  0.00     0.151 A 
HETATM    9  C6  UNL     1       3.490   3.944  69.867  1.00  0.00     0.036 A 
ENDROOT
BRANCH   1  10
HETATM   10  S1  UNL     1       5.659   3.319  68.580  1.00  0.00    -0.035 SA
BRANCH  10  11
HETATM   11  C2  UNL     1       6.175   1.577  68.379  1.00  0.00     0.294 C 
HETATM   12  C1  UNL     1       7.174   1.154  69.406  1.00  0.00     0.103 C 
HETATM   13  F1  UNL     1       6.713   1.349  67.135  1.00  0.00    -0.194 F 
HETATM   14  F2  UNL     1       5.042   0.794  68.478  1.00  0.00    -0.194 F 
ENDBRANCH  10  11
ENDBRANCH   1  10
BRANCH   9  15
HETATM   15  C7  UNL     1       4.190   3.753  71.163  1.00  0.00     0.159 C 
BRANCH  15  16
HETATM   16  C8  UNL     1       3.695   2.478  71.779  1.00  0.00     0.177 C 
HETATM   17  O2  UNL     1       4.010   1.367  71.283  1.00  0.00    -0.648 OA
HETATM   18  O3  UNL     1       2.886   2.497  72.897  1.00  0.00    -0.648 OA
ENDBRANCH  15  16
ENDBRANCH   9  15
BRANCH   8  19
HETATM   19  O1  UNL     1       1.512   4.520  71.107  1.00  0.00    -0.346 OA
ATOM     20  H1  UNL     1       1.415   5.388  71.481  1.00  0.00     0.219 HD
ENDBRANCH   8  19
TORSDOF 5
ENDMDL
MODEL 4
REMARK VINA RESULT: -6.362579227      2.455      3.076
REMARK  5 active torsions:
REMARK  status: ('A' for Active; 'I' for Inactive)
REMARK    1  A    between atoms: C2_2  and  S1_5 
REMARK    2  A    between atoms: S1_5  and  C3_6 
REMARK    3  A    between atoms: C5_13  and  O1_14 
REMARK    4  A    between atoms: C6_16  and  C7_17 
REMARK    5  A    between atoms: C7_17  and  C8_18 
ROOT
HETATM    1  C3  UNL     1       4.005   2.483  68.981  1.00  0.00     0.088 A 
HETATM    2  N1  UNL     1       3.254   2.594  67.870  1.00  0.00    -0.327 N 
ATOM      3  H1  UNL     1       3.367   1.901  67.130  1.00  0.00     0.169 HD
HETATM    4  C4  UNL     1       2.354   3.592  67.696  1.00  0.00     0.178 A 
HETATM    5  S2  UNL     1       1.448   3.714  66.337  1.00  0.00    -0.040 SA
HETATM    6  N2  UNL     1       2.228   4.486  68.686  1.00  0.00    -0.313 N 
ATOM      7  H2  UNL     1       1.556   5.244  68.574  1.00  0.00     0.170 HD
HETATM    8  C5  UNL     1       2.948   4.430  69.819  1.00  0.00     0.151 A 
HETATM    9  C6  UNL     1       3.870   3.407  69.996  1.00  0.00     0.036 A 
ENDROOT
BRANCH   1  10
HETATM   10  S1  UNL     1       5.078   1.269  69.145  1.00  0.00    -0.035 SA
BRANCH  10  11
HETATM   11  C2  UNL     1       6.875   1.567  69.300  1.00  0.00     0.294 C 
HETATM   12  C1  UNL     1       7.455   0.936  70.523  1.00  0.00     0.103 C 
HETATM   13  F1  UNL     1       7.164   2.911  69.329  1.00  0.00    -0.194 F 
HETATM   14  F2  UNL     1       7.481   1.049  68.174  1.00  0.00    -0.194 F 
ENDBRANCH  10  11
ENDBRANCH   1  10
BRANCH   9  15
HETATM   15  C7  UNL     1       4.655   3.362  71.256  1.00  0.00     0.159 C 
BRANCH  15  16
HETATM   16  C8  UNL     1       3.972   2.417  72.200  1.00  0.00     0.177 C 
HETATM   17  O2  UNL     1       2.810   2.659  72.614  1.00  0.00    -0.648 OA
HETATM   18  O3  UNL     1       4.600   1.266  72.631  1.00  0.00    -0.648 OA
ENDBRANCH  15  16
ENDBRANCH   9  15
BRANCH   8  19
HETATM   19  O1  UNL     1       2.787   5.385  70.830  1.00  0.00    -0.346 OA
ATOM     20  H1  UNL     1       2.792   5.138  71.747  1.00  0.00     0.219 HD
ENDBRANCH   8  19
TORSDOF 5
ENDMDL
MODEL 5
REMARK VINA RESULT: -6.358229345      2.547      4.278
REMARK  5 active torsions:
REMARK  status: ('A' for Active; 'I' for Inactive)
REMARK    1  A    between atoms: C2_2  and  S1_5 
REMARK    2  A    between atoms: S1_5  and  C3_6 
REMARK    3  A    between atoms: C5_13  and  O1_14 
REMARK    4  A    between atoms: C6_16  and  C7_17 
REMARK    5  A    between atoms: C7_17  and  C8_18 
ROOT
HETATM    1  C3  UNL     1       4.984   1.472  68.727  1.00  0.00     0.088 A 
HETATM    2  N1  UNL     1       4.973   0.166  68.402  1.00  0.00    -0.327 N 
ATOM      3  H1  UNL     1       4.108  -0.245  68.049  1.00  0.00     0.169 HD
HETATM    4  C4  UNL     1       6.067  -0.625  68.525  1.00  0.00     0.178 A 
HETATM    5  S2  UNL     1       6.037  -2.213  68.126  1.00  0.00    -0.040 SA
HETATM    6  N2  UNL     1       7.186  -0.056  68.992  1.00  0.00    -0.313 N 
ATOM      7  H2  UNL     1       8.020  -0.634  69.092  1.00  0.00     0.170 HD
HETATM    8  C5  UNL     1       7.262   1.241  69.333  1.00  0.00     0.151 A 
HETATM    9  C6  UNL     1       6.141   2.050  69.207  1.00  0.00     0.036 A 
ENDROOT
BRANCH   1  10
HETATM   10  S1  UNL     1       3.644   2.382  68.567  1.00  0.00    -0.035 SA
BRANCH  10  11
HETATM   11  C2  UNL     1       3.286   3.336  67.049  1.00  0.00     0.294 C 
HETATM   12  C1  UNL     1       2.240   4.381  67.264  1.00  0.00     0.103 C 
HETATM   13  F1  UNL     1       2.874   2.518  66.023  1.00  0.00    -0.194 F 
HETATM   14  F2  UNL     1       4.464   3.929  66.643  1.00  0.00    -0.194 F 
ENDBRANCH  10  11
ENDBRANCH   1  10
BRANCH   9  15
HETATM   15  C7  UNL     1       6.244   3.481  69.589  1.00  0.00     0.159 C 
BRANCH  15  16
HETATM   16  C8  UNL     1       5.919   3.600  71.049  1.00  0.00     0.177 C 
HETATM   17  O2  UNL     1       5.325   4.617  71.489  1.00  0.00    -0.648 OA
HETATM   18  O3  UNL     1       6.264   2.602  71.937  1.00  0.00    -0.648 OA
ENDBRANCH  15  16
ENDBRANCH   9  15
BRANCH   8  19
HETATM   19  O1  UNL     1       8.452   1.796  69.817  1.00  0.00    -0.346 OA
ATOM     20  H1  UNL     1       8.912   2.473  69.334  1.00  0.00     0.219 HD
ENDBRANCH   8  19
TORSDOF 5
ENDMDL
