MODEL 1
REMARK VINA RESULT: -6.194828473      0.000      0.000
REMARK  3 active torsions:
REMARK  status: ('A' for Active; 'I' for Inactive)
REMARK    1  A    between atoms: C2_2  and  N2_6 
REMARK    2  A    between atoms: N2_6  and  N3_8 
REMARK    3  A    between atoms: C3_10  and  C4_11 
ROOT
HETATM    1  N3  UNL     1       3.131  17.423  15.870  1.00  0.00    -0.309 N 
ATOM      2  H3  UNL     1       3.208  16.447  15.584  1.00  0.00     0.186 HD
HETATM    3  C3  UNL     1       2.495  17.710  16.935  1.00  0.00     0.131 C 
ENDROOT
BRANCH   1   4
HETATM    4  N2  UNL     1       3.730  18.422  15.079  1.00  0.00    -0.290 N 
ATOM      5  H2  UNL     1       3.507  18.506  14.088  1.00  0.00     0.188 HD
BRANCH   4   6
HETATM    6  C2  UNL     1       4.652  19.311  15.692  1.00  0.00     0.085 C 
HETATM    7  C1  UNL     1       4.329  20.759  15.718  1.00  0.00     0.090 C 
HETATM    8  N1  UNL     1       5.737  18.843  16.208  1.00  0.00    -0.388 N 
ATOM      9  H12 UNL     1       6.399  19.482  16.649  1.00  0.00     0.157 HD
ATOM     10  H11 UNL     1       5.958  17.848  16.191  1.00  0.00     0.157 HD
ENDBRANCH   4   6
ENDBRANCH   1   4
BRANCH   3  11
HETATM   11  C4  UNL     1       1.898  16.635  17.709  1.00  0.00     0.022 C 
HETATM   12  N4  UNL     1       1.629  15.532  17.154  1.00  0.00    -0.392 N 
HETATM   13  C5  UNL     1       1.040  14.420  17.842  1.00  0.00     0.119 C 
ATOM     14  H4  UNL     1       1.843  15.426  16.163  1.00  0.00     0.159 HD
HETATM   15  C6  UNL     1       0.129  14.791  18.959  1.00  0.00     0.020 C 
HETATM   16  C7  UNL     1       0.215  16.222  19.384  1.00  0.00     0.008 C 
HETATM   17  C8  UNL     1       1.593  16.812  19.163  1.00  0.00     0.058 C 
ENDBRANCH   3  11
TORSDOF 3
ENDMDL
MODEL 2
REMARK VINA RESULT: -5.882402038      1.120      1.490
REMARK  3 active torsions:
REMARK  status: ('A' for Active; 'I' for Inactive)
REMARK    1  A    between atoms: C2_2  and  N2_6 
REMARK    2  A    between atoms: N2_6  and  N3_8 
REMARK    3  A    between atoms: C3_10  and  C4_11 
ROOT
HETATM    1  N3  UNL     1       2.843  17.334  16.741  1.00  0.00    -0.309 N 
ATOM      2  H3  UNL     1       2.868  16.619  16.015  1.00  0.00     0.186 HD
HETATM    3  C3  UNL     1       2.127  17.145  17.776  1.00  0.00     0.131 C 
ENDROOT
BRANCH   1   4
HETATM    4  N2  UNL     1       3.601  18.510  16.576  1.00  0.00    -0.290 N 
ATOM      5  H2  UNL     1       4.117  18.911  17.359  1.00  0.00     0.188 HD
BRANCH   4   6
HETATM    6  C2  UNL     1       3.631  19.124  15.297  1.00  0.00     0.085 C 
HETATM    7  C1  UNL     1       4.142  20.513  15.189  1.00  0.00     0.090 C 
HETATM    8  N1  UNL     1       3.219  18.467  14.267  1.00  0.00    -0.388 N 
ATOM      9  H12 UNL     1       3.241  18.908  13.347  1.00  0.00     0.157 HD
ATOM     10  H11 UNL     1       2.869  17.511  14.341  1.00  0.00     0.157 HD
ENDBRANCH   4   6
ENDBRANCH   1   4
BRANCH   3  11
HETATM   11  C4  UNL     1       1.367  15.912  17.889  1.00  0.00     0.022 C 
HETATM   12  N4  UNL     1       1.360  15.085  16.933  1.00  0.00    -0.392 N 
HETATM   13  C5  UNL     1       0.638  13.846  16.961  1.00  0.00     0.119 C 
ATOM     14  H4  UNL     1       1.898  15.310  16.097  1.00  0.00     0.159 HD
HETATM   15  C6  UNL     1      -0.612  13.872  17.768  1.00  0.00     0.020 C 
HETATM   16  C7  UNL     1      -0.752  15.062  18.662  1.00  0.00     0.008 C 
HETATM   17  C8  UNL     1       0.586  15.601  19.126  1.00  0.00     0.058 C 
ENDBRANCH   3  11
TORSDOF 3
ENDMDL
MODEL 3
REMARK VINA RESULT: -5.848783695      1.246      1.486
REMARK  3 active torsions:
REMARK  status: ('A' for Active; 'I' for Inactive)
REMARK    1  A    between atoms: C2_2  and  N2_6 
REMARK    2  A    between atoms: N2_6  and  N3_8 
REMARK    3  A    between atoms: C3_10  and  C4_11 
ROOT
HETATM    1  N3  UNL     1       2.960  17.672  16.927  1.00  0.00    -0.309 N 
ATOM      2  H3  UNL     1       3.065  16.906  16.263  1.00  0.00     0.186 HD
HETATM    3  C3  UNL     1       2.197  17.520  17.935  1.00  0.00     0.131 C 
ENDROOT
BRANCH   1   4
HETATM    4  N2  UNL     1       3.662  18.874  16.710  1.00  0.00    -0.290 N 
ATOM      5  H2  UNL     1       4.095  19.373  17.488  1.00  0.00     0.188 HD
BRANCH   4   6
HETATM    6  C2  UNL     1       3.754  19.376  15.386  1.00  0.00     0.085 C 
HETATM    7  C1  UNL     1       3.410  18.473  14.260  1.00  0.00     0.090 C 
HETATM    8  N1  UNL     1       4.130  20.594  15.193  1.00  0.00    -0.388 N 
ATOM      9  H12 UNL     1       4.196  20.955  14.241  1.00  0.00     0.157 HD
ATOM     10  H11 UNL     1       4.366  21.215  15.967  1.00  0.00     0.157 HD
ENDBRANCH   4   6
ENDBRANCH   1   4
BRANCH   3  11
HETATM   11  C4  UNL     1       1.500  16.258  18.105  1.00  0.00     0.022 C 
HETATM   12  N4  UNL     1       1.536  15.388  17.188  1.00  0.00    -0.392 N 
HETATM   13  C5  UNL     1       0.876  14.117  17.273  1.00  0.00     0.119 C 
ATOM     14  H4  UNL     1       2.063  15.602  16.342  1.00  0.00     0.159 HD
HETATM   15  C6  UNL     1      -0.374  14.118  18.079  1.00  0.00     0.020 C 
HETATM   16  C7  UNL     1      -0.575  15.339  18.918  1.00  0.00     0.008 C 
HETATM   17  C8  UNL     1       0.734  15.965  19.356  1.00  0.00     0.058 C 
ENDBRANCH   3  11
TORSDOF 3
ENDMDL
MODEL 4
REMARK VINA RESULT: -5.834017710      2.759      2.979
REMARK  3 active torsions:
REMARK  status: ('A' for Active; 'I' for Inactive)
REMARK    1  A    between atoms: C2_2  and  N2_6 
REMARK    2  A    between atoms: N2_6  and  N3_8 
REMARK    3  A    between atoms: C3_10  and  C4_11 
ROOT
HETATM    1  N3  UNL     1       2.667  17.979  19.711  1.00  0.00    -0.309 N 
ATOM      2  H3  UNL     1       2.763  17.250  20.418  1.00  0.00     0.186 HD
HETATM    3  C3  UNL     1       2.031  17.723  18.638  1.00  0.00     0.131 C 
ENDROOT
BRANCH   1   4
HETATM    4  N2  UNL     1       3.239  19.244  19.943  1.00  0.00    -0.290 N 
ATOM      5  H2  UNL     1       2.653  20.075  20.024  1.00  0.00     0.188 HD
BRANCH   4   6
HETATM    6  C2  UNL     1       4.651  19.339  20.063  1.00  0.00     0.085 C 
HETATM    7  C1  UNL     1       5.425  19.876  18.917  1.00  0.00     0.090 C 
HETATM    8  N1  UNL     1       5.222  18.960  21.155  1.00  0.00    -0.388 N 
ATOM      9  H12 UNL     1       6.237  19.028  21.241  1.00  0.00     0.157 HD
ATOM     10  H11 UNL     1       4.690  18.591  21.943  1.00  0.00     0.157 HD
ENDBRANCH   4   6
ENDBRANCH   1   4
BRANCH   3  11
HETATM   11  C4  UNL     1       1.462  16.399  18.456  1.00  0.00     0.022 C 
HETATM   12  N4  UNL     1       1.636  15.782  17.366  1.00  0.00    -0.392 N 
HETATM   13  C5  UNL     1       1.110  14.474  17.102  1.00  0.00     0.119 C 
ATOM     14  H4  UNL     1       2.180  16.239  16.635  1.00  0.00     0.159 HD
HETATM   15  C6  UNL     1      -0.174  14.169  17.791  1.00  0.00     0.020 C 
HETATM   16  C7  UNL     1      -0.544  15.130  18.875  1.00  0.00     0.008 C 
HETATM   17  C8  UNL     1       0.668  15.747  19.543  1.00  0.00     0.058 C 
ENDBRANCH   3  11
TORSDOF 3
ENDMDL
MODEL 5
REMARK VINA RESULT: -5.776154848      1.503      5.819
REMARK  3 active torsions:
REMARK  status: ('A' for Active; 'I' for Inactive)
REMARK    1  A    between atoms: C2_2  and  N2_6 
REMARK    2  A    between atoms: N2_6  and  N3_8 
REMARK    3  A    between atoms: C3_10  and  C4_11 
ROOT
HETATM    1  N3  UNL     1       2.832  17.849  17.487  1.00  0.00    -0.309 N 
ATOM      2  H3  UNL     1       3.364  18.231  18.268  1.00  0.00     0.186 HD
HETATM    3  C3  UNL     1       3.123  18.208  16.302  1.00  0.00     0.131 C 
ENDROOT
BRANCH   1   4
HETATM    4  N2  UNL     1       1.790  16.937  17.745  1.00  0.00    -0.290 N 
ATOM      5  H2  UNL     1       1.317  16.456  16.979  1.00  0.00     0.188 HD
BRANCH   4   6
HETATM    6  C2  UNL     1       1.412  16.701  19.093  1.00  0.00     0.085 C 
HETATM    7  C1  UNL     1       0.077  16.112  19.361  1.00  0.00     0.090 C 
HETATM    8  N1  UNL     1       2.230  17.000  20.043  1.00  0.00    -0.388 N 
ATOM      9  H12 UNL     1       1.959  16.831  21.012  1.00  0.00     0.157 HD
ATOM     10  H11 UNL     1       3.148  17.405  19.858  1.00  0.00     0.157 HD
ENDBRANCH   4   6
ENDBRANCH   1   4
BRANCH   3  11
HETATM   11  C4  UNL     1       4.209  19.152  16.100  1.00  0.00     0.022 C 
HETATM   12  N4  UNL     1       5.349  18.918  16.593  1.00  0.00    -0.392 N 
HETATM   13  C5  UNL     1       6.474  19.795  16.443  1.00  0.00     0.119 C 
ATOM     14  H4  UNL     1       5.476  18.059  17.127  1.00  0.00     0.159 HD
HETATM   15  C6  UNL     1       6.128  21.239  16.337  1.00  0.00     0.020 C 
HETATM   16  C7  UNL     1       4.680  21.516  16.089  1.00  0.00     0.008 C 
HETATM   17  C8  UNL     1       4.000  20.407  15.312  1.00  0.00     0.058 C 
ENDBRANCH   3  11
TORSDOF 3
ENDMDL
