MODEL 1
REMARK VINA RESULT: -6.163084381      0.000      0.000
REMARK  2 active torsions:
REMARK  status: ('A' for Active; 'I' for Inactive)
REMARK    1  A    between atoms: C4_11  and  C5_12 
REMARK    2  A    between atoms: N4_13  and  C6_15 
ROOT
HETATM    1  C1  UNL     1       1.917  17.666  18.580  1.00  0.00     0.070 C 
HETATM    2  C2  UNL     1       2.629  17.826  17.290  1.00  0.00     0.037 A 
HETATM    3  N1  UNL     1       3.476  18.810  16.944  1.00  0.00    -0.303 N 
ATOM      4  H1  UNL     1       3.736  19.587  17.551  1.00  0.00     0.186 HD
HETATM    5  N2  UNL     1       3.926  18.640  15.720  1.00  0.00    -0.285 N 
ATOM      6  H2  UNL     1       4.580  19.250  15.228  1.00  0.00     0.188 HD
HETATM    7  C3  UNL     1       3.368  17.516  15.238  1.00  0.00     0.127 A 
HETATM    8  N3  UNL     1       3.531  16.974  14.077  1.00  0.00    -0.384 N 
ATOM      9  H31 UNL     1       3.108  16.120  13.711  1.00  0.00     0.157 HD
ATOM     10  H32 UNL     1       4.141  17.371  13.362  1.00  0.00     0.157 HD
HETATM   11  C4  UNL     1       2.540  16.975  16.209  1.00  0.00     0.047 A 
ENDROOT
BRANCH  11  12
HETATM   12  C5  UNL     1       1.741  15.750  16.093  1.00  0.00     0.100 C 
HETATM   13  N4  UNL     1       1.463  15.108  17.189  1.00  0.00    -0.393 N 
ATOM     14  H4  UNL     1       1.808  15.477  18.075  1.00  0.00     0.159 HD
BRANCH  13  15
HETATM   15  C6  UNL     1       0.684  13.889  17.198  1.00  0.00     0.085 A 
HETATM   16  C7  UNL     1      -0.767  14.006  16.815  1.00  0.00     0.031 A 
HETATM   17  C8  UNL     1      -0.414  13.745  18.231  1.00  0.00     0.006 A 
HETATM   18  C9  UNL     1      -0.493  14.911  19.205  1.00  0.00     0.012 C 
ENDBRANCH  13  15
ENDBRANCH  11  12
TORSDOF 2
ENDMDL
MODEL 2
REMARK VINA RESULT: -6.139534565      2.035      5.155
REMARK  2 active torsions:
REMARK  status: ('A' for Active; 'I' for Inactive)
REMARK    1  A    between atoms: C4_11  and  C5_12 
REMARK    2  A    between atoms: N4_13  and  C6_15 
ROOT
HETATM    1  C1  UNL     1       2.078  17.638  19.483  1.00  0.00     0.070 C 
HETATM    2  C2  UNL     1       1.824  16.593  18.463  1.00  0.00     0.037 A 
HETATM    3  N1  UNL     1       1.316  15.365  18.664  1.00  0.00    -0.303 N 
ATOM      4  H1  UNL     1       1.037  14.999  19.574  1.00  0.00     0.186 HD
HETATM    5  N2  UNL     1       1.225  14.698  17.536  1.00  0.00    -0.285 N 
ATOM      6  H2  UNL     1       0.873  13.747  17.423  1.00  0.00     0.188 HD
HETATM    7  C3  UNL     1       1.682  15.499  16.556  1.00  0.00     0.127 A 
HETATM    8  N3  UNL     1       1.773  15.249  15.292  1.00  0.00    -0.384 N 
ATOM      9  H31 UNL     1       2.119  15.856  14.550  1.00  0.00     0.157 HD
ATOM     10  H32 UNL     1       1.488  14.358  14.884  1.00  0.00     0.157 HD
HETATM   11  C4  UNL     1       2.070  16.708  17.112  1.00  0.00     0.047 A 
ENDROOT
BRANCH  11  12
HETATM   12  C5  UNL     1       2.625  17.861  16.395  1.00  0.00     0.100 C 
HETATM   13  N4  UNL     1       3.784  18.307  16.780  1.00  0.00    -0.393 N 
ATOM     14  H4  UNL     1       4.255  17.843  17.556  1.00  0.00     0.159 HD
BRANCH  13  15
HETATM   15  C6  UNL     1       4.430  19.437  16.148  1.00  0.00     0.085 A 
HETATM   16  C7  UNL     1       5.935  19.450  16.151  1.00  0.00     0.031 A 
HETATM   17  C8  UNL     1       5.204  20.403  17.021  1.00  0.00     0.006 A 
HETATM   18  C9  UNL     1       5.124  20.084  18.506  1.00  0.00     0.012 C 
ENDBRANCH  13  15
ENDBRANCH  11  12
TORSDOF 2
ENDMDL
MODEL 3
REMARK VINA RESULT: -6.113142452      1.279      1.811
REMARK  2 active torsions:
REMARK  status: ('A' for Active; 'I' for Inactive)
REMARK    1  A    between atoms: C4_11  and  C5_12 
REMARK    2  A    between atoms: N4_13  and  C6_15 
ROOT
HETATM    1  C1  UNL     1       2.591  18.307  19.224  1.00  0.00     0.070 C 
HETATM    2  C2  UNL     1       2.615  17.787  17.836  1.00  0.00     0.037 A 
HETATM    3  N1  UNL     1       3.145  18.380  16.753  1.00  0.00    -0.303 N 
ATOM      4  H1  UNL     1       3.609  19.288  16.762  1.00  0.00     0.186 HD
HETATM    5  N2  UNL     1       2.989  17.637  15.680  1.00  0.00    -0.285 N 
ATOM      6  H2  UNL     1       3.302  17.865  14.737  1.00  0.00     0.188 HD
HETATM    7  C3  UNL     1       2.340  16.520  16.055  1.00  0.00     0.127 A 
HETATM    8  N3  UNL     1       1.980  15.518  15.324  1.00  0.00    -0.384 N 
ATOM      9  H31 UNL     1       1.488  14.671  15.608  1.00  0.00     0.157 HD
ATOM     10  H32 UNL     1       2.165  15.471  14.322  1.00  0.00     0.157 HD
HETATM   11  C4  UNL     1       2.087  16.585  17.417  1.00  0.00     0.047 A 
ENDROOT
BRANCH  11  12
HETATM   12  C5  UNL     1       1.401  15.573  18.227  1.00  0.00     0.100 C 
HETATM   13  N4  UNL     1       0.105  15.644  18.305  1.00  0.00    -0.393 N 
ATOM     14  H4  UNL     1      -0.376  16.392  17.806  1.00  0.00     0.159 HD
BRANCH  13  15
HETATM   15  C6  UNL     1      -0.679  14.703  19.075  1.00  0.00     0.085 A 
HETATM   16  C7  UNL     1      -0.458  13.241  18.791  1.00  0.00     0.031 A 
HETATM   17  C8  UNL     1      -1.723  13.877  18.352  1.00  0.00     0.006 A 
HETATM   18  C9  UNL     1      -1.865  14.226  16.879  1.00  0.00     0.012 C 
ENDBRANCH  13  15
ENDBRANCH  11  12
TORSDOF 2
ENDMDL
MODEL 4
REMARK VINA RESULT: -6.061156368      1.504      2.563
REMARK  2 active torsions:
REMARK  status: ('A' for Active; 'I' for Inactive)
REMARK    1  A    between atoms: C4_11  and  C5_12 
REMARK    2  A    between atoms: N4_13  and  C6_15 
ROOT
HETATM    1  C1  UNL     1       4.391  19.875  16.596  1.00  0.00     0.070 C 
HETATM    2  C2  UNL     1       3.879  18.679  15.886  1.00  0.00     0.037 A 
HETATM    3  N1  UNL     1       4.257  18.226  14.678  1.00  0.00    -0.303 N 
ATOM      4  H1  UNL     1       4.965  18.669  14.092  1.00  0.00     0.186 HD
HETATM    5  N2  UNL     1       3.596  17.138  14.351  1.00  0.00    -0.285 N 
ATOM      6  H2  UNL     1       3.701  16.605  13.487  1.00  0.00     0.188 HD
HETATM    7  C3  UNL     1       2.758  16.856  15.364  1.00  0.00     0.127 A 
HETATM    8  N3  UNL     1       1.923  15.876  15.465  1.00  0.00    -0.384 N 
ATOM      9  H31 UNL     1       1.287  15.662  16.233  1.00  0.00     0.157 HD
ATOM     10  H32 UNL     1       1.809  15.170  14.737  1.00  0.00     0.157 HD
HETATM   11  C4  UNL     1       2.913  17.815  16.353  1.00  0.00     0.047 A 
ENDROOT
BRANCH  11  12
HETATM   12  C5  UNL     1       2.190  17.881  17.627  1.00  0.00     0.100 C 
HETATM   13  N4  UNL     1       1.838  16.756  18.177  1.00  0.00    -0.393 N 
ATOM     14  H4  UNL     1       2.076  15.884  17.706  1.00  0.00     0.159 HD
BRANCH  13  15
HETATM   15  C6  UNL     1       1.121  16.697  19.432  1.00  0.00     0.085 A 
HETATM   16  C7  UNL     1       1.245  15.426  20.228  1.00  0.00     0.031 A 
HETATM   17  C8  UNL     1      -0.039  15.731  19.553  1.00  0.00     0.006 A 
HETATM   18  C9  UNL     1      -0.352  14.988  18.263  1.00  0.00     0.012 C 
ENDBRANCH  13  15
ENDBRANCH  11  12
TORSDOF 2
ENDMDL
MODEL 5
REMARK VINA RESULT: -6.024700982      2.268      5.573
REMARK  2 active torsions:
REMARK  status: ('A' for Active; 'I' for Inactive)
REMARK    1  A    between atoms: C4_11  and  C5_12 
REMARK    2  A    between atoms: N4_13  and  C6_15 
ROOT
HETATM    1  C1  UNL     1       1.314  14.956  16.266  1.00  0.00     0.070 C 
HETATM    2  C2  UNL     1       1.509  15.608  17.583  1.00  0.00     0.037 A 
HETATM    3  N1  UNL     1       1.199  15.109  18.792  1.00  0.00    -0.303 N 
ATOM      4  H1  UNL     1       0.779  14.192  18.947  1.00  0.00     0.186 HD
HETATM    5  N2  UNL     1       1.507  15.955  19.749  1.00  0.00    -0.285 N 
ATOM      6  H2  UNL     1       1.370  15.812  20.749  1.00  0.00     0.188 HD
HETATM    7  C3  UNL     1       2.037  17.046  19.166  1.00  0.00     0.127 A 
HETATM    8  N3  UNL     1       2.477  18.122  19.729  1.00  0.00    -0.384 N 
ATOM      9  H31 UNL     1       2.879  18.949  19.287  1.00  0.00     0.157 HD
ATOM     10  H32 UNL     1       2.465  18.261  20.740  1.00  0.00     0.157 HD
HETATM   11  C4  UNL     1       2.052  16.857  17.793  1.00  0.00     0.047 A 
ENDROOT
BRANCH  11  12
HETATM   12  C5  UNL     1       2.547  17.802  16.786  1.00  0.00     0.100 C 
HETATM   13  N4  UNL     1       3.698  18.365  17.005  1.00  0.00    -0.393 N 
ATOM     14  H4  UNL     1       4.205  18.130  17.859  1.00  0.00     0.159 HD
BRANCH  13  15
HETATM   15  C6  UNL     1       4.287  19.313  16.084  1.00  0.00     0.085 A 
HETATM   16  C7  UNL     1       5.787  19.308  15.969  1.00  0.00     0.031 A 
HETATM   17  C8  UNL     1       5.121  20.443  16.651  1.00  0.00     0.006 A 
HETATM   18  C9  UNL     1       5.156  20.473  18.171  1.00  0.00     0.012 C 
ENDBRANCH  13  15
ENDBRANCH  11  12
TORSDOF 2
ENDMDL
