MODEL 1
REMARK VINA RESULT: -5.524018463      0.000      0.000
REMARK  3 active torsions:
REMARK  status: ('A' for Active; 'I' for Inactive)
REMARK    1  A    between atoms: N1_1  and  N2_4 
REMARK    2  A    between atoms: C5_9  and  N3_10 
REMARK       I    between atoms: N3_10  and  C6_12 
REMARK    3  A    between atoms: C6_12  and  C7_14 
ROOT
HETATM    1  N2  UNL     1       4.718  19.426  17.349  1.00  0.00    -0.311 N 
HETATM    2  C1  UNL     1       4.697  20.751  16.861  1.00  0.00     0.144 C 
HETATM    3  C2  UNL     1       4.603  20.885  15.370  1.00  0.00     0.022 C 
HETATM    4  C3  UNL     1       4.111  19.617  14.704  1.00  0.00     0.006 C 
HETATM    5  C4  UNL     1       3.025  19.053  15.606  1.00  0.00     0.048 C 
HETATM    6  C5  UNL     1       3.730  18.539  16.843  1.00  0.00     0.201 C 
ENDROOT
BRANCH   6   7
HETATM    7  N3  UNL     1       2.769  18.214  17.879  1.00  0.00    -0.338 N 
HETATM    8  C6  UNL     1       1.994  17.040  17.838  1.00  0.00     0.223 C 
HETATM    9  O1  UNL     1       2.101  16.221  16.895  1.00  0.00    -0.273 OA
ATOM     10  H3  UNL     1       2.652  18.856  18.663  1.00  0.00     0.164 HD
BRANCH   8  11
HETATM   11  C7  UNL     1       1.025  16.751  18.922  1.00  0.00     0.078 A 
HETATM   12  C8  UNL     1       0.645  15.295  19.086  1.00  0.00     0.015 A 
HETATM   13  C9  UNL     1       1.581  15.948  20.081  1.00  0.00     0.015 A 
ENDBRANCH   8  11
ENDBRANCH   6   7
BRANCH   1  14
HETATM   14  N1  UNL     1       5.959  18.875  17.559  1.00  0.00    -0.345 N 
ATOM     15  H12 UNL     1       6.610  19.448  18.095  1.00  0.00     0.176 HD
ATOM     16  H11 UNL     1       5.983  17.870  17.726  1.00  0.00     0.176 HD
ENDBRANCH   1  14
TORSDOF 3
ENDMDL
MODEL 2
REMARK VINA RESULT: -5.339324096      1.103      1.265
REMARK  3 active torsions:
REMARK  status: ('A' for Active; 'I' for Inactive)
REMARK    1  A    between atoms: N1_1  and  N2_4 
REMARK    2  A    between atoms: C5_9  and  N3_10 
REMARK       I    between atoms: N3_10  and  C6_12 
REMARK    3  A    between atoms: C6_12  and  C7_14 
ROOT
HETATM    1  N2  UNL     1       5.471  19.993  18.075  1.00  0.00    -0.311 N 
HETATM    2  C1  UNL     1       5.557  21.394  17.921  1.00  0.00     0.144 C 
HETATM    3  C2  UNL     1       5.650  21.881  16.506  1.00  0.00     0.022 C 
HETATM    4  C3  UNL     1       5.197  20.840  15.504  1.00  0.00     0.006 C 
HETATM    5  C4  UNL     1       3.990  20.150  16.120  1.00  0.00     0.048 C 
HETATM    6  C5  UNL     1       4.520  19.315  17.265  1.00  0.00     0.201 C 
ENDROOT
BRANCH   6   7
HETATM    7  N3  UNL     1       3.430  18.817  18.081  1.00  0.00    -0.338 N 
HETATM    8  C6  UNL     1       2.603  17.759  17.660  1.00  0.00     0.223 C 
HETATM    9  O1  UNL     1       2.776  17.199  16.551  1.00  0.00    -0.273 OA
ATOM     10  H3  UNL     1       3.257  19.247  18.990  1.00  0.00     0.164 HD
BRANCH   8  11
HETATM   11  C7  UNL     1       1.502  17.284  18.530  1.00  0.00     0.078 A 
HETATM   12  C8  UNL     1       1.236  15.795  18.491  1.00  0.00     0.015 A 
HETATM   13  C9  UNL     1       1.932  16.406  19.688  1.00  0.00     0.015 A 
ENDBRANCH   8  11
ENDBRANCH   6   7
BRANCH   1  14
HETATM   14  N1  UNL     1       6.657  19.330  18.280  1.00  0.00    -0.345 N 
ATOM     15  H12 UNL     1       7.452  19.917  18.532  1.00  0.00     0.176 HD
ATOM     16  H11 UNL     1       6.592  18.420  18.735  1.00  0.00     0.176 HD
ENDBRANCH   1  14
TORSDOF 3
ENDMDL
MODEL 3
REMARK VINA RESULT: -5.336073246      3.059      4.558
REMARK  3 active torsions:
REMARK  status: ('A' for Active; 'I' for Inactive)
REMARK    1  A    between atoms: N1_1  and  N2_4 
REMARK    2  A    between atoms: C5_9  and  N3_10 
REMARK       I    between atoms: N3_10  and  C6_12 
REMARK    3  A    between atoms: C6_12  and  C7_14 
ROOT
HETATM    1  N2  UNL     1       5.689  20.406  18.946  1.00  0.00    -0.311 N 
HETATM    2  C1  UNL     1       5.288  20.939  20.190  1.00  0.00     0.144 C 
HETATM    3  C2  UNL     1       5.830  22.300  20.511  1.00  0.00     0.022 C 
HETATM    4  C3  UNL     1       6.336  23.027  19.282  1.00  0.00     0.006 C 
HETATM    5  C4  UNL     1       5.354  22.712  18.164  1.00  0.00     0.048 C 
HETATM    6  C5  UNL     1       5.568  21.256  17.813  1.00  0.00     0.201 C 
ENDROOT
BRANCH   6   7
HETATM    7  N3  UNL     1       4.512  20.781  16.939  1.00  0.00    -0.338 N 
HETATM    8  C6  UNL     1       4.723  19.753  16.003  1.00  0.00     0.223 C 
HETATM    9  O1  UNL     1       5.843  19.200  15.882  1.00  0.00    -0.273 OA
ATOM     10  H3  UNL     1       3.588  21.206  17.006  1.00  0.00     0.164 HD
BRANCH   8  11
HETATM   11  C7  UNL     1       3.612  19.301  15.132  1.00  0.00     0.078 A 
HETATM   12  C8  UNL     1       3.858  18.013  14.377  1.00  0.00     0.015 A 
HETATM   13  C9  UNL     1       2.931  18.021  15.574  1.00  0.00     0.015 A 
ENDBRANCH   8  11
ENDBRANCH   6   7
BRANCH   1  14
HETATM   14  N1  UNL     1       6.795  19.591  18.961  1.00  0.00    -0.345 N 
ATOM     15  H12 UNL     1       6.637  18.639  19.289  1.00  0.00     0.176 HD
ATOM     16  H11 UNL     1       7.454  19.711  18.192  1.00  0.00     0.176 HD
ENDBRANCH   1  14
TORSDOF 3
ENDMDL
MODEL 4
REMARK VINA RESULT: -5.330505601      2.662      6.046
REMARK  3 active torsions:
REMARK  status: ('A' for Active; 'I' for Inactive)
REMARK    1  A    between atoms: N1_1  and  N2_4 
REMARK    2  A    between atoms: C5_9  and  N3_10 
REMARK       I    between atoms: N3_10  and  C6_12 
REMARK    3  A    between atoms: C6_12  and  C7_14 
ROOT
HETATM    1  N2  UNL     1       0.626  14.117  16.570  1.00  0.00    -0.311 N 
HETATM    2  C1  UNL     1      -0.698  14.106  17.060  1.00  0.00     0.144 C 
HETATM    3  C2  UNL     1      -0.833  14.171  18.552  1.00  0.00     0.022 C 
HETATM    4  C3  UNL     1       0.427  14.673  19.226  1.00  0.00     0.006 C 
HETATM    5  C4  UNL     1       0.971  15.784  18.343  1.00  0.00     0.048 C 
HETATM    6  C5  UNL     1       1.496  15.111  17.093  1.00  0.00     0.201 C 
ENDROOT
BRANCH   6   7
HETATM    7  N3  UNL     1       1.804  16.096  16.074  1.00  0.00    -0.338 N 
HETATM    8  C6  UNL     1       2.522  17.271  16.362  1.00  0.00     0.223 C 
HETATM    9  O1  UNL     1       2.928  17.519  17.522  1.00  0.00    -0.273 OA
ATOM     10  H3  UNL     1       1.489  15.931  15.117  1.00  0.00     0.164 HD
BRANCH   8  11
HETATM   11  C7  UNL     1       2.812  18.247  15.285  1.00  0.00     0.078 A 
HETATM   12  C8  UNL     1       4.152  18.945  15.382  1.00  0.00     0.015 A 
HETATM   13  C9  UNL     1       3.940  17.856  14.352  1.00  0.00     0.015 A 
ENDBRANCH   8  11
ENDBRANCH   6   7
BRANCH   1  14
HETATM   14  N1  UNL     1       1.198  12.890  16.337  1.00  0.00    -0.345 N 
ATOM     15  H12 UNL     1       0.897  12.138  16.958  1.00  0.00     0.176 HD
ATOM     16  H11 UNL     1       1.359  12.645  15.361  1.00  0.00     0.176 HD
ENDBRANCH   1  14
TORSDOF 3
ENDMDL
MODEL 5
REMARK VINA RESULT: -5.129444984      2.938      4.476
REMARK  3 active torsions:
REMARK  status: ('A' for Active; 'I' for Inactive)
REMARK    1  A    between atoms: N1_1  and  N2_4 
REMARK    2  A    between atoms: C5_9  and  N3_10 
REMARK       I    between atoms: N3_10  and  C6_12 
REMARK    3  A    between atoms: C6_12  and  C7_14 
ROOT
HETATM    1  N2  UNL     1       4.800  20.056  19.965  1.00  0.00    -0.311 N 
HETATM    2  C1  UNL     1       4.673  21.276  20.663  1.00  0.00     0.144 C 
HETATM    3  C2  UNL     1       5.883  22.162  20.635  1.00  0.00     0.022 C 
HETATM    4  C3  UNL     1       6.842  21.798  19.521  1.00  0.00     0.006 C 
HETATM    5  C4  UNL     1       5.984  21.443  18.317  1.00  0.00     0.048 C 
HETATM    6  C5  UNL     1       5.323  20.122  18.645  1.00  0.00     0.201 C 
ENDROOT
BRANCH   6   7
HETATM    7  N3  UNL     1       4.287  19.816  17.678  1.00  0.00    -0.338 N 
HETATM    8  C6  UNL     1       4.586  19.378  16.375  1.00  0.00     0.223 C 
HETATM    9  O1  UNL     1       5.771  19.236  15.991  1.00  0.00    -0.273 OA
ATOM     10  H3  UNL     1       3.310  19.920  17.952  1.00  0.00     0.164 HD
BRANCH   8  11
HETATM   11  C7  UNL     1       3.491  19.077  15.423  1.00  0.00     0.078 A 
HETATM   12  C8  UNL     1       3.809  18.034  14.373  1.00  0.00     0.015 A 
HETATM   13  C9  UNL     1       2.907  17.683  15.537  1.00  0.00     0.015 A 
ENDBRANCH   8  11
ENDBRANCH   6   7
BRANCH   1  14
HETATM   14  N1  UNL     1       5.196  18.970  20.707  1.00  0.00    -0.345 N 
ATOM     15  H12 UNL     1       5.377  18.117  20.177  1.00  0.00     0.176 HD
ATOM     16  H11 UNL     1       5.812  19.162  21.496  1.00  0.00     0.176 HD
ENDBRANCH   1  14
TORSDOF 3
ENDMDL
