MODEL 1
REMARK VINA RESULT: -5.538025673      0.000      0.000
REMARK  3 active torsions:
REMARK  status: ('A' for Active; 'I' for Inactive)
REMARK    1  A    between atoms: C2_2  and  C4_4 
REMARK    2  A    between atoms: C4_4  and  N1_5 
REMARK    3  A    between atoms: N1_5  and  C5_8 
ROOT
HETATM    1  C5  UNL     1       1.676  15.200  17.436  1.00  0.00     0.297 C 
HETATM    2  C6  UNL     1       0.949  14.071  16.752  1.00  0.00     0.167 C 
HETATM    3  N2  UNL     1       0.822  12.935  17.630  1.00  0.00    -0.417 N 
ATOM      4  H2  UNL     1       1.258  12.035  17.428  1.00  0.00     0.153 HD
HETATM    5  C7  UNL     1       0.046  13.160  18.798  1.00  0.00     0.115 C 
HETATM    6  C8  UNL     1      -0.978  14.239  18.698  1.00  0.00     0.038 C 
HETATM    7  C9  UNL     1      -0.297  15.576  18.773  1.00  0.00     0.117 C 
HETATM    8  N3  UNL     1       1.120  15.549  18.706  1.00  0.00    -0.394 N 
ATOM      9  H3  UNL     1       1.705  15.765  19.514  1.00  0.00     0.155 HD
ENDROOT
BRANCH   1  10
HETATM   10  N1  UNL     1       1.777  16.373  16.615  1.00  0.00    -0.050 N 
ATOM     11  H12 UNL     1       0.863  16.636  16.248  1.00  0.00     0.280 HD
ATOM     12  H11 UNL     1       2.257  16.160  15.740  1.00  0.00     0.280 HD
BRANCH  10  13
HETATM   13  C4  UNL     1       2.402  17.493  17.281  1.00  0.00     0.267 C 
BRANCH  13  14
HETATM   14  C2  UNL     1       3.282  18.266  16.373  1.00  0.00    -0.068 C 
HETATM   15  C1  UNL     1       4.133  19.132  16.882  1.00  0.00     0.015 C 
HETATM   16  C3  UNL     1       3.242  18.104  14.891  1.00  0.00     0.044 C 
ENDBRANCH  13  14
ENDBRANCH  10  13
ENDBRANCH   1  10
TORSDOF 3
ENDMDL
MODEL 2
REMARK VINA RESULT: -5.497971986      0.652      1.145
REMARK  3 active torsions:
REMARK  status: ('A' for Active; 'I' for Inactive)
REMARK    1  A    between atoms: C2_2  and  C4_4 
REMARK    2  A    between atoms: C4_4  and  N1_5 
REMARK    3  A    between atoms: N1_5  and  C5_8 
ROOT
HETATM    1  C5  UNL     1       1.763  15.615  17.922  1.00  0.00     0.297 C 
HETATM    2  C6  UNL     1       1.103  14.730  16.896  1.00  0.00     0.167 C 
HETATM    3  N2  UNL     1       0.900  13.402  17.416  1.00  0.00    -0.417 N 
ATOM      4  H2  UNL     1       1.354  12.581  17.016  1.00  0.00     0.153 HD
HETATM    5  C7  UNL     1       0.020  13.319  18.528  1.00  0.00     0.115 C 
HETATM    6  C8  UNL     1      -0.994  14.407  18.635  1.00  0.00     0.038 C 
HETATM    7  C9  UNL     1      -0.325  15.658  19.132  1.00  0.00     0.117 C 
HETATM    8  N3  UNL     1       1.092  15.619  19.186  1.00  0.00    -0.394 N 
ATOM      9  H3  UNL     1       1.601  15.594  20.070  1.00  0.00     0.155 HD
ENDROOT
BRANCH   1  10
HETATM   10  N1  UNL     1       1.936  16.964  17.464  1.00  0.00    -0.050 N 
ATOM     11  H12 UNL     1       2.489  17.503  18.130  1.00  0.00     0.280 HD
ATOM     12  H11 UNL     1       1.056  17.477  17.518  1.00  0.00     0.280 HD
BRANCH  10  13
HETATM   13  C4  UNL     1       2.501  17.056  16.137  1.00  0.00     0.267 C 
BRANCH  13  14
HETATM   14  C2  UNL     1       3.303  18.289  15.954  1.00  0.00    -0.068 C 
HETATM   15  C1  UNL     1       3.384  18.832  14.758  1.00  0.00     0.015 C 
HETATM   16  C3  UNL     1       4.031  18.945  17.078  1.00  0.00     0.044 C 
ENDBRANCH  13  14
ENDBRANCH  10  13
ENDBRANCH   1  10
TORSDOF 3
ENDMDL
MODEL 3
REMARK VINA RESULT: -5.199319960      5.490      7.009
REMARK  3 active torsions:
REMARK  status: ('A' for Active; 'I' for Inactive)
REMARK    1  A    between atoms: C2_2  and  C4_4 
REMARK    2  A    between atoms: C4_4  and  N1_5 
REMARK    3  A    between atoms: N1_5  and  C5_8 
ROOT
HETATM    1  C5  UNL     1       6.131  20.018  18.781  1.00  0.00     0.297 C 
HETATM    2  C6  UNL     1       4.917  19.831  19.654  1.00  0.00     0.167 C 
HETATM    3  N2  UNL     1       5.158  20.337  20.982  1.00  0.00    -0.417 N 
ATOM      4  H2  UNL     1       5.154  19.736  21.807  1.00  0.00     0.153 HD
HETATM    5  C7  UNL     1       5.401  21.735  21.060  1.00  0.00     0.115 C 
HETATM    6  C8  UNL     1       4.817  22.556  19.962  1.00  0.00     0.038 C 
HETATM    7  C9  UNL     1       5.644  22.381  18.720  1.00  0.00     0.117 C 
HETATM    8  N3  UNL     1       6.627  21.360  18.774  1.00  0.00    -0.394 N 
ATOM      9  H3  UNL     1       7.625  21.569  18.807  1.00  0.00     0.155 HD
ENDROOT
BRANCH   1  10
HETATM   10  N1  UNL     1       5.917  19.577  17.432  1.00  0.00    -0.050 N 
ATOM     11  H12 UNL     1       6.525  18.789  17.209  1.00  0.00     0.280 HD
ATOM     12  H11 UNL     1       6.275  20.263  16.767  1.00  0.00     0.280 HD
BRANCH  10  13
HETATM   13  C4  UNL     1       4.538  19.256  17.140  1.00  0.00     0.267 C 
BRANCH  13  14
HETATM   14  C2  UNL     1       4.123  19.730  15.799  1.00  0.00    -0.068 C 
HETATM   15  C1  UNL     1       4.354  20.980  15.458  1.00  0.00     0.015 C 
HETATM   16  C3  UNL     1       3.446  18.842  14.810  1.00  0.00     0.044 C 
ENDBRANCH  13  14
ENDBRANCH  10  13
ENDBRANCH   1  10
TORSDOF 3
ENDMDL
MODEL 4
REMARK VINA RESULT: -5.095048867      2.423      6.050
REMARK  3 active torsions:
REMARK  status: ('A' for Active; 'I' for Inactive)
REMARK    1  A    between atoms: C2_2  and  C4_4 
REMARK    2  A    between atoms: C4_4  and  N1_5 
REMARK    3  A    between atoms: N1_5  and  C5_8 
ROOT
HETATM    1  C5  UNL     1       3.754  18.282  16.981  1.00  0.00     0.297 C 
HETATM    2  C6  UNL     1       4.264  19.398  17.856  1.00  0.00     0.167 C 
HETATM    3  N2  UNL     1       5.639  19.704  17.549  1.00  0.00    -0.417 N 
ATOM      4  H2  UNL     1       6.392  19.579  18.226  1.00  0.00     0.153 HD
HETATM    5  C7  UNL     1       5.868  20.192  16.235  1.00  0.00     0.115 C 
HETATM    6  C8  UNL     1       4.711  20.870  15.584  1.00  0.00     0.038 C 
HETATM    7  C9  UNL     1       3.721  19.833  15.133  1.00  0.00     0.117 C 
HETATM    8  N3  UNL     1       3.965  18.511  15.585  1.00  0.00    -0.394 N 
ATOM      9  H3  UNL     1       4.273  17.770  14.954  1.00  0.00     0.155 HD
ENDROOT
BRANCH   1  10
HETATM   10  N1  UNL     1       2.371  17.981  17.216  1.00  0.00    -0.050 N 
ATOM     11  H12 UNL     1       2.071  17.191  16.644  1.00  0.00     0.280 HD
ATOM     12  H11 UNL     1       1.773  18.710  16.827  1.00  0.00     0.280 HD
BRANCH  10  13
HETATM   13  C4  UNL     1       2.057  17.751  18.608  1.00  0.00     0.267 C 
BRANCH  13  14
HETATM   14  C2  UNL     1       1.535  16.385  18.848  1.00  0.00    -0.068 C 
HETATM   15  C1  UNL     1       1.178  16.037  20.066  1.00  0.00     0.015 C 
HETATM   16  C3  UNL     1       1.398  15.378  17.757  1.00  0.00     0.044 C 
ENDBRANCH  13  14
ENDBRANCH  10  13
ENDBRANCH   1  10
TORSDOF 3
ENDMDL
MODEL 5
REMARK VINA RESULT: -5.030455662      1.050      1.717
REMARK  3 active torsions:
REMARK  status: ('A' for Active; 'I' for Inactive)
REMARK    1  A    between atoms: C2_2  and  C4_4 
REMARK    2  A    between atoms: C4_4  and  N1_5 
REMARK    3  A    between atoms: N1_5  and  C5_8 
ROOT
HETATM    1  C5  UNL     1       1.028  15.687  17.384  1.00  0.00     0.297 C 
HETATM    2  C6  UNL     1       1.483  15.103  18.696  1.00  0.00     0.167 C 
HETATM    3  N2  UNL     1       0.394  14.437  19.366  1.00  0.00    -0.417 N 
ATOM      4  H2  UNL     1       0.033  14.749  20.268  1.00  0.00     0.153 HD
HETATM    5  C7  UNL     1      -0.140  13.314  18.679  1.00  0.00     0.115 C 
HETATM    6  C8  UNL     1       0.793  12.625  17.742  1.00  0.00     0.038 C 
HETATM    7  C9  UNL     1       0.934  13.447  16.492  1.00  0.00     0.117 C 
HETATM    8  N3  UNL     1       0.362  14.743  16.540  1.00  0.00    -0.394 N 
ATOM      9  H3  UNL     1      -0.474  14.988  16.008  1.00  0.00     0.155 HD
ENDROOT
BRANCH   1  10
HETATM   10  N1  UNL     1       2.095  16.314  16.656  1.00  0.00    -0.050 N 
ATOM     11  H12 UNL     1       1.875  16.360  15.661  1.00  0.00     0.280 HD
ATOM     12  H11 UNL     1       2.913  15.706  16.622  1.00  0.00     0.280 HD
BRANCH  10  13
HETATM   13  C4  UNL     1       2.451  17.621  17.162  1.00  0.00     0.267 C 
BRANCH  13  14
HETATM   14  C2  UNL     1       3.367  18.345  16.250  1.00  0.00    -0.068 C 
HETATM   15  C1  UNL     1       4.228  19.204  16.751  1.00  0.00     0.015 C 
HETATM   16  C3  UNL     1       3.353  18.140  14.773  1.00  0.00     0.044 C 
ENDBRANCH  13  14
ENDBRANCH  10  13
ENDBRANCH   1  10
TORSDOF 3
ENDMDL
