MODEL 1
REMARK VINA RESULT: -5.443150995      0.000      0.000
REMARK  2 active torsions:
REMARK  status: ('A' for Active; 'I' for Inactive)
REMARK       I    between atoms: N2_7  and  C6_8 
REMARK    1  A    between atoms: N4_10  and  C7_12 
REMARK    2  A    between atoms: C7_12  and  C8_13 
ROOT
HETATM    1  N1  UNL     1       3.697  23.030  15.918  1.00  0.00    -0.195 NA
HETATM    2  C1  UNL     1       4.494  22.350  16.382  1.00  0.00     0.084 C 
HETATM    3  C2  UNL     1       5.497  21.509  16.986  1.00  0.00     0.194 C 
HETATM    4  C3  UNL     1       6.917  21.914  16.587  1.00  0.00     0.042 C 
HETATM    5  C4  UNL     1       7.665  20.635  16.842  1.00  0.00     0.023 C 
HETATM    6  C5  UNL     1       6.684  19.585  16.389  1.00  0.00     0.127 C 
HETATM    7  N2  UNL     1       5.356  20.145  16.573  1.00  0.00    -0.339 N 
HETATM    8  C6  UNL     1       4.184  19.392  16.357  1.00  0.00     0.187 C 
HETATM    9  N3  UNL     1       3.513  19.518  15.128  1.00  0.00    -0.064 NA
HETATM   10  N4  UNL     1       3.764  18.620  17.280  1.00  0.00    -0.360 N 
ATOM     11  H4  UNL     1       4.291  18.569  18.153  1.00  0.00     0.162 HD
ENDROOT
BRANCH  10  12
HETATM   12  C7  UNL     1       2.562  17.807  17.140  1.00  0.00     0.166 C 
BRANCH  12  13
HETATM   13  C8  UNL     1       1.999  17.617  18.512  1.00  0.00     0.072 C 
HETATM   14  N5  UNL     1       2.617  18.067  19.516  1.00  0.00    -0.410 N 
ATOM     15  H52 UNL     1       3.499  18.559  19.374  1.00  0.00     0.155 HD
ATOM     16  H51 UNL     1       2.233  17.938  20.453  1.00  0.00     0.155 HD
ENDBRANCH  12  13
ENDBRANCH  10  12
TORSDOF 2
ENDMDL
MODEL 2
REMARK VINA RESULT: -5.246082304      2.826      4.370
REMARK  2 active torsions:
REMARK  status: ('A' for Active; 'I' for Inactive)
REMARK       I    between atoms: N2_7  and  C6_8 
REMARK    1  A    between atoms: N4_10  and  C7_12 
REMARK    2  A    between atoms: C7_12  and  C8_13 
ROOT
HETATM    1  N1  UNL     1       6.102  23.021  20.259  1.00  0.00    -0.195 NA
HETATM    2  C1  UNL     1       5.872  22.962  19.138  1.00  0.00     0.084 C 
HETATM    3  C2  UNL     1       5.597  22.908  17.724  1.00  0.00     0.194 C 
HETATM    4  C3  UNL     1       4.270  23.577  17.361  1.00  0.00     0.042 C 
HETATM    5  C4  UNL     1       3.964  22.916  16.046  1.00  0.00     0.023 C 
HETATM    6  C5  UNL     1       4.421  21.499  16.275  1.00  0.00     0.127 C 
HETATM    7  N2  UNL     1       5.486  21.557  17.262  1.00  0.00    -0.339 N 
HETATM    8  C6  UNL     1       6.230  20.420  17.637  1.00  0.00     0.187 C 
HETATM    9  N3  UNL     1       5.872  19.730  18.809  1.00  0.00    -0.064 NA
HETATM   10  N4  UNL     1       7.205  20.049  16.905  1.00  0.00    -0.360 N 
ATOM     11  H4  UNL     1       7.420  20.588  16.066  1.00  0.00     0.162 HD
ENDROOT
BRANCH  10  12
HETATM   12  C7  UNL     1       8.026  18.885  17.219  1.00  0.00     0.166 C 
BRANCH  12  13
HETATM   13  C8  UNL     1       8.452  18.286  15.917  1.00  0.00     0.072 C 
HETATM   14  N5  UNL     1       8.553  17.033  15.801  1.00  0.00    -0.410 N 
ATOM     15  H52 UNL     1       8.340  16.443  16.605  1.00  0.00     0.155 HD
ATOM     16  H51 UNL     1       8.844  16.624  14.912  1.00  0.00     0.155 HD
ENDBRANCH  12  13
ENDBRANCH  10  12
TORSDOF 2
ENDMDL
MODEL 3
REMARK VINA RESULT: -5.158055214      1.426      1.508
REMARK  2 active torsions:
REMARK  status: ('A' for Active; 'I' for Inactive)
REMARK       I    between atoms: N2_7  and  C6_8 
REMARK    1  A    between atoms: N4_10  and  C7_12 
REMARK    2  A    between atoms: C7_12  and  C8_13 
ROOT
HETATM    1  N1  UNL     1       4.797  23.095  17.804  1.00  0.00    -0.195 NA
HETATM    2  C1  UNL     1       5.396  22.155  18.070  1.00  0.00     0.084 C 
HETATM    3  C2  UNL     1       6.143  20.976  18.427  1.00  0.00     0.194 C 
HETATM    4  C3  UNL     1       7.643  21.252  18.556  1.00  0.00     0.042 C 
HETATM    5  C4  UNL     1       8.208  19.873  18.362  1.00  0.00     0.023 C 
HETATM    6  C5  UNL     1       7.313  19.297  17.296  1.00  0.00     0.127 C 
HETATM    7  N2  UNL     1       6.024  19.956  17.430  1.00  0.00    -0.339 N 
HETATM    8  C6  UNL     1       4.903  19.581  16.663  1.00  0.00     0.187 C 
HETATM    9  N3  UNL     1       4.590  20.323  15.510  1.00  0.00    -0.064 NA
HETATM   10  N4  UNL     1       4.203  18.583  17.035  1.00  0.00    -0.360 N 
ATOM     11  H4  UNL     1       4.476  18.082  17.881  1.00  0.00     0.162 HD
ENDROOT
BRANCH  10  12
HETATM   12  C7  UNL     1       3.027  18.129  16.301  1.00  0.00     0.166 C 
BRANCH  12  13
HETATM   13  C8  UNL     1       2.245  17.253  17.226  1.00  0.00     0.072 C 
HETATM   14  N5  UNL     1       1.885  17.687  18.354  1.00  0.00    -0.410 N 
ATOM     15  H52 UNL     1       2.135  18.639  18.620  1.00  0.00     0.155 HD
ATOM     16  H51 UNL     1       1.351  17.089  18.985  1.00  0.00     0.155 HD
ENDBRANCH  12  13
ENDBRANCH  10  12
TORSDOF 2
ENDMDL
MODEL 4
REMARK VINA RESULT: -5.143681545      2.690      4.602
REMARK  2 active torsions:
REMARK  status: ('A' for Active; 'I' for Inactive)
REMARK       I    between atoms: N2_7  and  C6_8 
REMARK    1  A    between atoms: N4_10  and  C7_12 
REMARK    2  A    between atoms: C7_12  and  C8_13 
ROOT
HETATM    1  N1  UNL     1       5.061  19.110  21.127  1.00  0.00    -0.195 NA
HETATM    2  C1  UNL     1       5.327  20.115  20.643  1.00  0.00     0.084 C 
HETATM    3  C2  UNL     1       5.679  21.381  20.051  1.00  0.00     0.194 C 
HETATM    4  C3  UNL     1       4.839  22.536  20.600  1.00  0.00     0.042 C 
HETATM    5  C4  UNL     1       4.977  23.544  19.494  1.00  0.00     0.023 C 
HETATM    6  C5  UNL     1       4.936  22.683  18.257  1.00  0.00     0.127 C 
HETATM    7  N2  UNL     1       5.455  21.380  18.638  1.00  0.00    -0.339 N 
HETATM    8  C6  UNL     1       5.669  20.351  17.699  1.00  0.00     0.187 C 
HETATM    9  N3  UNL     1       4.690  19.353  17.550  1.00  0.00    -0.064 NA
HETATM   10  N4  UNL     1       6.743  20.352  17.012  1.00  0.00    -0.360 N 
ATOM     11  H4  UNL     1       7.419  21.102  17.162  1.00  0.00     0.162 HD
ENDROOT
BRANCH  10  12
HETATM   12  C7  UNL     1       7.044  19.326  16.020  1.00  0.00     0.166 C 
BRANCH  12  13
HETATM   13  C8  UNL     1       8.293  18.637  16.468  1.00  0.00     0.072 C 
HETATM   14  N5  UNL     1       8.258  17.423  16.808  1.00  0.00    -0.410 N 
ATOM     15  H52 UNL     1       7.368  16.925  16.772  1.00  0.00     0.155 HD
ATOM     16  H51 UNL     1       9.110  16.953  17.114  1.00  0.00     0.155 HD
ENDBRANCH  12  13
ENDBRANCH  10  12
TORSDOF 2
ENDMDL
MODEL 5
REMARK VINA RESULT: -5.062747370      1.828      2.403
REMARK  2 active torsions:
REMARK  status: ('A' for Active; 'I' for Inactive)
REMARK       I    between atoms: N2_7  and  C6_8 
REMARK    1  A    between atoms: N4_10  and  C7_12 
REMARK    2  A    between atoms: C7_12  and  C8_13 
ROOT
HETATM    1  N1  UNL     1       4.829  23.281  18.053  1.00  0.00    -0.195 NA
HETATM    2  C1  UNL     1       5.541  22.383  18.055  1.00  0.00     0.084 C 
HETATM    3  C2  UNL     1       6.436  21.253  18.083  1.00  0.00     0.194 C 
HETATM    4  C3  UNL     1       7.905  21.669  17.996  1.00  0.00     0.042 C 
HETATM    5  C4  UNL     1       8.535  20.403  17.486  1.00  0.00     0.023 C 
HETATM    6  C5  UNL     1       7.506  19.894  16.509  1.00  0.00     0.127 C 
HETATM    7  N2  UNL     1       6.216  20.382  16.968  1.00  0.00    -0.339 N 
HETATM    8  C6  UNL     1       5.005  20.002  16.355  1.00  0.00     0.187 C 
HETATM    9  N3  UNL     1       4.424  20.865  15.409  1.00  0.00    -0.064 NA
HETATM   10  N4  UNL     1       4.470  18.890  16.674  1.00  0.00    -0.360 N 
ATOM     11  H4  UNL     1       4.936  18.304  17.368  1.00  0.00     0.162 HD
ENDROOT
BRANCH  10  12
HETATM   12  C7  UNL     1       3.219  18.422  16.089  1.00  0.00     0.166 C 
BRANCH  12  13
HETATM   13  C8  UNL     1       3.560  17.786  14.780  1.00  0.00     0.072 C 
HETATM   14  N5  UNL     1       3.133  18.287  13.703  1.00  0.00    -0.410 N 
ATOM     15  H52 UNL     1       2.555  19.127  13.744  1.00  0.00     0.155 HD
ATOM     16  H51 UNL     1       3.365  17.852  12.810  1.00  0.00     0.155 HD
ENDBRANCH  12  13
ENDBRANCH  10  12
TORSDOF 2
ENDMDL
