MODEL 1
REMARK VINA RESULT: -5.025845123      0.000      0.000
REMARK  4 active torsions:
REMARK  status: ('A' for Active; 'I' for Inactive)
REMARK    1  A    between atoms: N1_2  and  C2_4 
REMARK    2  A    between atoms: C2_4  and  N2_6 
REMARK    3  A    between atoms: N2_6  and  N3_8 
REMARK    4  A    between atoms: C3_10  and  C5_12 
ROOT
HETATM    1  N3  UNL     1       1.405  15.213  17.702  1.00  0.00    -0.301 N 
ATOM      2  H3  UNL     1       1.862  15.742  18.445  1.00  0.00     0.186 HD
HETATM    3  C3  UNL     1       0.597  14.325  18.090  1.00  0.00     0.043 C 
HETATM    4  C4  UNL     1       0.444  14.196  19.591  1.00  0.00     0.072 C 
ENDROOT
BRANCH   1   5
HETATM    5  N2  UNL     1       1.760  15.574  16.416  1.00  0.00    -0.276 N 
ATOM      6  H2  UNL     1       1.495  14.952  15.652  1.00  0.00     0.189 HD
BRANCH   5   7
HETATM    7  C2  UNL     1       2.474  16.762  16.096  1.00  0.00     0.186 C 
HETATM    8  S1  UNL     1       2.677  17.946  17.208  1.00  0.00    -0.040 SA
BRANCH   7   9
HETATM    9  N1  UNL     1       3.003  16.891  14.787  1.00  0.00    -0.370 N 
HETATM   10  C1  UNL     1       3.545  18.154  14.330  1.00  0.00     0.148 C 
ATOM     11  H1  UNL     1       3.002  16.086  14.160  1.00  0.00     0.161 HD
ENDBRANCH   7   9
ENDBRANCH   5   7
ENDBRANCH   1   5
BRANCH   3  12
HETATM   12  C5  UNL     1      -0.188  13.432  17.270  1.00  0.00     0.022 C 
HETATM   13  C6  UNL     1      -1.440  13.841  16.580  1.00  0.00     0.070 C 
HETATM   14  N4  UNL     1       0.182  12.197  17.096  1.00  0.00    -0.401 N 
ATOM     15  H42 UNL     1       1.041  11.916  17.569  1.00  0.00     0.156 HD
ATOM     16  H41 UNL     1      -0.372  11.566  16.517  1.00  0.00     0.156 HD
ENDBRANCH   3  12
TORSDOF 4
ENDMDL
MODEL 2
REMARK VINA RESULT: -5.012716575      1.742      2.365
REMARK  4 active torsions:
REMARK  status: ('A' for Active; 'I' for Inactive)
REMARK    1  A    between atoms: N1_2  and  C2_4 
REMARK    2  A    between atoms: C2_4  and  N2_6 
REMARK    3  A    between atoms: N2_6  and  N3_8 
REMARK    4  A    between atoms: C3_10  and  C5_12 
ROOT
HETATM    1  N3  UNL     1       0.289  15.136  16.815  1.00  0.00    -0.301 N 
ATOM      2  H3  UNL     1      -0.275  15.827  16.321  1.00  0.00     0.186 HD
HETATM    3  C3  UNL     1      -0.269  14.022  17.011  1.00  0.00     0.043 C 
HETATM    4  C4  UNL     1      -1.682  13.901  16.479  1.00  0.00     0.072 C 
ENDROOT
BRANCH   1   5
HETATM    5  N2  UNL     1       1.557  15.557  17.173  1.00  0.00    -0.276 N 
ATOM      6  H2  UNL     1       2.356  15.135  16.699  1.00  0.00     0.189 HD
BRANCH   5   7
HETATM    7  C2  UNL     1       1.812  16.544  18.165  1.00  0.00     0.186 C 
HETATM    8  S1  UNL     1       1.542  16.233  19.749  1.00  0.00    -0.040 SA
BRANCH   7   9
HETATM    9  N1  UNL     1       2.305  17.804  17.742  1.00  0.00    -0.370 N 
HETATM   10  C1  UNL     1       2.948  17.952  16.453  1.00  0.00     0.148 C 
ATOM     11  H1  UNL     1       2.206  18.616  18.353  1.00  0.00     0.161 HD
ENDBRANCH   7   9
ENDBRANCH   5   7
ENDBRANCH   1   5
BRANCH   3  12
HETATM   12  C5  UNL     1       0.285  12.866  17.676  1.00  0.00     0.022 C 
HETATM   13  C6  UNL     1       0.312  12.707  19.154  1.00  0.00     0.070 C 
HETATM   14  N4  UNL     1       0.796  11.888  16.988  1.00  0.00    -0.401 N 
ATOM     15  H42 UNL     1       0.777  11.997  15.973  1.00  0.00     0.156 HD
ATOM     16  H41 UNL     1       1.187  11.072  17.458  1.00  0.00     0.156 HD
ENDBRANCH   3  12
TORSDOF 4
ENDMDL
MODEL 3
REMARK VINA RESULT: -4.977688897      2.018      2.291
REMARK  4 active torsions:
REMARK  status: ('A' for Active; 'I' for Inactive)
REMARK    1  A    between atoms: N1_2  and  C2_4 
REMARK    2  A    between atoms: C2_4  and  N2_6 
REMARK    3  A    between atoms: N2_6  and  N3_8 
REMARK    4  A    between atoms: C3_10  and  C5_12 
ROOT
HETATM    1  N3  UNL     1       1.304  14.405  17.226  1.00  0.00    -0.301 N 
ATOM      2  H3  UNL     1       2.220  13.977  17.096  1.00  0.00     0.186 HD
HETATM    3  C3  UNL     1       0.347  13.598  17.375  1.00  0.00     0.043 C 
HETATM    4  C4  UNL     1       0.721  12.131  17.336  1.00  0.00     0.072 C 
ENDROOT
BRANCH   1   5
HETATM    5  N2  UNL     1       1.291  15.788  17.212  1.00  0.00    -0.276 N 
ATOM      6  H2  UNL     1       0.954  16.257  16.372  1.00  0.00     0.189 HD
BRANCH   5   7
HETATM    7  C2  UNL     1       1.721  16.593  18.303  1.00  0.00     0.186 C 
HETATM    8  S1  UNL     1       1.440  16.133  19.849  1.00  0.00    -0.040 SA
BRANCH   7   9
HETATM    9  N1  UNL     1       2.398  17.805  18.014  1.00  0.00    -0.370 N 
HETATM   10  C1  UNL     1       2.955  18.045  16.699  1.00  0.00     0.148 C 
ATOM     11  H1  UNL     1       2.494  18.515  18.740  1.00  0.00     0.161 HD
ENDBRANCH   7   9
ENDBRANCH   5   7
ENDBRANCH   1   5
BRANCH   3  12
HETATM   12  C5  UNL     1      -1.048  13.916  17.578  1.00  0.00     0.022 C 
HETATM   13  C6  UNL     1      -2.004  14.154  16.464  1.00  0.00     0.070 C 
HETATM   14  N4  UNL     1      -1.538  14.008  18.779  1.00  0.00    -0.401 N 
ATOM     15  H42 UNL     1      -0.882  13.844  19.544  1.00  0.00     0.156 HD
ATOM     16  H41 UNL     1      -2.522  14.232  18.922  1.00  0.00     0.156 HD
ENDBRANCH   3  12
TORSDOF 4
ENDMDL
MODEL 4
REMARK VINA RESULT: -4.901705036      1.977      2.285
REMARK  4 active torsions:
REMARK  status: ('A' for Active; 'I' for Inactive)
REMARK    1  A    between atoms: N1_2  and  C2_4 
REMARK    2  A    between atoms: C2_4  and  N2_6 
REMARK    3  A    between atoms: N2_6  and  N3_8 
REMARK    4  A    between atoms: C3_10  and  C5_12 
ROOT
HETATM    1  N3  UNL     1       1.318  14.455  17.115  1.00  0.00    -0.301 N 
ATOM      2  H3  UNL     1       2.243  14.045  16.988  1.00  0.00     0.186 HD
HETATM    3  C3  UNL     1       0.374  13.629  17.241  1.00  0.00     0.043 C 
HETATM    4  C4  UNL     1       0.775  12.170  17.184  1.00  0.00     0.072 C 
ENDROOT
BRANCH   1   5
HETATM    5  N2  UNL     1       1.281  15.838  17.123  1.00  0.00    -0.276 N 
ATOM      6  H2  UNL     1       0.873  16.312  16.317  1.00  0.00     0.189 HD
BRANCH   5   7
HETATM    7  C2  UNL     1       1.779  16.636  18.189  1.00  0.00     0.186 C 
HETATM    8  S1  UNL     1       1.554  16.190  19.748  1.00  0.00    -0.040 SA
BRANCH   7   9
HETATM    9  N1  UNL     1       2.474  17.828  17.864  1.00  0.00    -0.370 N 
HETATM   10  C1  UNL     1       2.987  18.044  16.527  1.00  0.00     0.148 C 
ATOM     11  H1  UNL     1       2.614  18.542  18.579  1.00  0.00     0.161 HD
ENDBRANCH   7   9
ENDBRANCH   5   7
ENDBRANCH   1   5
BRANCH   3  12
HETATM   12  C5  UNL     1      -1.028  13.919  17.433  1.00  0.00     0.022 C 
HETATM   13  C6  UNL     1      -1.596  14.398  18.721  1.00  0.00     0.070 C 
HETATM   14  N4  UNL     1      -1.875  13.770  16.457  1.00  0.00    -0.401 N 
ATOM     15  H42 UNL     1      -1.485  13.441  15.573  1.00  0.00     0.156 HD
ATOM     16  H41 UNL     1      -2.865  13.974  16.593  1.00  0.00     0.156 HD
ENDBRANCH   3  12
TORSDOF 4
ENDMDL
MODEL 5
REMARK VINA RESULT: -4.873488431      2.700      6.277
REMARK  4 active torsions:
REMARK  status: ('A' for Active; 'I' for Inactive)
REMARK    1  A    between atoms: N1_2  and  C2_4 
REMARK    2  A    between atoms: C2_4  and  N2_6 
REMARK    3  A    between atoms: N2_6  and  N3_8 
REMARK    4  A    between atoms: C3_10  and  C5_12 
ROOT
HETATM    1  N3  UNL     1       3.585  19.101  15.247  1.00  0.00    -0.301 N 
ATOM      2  H3  UNL     1       2.888  19.559  14.661  1.00  0.00     0.186 HD
HETATM    3  C3  UNL     1       4.416  19.873  15.801  1.00  0.00     0.043 C 
HETATM    4  C4  UNL     1       4.235  21.346  15.500  1.00  0.00     0.072 C 
ENDROOT
BRANCH   1   5
HETATM    5  N2  UNL     1       3.484  17.724  15.321  1.00  0.00    -0.276 N 
ATOM      6  H2  UNL     1       4.112  17.164  14.744  1.00  0.00     0.189 HD
BRANCH   5   7
HETATM    7  C2  UNL     1       2.554  17.044  16.155  1.00  0.00     0.186 C 
HETATM    8  S1  UNL     1       2.228  17.583  17.666  1.00  0.00    -0.040 SA
BRANCH   7   9
HETATM    9  N1  UNL     1       1.919  15.885  15.640  1.00  0.00    -0.370 N 
HETATM   10  C1  UNL     1       1.321  14.911  16.531  1.00  0.00     0.148 C 
ATOM     11  H1  UNL     1       1.882  15.736  14.631  1.00  0.00     0.161 HD
ENDBRANCH   7   9
ENDBRANCH   5   7
ENDBRANCH   1   5
BRANCH   3  12
HETATM   12  C5  UNL     1       5.503  19.509  16.679  1.00  0.00     0.022 C 
HETATM   13  C6  UNL     1       5.496  19.769  18.143  1.00  0.00     0.070 C 
HETATM   14  N4  UNL     1       6.564  18.921  16.210  1.00  0.00    -0.401 N 
ATOM     15  H42 UNL     1       6.570  18.742  15.205  1.00  0.00     0.156 HD
ATOM     16  H41 UNL     1       7.333  18.664  16.830  1.00  0.00     0.156 HD
ENDBRANCH   3  12
TORSDOF 4
ENDMDL
