MODEL 1
REMARK VINA RESULT: -4.638480925      0.000      0.000
REMARK  2 active torsions:
REMARK  status: ('A' for Active; 'I' for Inactive)
REMARK    1  A    between atoms: C1_4  and  N2_5 
REMARK    2  A    between atoms: N2_5  and  C2_7 
ROOT
HETATM    1  C2  UNL     1      23.251  18.634  18.789  1.00  0.00     0.286 C 
HETATM    2  C3  UNL     1      23.381  18.531  20.289  1.00  0.00     0.082 C 
HETATM    3  C4  UNL     1      23.370  17.011  20.118  1.00  0.00     0.238 C 
HETATM    4  N3  UNL     1      22.765  17.246  18.803  1.00  0.00    -0.054 N 
ATOM      5  H31 UNL     1      22.997  16.626  18.027  1.00  0.00     0.279 HD
ATOM      6  H32 UNL     1      21.771  17.062  18.669  1.00  0.00     0.279 HD
ENDROOT
BRANCH   1   7
HETATM    7  N2  UNL     1      22.291  19.607  18.374  1.00  0.00    -0.359 N 
ATOM      8  H2  UNL     1      21.323  19.461  18.659  1.00  0.00     0.162 HD
BRANCH   7   9
HETATM    9  C1  UNL     1      22.573  20.753  17.602  1.00  0.00     0.170 C 
HETATM   10  N1  UNL     1      23.176  20.636  16.480  1.00  0.00    -0.395 N 
ATOM     11  H12 UNL     1      23.446  19.706  16.157  1.00  0.00     0.156 HD
ATOM     12  H11 UNL     1      23.381  21.465  15.922  1.00  0.00     0.156 HD
ENDBRANCH   7   9
ENDBRANCH   1   7
TORSDOF 2
ENDMDL
MODEL 2
REMARK VINA RESULT: -4.445116526      1.700      3.677
REMARK  2 active torsions:
REMARK  status: ('A' for Active; 'I' for Inactive)
REMARK    1  A    between atoms: C1_4  and  N2_5 
REMARK    2  A    between atoms: N2_5  and  C2_7 
ROOT
HETATM    1  C2  UNL     1      22.908  18.744  18.719  1.00  0.00     0.286 C 
HETATM    2  C3  UNL     1      23.743  19.997  18.615  1.00  0.00     0.082 C 
HETATM    3  C4  UNL     1      23.562  19.910  17.099  1.00  0.00     0.238 C 
HETATM    4  N3  UNL     1      23.219  18.498  17.303  1.00  0.00    -0.054 N 
ATOM      5  H31 UNL     1      22.518  18.061  16.705  1.00  0.00     0.279 HD
ATOM      6  H32 UNL     1      23.897  17.777  17.057  1.00  0.00     0.279 HD
ENDROOT
BRANCH   1   7
HETATM    7  N2  UNL     1      23.446  17.785  19.631  1.00  0.00    -0.359 N 
ATOM      8  H2  UNL     1      23.629  16.848  19.273  1.00  0.00     0.162 HD
BRANCH   7   9
HETATM    9  C1  UNL     1      23.745  18.029  20.988  1.00  0.00     0.170 C 
HETATM   10  N1  UNL     1      24.089  17.062  21.751  1.00  0.00    -0.395 N 
ATOM     11  H12 UNL     1      24.144  16.120  21.363  1.00  0.00     0.156 HD
ATOM     12  H11 UNL     1      24.306  17.239  22.733  1.00  0.00     0.156 HD
ENDBRANCH   7   9
ENDBRANCH   1   7
TORSDOF 2
ENDMDL
MODEL 3
REMARK VINA RESULT: -4.339695587      1.203      1.441
REMARK  2 active torsions:
REMARK  status: ('A' for Active; 'I' for Inactive)
REMARK    1  A    between atoms: C1_4  and  N2_5 
REMARK    2  A    between atoms: N2_5  and  C2_7 
ROOT
HETATM    1  C2  UNL     1      22.564  18.192  18.698  1.00  0.00     0.286 C 
HETATM    2  C3  UNL     1      23.442  17.235  19.466  1.00  0.00     0.082 C 
HETATM    3  C4  UNL     1      23.216  18.120  20.693  1.00  0.00     0.238 C 
HETATM    4  N3  UNL     1      22.826  19.178  19.756  1.00  0.00    -0.054 N 
ATOM      5  H31 UNL     1      22.093  19.837  20.020  1.00  0.00     0.279 HD
ATOM      6  H32 UNL     1      23.469  19.949  19.575  1.00  0.00     0.279 HD
ENDROOT
BRANCH   1   7
HETATM    7  N2  UNL     1      23.091  18.529  17.414  1.00  0.00    -0.359 N 
ATOM      8  H2  UNL     1      23.041  17.817  16.685  1.00  0.00     0.162 HD
BRANCH   7   9
HETATM    9  C1  UNL     1      23.674  19.766  17.071  1.00  0.00     0.170 C 
HETATM   10  N1  UNL     1      22.943  20.719  16.632  1.00  0.00    -0.395 N 
ATOM     11  H12 UNL     1      21.938  20.568  16.536  1.00  0.00     0.156 HD
ATOM     12  H11 UNL     1      23.365  21.615  16.385  1.00  0.00     0.156 HD
ENDBRANCH   7   9
ENDBRANCH   1   7
TORSDOF 2
ENDMDL
MODEL 4
REMARK VINA RESULT: -4.287228675      1.145      1.302
REMARK  2 active torsions:
REMARK  status: ('A' for Active; 'I' for Inactive)
REMARK    1  A    between atoms: C1_4  and  N2_5 
REMARK    2  A    between atoms: N2_5  and  C2_7 
ROOT
HETATM    1  C2  UNL     1      23.038  19.001  19.202  1.00  0.00     0.286 C 
HETATM    2  C3  UNL     1      22.966  17.685  18.467  1.00  0.00     0.082 C 
HETATM    3  C4  UNL     1      23.268  17.001  19.801  1.00  0.00     0.238 C 
HETATM    4  N3  UNL     1      23.784  18.297  20.255  1.00  0.00    -0.054 N 
ATOM      5  H31 UNL     1      23.659  18.573  21.229  1.00  0.00     0.279 HD
ATOM      6  H32 UNL     1      24.792  18.435  20.333  1.00  0.00     0.279 HD
ENDROOT
BRANCH   1   7
HETATM    7  N2  UNL     1      23.781  19.997  18.497  1.00  0.00    -0.359 N 
ATOM      8  H2  UNL     1      24.783  20.051  18.681  1.00  0.00     0.162 HD
BRANCH   7   9
HETATM    9  C1  UNL     1      23.242  20.911  17.569  1.00  0.00     0.170 C 
HETATM   10  N1  UNL     1      22.913  20.516  16.398  1.00  0.00    -0.395 N 
ATOM     11  H12 UNL     1      23.047  19.535  16.151  1.00  0.00     0.156 HD
ATOM     12  H11 UNL     1      22.523  21.177  15.726  1.00  0.00     0.156 HD
ENDBRANCH   7   9
ENDBRANCH   1   7
TORSDOF 2
ENDMDL
MODEL 5
REMARK VINA RESULT: -4.156877453      1.474      3.712
REMARK  2 active torsions:
REMARK  status: ('A' for Active; 'I' for Inactive)
REMARK    1  A    between atoms: C1_4  and  N2_5 
REMARK    2  A    between atoms: N2_5  and  C2_7 
ROOT
HETATM    1  C2  UNL     1      23.136  19.412  19.183  1.00  0.00     0.286 C 
HETATM    2  C3  UNL     1      23.986  20.162  18.187  1.00  0.00     0.082 C 
HETATM    3  C4  UNL     1      22.690  20.748  17.625  1.00  0.00     0.238 C 
HETATM    4  N3  UNL     1      21.998  19.632  18.278  1.00  0.00    -0.054 N 
ATOM      5  H31 UNL     1      21.068  19.779  18.670  1.00  0.00     0.279 HD
ATOM      6  H32 UNL     1      21.651  18.858  17.713  1.00  0.00     0.279 HD
ENDROOT
BRANCH   1   7
HETATM    7  N2  UNL     1      23.527  18.048  19.342  1.00  0.00    -0.359 N 
ATOM      8  H2  UNL     1      23.847  17.552  18.509  1.00  0.00     0.162 HD
BRANCH   7   9
HETATM    9  C1  UNL     1      23.508  17.330  20.555  1.00  0.00     0.170 C 
HETATM   10  N1  UNL     1      24.034  17.835  21.606  1.00  0.00    -0.395 N 
ATOM     11  H12 UNL     1      24.463  18.759  21.550  1.00  0.00     0.156 HD
ATOM     12  H11 UNL     1      24.020  17.315  22.485  1.00  0.00     0.156 HD
ENDBRANCH   7   9
ENDBRANCH   1   7
TORSDOF 2
ENDMDL
