MODEL 1
REMARK VINA RESULT: -5.303002537      0.000      0.000
REMARK  3 active torsions:
REMARK  status: ('A' for Active; 'I' for Inactive)
REMARK    1  A    between atoms: N2_4  and  C1_6 
REMARK    2  A    between atoms: C1_6  and  N3_7 
REMARK    3  A    between atoms: N3_7  and  C2_10 
ROOT
HETATM    1  C1  UNL     1      23.039  20.643  17.940  1.00  0.00     0.371 C 
ENDROOT
BRANCH   1   2
HETATM    2  N2  UNL     1      23.098  20.433  16.530  1.00  0.00    -0.318 N 
HETATM    3  N1  UNL     1      23.523  19.318  16.152  1.00  0.00    -0.348 N 
ATOM      4  H12 UNL     1      23.807  18.609  16.828  1.00  0.00     0.176 HD
ATOM      5  H11 UNL     1      23.566  19.169  15.144  1.00  0.00     0.176 HD
ATOM      6  H2  UNL     1      22.810  21.153  15.867  1.00  0.00     0.181 HD
ENDBRANCH   1   2
BRANCH   1   7
HETATM    7  N3  UNL     1      22.382  19.584  18.655  1.00  0.00    -0.054 N 
ATOM      8  H32 UNL     1      21.688  19.921  19.323  1.00  0.00     0.279 HD
ATOM      9  H31 UNL     1      21.746  19.039  18.072  1.00  0.00     0.279 HD
BRANCH   7  10
HETATM   10  C2  UNL     1      23.427  18.778  19.273  1.00  0.00     0.188 A 
HETATM   11  C3  UNL     1      23.230  17.343  19.532  1.00  0.00     0.035 A 
HETATM   12  C4  UNL     1      23.311  18.330  20.681  1.00  0.00     0.035 A 
ENDBRANCH   7  10
ENDBRANCH   1   7
TORSDOF 3
ENDMDL
MODEL 2
REMARK VINA RESULT: -5.226526275      0.663      1.031
REMARK  3 active torsions:
REMARK  status: ('A' for Active; 'I' for Inactive)
REMARK    1  A    between atoms: N2_4  and  C1_6 
REMARK    2  A    between atoms: C1_6  and  N3_7 
REMARK    3  A    between atoms: N3_7  and  C2_10 
ROOT
HETATM    1  C1  UNL     1      23.182  20.770  17.944  1.00  0.00     0.371 C 
ENDROOT
BRANCH   1   2
HETATM    2  N2  UNL     1      23.062  20.456  16.558  1.00  0.00    -0.318 N 
HETATM    3  N1  UNL     1      23.532  19.354  16.195  1.00  0.00    -0.348 N 
ATOM      4  H12 UNL     1      23.973  18.725  16.867  1.00  0.00     0.176 HD
ATOM      5  H11 UNL     1      23.447  19.130  15.204  1.00  0.00     0.176 HD
ATOM      6  H2  UNL     1      22.619  21.095  15.898  1.00  0.00     0.181 HD
ENDBRANCH   1   2
BRANCH   1   7
HETATM    7  N3  UNL     1      23.992  19.838  18.681  1.00  0.00    -0.054 N 
ATOM      8  H32 UNL     1      24.618  19.295  18.087  1.00  0.00     0.279 HD
ATOM      9  H31 UNL     1      24.710  20.290  19.246  1.00  0.00     0.279 HD
BRANCH   7  10
HETATM   10  C2  UNL     1      23.081  19.012  19.462  1.00  0.00     0.188 A 
HETATM   11  C3  UNL     1      23.559  18.231  20.614  1.00  0.00     0.035 A 
HETATM   12  C4  UNL     1      23.104  17.534  19.346  1.00  0.00     0.035 A 
ENDBRANCH   7  10
ENDBRANCH   1   7
TORSDOF 3
ENDMDL
MODEL 3
REMARK VINA RESULT: -5.094361553      1.182      1.625
REMARK  3 active torsions:
REMARK  status: ('A' for Active; 'I' for Inactive)
REMARK    1  A    between atoms: N2_4  and  C1_6 
REMARK    2  A    between atoms: C1_6  and  N3_7 
REMARK    3  A    between atoms: N3_7  and  C2_10 
ROOT
HETATM    1  C1  UNL     1      23.734  19.458  17.373  1.00  0.00     0.371 C 
ENDROOT
BRANCH   1   2
HETATM    2  N2  UNL     1      23.019  20.508  16.724  1.00  0.00    -0.318 N 
HETATM    3  N1  UNL     1      22.983  21.608  17.321  1.00  0.00    -0.348 N 
ATOM      4  H12 UNL     1      23.446  21.730  18.222  1.00  0.00     0.176 HD
ATOM      5  H11 UNL     1      22.472  22.358  16.856  1.00  0.00     0.176 HD
ATOM      6  H2  UNL     1      22.562  20.369  15.823  1.00  0.00     0.181 HD
ENDBRANCH   1   2
BRANCH   1   7
HETATM    7  N3  UNL     1      23.005  18.221  17.447  1.00  0.00    -0.054 N 
ATOM      8  H32 UNL     1      22.244  18.164  16.771  1.00  0.00     0.279 HD
ATOM      9  H31 UNL     1      23.539  17.420  17.110  1.00  0.00     0.279 HD
BRANCH   7  10
HETATM   10  C2  UNL     1      22.560  18.074  18.827  1.00  0.00     0.188 A 
HETATM   11  C3  UNL     1      23.060  18.962  19.888  1.00  0.00     0.035 A 
HETATM   12  C4  UNL     1      23.455  17.497  19.859  1.00  0.00     0.035 A 
ENDBRANCH   7  10
ENDBRANCH   1   7
TORSDOF 3
ENDMDL
MODEL 4
REMARK VINA RESULT: -5.064912952      0.976      1.500
REMARK  3 active torsions:
REMARK  status: ('A' for Active; 'I' for Inactive)
REMARK    1  A    between atoms: N2_4  and  C1_6 
REMARK    2  A    between atoms: C1_6  and  N3_7 
REMARK    3  A    between atoms: N3_7  and  C2_10 
ROOT
HETATM    1  C1  UNL     1      23.537  19.406  17.493  1.00  0.00     0.371 C 
ENDROOT
BRANCH   1   2
HETATM    2  N2  UNL     1      23.147  20.521  16.693  1.00  0.00    -0.318 N 
HETATM    3  N1  UNL     1      23.005  21.612  17.291  1.00  0.00    -0.348 N 
ATOM      4  H12 UNL     1      23.165  21.683  18.296  1.00  0.00     0.176 HD
ATOM      5  H11 UNL     1      22.726  22.409  16.719  1.00  0.00     0.176 HD
ATOM      6  H2  UNL     1      22.991  20.434  15.689  1.00  0.00     0.181 HD
ENDBRANCH   1   2
BRANCH   1   7
HETATM    7  N3  UNL     1      23.796  19.742  18.866  1.00  0.00    -0.054 N 
ATOM      8  H32 UNL     1      24.790  19.760  19.094  1.00  0.00     0.279 HD
ATOM      9  H31 UNL     1      23.596  20.718  19.086  1.00  0.00     0.279 HD
BRANCH   7  10
HETATM   10  C2  UNL     1      23.038  18.803  19.682  1.00  0.00     0.188 A 
HETATM   11  C3  UNL     1      23.698  17.979  20.708  1.00  0.00     0.035 A 
HETATM   12  C4  UNL     1      23.137  17.341  19.451  1.00  0.00     0.035 A 
ENDBRANCH   7  10
ENDBRANCH   1   7
TORSDOF 3
ENDMDL
MODEL 5
REMARK VINA RESULT: -5.052124571      0.912      1.228
REMARK  3 active torsions:
REMARK  status: ('A' for Active; 'I' for Inactive)
REMARK    1  A    between atoms: N2_4  and  C1_6 
REMARK    2  A    between atoms: C1_6  and  N3_7 
REMARK    3  A    between atoms: N3_7  and  C2_10 
ROOT
HETATM    1  C1  UNL     1      23.404  19.342  17.127  1.00  0.00     0.371 C 
ENDROOT
BRANCH   1   2
HETATM    2  N2  UNL     1      23.018  20.605  16.588  1.00  0.00    -0.318 N 
HETATM    3  N1  UNL     1      23.041  21.576  17.378  1.00  0.00    -0.348 N 
ATOM      4  H12 UNL     1      23.323  21.454  18.351  1.00  0.00     0.176 HD
ATOM      5  H11 UNL     1      22.764  22.480  16.993  1.00  0.00     0.176 HD
ATOM      6  H2  UNL     1      22.738  20.711  15.613  1.00  0.00     0.181 HD
ENDBRANCH   1   2
BRANCH   1   7
HETATM    7  N3  UNL     1      22.620  18.932  18.259  1.00  0.00    -0.054 N 
ATOM      8  H32 UNL     1      21.924  19.624  18.537  1.00  0.00     0.279 HD
ATOM      9  H31 UNL     1      21.971  18.174  18.046  1.00  0.00     0.279 HD
BRANCH   7  10
HETATM   10  C2  UNL     1      23.557  18.602  19.325  1.00  0.00     0.188 A 
HETATM   11  C3  UNL     1      23.439  17.346  20.082  1.00  0.00     0.035 A 
HETATM   12  C4  UNL     1      23.149  18.678  20.749  1.00  0.00     0.035 A 
ENDBRANCH   7  10
ENDBRANCH   1   7
TORSDOF 3
ENDMDL
