MODEL 1
REMARK VINA RESULT: -5.290685986      0.000      0.000
REMARK  3 active torsions:
REMARK  status: ('A' for Active; 'I' for Inactive)
REMARK    1  A    between atoms: N2_4  and  N3_6 
REMARK    2  A    between atoms: C1_8  and  N4_9 
REMARK    3  A    between atoms: N4_9  and  C2_11 
ROOT
HETATM    1  N3  UNL     1      23.587  17.949  21.077  1.00  0.00    -0.283 N 
ATOM      2  H3  UNL     1      23.426  18.840  21.547  1.00  0.00     0.189 HD
HETATM    3  C1  UNL     1      23.316  17.848  19.803  1.00  0.00     0.196 C 
ENDROOT
BRANCH   3   4
HETATM    4  N4  UNL     1      22.805  18.969  19.099  1.00  0.00    -0.356 N 
ATOM      5  H4  UNL     1      21.817  19.215  19.162  1.00  0.00     0.162 HD
BRANCH   4   6
HETATM    6  C2  UNL     1      23.710  19.755  18.290  1.00  0.00     0.310 A 
HETATM    7  C3  UNL     1      23.201  20.803  17.395  1.00  0.00     0.289 A 
HETATM    8  N5  UNL     1      23.461  19.490  16.822  1.00  0.00    -0.049 N 
ATOM      9  H52 UNL     1      24.016  19.134  16.044  1.00  0.00     0.279 HD
ATOM     10  H51 UNL     1      22.920  18.810  16.288  1.00  0.00     0.279 HD
ENDBRANCH   4   6
ENDBRANCH   3   4
BRANCH   1  11
HETATM   11  N2  UNL     1      24.084  16.892  21.806  1.00  0.00    -0.248 N 
HETATM   12  N1  UNL     1      24.853  17.093  22.796  1.00  0.00    -0.331 N 
ATOM     13  H12 UNL     1      25.095  18.053  23.042  1.00  0.00     0.178 HD
ATOM     14  H11 UNL     1      25.221  16.309  23.335  1.00  0.00     0.178 HD
ATOM     15  H2  UNL     1      23.833  15.938  21.547  1.00  0.00     0.207 HD
ENDBRANCH   1  11
TORSDOF 3
ENDMDL
MODEL 2
REMARK VINA RESULT: -4.885354595      1.138      1.311
REMARK  3 active torsions:
REMARK  status: ('A' for Active; 'I' for Inactive)
REMARK    1  A    between atoms: N2_4  and  N3_6 
REMARK    2  A    between atoms: C1_8  and  N4_9 
REMARK    3  A    between atoms: N4_9  and  C2_11 
ROOT
HETATM    1  N3  UNL     1      24.175  17.590  22.051  1.00  0.00    -0.283 N 
ATOM      2  H3  UNL     1      24.162  18.502  22.508  1.00  0.00     0.189 HD
HETATM    3  C1  UNL     1      23.651  17.471  20.860  1.00  0.00     0.196 C 
ENDROOT
BRANCH   3   4
HETATM    4  N4  UNL     1      23.076  18.602  20.226  1.00  0.00    -0.356 N 
ATOM      5  H4  UNL     1      22.551  19.289  20.767  1.00  0.00     0.162 HD
BRANCH   4   6
HETATM    6  C2  UNL     1      23.246  18.763  18.799  1.00  0.00     0.310 A 
HETATM    7  C3  UNL     1      23.556  20.078  18.223  1.00  0.00     0.289 A 
HETATM    8  N5  UNL     1      22.162  19.659  18.243  1.00  0.00    -0.049 N 
ATOM      9  H52 UNL     1      21.423  19.558  17.546  1.00  0.00     0.279 HD
ATOM     10  H51 UNL     1      21.290  20.051  18.598  1.00  0.00     0.279 HD
ENDBRANCH   4   6
ENDBRANCH   3   4
BRANCH   1  11
HETATM   11  N2  UNL     1      24.745  16.523  22.709  1.00  0.00    -0.248 N 
HETATM   12  N1  UNL     1      25.943  16.585  23.125  1.00  0.00    -0.331 N 
ATOM     13  H12 UNL     1      26.475  17.440  22.961  1.00  0.00     0.178 HD
ATOM     14  H11 UNL     1      26.366  15.794  23.612  1.00  0.00     0.178 HD
ATOM     15  H2  UNL     1      24.201  15.675  22.865  1.00  0.00     0.207 HD
ENDBRANCH   1  11
TORSDOF 3
ENDMDL
MODEL 3
REMARK VINA RESULT: -4.827930418      1.989      4.999
REMARK  3 active torsions:
REMARK  status: ('A' for Active; 'I' for Inactive)
REMARK    1  A    between atoms: N2_4  and  N3_6 
REMARK    2  A    between atoms: C1_8  and  N4_9 
REMARK    3  A    between atoms: N4_9  and  C2_11 
ROOT
HETATM    1  N3  UNL     1      22.727  18.718  19.826  1.00  0.00    -0.283 N 
ATOM      2  H3  UNL     1      22.389  19.457  20.442  1.00  0.00     0.189 HD
HETATM    3  C1  UNL     1      23.518  17.799  20.313  1.00  0.00     0.196 C 
ENDROOT
BRANCH   3   4
HETATM    4  N4  UNL     1      23.892  17.843  21.681  1.00  0.00    -0.356 N 
ATOM      5  H4  UNL     1      23.556  18.592  22.287  1.00  0.00     0.162 HD
BRANCH   4   6
HETATM    6  C2  UNL     1      24.757  16.808  22.201  1.00  0.00     0.310 A 
HETATM    7  C3  UNL     1      24.197  15.625  22.868  1.00  0.00     0.289 A 
HETATM    8  N5  UNL     1      24.634  16.732  23.706  1.00  0.00    -0.049 N 
ATOM      9  H52 UNL     1      25.273  16.840  24.494  1.00  0.00     0.279 HD
ATOM     10  H51 UNL     1      24.205  17.309  24.430  1.00  0.00     0.279 HD
ENDBRANCH   4   6
ENDBRANCH   3   4
BRANCH   1  11
HETATM   11  N2  UNL     1      22.335  18.720  18.505  1.00  0.00    -0.248 N 
HETATM   12  N1  UNL     1      23.022  18.116  17.626  1.00  0.00    -0.331 N 
ATOM     13  H12 UNL     1      23.870  17.629  17.916  1.00  0.00     0.178 HD
ATOM     14  H11 UNL     1      22.732  18.118  16.648  1.00  0.00     0.178 HD
ATOM     15  H2  UNL     1      21.485  19.212  18.232  1.00  0.00     0.207 HD
ENDBRANCH   1  11
TORSDOF 3
ENDMDL
MODEL 4
REMARK VINA RESULT: -4.763014582      2.553      5.316
REMARK  3 active torsions:
REMARK  status: ('A' for Active; 'I' for Inactive)
REMARK    1  A    between atoms: N2_4  and  N3_6 
REMARK    2  A    between atoms: C1_8  and  N4_9 
REMARK    3  A    between atoms: N4_9  and  C2_11 
ROOT
HETATM    1  N3  UNL     1      23.414  18.224  20.364  1.00  0.00    -0.283 N 
ATOM      2  H3  UNL     1      23.630  19.179  20.651  1.00  0.00     0.189 HD
HETATM    3  C1  UNL     1      23.813  17.232  21.116  1.00  0.00     0.196 C 
ENDROOT
BRANCH   3   4
HETATM    4  N4  UNL     1      24.535  17.497  22.308  1.00  0.00    -0.356 N 
ATOM      5  H4  UNL     1      24.589  18.444  22.683  1.00  0.00     0.162 HD
BRANCH   4   6
HETATM    6  C2  UNL     1      25.192  16.400  22.983  1.00  0.00     0.310 A 
HETATM    7  C3  UNL     1      25.548  16.496  24.405  1.00  0.00     0.289 A 
HETATM    8  N5  UNL     1      26.577  16.815  23.426  1.00  0.00    -0.049 N 
ATOM      9  H52 UNL     1      27.527  16.492  23.238  1.00  0.00     0.279 HD
ATOM     10  H51 UNL     1      27.188  17.611  23.248  1.00  0.00     0.279 HD
ENDBRANCH   4   6
ENDBRANCH   3   4
BRANCH   1  11
HETATM   11  N2  UNL     1      22.711  18.021  19.198  1.00  0.00    -0.248 N 
HETATM   12  N1  UNL     1      22.283  19.006  18.520  1.00  0.00    -0.331 N 
ATOM     13  H12 UNL     1      22.471  19.951  18.857  1.00  0.00     0.178 HD
ATOM     14  H11 UNL     1      21.762  18.855  17.656  1.00  0.00     0.178 HD
ATOM     15  H2  UNL     1      22.531  17.071  18.875  1.00  0.00     0.207 HD
ENDBRANCH   1  11
TORSDOF 3
ENDMDL
MODEL 5
REMARK VINA RESULT: -4.685588858      1.236      4.696
REMARK  3 active torsions:
REMARK  status: ('A' for Active; 'I' for Inactive)
REMARK    1  A    between atoms: N2_4  and  N3_6 
REMARK    2  A    between atoms: C1_8  and  N4_9 
REMARK    3  A    between atoms: N4_9  and  C2_11 
ROOT
HETATM    1  N3  UNL     1      23.239  18.768  17.826  1.00  0.00    -0.283 N 
ATOM      2  H3  UNL     1      23.626  17.826  17.876  1.00  0.00     0.189 HD
HETATM    3  C1  UNL     1      22.733  19.303  18.906  1.00  0.00     0.196 C 
ENDROOT
BRANCH   3   4
HETATM    4  N4  UNL     1      22.729  18.571  20.121  1.00  0.00    -0.356 N 
ATOM      5  H4  UNL     1      21.924  18.606  20.746  1.00  0.00     0.162 HD
BRANCH   4   6
HETATM    6  C2  UNL     1      23.887  17.774  20.457  1.00  0.00     0.310 A 
HETATM    7  C3  UNL     1      23.768  16.610  21.345  1.00  0.00     0.289 A 
HETATM    8  N5  UNL     1      24.178  17.875  21.938  1.00  0.00    -0.049 N 
ATOM      9  H52 UNL     1      24.966  18.191  22.504  1.00  0.00     0.279 HD
ATOM     10  H51 UNL     1      23.846  18.460  22.705  1.00  0.00     0.279 HD
ENDBRANCH   4   6
ENDBRANCH   3   4
BRANCH   1  11
HETATM   11  N2  UNL     1      23.266  19.437  16.622  1.00  0.00    -0.248 N 
HETATM   12  N1  UNL     1      23.002  20.677  16.566  1.00  0.00    -0.331 N 
ATOM     13  H12 UNL     1      22.770  21.169  17.428  1.00  0.00     0.178 HD
ATOM     14  H11 UNL     1      23.022  21.173  15.674  1.00  0.00     0.178 HD
ATOM     15  H2  UNL     1      23.500  18.931  15.768  1.00  0.00     0.207 HD
ENDBRANCH   1  11
TORSDOF 3
ENDMDL
