MODEL 1
REMARK VINA RESULT: -4.764814252      0.000      0.000
REMARK  3 active torsions:
REMARK  status: ('A' for Active; 'I' for Inactive)
REMARK    1  A    between atoms: N1_1  and  C1_4 
REMARK    2  A    between atoms: C1_4  and  C2_5 
REMARK    3  A    between atoms: C2_5  and  N2_6 
ROOT
HETATM    1  N2  UNL     1      23.399  18.663  18.560  1.00  0.00    -0.266 N 
HETATM    2  C3  UNL     1      23.175  17.762  19.539  1.00  0.00     0.213 A 
HETATM    3  N3  UNL     1      22.723  16.890  18.619  1.00  0.00    -0.279 N 
ATOM      4  H3  UNL     1      22.359  15.938  18.641  1.00  0.00     0.185 HD
HETATM    5  N4  UNL     1      22.953  17.799  17.663  1.00  0.00    -0.018 NA
ENDROOT
BRANCH   1   6
HETATM    6  C2  UNL     1      23.908  20.017  18.472  1.00  0.00     0.191 C 
BRANCH   6   7
HETATM    7  C1  UNL     1      23.061  20.826  17.551  1.00  0.00     0.074 C 
BRANCH   7   8
HETATM    8  N1  UNL     1      22.917  20.419  16.354  1.00  0.00    -0.410 N 
ATOM      9  H12 UNL     1      23.684  19.938  15.883  1.00  0.00     0.155 HD
ATOM     10  H11 UNL     1      22.024  20.588  15.892  1.00  0.00     0.155 HD
ENDBRANCH   7   8
ENDBRANCH   6   7
ENDBRANCH   1   6
TORSDOF 3
ENDMDL
MODEL 2
REMARK VINA RESULT: -4.545867108      0.891      3.104
REMARK  3 active torsions:
REMARK  status: ('A' for Active; 'I' for Inactive)
REMARK    1  A    between atoms: N1_1  and  C1_4 
REMARK    2  A    between atoms: C1_4  and  C2_5 
REMARK    3  A    between atoms: C2_5  and  N2_6 
ROOT
HETATM    1  N2  UNL     1      23.268  19.642  18.214  1.00  0.00    -0.266 N 
HETATM    2  C3  UNL     1      23.021  20.848  17.662  1.00  0.00     0.213 A 
HETATM    3  N3  UNL     1      23.275  20.332  16.445  1.00  0.00    -0.279 N 
ATOM      4  H3  UNL     1      23.282  20.694  15.492  1.00  0.00     0.185 HD
HETATM    5  N4  UNL     1      23.515  19.144  17.013  1.00  0.00    -0.018 NA
ENDROOT
BRANCH   1   6
HETATM    6  C2  UNL     1      23.275  19.076  19.548  1.00  0.00     0.191 C 
BRANCH   6   7
HETATM    7  C1  UNL     1      23.268  17.588  19.476  1.00  0.00     0.074 C 
BRANCH   7   8
HETATM    8  N1  UNL     1      22.443  17.028  18.684  1.00  0.00    -0.410 N 
ATOM      9  H12 UNL     1      22.570  17.109  17.675  1.00  0.00     0.155 HD
ATOM     10  H11 UNL     1      21.666  16.506  19.089  1.00  0.00     0.155 HD
ENDBRANCH   7   8
ENDBRANCH   6   7
ENDBRANCH   1   6
TORSDOF 3
ENDMDL
MODEL 3
REMARK VINA RESULT: -4.377724995      1.492      3.321
REMARK  3 active torsions:
REMARK  status: ('A' for Active; 'I' for Inactive)
REMARK    1  A    between atoms: N1_1  and  C1_4 
REMARK    2  A    between atoms: C1_4  and  C2_5 
REMARK    3  A    between atoms: C2_5  and  N2_6 
ROOT
HETATM    1  N2  UNL     1      23.255  19.146  18.376  1.00  0.00    -0.266 N 
HETATM    2  C3  UNL     1      23.592  20.117  17.502  1.00  0.00     0.213 A 
HETATM    3  N3  UNL     1      23.503  19.228  16.495  1.00  0.00    -0.279 N 
ATOM      4  H3  UNL     1      23.634  19.262  15.484  1.00  0.00     0.185 HD
HETATM    5  N4  UNL     1      23.170  18.280  17.380  1.00  0.00    -0.018 NA
ENDROOT
BRANCH   1   6
HETATM    6  C2  UNL     1      23.057  19.042  19.808  1.00  0.00     0.191 C 
BRANCH   6   7
HETATM    7  C1  UNL     1      23.524  17.713  20.296  1.00  0.00     0.074 C 
BRANCH   7   8
HETATM    8  N1  UNL     1      23.967  17.632  21.486  1.00  0.00    -0.410 N 
ATOM      9  H12 UNL     1      23.365  17.879  22.272  1.00  0.00     0.155 HD
ATOM     10  H11 UNL     1      24.927  17.315  21.622  1.00  0.00     0.155 HD
ENDBRANCH   7   8
ENDBRANCH   6   7
ENDBRANCH   1   6
TORSDOF 3
ENDMDL
MODEL 4
REMARK VINA RESULT: -4.162726592      1.773      2.139
REMARK  3 active torsions:
REMARK  status: ('A' for Active; 'I' for Inactive)
REMARK    1  A    between atoms: N1_1  and  C1_4 
REMARK    2  A    between atoms: C1_4  and  C2_5 
REMARK    3  A    between atoms: C2_5  and  N2_6 
ROOT
HETATM    1  N2  UNL     1      23.322  17.754  19.643  1.00  0.00    -0.266 N 
HETATM    2  C3  UNL     1      23.576  18.557  20.698  1.00  0.00     0.213 A 
HETATM    3  N3  UNL     1      23.812  17.470  21.456  1.00  0.00    -0.279 N 
ATOM      4  H3  UNL     1      24.075  17.307  22.428  1.00  0.00     0.185 HD
HETATM    5  N4  UNL     1      23.556  16.692  20.397  1.00  0.00    -0.018 NA
ENDROOT
BRANCH   1   6
HETATM    6  C2  UNL     1      22.946  17.927  18.255  1.00  0.00     0.191 C 
BRANCH   6   7
HETATM    7  C1  UNL     1      23.381  19.267  17.768  1.00  0.00     0.074 C 
BRANCH   7   8
HETATM    8  N1  UNL     1      23.507  19.439  16.513  1.00  0.00    -0.410 N 
ATOM      9  H12 UNL     1      24.354  19.868  16.140  1.00  0.00     0.155 HD
ATOM     10  H11 UNL     1      22.745  19.138  15.907  1.00  0.00     0.155 HD
ENDBRANCH   7   8
ENDBRANCH   6   7
ENDBRANCH   1   6
TORSDOF 3
ENDMDL
MODEL 5
REMARK VINA RESULT: -3.927668109      2.333      4.133
REMARK  3 active torsions:
REMARK  status: ('A' for Active; 'I' for Inactive)
REMARK    1  A    between atoms: N1_1  and  C1_4 
REMARK    2  A    between atoms: C1_4  and  C2_5 
REMARK    3  A    between atoms: C2_5  and  N2_6 
ROOT
HETATM    1  N2  UNL     1      23.417  17.843  19.889  1.00  0.00    -0.266 N 
HETATM    2  C3  UNL     1      23.120  18.704  18.893  1.00  0.00     0.213 A 
HETATM    3  N3  UNL     1      22.644  17.679  18.162  1.00  0.00    -0.279 N 
ATOM      4  H3  UNL     1      22.228  17.581  17.236  1.00  0.00     0.185 HD
HETATM    5  N4  UNL     1      22.946  16.842  19.162  1.00  0.00    -0.018 NA
ENDROOT
BRANCH   1   6
HETATM    6  C2  UNL     1      24.003  17.924  21.211  1.00  0.00     0.191 C 
BRANCH   6   7
HETATM    7  C1  UNL     1      24.132  16.562  21.802  1.00  0.00     0.074 C 
BRANCH   7   8
HETATM    8  N1  UNL     1      24.495  16.466  23.018  1.00  0.00    -0.410 N 
ATOM      9  H12 UNL     1      23.795  16.379  23.754  1.00  0.00     0.155 HD
ATOM     10  H11 UNL     1      25.494  16.479  23.224  1.00  0.00     0.155 HD
ENDBRANCH   7   8
ENDBRANCH   6   7
ENDBRANCH   1   6
TORSDOF 3
ENDMDL
