MODEL 1
REMARK VINA RESULT: -7.851350289      0.000      0.000
REMARK  6 active torsions:
REMARK  status: ('A' for Active; 'I' for Inactive)
REMARK    1  A    between atoms: N1_1  and  C1_5 
REMARK    2  A    between atoms: C1_5  and  C2_6 
REMARK    3  A    between atoms: C2_6  and  N2_7 
REMARK       I    between atoms: N2_7  and  C3_9 
REMARK    4  A    between atoms: C3_9  and  C4_11 
REMARK    5  A    between atoms: C4_11  and  C5_12 
REMARK    6  A    between atoms: N3_18  and  C10_19 
ROOT
HETATM    1  N2  UNL     1      46.497  29.677  32.302  1.00  0.00    -0.359 N 
ATOM      2  H2  UNL     1      46.303  29.897  33.279  1.00  0.00     0.162 HD
HETATM    3  C3  UNL     1      45.420  29.494  31.350  1.00  0.00     0.219 C 
HETATM    4  O1  UNL     1      45.751  29.229  30.176  1.00  0.00    -0.274 OA
ENDROOT
BRANCH   3   5
HETATM    5  C4  UNL     1      44.028  29.617  31.754  1.00  0.00     0.128 C 
BRANCH   5   6
HETATM    6  C5  UNL     1      43.170  30.590  31.063  1.00  0.00     0.096 C 
HETATM    7  C6  UNL     1      41.815  29.981  30.803  1.00  0.00     0.026 C 
HETATM    8  C7  UNL     1      40.758  31.011  30.454  1.00  0.00     0.011 C 
HETATM    9  C8  UNL     1      40.394  31.692  31.757  1.00  0.00     0.103 C 
HETATM   10  C9  UNL     1      41.705  32.146  32.346  1.00  0.00     0.220 C 
HETATM   11  O2  UNL     1      41.639  32.793  33.435  1.00  0.00    -0.273 OA
HETATM   12  N3  UNL     1      42.970  31.873  31.723  1.00  0.00    -0.342 N 
BRANCH  12  13
HETATM   13  C10 UNL     1      43.957  32.899  31.765  1.00  0.00     0.087 C 
HETATM   14  C11 UNL     1      44.875  32.876  32.972  1.00  0.00     0.025 C 
HETATM   15  C12 UNL     1      45.469  34.259  33.210  1.00  0.00     0.002 C 
HETATM   16  C13 UNL     1      45.844  34.813  31.856  1.00  0.00     0.000 C 
HETATM   17  C14 UNL     1      46.129  33.719  30.871  1.00  0.00     0.002 C 
HETATM   18  C15 UNL     1      44.885  32.938  30.569  1.00  0.00     0.025 C 
ENDBRANCH  12  13
ENDBRANCH   5   6
ENDBRANCH   3   5
BRANCH   1  19
HETATM   19  C2  UNL     1      47.832  29.541  31.833  1.00  0.00     0.161 C 
BRANCH  19  20
HETATM   20  C1  UNL     1      48.766  30.597  32.362  1.00  0.00     0.139 C 
HETATM   21  C16 UNL     1      49.318  31.451  31.251  1.00  0.00     0.040 C 
HETATM   22  C17 UNL     1      50.070  32.636  31.771  1.00  0.00     0.002 C 
HETATM   23  C18 UNL     1      49.293  33.408  32.814  1.00  0.00     0.000 C 
HETATM   24  C19 UNL     1      48.836  32.482  33.940  1.00  0.00     0.002 C 
HETATM   25  C20 UNL     1      47.953  31.448  33.319  1.00  0.00     0.040 C 
BRANCH  20  26
HETATM   26  N1  UNL     1      49.838  29.981  33.118  1.00  0.00    -0.069 N 
ATOM     27  H13 UNL     1      49.770  28.964  33.117  1.00  0.00     0.275 HD
ATOM     28  H12 UNL     1      50.738  30.072  32.645  1.00  0.00     0.275 HD
ATOM     29  H11 UNL     1      49.864  30.362  34.065  1.00  0.00     0.275 HD
ENDBRANCH  20  26
ENDBRANCH  19  20
ENDBRANCH   1  19
TORSDOF 6
ENDMDL
MODEL 2
REMARK VINA RESULT: -7.763803881      2.170      4.596
REMARK  6 active torsions:
REMARK  status: ('A' for Active; 'I' for Inactive)
REMARK    1  A    between atoms: N1_1  and  C1_5 
REMARK    2  A    between atoms: C1_5  and  C2_6 
REMARK    3  A    between atoms: C2_6  and  N2_7 
REMARK       I    between atoms: N2_7  and  C3_9 
REMARK    4  A    between atoms: C3_9  and  C4_11 
REMARK    5  A    between atoms: C4_11  and  C5_12 
REMARK    6  A    between atoms: N3_18  and  C10_19 
ROOT
HETATM    1  N2  UNL     1      45.385  33.710  33.415  1.00  0.00    -0.359 N 
ATOM      2  H2  UNL     1      45.431  32.856  33.972  1.00  0.00     0.162 HD
HETATM    3  C3  UNL     1      44.256  33.973  32.545  1.00  0.00     0.219 C 
HETATM    4  O1  UNL     1      44.284  35.043  31.903  1.00  0.00    -0.274 OA
ENDROOT
BRANCH   3   5
HETATM    5  C4  UNL     1      43.154  33.030  32.435  1.00  0.00     0.128 C 
BRANCH   5   6
HETATM    6  C5  UNL     1      43.139  32.082  31.313  1.00  0.00     0.096 C 
HETATM    7  C6  UNL     1      44.550  31.685  30.960  1.00  0.00     0.026 C 
HETATM    8  C7  UNL     1      44.620  30.442  30.094  1.00  0.00     0.011 C 
HETATM    9  C8  UNL     1      44.339  29.275  31.018  1.00  0.00     0.103 C 
HETATM   10  C9  UNL     1      43.047  29.623  31.713  1.00  0.00     0.220 C 
HETATM   11  O2  UNL     1      42.588  28.754  32.514  1.00  0.00    -0.273 OA
HETATM   12  N3  UNL     1      42.359  30.864  31.493  1.00  0.00    -0.342 N 
BRANCH  12  13
HETATM   13  C10 UNL     1      40.936  30.825  31.437  1.00  0.00     0.087 C 
HETATM   14  C11 UNL     1      40.221  31.136  32.738  1.00  0.00     0.025 C 
HETATM   15  C12 UNL     1      38.822  30.533  32.728  1.00  0.00     0.002 C 
HETATM   16  C13 UNL     1      38.249  30.779  31.352  1.00  0.00     0.000 C 
HETATM   17  C14 UNL     1      38.862  31.986  30.707  1.00  0.00     0.002 C 
HETATM   18  C15 UNL     1      40.315  31.754  30.416  1.00  0.00     0.025 C 
ENDBRANCH  12  13
ENDBRANCH   5   6
ENDBRANCH   3   5
BRANCH   1  19
HETATM   19  C2  UNL     1      46.425  34.677  33.470  1.00  0.00     0.161 C 
BRANCH  19  20
HETATM   20  C1  UNL     1      47.754  34.160  32.988  1.00  0.00     0.139 C 
HETATM   21  C16 UNL     1      48.005  32.755  33.470  1.00  0.00     0.040 C 
HETATM   22  C17 UNL     1      49.211  32.145  32.826  1.00  0.00     0.002 C 
HETATM   23  C18 UNL     1      49.204  32.288  31.320  1.00  0.00     0.000 C 
HETATM   24  C19 UNL     1      49.019  33.751  30.919  1.00  0.00     0.002 C 
HETATM   25  C20 UNL     1      47.702  34.189  31.472  1.00  0.00     0.040 C 
BRANCH  20  26
HETATM   26  N1  UNL     1      48.818  35.046  33.412  1.00  0.00    -0.069 N 
ATOM     27  H13 UNL     1      49.209  35.574  32.631  1.00  0.00     0.275 HD
ATOM     28  H12 UNL     1      48.465  35.830  33.961  1.00  0.00     0.275 HD
ATOM     29  H11 UNL     1      49.535  34.520  33.914  1.00  0.00     0.275 HD
ENDBRANCH  20  26
ENDBRANCH  19  20
ENDBRANCH   1  19
TORSDOF 6
ENDMDL
MODEL 3
REMARK VINA RESULT: -7.759798122      2.039      6.694
REMARK  6 active torsions:
REMARK  status: ('A' for Active; 'I' for Inactive)
REMARK    1  A    between atoms: N1_1  and  C1_5 
REMARK    2  A    between atoms: C1_5  and  C2_6 
REMARK    3  A    between atoms: C2_6  and  N2_7 
REMARK       I    between atoms: N2_7  and  C3_9 
REMARK    4  A    between atoms: C3_9  and  C4_11 
REMARK    5  A    between atoms: C4_11  and  C5_12 
REMARK    6  A    between atoms: N3_18  and  C10_19 
ROOT
HETATM    1  N2  UNL     1      44.209  33.109  33.227  1.00  0.00    -0.359 N 
ATOM      2  H2  UNL     1      44.493  32.191  33.571  1.00  0.00     0.162 HD
HETATM    3  C3  UNL     1      45.177  34.174  33.059  1.00  0.00     0.219 C 
HETATM    4  O1  UNL     1      44.740  35.262  32.632  1.00  0.00    -0.274 OA
ENDROOT
BRANCH   3   5
HETATM    5  C4  UNL     1      46.582  33.972  33.375  1.00  0.00     0.128 C 
BRANCH   5   6
HETATM    6  C5  UNL     1      47.550  33.868  32.275  1.00  0.00     0.096 C 
HETATM    7  C6  UNL     1      48.791  34.656  32.610  1.00  0.00     0.026 C 
HETATM    8  C7  UNL     1      49.976  34.301  31.733  1.00  0.00     0.011 C 
HETATM    9  C8  UNL     1      50.481  32.965  32.237  1.00  0.00     0.103 C 
HETATM   10  C9  UNL     1      49.271  32.064  32.248  1.00  0.00     0.220 C 
HETATM   11  O2  UNL     1      49.469  30.862  32.597  1.00  0.00    -0.273 OA
HETATM   12  N3  UNL     1      47.960  32.525  31.886  1.00  0.00    -0.342 N 
BRANCH  12  13
HETATM   13  C10 UNL     1      47.137  31.637  31.136  1.00  0.00     0.087 C 
HETATM   14  C11 UNL     1      46.282  30.688  31.953  1.00  0.00     0.025 C 
HETATM   15  C12 UNL     1      45.908  29.466  31.123  1.00  0.00     0.002 C 
HETATM   16  C13 UNL     1      45.558  29.966  29.742  1.00  0.00     0.000 C 
HETATM   17  C14 UNL     1      45.071  31.383  29.774  1.00  0.00     0.002 C 
HETATM   18  C15 UNL     1      46.172  32.315  30.186  1.00  0.00     0.025 C 
ENDBRANCH  12  13
ENDBRANCH   5   6
ENDBRANCH   3   5
BRANCH   1  19
HETATM   19  C2  UNL     1      42.853  33.381  32.898  1.00  0.00     0.161 C 
BRANCH  19  20
HETATM   20  C1  UNL     1      42.059  32.149  32.552  1.00  0.00     0.139 C 
HETATM   21  C16 UNL     1      41.763  32.080  31.077  1.00  0.00     0.040 C 
HETATM   22  C17 UNL     1      41.170  30.764  30.682  1.00  0.00     0.002 C 
HETATM   23  C18 UNL     1      41.960  29.586  31.206  1.00  0.00     0.000 C 
HETATM   24  C19 UNL     1      42.150  29.696  32.718  1.00  0.00     0.002 C 
HETATM   25  C20 UNL     1      42.906  30.961  32.969  1.00  0.00     0.040 C 
BRANCH  20  26
HETATM   26  N1  UNL     1      40.834  32.112  33.324  1.00  0.00    -0.069 N 
ATOM     27  H13 UNL     1      40.921  32.624  34.202  1.00  0.00     0.275 HD
ATOM     28  H12 UNL     1      40.096  32.671  32.896  1.00  0.00     0.275 HD
ATOM     29  H11 UNL     1      40.542  31.145  33.474  1.00  0.00     0.275 HD
ENDBRANCH  20  26
ENDBRANCH  19  20
ENDBRANCH   1  19
TORSDOF 6
ENDMDL
MODEL 4
REMARK VINA RESULT: -7.667676026      2.236      4.589
REMARK  6 active torsions:
REMARK  status: ('A' for Active; 'I' for Inactive)
REMARK    1  A    between atoms: N1_1  and  C1_5 
REMARK    2  A    between atoms: C1_5  and  C2_6 
REMARK    3  A    between atoms: C2_6  and  N2_7 
REMARK       I    between atoms: N2_7  and  C3_9 
REMARK    4  A    between atoms: C3_9  and  C4_11 
REMARK    5  A    between atoms: C4_11  and  C5_12 
REMARK    6  A    between atoms: N3_18  and  C10_19 
ROOT
HETATM    1  N2  UNL     1      45.387  33.728  33.437  1.00  0.00    -0.359 N 
ATOM      2  H2  UNL     1      45.370  32.876  33.998  1.00  0.00     0.162 HD
HETATM    3  C3  UNL     1      44.251  34.109  32.623  1.00  0.00     0.219 C 
HETATM    4  O1  UNL     1      44.361  35.167  31.970  1.00  0.00    -0.274 OA
ENDROOT
BRANCH   3   5
HETATM    5  C4  UNL     1      43.048  33.291  32.578  1.00  0.00     0.128 C 
BRANCH   5   6
HETATM    6  C5  UNL     1      42.968  32.199  31.599  1.00  0.00     0.096 C 
HETATM    7  C6  UNL     1      44.310  32.004  30.939  1.00  0.00     0.026 C 
HETATM    8  C7  UNL     1      44.430  30.678  30.215  1.00  0.00     0.011 C 
HETATM    9  C8  UNL     1      44.616  29.630  31.293  1.00  0.00     0.103 C 
HETATM   10  C9  UNL     1      43.477  29.848  32.256  1.00  0.00     0.220 C 
HETATM   11  O2  UNL     1      43.402  29.041  33.231  1.00  0.00    -0.273 OA
HETATM   12  N3  UNL     1      42.517  30.905  32.095  1.00  0.00    -0.342 N 
BRANCH  12  13
HETATM   13  C10 UNL     1      41.159  30.612  32.409  1.00  0.00     0.087 C 
HETATM   14  C11 UNL     1      40.587  31.357  33.599  1.00  0.00     0.025 C 
HETATM   15  C12 UNL     1      39.401  30.595  34.178  1.00  0.00     0.002 C 
HETATM   16  C13 UNL     1      38.590  30.093  33.008  1.00  0.00     0.000 C 
HETATM   17  C14 UNL     1      38.773  30.957  31.797  1.00  0.00     0.002 C 
HETATM   18  C15 UNL     1      40.179  30.860  31.282  1.00  0.00     0.025 C 
ENDBRANCH  12  13
ENDBRANCH   5   6
ENDBRANCH   3   5
BRANCH   1  19
HETATM   19  C2  UNL     1      46.527  34.577  33.430  1.00  0.00     0.161 C 
BRANCH  19  20
HETATM   20  C1  UNL     1      47.619  34.110  32.505  1.00  0.00     0.139 C 
HETATM   21  C16 UNL     1      48.984  34.434  33.056  1.00  0.00     0.040 C 
HETATM   22  C17 UNL     1      50.078  33.788  32.266  1.00  0.00     0.002 C 
HETATM   23  C18 UNL     1      49.841  32.312  32.036  1.00  0.00     0.000 C 
HETATM   24  C19 UNL     1      48.468  32.080  31.407  1.00  0.00     0.002 C 
HETATM   25  C20 UNL     1      47.455  32.608  32.370  1.00  0.00     0.040 C 
BRANCH  20  26
HETATM   26  N1  UNL     1      47.445  34.695  31.191  1.00  0.00    -0.069 N 
ATOM     27  H13 UNL     1      47.944  35.580  31.098  1.00  0.00     0.275 HD
ATOM     28  H12 UNL     1      47.939  34.168  30.471  1.00  0.00     0.275 HD
ATOM     29  H11 UNL     1      46.451  34.793  30.979  1.00  0.00     0.275 HD
ENDBRANCH  20  26
ENDBRANCH  19  20
ENDBRANCH   1  19
TORSDOF 6
ENDMDL
MODEL 5
REMARK VINA RESULT: -7.546224085      2.197      3.971
REMARK  6 active torsions:
REMARK  status: ('A' for Active; 'I' for Inactive)
REMARK    1  A    between atoms: N1_1  and  C1_5 
REMARK    2  A    between atoms: C1_5  and  C2_6 
REMARK    3  A    between atoms: C2_6  and  N2_7 
REMARK       I    between atoms: N2_7  and  C3_9 
REMARK    4  A    between atoms: C3_9  and  C4_11 
REMARK    5  A    between atoms: C4_11  and  C5_12 
REMARK    6  A    between atoms: N3_18  and  C10_19 
ROOT
HETATM    1  N2  UNL     1      45.339  34.412  31.783  1.00  0.00    -0.359 N 
ATOM      2  H2  UNL     1      44.993  34.488  30.827  1.00  0.00     0.162 HD
HETATM    3  C3  UNL     1      44.507  33.869  32.838  1.00  0.00     0.219 C 
HETATM    4  O1  UNL     1      45.014  33.814  33.977  1.00  0.00    -0.274 OA
ENDROOT
BRANCH   3   5
HETATM    5  C4  UNL     1      43.152  33.413  32.569  1.00  0.00     0.128 C 
BRANCH   5   6
HETATM    6  C5  UNL     1      42.752  32.072  33.014  1.00  0.00     0.096 C 
HETATM    7  C6  UNL     1      41.446  32.151  33.765  1.00  0.00     0.026 C 
HETATM    8  C7  UNL     1      40.768  30.804  33.922  1.00  0.00     0.011 C 
HETATM    9  C8  UNL     1      40.168  30.479  32.570  1.00  0.00     0.103 C 
HETATM   10  C9  UNL     1      41.304  30.627  31.589  1.00  0.00     0.220 C 
HETATM   11  O2  UNL     1      41.041  30.354  30.379  1.00  0.00    -0.273 OA
HETATM   12  N3  UNL     1      42.618  31.051  31.983  1.00  0.00    -0.342 N 
BRANCH  12  13
HETATM   13  C10 UNL     1      43.728  30.419  31.352  1.00  0.00     0.087 C 
HETATM   14  C11 UNL     1      44.549  31.304  30.434  1.00  0.00     0.025 C 
HETATM   15  C12 UNL     1      45.305  30.454  29.420  1.00  0.00     0.002 C 
HETATM   16  C13 UNL     1      45.842  29.256  30.167  1.00  0.00     0.000 C 
HETATM   17  C14 UNL     1      46.046  29.558  31.621  1.00  0.00     0.002 C 
HETATM   18  C15 UNL     1      44.732  29.802  32.303  1.00  0.00     0.025 C 
ENDBRANCH  12  13
ENDBRANCH   5   6
ENDBRANCH   3   5
BRANCH   1  19
HETATM   19  C2  UNL     1      46.653  34.837  32.122  1.00  0.00     0.161 C 
BRANCH  19  20
HETATM   20  C1  UNL     1      47.734  34.104  31.374  1.00  0.00     0.139 C 
HETATM   21  C16 UNL     1      47.956  32.724  31.937  1.00  0.00     0.040 C 
HETATM   22  C17 UNL     1      48.864  31.903  31.077  1.00  0.00     0.002 C 
HETATM   23  C18 UNL     1      48.458  31.915  29.620  1.00  0.00     0.000 C 
HETATM   24  C19 UNL     1      48.329  33.350  29.109  1.00  0.00     0.002 C 
HETATM   25  C20 UNL     1      47.270  34.009  29.932  1.00  0.00     0.040 C 
BRANCH  20  26
HETATM   26  N1  UNL     1      48.963  34.870  31.394  1.00  0.00    -0.069 N 
ATOM     27  H13 UNL     1      49.782  34.275  31.520  1.00  0.00     0.275 HD
ATOM     28  H12 UNL     1      49.193  35.247  30.474  1.00  0.00     0.275 HD
ATOM     29  H11 UNL     1      48.910  35.602  32.104  1.00  0.00     0.275 HD
ENDBRANCH  20  26
ENDBRANCH  19  20
ENDBRANCH   1  19
TORSDOF 6
ENDMDL
