MODEL 1
REMARK VINA RESULT: -8.459407879      0.000      0.000
REMARK  7 active torsions:
REMARK  status: ('A' for Active; 'I' for Inactive)
REMARK    1  A    between atoms: S1_2  and  C1_4 
REMARK    2  A    between atoms: S1_2  and  N1_11 
REMARK    3  A    between atoms: C1_4  and  C2_5 
REMARK    4  A    between atoms: N1_11  and  C8_13 
REMARK    5  A    between atoms: C8_13  and  C9_14 
REMARK    6  A    between atoms: C15_20  and  C16_21 
REMARK    7  A    between atoms: C16_21  and  O3_22 
ROOT
HETATM    1  C9  UNL     1      41.665  29.484  32.463  1.00  0.00    -0.022 C 
HETATM    2  C10 UNL     1      42.263  30.455  33.433  1.00  0.00     0.015 C 
HETATM    3  C11 UNL     1      41.237  31.515  33.742  1.00  0.00    -0.013 C 
HETATM    4  C12 UNL     1      40.009  30.910  34.344  1.00  0.00     0.009 C 
HETATM    5  C13 UNL     1      39.389  29.978  33.335  1.00  0.00    -0.013 C 
HETATM    6  C14 UNL     1      39.026  30.715  32.063  1.00  0.00     0.016 C 
HETATM    7  C15 UNL     1      40.286  31.302  31.503  1.00  0.00    -0.018 C 
HETATM    8  C17 UNL     1      40.838  32.280  32.514  1.00  0.00     0.016 C 
HETATM    9  C18 UNL     1      41.318  30.240  31.194  1.00  0.00     0.023 C 
HETATM   10  C19 UNL     1      40.366  28.892  32.983  1.00  0.00     0.015 C 
ENDROOT
BRANCH   1  11
HETATM   11  C8  UNL     1      42.585  28.344  32.115  1.00  0.00     0.141 C 
BRANCH  11  12
HETATM   12  N1  UNL     1      43.728  28.344  33.008  1.00  0.00    -0.319 N 
ATOM     13  H1  UNL     1      43.662  28.381  34.025  1.00  0.00     0.172 HD
BRANCH  12  14
HETATM   14  S1  UNL     1      45.215  28.274  32.132  1.00  0.00     0.226 S 
HETATM   15  O1  UNL     1      46.294  28.772  33.004  1.00  0.00    -0.206 OA
HETATM   16  O2  UNL     1      45.485  26.798  31.874  1.00  0.00    -0.206 OA
BRANCH  14  17
HETATM   17  C1  UNL     1      45.042  29.120  30.613  1.00  0.00     0.167 C 
BRANCH  17  18
HETATM   18  C2  UNL     1      45.674  30.463  30.552  1.00  0.00     0.001 C 
HETATM   19  C3  UNL     1      45.810  31.053  29.194  1.00  0.00     0.005 C 
HETATM   20  C4  UNL     1      46.301  32.483  29.337  1.00  0.00     0.000 C 
HETATM   21  C5  UNL     1      45.323  33.361  30.047  1.00  0.00     0.000 C 
HETATM   22  C6  UNL     1      44.197  32.471  30.559  1.00  0.00     0.000 C 
HETATM   23  C7  UNL     1      44.867  31.405  31.423  1.00  0.00     0.005 C 
ENDBRANCH  17  18
ENDBRANCH  14  17
ENDBRANCH  12  14
ENDBRANCH  11  12
ENDBRANCH   1  11
BRANCH   7  24
HETATM   24  C16 UNL     1      40.043  32.073  30.221  1.00  0.00     0.173 C 
BRANCH  24  25
HETATM   25  O3  UNL     1      38.943  32.907  30.455  1.00  0.00    -0.400 OA
ATOM     26  H3  UNL     1      38.723  33.310  29.623  1.00  0.00     0.209 HD
ENDBRANCH  24  25
ENDBRANCH   7  24
TORSDOF 7
ENDMDL
MODEL 2
REMARK VINA RESULT: -8.073817065      2.577      3.562
REMARK  7 active torsions:
REMARK  status: ('A' for Active; 'I' for Inactive)
REMARK    1  A    between atoms: S1_2  and  C1_4 
REMARK    2  A    between atoms: S1_2  and  N1_11 
REMARK    3  A    between atoms: C1_4  and  C2_5 
REMARK    4  A    between atoms: N1_11  and  C8_13 
REMARK    5  A    between atoms: C8_13  and  C9_14 
REMARK    6  A    between atoms: C15_20  and  C16_21 
REMARK    7  A    between atoms: C16_21  and  O3_22 
ROOT
HETATM    1  C9  UNL     1      41.804  31.968  33.134  1.00  0.00    -0.022 C 
HETATM    2  C10 UNL     1      40.681  31.477  33.994  1.00  0.00     0.015 C 
HETATM    3  C11 UNL     1      39.941  30.399  33.246  1.00  0.00    -0.013 C 
HETATM    4  C12 UNL     1      40.849  29.255  32.922  1.00  0.00     0.009 C 
HETATM    5  C13 UNL     1      41.942  29.753  32.011  1.00  0.00    -0.013 C 
HETATM    6  C14 UNL     1      41.367  30.329  30.734  1.00  0.00     0.016 C 
HETATM    7  C15 UNL     1      40.466  31.465  31.113  1.00  0.00    -0.018 C 
HETATM    8  C17 UNL     1      39.348  30.914  31.967  1.00  0.00     0.016 C 
HETATM    9  C18 UNL     1      41.207  32.548  31.866  1.00  0.00     0.023 C 
HETATM   10  C19 UNL     1      42.721  30.836  32.702  1.00  0.00     0.015 C 
ENDROOT
BRANCH   1  11
HETATM   11  C8  UNL     1      42.651  33.020  33.800  1.00  0.00     0.141 C 
BRANCH  11  12
HETATM   12  N1  UNL     1      42.897  34.110  32.876  1.00  0.00    -0.319 N 
ATOM     13  H1  UNL     1      42.181  34.758  32.549  1.00  0.00     0.172 HD
BRANCH  12  14
HETATM   14  S1  UNL     1      44.556  34.173  32.400  1.00  0.00     0.226 S 
HETATM   15  O1  UNL     1      45.013  35.571  32.484  1.00  0.00    -0.206 OA
HETATM   16  O2  UNL     1      45.328  33.379  33.446  1.00  0.00    -0.206 OA
BRANCH  14  17
HETATM   17  C1  UNL     1      44.746  33.427  30.831  1.00  0.00     0.167 C 
BRANCH  17  18
HETATM   18  C2  UNL     1      45.616  32.224  30.794  1.00  0.00     0.001 C 
HETATM   19  C3  UNL     1      45.174  31.132  29.887  1.00  0.00     0.005 C 
HETATM   20  C4  UNL     1      46.263  30.075  29.839  1.00  0.00     0.000 C 
HETATM   21  C5  UNL     1      47.536  30.584  29.245  1.00  0.00     0.000 C 
HETATM   22  C6  UNL     1      47.375  32.084  29.033  1.00  0.00     0.000 C 
HETATM   23  C7  UNL     1      47.012  32.662  30.400  1.00  0.00     0.005 C 
ENDBRANCH  17  18
ENDBRANCH  14  17
ENDBRANCH  12  14
ENDBRANCH  11  12
ENDBRANCH   1  11
BRANCH   7  24
HETATM   24  C16 UNL     1      39.825  32.120  29.906  1.00  0.00     0.173 C 
BRANCH  24  25
HETATM   25  O3  UNL     1      38.804  32.948  30.391  1.00  0.00    -0.400 OA
ATOM     26  H3  UNL     1      38.435  32.512  31.149  1.00  0.00     0.209 HD
ENDBRANCH  24  25
ENDBRANCH   7  24
TORSDOF 7
ENDMDL
MODEL 3
REMARK VINA RESULT: -8.040772572      1.402      1.792
REMARK  7 active torsions:
REMARK  status: ('A' for Active; 'I' for Inactive)
REMARK    1  A    between atoms: S1_2  and  C1_4 
REMARK    2  A    between atoms: S1_2  and  N1_11 
REMARK    3  A    between atoms: C1_4  and  C2_5 
REMARK    4  A    between atoms: N1_11  and  C8_13 
REMARK    5  A    between atoms: C8_13  and  C9_14 
REMARK    6  A    between atoms: C15_20  and  C16_21 
REMARK    7  A    between atoms: C16_21  and  O3_22 
ROOT
HETATM    1  C9  UNL     1      42.049  29.740  32.205  1.00  0.00    -0.022 C 
HETATM    2  C10 UNL     1      42.548  30.757  33.183  1.00  0.00     0.015 C 
HETATM    3  C11 UNL     1      41.399  31.654  33.568  1.00  0.00    -0.013 C 
HETATM    4  C12 UNL     1      40.294  30.866  34.197  1.00  0.00     0.009 C 
HETATM    5  C13 UNL     1      39.766  29.885  33.182  1.00  0.00    -0.013 C 
HETATM    6  C14 UNL     1      39.250  30.599  31.951  1.00  0.00     0.016 C 
HETATM    7  C15 UNL     1      40.391  31.373  31.362  1.00  0.00    -0.018 C 
HETATM    8  C17 UNL     1      40.845  32.390  32.383  1.00  0.00     0.016 C 
HETATM    9  C18 UNL     1      41.545  30.474  30.978  1.00  0.00     0.023 C 
HETATM   10  C19 UNL     1      40.868  28.957  32.755  1.00  0.00     0.015 C 
ENDROOT
BRANCH   1  11
HETATM   11  C8  UNL     1      43.103  28.750  31.784  1.00  0.00     0.141 C 
BRANCH  11  12
HETATM   12  N1  UNL     1      44.374  29.098  32.388  1.00  0.00    -0.319 N 
ATOM     13  H1  UNL     1      44.521  29.213  33.390  1.00  0.00     0.172 HD
BRANCH  12  14
HETATM   14  S1  UNL     1      45.609  29.292  31.196  1.00  0.00     0.226 S 
HETATM   15  O1  UNL     1      46.511  28.129  31.265  1.00  0.00    -0.206 OA
HETATM   16  O2  UNL     1      44.906  29.243  29.846  1.00  0.00    -0.206 OA
BRANCH  14  17
HETATM   17  C1  UNL     1      46.386  30.844  31.402  1.00  0.00     0.167 C 
BRANCH  17  18
HETATM   18  C2  UNL     1      45.576  31.879  32.092  1.00  0.00     0.001 C 
HETATM   19  C3  UNL     1      46.343  32.905  32.848  1.00  0.00     0.005 C 
HETATM   20  C4  UNL     1      45.375  33.972  33.328  1.00  0.00     0.000 C 
HETATM   21  C5  UNL     1      44.732  34.717  32.205  1.00  0.00     0.000 C 
HETATM   22  C6  UNL     1      45.138  34.028  30.908  1.00  0.00     0.000 C 
HETATM   23  C7  UNL     1      44.710  32.570  31.057  1.00  0.00     0.005 C 
ENDBRANCH  17  18
ENDBRANCH  14  17
ENDBRANCH  12  14
ENDBRANCH  11  12
ENDBRANCH   1  11
BRANCH   7  24
HETATM   24  C16 UNL     1      39.988  32.138  30.118  1.00  0.00     0.173 C 
BRANCH  24  25
HETATM   25  O3  UNL     1      38.869  32.907  30.462  1.00  0.00    -0.400 OA
ATOM     26  H3  UNL     1      38.152  32.606  29.917  1.00  0.00     0.209 HD
ENDBRANCH  24  25
ENDBRANCH   7  24
TORSDOF 7
ENDMDL
MODEL 4
REMARK VINA RESULT: -8.036505506      2.819      3.960
REMARK  7 active torsions:
REMARK  status: ('A' for Active; 'I' for Inactive)
REMARK    1  A    between atoms: S1_2  and  C1_4 
REMARK    2  A    between atoms: S1_2  and  N1_11 
REMARK    3  A    between atoms: C1_4  and  C2_5 
REMARK    4  A    between atoms: N1_11  and  C8_13 
REMARK    5  A    between atoms: C8_13  and  C9_14 
REMARK    6  A    between atoms: C15_20  and  C16_21 
REMARK    7  A    between atoms: C16_21  and  O3_22 
ROOT
HETATM    1  C9  UNL     1      42.093  31.874  32.915  1.00  0.00    -0.022 C 
HETATM    2  C10 UNL     1      42.878  30.611  33.090  1.00  0.00     0.015 C 
HETATM    3  C11 UNL     1      42.122  29.484  32.436  1.00  0.00    -0.013 C 
HETATM    4  C12 UNL     1      41.930  29.746  30.975  1.00  0.00     0.009 C 
HETATM    5  C13 UNL     1      41.091  30.989  30.817  1.00  0.00    -0.013 C 
HETATM    6  C14 UNL     1      39.745  30.828  31.490  1.00  0.00     0.016 C 
HETATM    7  C15 UNL     1      39.992  30.565  32.945  1.00  0.00    -0.018 C 
HETATM    8  C17 UNL     1      40.774  29.278  33.064  1.00  0.00     0.016 C 
HETATM    9  C18 UNL     1      40.753  31.695  33.602  1.00  0.00     0.023 C 
HETATM   10  C19 UNL     1      41.794  32.156  31.451  1.00  0.00     0.015 C 
ENDROOT
BRANCH   1  11
HETATM   11  C8  UNL     1      42.778  33.087  33.487  1.00  0.00     0.141 C 
BRANCH  11  12
HETATM   12  N1  UNL     1      43.243  33.942  32.412  1.00  0.00    -0.319 N 
ATOM     13  H1  UNL     1      42.633  34.387  31.728  1.00  0.00     0.172 HD
BRANCH  12  14
HETATM   14  S1  UNL     1      44.962  34.112  32.439  1.00  0.00     0.226 S 
HETATM   15  O1  UNL     1      45.287  35.548  32.493  1.00  0.00    -0.206 OA
HETATM   16  O2  UNL     1      45.429  33.490  33.748  1.00  0.00    -0.206 OA
BRANCH  14  17
HETATM   17  C1  UNL     1      45.659  33.246  31.090  1.00  0.00     0.167 C 
BRANCH  17  18
HETATM   18  C2  UNL     1      45.497  31.771  31.124  1.00  0.00     0.001 C 
HETATM   19  C3  UNL     1      45.220  31.119  29.816  1.00  0.00     0.005 C 
HETATM   20  C4  UNL     1      45.266  29.613  30.009  1.00  0.00     0.000 C 
HETATM   21  C5  UNL     1      46.620  29.124  30.408  1.00  0.00     0.000 C 
HETATM   22  C6  UNL     1      47.491  30.347  30.666  1.00  0.00     0.000 C 
HETATM   23  C7  UNL     1      46.755  31.171  31.720  1.00  0.00     0.005 C 
ENDBRANCH  17  18
ENDBRANCH  14  17
ENDBRANCH  12  14
ENDBRANCH  11  12
ENDBRANCH   1  11
BRANCH   7  24
HETATM   24  C16 UNL     1      38.707  30.381  33.725  1.00  0.00     0.173 C 
BRANCH  24  25
HETATM   25  O3  UNL     1      38.642  29.029  34.084  1.00  0.00    -0.400 OA
ATOM     26  H3  UNL     1      37.733  28.766  34.000  1.00  0.00     0.209 HD
ENDBRANCH  24  25
ENDBRANCH   7  24
TORSDOF 7
ENDMDL
MODEL 5
REMARK VINA RESULT: -8.003687675      2.691      4.055
REMARK  7 active torsions:
REMARK  status: ('A' for Active; 'I' for Inactive)
REMARK    1  A    between atoms: S1_2  and  C1_4 
REMARK    2  A    between atoms: S1_2  and  N1_11 
REMARK    3  A    between atoms: C1_4  and  C2_5 
REMARK    4  A    between atoms: N1_11  and  C8_13 
REMARK    5  A    between atoms: C8_13  and  C9_14 
REMARK    6  A    between atoms: C15_20  and  C16_21 
REMARK    7  A    between atoms: C16_21  and  O3_22 
ROOT
HETATM    1  C9  UNL     1      42.025  31.959  32.786  1.00  0.00    -0.022 C 
HETATM    2  C10 UNL     1      41.748  32.233  31.341  1.00  0.00     0.015 C 
HETATM    3  C11 UNL     1      40.961  31.078  30.777  1.00  0.00    -0.013 C 
HETATM    4  C12 UNL     1      39.665  30.910  31.505  1.00  0.00     0.009 C 
HETATM    5  C13 UNL     1      39.962  30.579  32.945  1.00  0.00    -0.013 C 
HETATM    6  C14 UNL     1      40.780  29.310  33.055  1.00  0.00     0.016 C 
HETATM    7  C15 UNL     1      42.062  29.529  32.311  1.00  0.00    -0.018 C 
HETATM    8  C17 UNL     1      41.725  29.789  30.861  1.00  0.00     0.016 C 
HETATM    9  C18 UNL     1      42.852  30.690  32.874  1.00  0.00     0.023 C 
HETATM   10  C19 UNL     1      40.748  31.698  33.568  1.00  0.00     0.015 C 
ENDROOT
BRANCH   1  11
HETATM   11  C8  UNL     1      42.768  33.074  33.474  1.00  0.00     0.141 C 
BRANCH  11  12
HETATM   12  N1  UNL     1      43.216  34.044  32.494  1.00  0.00    -0.319 N 
ATOM     13  H1  UNL     1      42.592  34.614  31.923  1.00  0.00     0.172 HD
BRANCH  12  14
HETATM   14  S1  UNL     1      44.940  34.113  32.415  1.00  0.00     0.226 S 
HETATM   15  O1  UNL     1      45.356  35.522  32.529  1.00  0.00    -0.206 OA
HETATM   16  O2  UNL     1      45.450  33.386  33.653  1.00  0.00    -0.206 OA
BRANCH  14  17
HETATM   17  C1  UNL     1      45.496  33.292  30.975  1.00  0.00     0.167 C 
BRANCH  17  18
HETATM   18  C2  UNL     1      45.511  31.809  31.049  1.00  0.00     0.001 C 
HETATM   19  C3  UNL     1      45.132  31.094  29.801  1.00  0.00     0.005 C 
HETATM   20  C4  UNL     1      45.377  29.609  30.003  1.00  0.00     0.000 C 
HETATM   21  C5  UNL     1      46.820  29.286  30.214  1.00  0.00     0.000 C 
HETATM   22  C6  UNL     1      47.572  30.605  30.332  1.00  0.00     0.000 C 
HETATM   23  C7  UNL     1      46.899  31.370  31.470  1.00  0.00     0.005 C 
ENDBRANCH  17  18
ENDBRANCH  14  17
ENDBRANCH  12  14
ENDBRANCH  11  12
ENDBRANCH   1  11
BRANCH   7  24
HETATM   24  C16 UNL     1      42.966  28.314  32.349  1.00  0.00     0.173 C 
BRANCH  24  25
HETATM   25  O3  UNL     1      42.144  27.194  32.177  1.00  0.00    -0.400 OA
ATOM     26  H3  UNL     1      42.305  26.868  31.300  1.00  0.00     0.209 HD
ENDBRANCH  24  25
ENDBRANCH   7  24
TORSDOF 7
ENDMDL
