MODEL 1
REMARK VINA RESULT: -8.941817046      0.000      0.000
REMARK  5 active torsions:
REMARK  status: ('A' for Active; 'I' for Inactive)
REMARK    1  A    between atoms: C4_4  and  C5_5 
REMARK    2  A    between atoms: C5_5  and  C6_6 
REMARK    3  A    between atoms: N2_15  and  C13_16 
REMARK    4  A    between atoms: C13_16  and  C14_17 
REMARK    5  A    between atoms: C14_17  and  C15_18 
ROOT
HETATM    1  C6  UNL     1      45.141  31.513  31.881  1.00  0.00     0.207 C 
HETATM    2  C7  UNL     1      44.967  32.755  31.099  1.00  0.00     0.147 C 
HETATM    3  N1  UNL     1      44.206  33.779  31.775  1.00  0.00    -0.419 N 
ATOM      4  H1  UNL     1      44.440  34.769  31.702  1.00  0.00     0.153 HD
HETATM    5  C8  UNL     1      43.105  33.312  32.553  1.00  0.00     0.114 C 
HETATM    6  C9  UNL     1      42.192  32.372  31.853  1.00  0.00     0.030 C 
HETATM    7  C10 UNL     1      41.995  31.042  32.542  1.00  0.00    -0.012 C 
HETATM    8  C11 UNL     1      41.699  31.179  33.999  1.00  0.00     0.031 C 
HETATM    9  C12 UNL     1      40.970  29.890  34.420  1.00  0.00     0.122 C 
HETATM   10  N2  UNL     1      39.639  30.050  33.957  1.00  0.00    -0.393 N 
HETATM   11  C18 UNL     1      39.558  30.366  32.579  1.00  0.00     0.122 C 
HETATM   12  C19 UNL     1      40.877  30.326  31.854  1.00  0.00     0.031 C 
HETATM   13  C20 UNL     1      43.226  30.155  32.430  1.00  0.00     0.242 C 
HETATM   14  N3  UNL     1      44.143  30.562  31.413  1.00  0.00    -0.068 N 
ATOM     15  H31 UNL     1      44.589  29.752  30.982  1.00  0.00     0.277 HD
ATOM     16  H32 UNL     1      43.644  30.931  30.602  1.00  0.00     0.277 HD
ENDROOT
BRANCH  10  17
HETATM   17  C13 UNL     1      38.730  29.120  34.494  1.00  0.00     0.058 C 
BRANCH  17  18
HETATM   18  C14 UNL     1      39.267  28.564  35.794  1.00  0.00     0.049 C 
BRANCH  18  19
HETATM   19  C15 UNL     1      38.645  27.231  36.140  1.00  0.00    -0.010 A 
HETATM   20  C16 UNL     1      37.251  27.103  36.591  1.00  0.00     0.005 A 
HETATM   21  C17 UNL     1      38.300  26.968  37.625  1.00  0.00     0.005 A 
ENDBRANCH  18  19
ENDBRANCH  17  18
ENDBRANCH  10  17
BRANCH   1  22
HETATM   22  C5  UNL     1      46.481  30.844  31.798  1.00  0.00     0.073 C 
BRANCH  22  23
HETATM   23  C4  UNL     1      47.626  31.687  32.155  1.00  0.00    -0.056 A 
HETATM   24  C3  UNL     1      47.670  32.472  33.286  1.00  0.00     0.007 A 
HETATM   25  C2  UNL     1      48.777  33.237  33.585  1.00  0.00     0.001 A 
HETATM   26  C1  UNL     1      49.872  33.232  32.752  1.00  0.00     0.000 A 
HETATM   27  C22 UNL     1      49.840  32.456  31.627  1.00  0.00     0.001 A 
HETATM   28  C21 UNL     1      48.735  31.699  31.338  1.00  0.00     0.007 A 
ENDBRANCH  22  23
ENDBRANCH   1  22
TORSDOF 5
ENDMDL
MODEL 2
REMARK VINA RESULT: -8.634216504      2.847      9.028
REMARK  5 active torsions:
REMARK  status: ('A' for Active; 'I' for Inactive)
REMARK    1  A    between atoms: C4_4  and  C5_5 
REMARK    2  A    between atoms: C5_5  and  C6_6 
REMARK    3  A    between atoms: N2_15  and  C13_16 
REMARK    4  A    between atoms: C13_16  and  C14_17 
REMARK    5  A    between atoms: C14_17  and  C15_18 
ROOT
HETATM    1  C6  UNL     1      43.287  32.188  31.788  1.00  0.00     0.207 C 
HETATM    2  C7  UNL     1      42.648  32.591  33.057  1.00  0.00     0.147 C 
HETATM    3  N1  UNL     1      42.790  33.993  33.373  1.00  0.00    -0.419 N 
ATOM      4  H1  UNL     1      42.041  34.532  33.806  1.00  0.00     0.153 HD
HETATM    5  C8  UNL     1      44.050  34.572  33.039  1.00  0.00     0.114 C 
HETATM    6  C9  UNL     1      45.238  33.816  33.514  1.00  0.00     0.030 C 
HETATM    7  C10 UNL     1      46.221  33.428  32.434  1.00  0.00    -0.012 C 
HETATM    8  C11 UNL     1      46.565  34.561  31.524  1.00  0.00     0.031 C 
HETATM    9  C12 UNL     1      47.930  34.220  30.901  1.00  0.00     0.122 C 
HETATM   10  N2  UNL     1      48.882  34.512  31.911  1.00  0.00    -0.393 N 
HETATM   11  C18 UNL     1      48.606  33.873  33.143  1.00  0.00     0.122 C 
HETATM   12  C19 UNL     1      47.454  32.906  33.097  1.00  0.00     0.031 C 
HETATM   13  C20 UNL     1      45.684  32.310  31.551  1.00  0.00     0.242 C 
HETATM   14  N3  UNL     1      44.579  31.604  32.119  1.00  0.00    -0.068 N 
ATOM     15  H31 UNL     1      44.608  30.618  31.858  1.00  0.00     0.277 HD
ATOM     16  H32 UNL     1      44.687  31.515  33.130  1.00  0.00     0.277 HD
ENDROOT
BRANCH  10  17
HETATM   17  C13 UNL     1      50.211  34.555  31.451  1.00  0.00     0.058 C 
BRANCH  17  18
HETATM   18  C14 UNL     1      50.978  33.359  31.972  1.00  0.00     0.049 C 
BRANCH  18  19
HETATM   19  C15 UNL     1      51.389  32.422  30.861  1.00  0.00    -0.010 A 
HETATM   20  C16 UNL     1      50.502  32.093  29.736  1.00  0.00     0.005 A 
HETATM   21  C17 UNL     1      50.670  31.055  30.776  1.00  0.00     0.005 A 
ENDBRANCH  18  19
ENDBRANCH  17  18
ENDBRANCH  10  17
BRANCH   1  22
HETATM   22  C5  UNL     1      42.543  31.198  30.941  1.00  0.00     0.073 C 
BRANCH  22  23
HETATM   23  C4  UNL     1      41.082  31.268  31.031  1.00  0.00    -0.056 A 
HETATM   24  C3  UNL     1      40.316  32.156  30.309  1.00  0.00     0.007 A 
HETATM   25  C2  UNL     1      38.943  32.172  30.418  1.00  0.00     0.001 A 
HETATM   26  C1  UNL     1      38.301  31.293  31.260  1.00  0.00     0.000 A 
HETATM   27  C22 UNL     1      39.051  30.406  31.982  1.00  0.00     0.001 A 
HETATM   28  C21 UNL     1      40.416  30.398  31.866  1.00  0.00     0.007 A 
ENDBRANCH  22  23
ENDBRANCH   1  22
TORSDOF 5
ENDMDL
MODEL 3
REMARK VINA RESULT: -8.601136054      2.408      2.950
REMARK  5 active torsions:
REMARK  status: ('A' for Active; 'I' for Inactive)
REMARK    1  A    between atoms: C4_4  and  C5_5 
REMARK    2  A    between atoms: C5_5  and  C6_6 
REMARK    3  A    between atoms: N2_15  and  C13_16 
REMARK    4  A    between atoms: C13_16  and  C14_17 
REMARK    5  A    between atoms: C14_17  and  C15_18 
ROOT
HETATM    1  C6  UNL     1      45.267  30.167  30.755  1.00  0.00     0.207 C 
HETATM    2  C7  UNL     1      45.367  31.395  29.939  1.00  0.00     0.147 C 
HETATM    3  N1  UNL     1      45.074  32.611  30.661  1.00  0.00    -0.419 N 
ATOM      4  H1  UNL     1      45.589  33.477  30.500  1.00  0.00     0.153 HD
HETATM    5  C8  UNL     1      44.017  32.519  31.614  1.00  0.00     0.114 C 
HETATM    6  C9  UNL     1      42.761  31.909  31.107  1.00  0.00     0.030 C 
HETATM    7  C10 UNL     1      42.271  30.714  31.890  1.00  0.00    -0.012 C 
HETATM    8  C11 UNL     1      42.262  30.946  33.365  1.00  0.00     0.031 C 
HETATM    9  C12 UNL     1      41.245  29.955  33.956  1.00  0.00     0.122 C 
HETATM   10  N2  UNL     1      39.973  30.522  33.683  1.00  0.00    -0.393 N 
HETATM   11  C18 UNL     1      39.782  30.838  32.317  1.00  0.00     0.122 C 
HETATM   12  C19 UNL     1      40.894  30.381  31.412  1.00  0.00     0.031 C 
HETATM   13  C20 UNL     1      43.134  29.483  31.649  1.00  0.00     0.242 C 
HETATM   14  N3  UNL     1      43.963  29.575  30.489  1.00  0.00    -0.068 N 
ATOM     15  H31 UNL     1      44.064  28.663  30.044  1.00  0.00     0.277 HD
ATOM     16  H32 UNL     1      43.484  30.077  29.741  1.00  0.00     0.277 HD
ENDROOT
BRANCH  10  17
HETATM   17  C13 UNL     1      38.916  29.929  34.397  1.00  0.00     0.058 C 
BRANCH  17  18
HETATM   18  C14 UNL     1      39.429  28.754  35.200  1.00  0.00     0.049 C 
BRANCH  18  19
HETATM   19  C15 UNL     1      38.317  28.040  35.932  1.00  0.00    -0.010 A 
HETATM   20  C16 UNL     1      38.444  27.605  37.331  1.00  0.00     0.005 A 
HETATM   21  C17 UNL     1      38.541  26.553  36.297  1.00  0.00     0.005 A 
ENDBRANCH  18  19
ENDBRANCH  17  18
ENDBRANCH  10  17
BRANCH   1  22
HETATM   22  C5  UNL     1      46.304  29.110  30.516  1.00  0.00     0.073 C 
BRANCH  22  23
HETATM   23  C4  UNL     1      46.606  28.255  31.667  1.00  0.00    -0.056 A 
HETATM   24  C3  UNL     1      46.348  28.616  32.971  1.00  0.00     0.007 A 
HETATM   25  C2  UNL     1      46.637  27.770  34.020  1.00  0.00     0.001 A 
HETATM   26  C1  UNL     1      47.196  26.535  33.784  1.00  0.00     0.000 A 
HETATM   27  C22 UNL     1      47.456  26.166  32.493  1.00  0.00     0.001 A 
HETATM   28  C21 UNL     1      47.164  27.014  31.457  1.00  0.00     0.007 A 
ENDBRANCH  22  23
ENDBRANCH   1  22
TORSDOF 5
ENDMDL
MODEL 4
REMARK VINA RESULT: -8.506233672      1.771      8.855
REMARK  5 active torsions:
REMARK  status: ('A' for Active; 'I' for Inactive)
REMARK    1  A    between atoms: C4_4  and  C5_5 
REMARK    2  A    between atoms: C5_5  and  C6_6 
REMARK    3  A    between atoms: N2_15  and  C13_16 
REMARK    4  A    between atoms: C13_16  and  C14_17 
REMARK    5  A    between atoms: C14_17  and  C15_18 
ROOT
HETATM    1  C6  UNL     1      39.968  29.516  34.730  1.00  0.00     0.207 C 
HETATM    2  C7  UNL     1      38.661  30.030  34.271  1.00  0.00     0.147 C 
HETATM    3  N1  UNL     1      38.369  29.752  32.885  1.00  0.00    -0.419 N 
ATOM      4  H1  UNL     1      37.432  29.508  32.564  1.00  0.00     0.153 HD
HETATM    5  C8  UNL     1      39.480  29.841  31.994  1.00  0.00     0.114 C 
HETATM    6  C9  UNL     1      40.282  31.086  32.109  1.00  0.00     0.030 C 
HETATM    7  C10 UNL     1      41.753  30.874  32.380  1.00  0.00    -0.012 C 
HETATM    8  C11 UNL     1      42.370  29.854  31.481  1.00  0.00     0.031 C 
HETATM    9  C12 UNL     1      43.878  30.155  31.449  1.00  0.00     0.122 C 
HETATM   10  N2  UNL     1      44.016  31.264  30.574  1.00  0.00    -0.393 N 
HETATM   11  C18 UNL     1      43.190  32.359  30.922  1.00  0.00     0.122 C 
HETATM   12  C19 UNL     1      42.447  32.189  32.220  1.00  0.00     0.031 C 
HETATM   13  C20 UNL     1      42.008  30.408  33.806  1.00  0.00     0.242 C 
HETATM   14  N3  UNL     1      40.909  30.626  34.692  1.00  0.00    -0.068 N 
ATOM     15  H31 UNL     1      41.240  30.852  35.630  1.00  0.00     0.277 HD
ATOM     16  H32 UNL     1      40.430  31.498  34.467  1.00  0.00     0.277 HD
ENDROOT
BRANCH  10  17
HETATM   17  C13 UNL     1      45.341  31.514  30.170  1.00  0.00     0.058 C 
BRANCH  17  18
HETATM   18  C14 UNL     1      45.588  33.005  30.104  1.00  0.00     0.049 C 
BRANCH  18  19
HETATM   19  C15 UNL     1      46.579  33.462  31.149  1.00  0.00    -0.010 A 
HETATM   20  C16 UNL     1      46.366  33.245  32.588  1.00  0.00     0.005 A 
HETATM   21  C17 UNL     1      46.150  34.619  32.083  1.00  0.00     0.005 A 
ENDBRANCH  18  19
ENDBRANCH  17  18
ENDBRANCH  10  17
BRANCH   1  22
HETATM   22  C5  UNL     1      40.015  28.926  36.109  1.00  0.00     0.073 C 
BRANCH  22  23
HETATM   23  C4  UNL     1      38.935  27.988  36.428  1.00  0.00    -0.056 A 
HETATM   24  C3  UNL     1      38.792  26.758  35.825  1.00  0.00     0.007 A 
HETATM   25  C2  UNL     1      37.767  25.905  36.170  1.00  0.00     0.001 A 
HETATM   26  C1  UNL     1      36.855  26.267  37.134  1.00  0.00     0.000 A 
HETATM   27  C22 UNL     1      36.987  27.486  37.741  1.00  0.00     0.001 A 
HETATM   28  C21 UNL     1      38.010  28.327  37.391  1.00  0.00     0.007 A 
ENDBRANCH  22  23
ENDBRANCH   1  22
TORSDOF 5
ENDMDL
MODEL 5
REMARK VINA RESULT: -8.477134165      1.310      1.868
REMARK  5 active torsions:
REMARK  status: ('A' for Active; 'I' for Inactive)
REMARK    1  A    between atoms: C4_4  and  C5_5 
REMARK    2  A    between atoms: C5_5  and  C6_6 
REMARK    3  A    between atoms: N2_15  and  C13_16 
REMARK    4  A    between atoms: C13_16  and  C14_17 
REMARK    5  A    between atoms: C14_17  and  C15_18 
ROOT
HETATM    1  C6  UNL     1      43.975  31.181  31.236  1.00  0.00     0.207 C 
HETATM    2  C7  UNL     1      43.761  32.621  30.980  1.00  0.00     0.147 C 
HETATM    3  N1  UNL     1      43.486  33.399  32.165  1.00  0.00    -0.419 N 
ATOM      4  H1  UNL     1      43.853  34.342  32.295  1.00  0.00     0.153 HD
HETATM    5  C8  UNL     1      42.668  32.759  33.143  1.00  0.00     0.114 C 
HETATM    6  C9  UNL     1      41.413  32.159  32.620  1.00  0.00     0.030 C 
HETATM    7  C10 UNL     1      41.238  30.688  32.917  1.00  0.00    -0.012 C 
HETATM    8  C11 UNL     1      41.509  30.344  34.344  1.00  0.00     0.031 C 
HETATM    9  C12 UNL     1      40.758  29.031  34.627  1.00  0.00     0.122 C 
HETATM   10  N2  UNL     1      39.400  29.409  34.793  1.00  0.00    -0.393 N 
HETATM   11  C18 UNL     1      38.894  30.172  33.714  1.00  0.00     0.122 C 
HETATM   12  C19 UNL     1      39.840  30.306  32.550  1.00  0.00     0.031 C 
HETATM   13  C20 UNL     1      42.169  29.824  32.078  1.00  0.00     0.242 C 
HETATM   14  N3  UNL     1      42.723  30.499  30.947  1.00  0.00    -0.068 N 
ATOM     15  H31 UNL     1      42.834  29.857  30.161  1.00  0.00     0.277 HD
ATOM     16  H32 UNL     1      42.044  31.144  30.542  1.00  0.00     0.277 HD
ENDROOT
BRANCH  10  17
HETATM   17  C13 UNL     1      38.590  28.403  35.352  1.00  0.00     0.058 C 
BRANCH  17  18
HETATM   18  C14 UNL     1      38.776  28.364  36.853  1.00  0.00     0.049 C 
BRANCH  18  19
HETATM   19  C15 UNL     1      38.262  27.077  37.453  1.00  0.00    -0.010 A 
HETATM   20  C16 UNL     1      37.372  26.164  36.722  1.00  0.00     0.005 A 
HETATM   21  C17 UNL     1      36.752  26.993  37.779  1.00  0.00     0.005 A 
ENDBRANCH  18  19
ENDBRANCH  17  18
ENDBRANCH  10  17
BRANCH   1  22
HETATM   22  C5  UNL     1      45.056  30.507  30.444  1.00  0.00     0.073 C 
BRANCH  22  23
HETATM   23  C4  UNL     1      46.310  31.257  30.327  1.00  0.00    -0.056 A 
HETATM   24  C3  UNL     1      46.755  31.817  29.150  1.00  0.00     0.007 A 
HETATM   25  C2  UNL     1      47.935  32.527  29.095  1.00  0.00     0.001 A 
HETATM   26  C1  UNL     1      48.701  32.692  30.225  1.00  0.00     0.000 A 
HETATM   27  C22 UNL     1      48.269  32.141  31.400  1.00  0.00     0.001 A 
HETATM   28  C21 UNL     1      47.094  31.438  31.445  1.00  0.00     0.007 A 
ENDBRANCH  22  23
ENDBRANCH   1  22
TORSDOF 5
ENDMDL
