MODEL 1
REMARK VINA RESULT: -7.913970798      0.000      0.000
REMARK  6 active torsions:
REMARK  status: ('A' for Active; 'I' for Inactive)
REMARK    1  A    between atoms: C2_2  and  C4_4 
REMARK    2  A    between atoms: C11_15  and  N3_16 
REMARK    3  A    between atoms: N3_16  and  C13_18 
REMARK    4  A    between atoms: C13_18  and  C14_19 
REMARK    5  A    between atoms: C14_19  and  C15_20 
REMARK    6  A    between atoms: C15_20  and  N4_21 
ROOT
HETATM    1  C4  UNL     1      45.549  31.911  31.131  1.00  0.00    -0.035 C 
HETATM    2  C5  UNL     1      46.204  32.281  32.456  1.00  0.00     0.016 C 
HETATM    3  C6  UNL     1      46.630  31.413  30.218  1.00  0.00     0.012 C 
HETATM    4  C7  UNL     1      46.616  29.930  30.018  1.00  0.00     0.036 C 
HETATM    5  C8  UNL     1      46.429  29.171  31.325  1.00  0.00     0.211 C 
HETATM    6  N1  UNL     1      46.043  27.811  31.100  1.00  0.00    -0.053 N 
ATOM      7  H11 UNL     1      46.839  27.184  30.984  1.00  0.00     0.279 HD
ATOM      8  H12 UNL     1      45.623  27.661  30.183  1.00  0.00     0.279 HD
HETATM    9  C9  UNL     1      45.167  27.424  32.198  1.00  0.00     0.357 C 
HETATM   10  N2  UNL     1      44.399  28.621  32.409  1.00  0.00    -0.358 N 
HETATM   11  C10 UNL     1      43.078  28.977  32.793  1.00  0.00     0.112 C 
HETATM   12  C11 UNL     1      42.543  30.173  32.634  1.00  0.00     0.022 C 
HETATM   13  C20 UNL     1      43.309  31.255  32.032  1.00  0.00     0.066 C 
HETATM   14  C21 UNL     1      44.554  30.798  31.352  1.00  0.00     0.024 C 
HETATM   15  C22 UNL     1      45.303  29.720  32.129  1.00  0.00     0.121 C 
ENDROOT
BRANCH  12  16
HETATM   16  N3  UNL     1      41.183  30.353  33.087  1.00  0.00    -0.387 N 
HETATM   17  C12 UNL     1      40.776  31.663  33.595  1.00  0.00     0.149 C 
BRANCH  16  18
HETATM   18  C13 UNL     1      40.191  29.329  33.066  1.00  0.00     0.127 C 
BRANCH  18  19
HETATM   19  C14 UNL     1      39.242  29.465  34.264  1.00  0.00     0.064 C 
BRANCH  19  20
HETATM   20  C15 UNL     1      39.855  28.869  35.510  1.00  0.00     0.064 C 
BRANCH  20  21
HETATM   21  N4  UNL     1      39.056  27.959  36.189  1.00  0.00    -0.374 N 
HETATM   22  C16 UNL     1      38.719  26.729  35.616  1.00  0.00     0.063 C 
HETATM   23  C17 UNL     1      37.747  26.121  36.609  1.00  0.00     0.046 C 
HETATM   24  C18 UNL     1      37.228  27.327  37.391  1.00  0.00     0.025 C 
HETATM   25  C19 UNL     1      38.488  28.194  37.425  1.00  0.00     0.127 C 
ENDBRANCH  20  21
ENDBRANCH  19  20
ENDBRANCH  18  19
ENDBRANCH  16  18
ENDBRANCH  12  16
BRANCH   1  26
HETATM   26  C2  UNL     1      44.926  33.154  30.575  1.00  0.00    -0.014 C 
HETATM   27  C1  UNL     1      45.235  34.298  31.541  1.00  0.00     0.010 C 
HETATM   28  C3  UNL     1      45.459  33.562  29.237  1.00  0.00     0.010 C 
ENDBRANCH   1  26
TORSDOF 6
ENDMDL
MODEL 2
REMARK VINA RESULT: -7.720431817      1.771      3.319
REMARK  6 active torsions:
REMARK  status: ('A' for Active; 'I' for Inactive)
REMARK    1  A    between atoms: C2_2  and  C4_4 
REMARK    2  A    between atoms: C11_15  and  N3_16 
REMARK    3  A    between atoms: N3_16  and  C13_18 
REMARK    4  A    between atoms: C13_18  and  C14_19 
REMARK    5  A    between atoms: C14_19  and  C15_20 
REMARK    6  A    between atoms: C15_20  and  N4_21 
ROOT
HETATM    1  C4  UNL     1      45.763  30.397  31.327  1.00  0.00    -0.035 C 
HETATM    2  C5  UNL     1      45.605  30.697  29.842  1.00  0.00     0.016 C 
HETATM    3  C6  UNL     1      47.024  31.066  31.788  1.00  0.00     0.012 C 
HETATM    4  C7  UNL     1      46.791  32.290  32.615  1.00  0.00     0.036 C 
HETATM    5  C8  UNL     1      45.722  33.196  32.019  1.00  0.00     0.211 C 
HETATM    6  N1  UNL     1      45.238  34.148  32.973  1.00  0.00    -0.053 N 
ATOM      7  H11 UNL     1      45.789  35.007  32.995  1.00  0.00     0.279 HD
ATOM      8  H12 UNL     1      45.399  33.863  33.938  1.00  0.00     0.279 HD
HETATM    9  C9  UNL     1      43.831  34.380  32.673  1.00  0.00     0.357 C 
HETATM   10  N2  UNL     1      43.378  33.066  32.309  1.00  0.00    -0.358 N 
HETATM   11  C10 UNL     1      42.198  32.282  32.427  1.00  0.00     0.112 C 
HETATM   12  C11 UNL     1      42.140  30.975  32.250  1.00  0.00     0.022 C 
HETATM   13  C20 UNL     1      43.334  30.220  31.899  1.00  0.00     0.066 C 
HETATM   14  C21 UNL     1      44.600  30.983  32.089  1.00  0.00     0.024 C 
HETATM   15  C22 UNL     1      44.500  32.437  31.639  1.00  0.00     0.121 C 
ENDROOT
BRANCH  12  16
HETATM   16  N3  UNL     1      40.851  30.345  32.411  1.00  0.00    -0.387 N 
HETATM   17  C12 UNL     1      39.672  30.991  31.832  1.00  0.00     0.149 C 
BRANCH  16  18
HETATM   18  C13 UNL     1      40.642  29.112  33.098  1.00  0.00     0.127 C 
BRANCH  18  19
HETATM   19  C14 UNL     1      39.397  29.191  33.990  1.00  0.00     0.064 C 
BRANCH  19  20
HETATM   20  C15 UNL     1      39.764  29.036  35.448  1.00  0.00     0.064 C 
BRANCH  20  21
HETATM   21  N4  UNL     1      39.057  28.062  36.139  1.00  0.00    -0.374 N 
HETATM   22  C16 UNL     1      38.787  26.819  35.558  1.00  0.00     0.063 C 
HETATM   23  C17 UNL     1      37.898  26.129  36.574  1.00  0.00     0.046 C 
HETATM   24  C18 UNL     1      37.324  27.282  37.395  1.00  0.00     0.025 C 
HETATM   25  C19 UNL     1      38.519  28.237  37.399  1.00  0.00     0.127 C 
ENDBRANCH  20  21
ENDBRANCH  19  20
ENDBRANCH  18  19
ENDBRANCH  16  18
ENDBRANCH  12  16
BRANCH   1  26
HETATM   26  C2  UNL     1      45.874  28.911  31.476  1.00  0.00    -0.014 C 
HETATM   27  C1  UNL     1      47.048  28.446  30.614  1.00  0.00     0.010 C 
HETATM   28  C3  UNL     1      46.155  28.453  32.873  1.00  0.00     0.010 C 
ENDBRANCH   1  26
TORSDOF 6
ENDMDL
MODEL 3
REMARK VINA RESULT: -7.693998687      3.068      7.198
REMARK  6 active torsions:
REMARK  status: ('A' for Active; 'I' for Inactive)
REMARK    1  A    between atoms: C2_2  and  C4_4 
REMARK    2  A    between atoms: C11_15  and  N3_16 
REMARK    3  A    between atoms: N3_16  and  C13_18 
REMARK    4  A    between atoms: C13_18  and  C14_19 
REMARK    5  A    between atoms: C14_19  and  C15_20 
REMARK    6  A    between atoms: C15_20  and  N4_21 
ROOT
HETATM    1  C4  UNL     1      42.251  30.358  32.227  1.00  0.00    -0.035 C 
HETATM    2  C5  UNL     1      41.520  30.706  30.936  1.00  0.00     0.016 C 
HETATM    3  C6  UNL     1      42.225  28.865  32.369  1.00  0.00     0.012 C 
HETATM    4  C7  UNL     1      43.538  28.208  32.085  1.00  0.00     0.036 C 
HETATM    5  C8  UNL     1      44.201  28.758  30.830  1.00  0.00     0.211 C 
HETATM    6  N1  UNL     1      45.590  28.415  30.767  1.00  0.00    -0.053 N 
ATOM      7  H11 UNL     1      45.759  27.513  30.322  1.00  0.00     0.279 HD
ATOM      8  H12 UNL     1      45.987  28.188  31.679  1.00  0.00     0.279 HD
HETATM    9  C9  UNL     1      46.276  29.516  30.104  1.00  0.00     0.357 C 
HETATM   10  N2  UNL     1      45.590  30.663  30.633  1.00  0.00    -0.358 N 
HETATM   11  C10 UNL     1      45.892  32.003  30.998  1.00  0.00     0.112 C 
HETATM   12  C11 UNL     1      45.119  32.776  31.738  1.00  0.00     0.022 C 
HETATM   13  C20 UNL     1      43.846  32.286  32.245  1.00  0.00     0.066 C 
HETATM   14  C21 UNL     1      43.689  30.808  32.131  1.00  0.00     0.024 C 
HETATM   15  C22 UNL     1      44.212  30.246  30.814  1.00  0.00     0.121 C 
ENDROOT
BRANCH  12  16
HETATM   16  N3  UNL     1      45.590  34.115  32.006  1.00  0.00    -0.387 N 
HETATM   17  C12 UNL     1      44.643  35.107  32.517  1.00  0.00     0.149 C 
BRANCH  16  18
HETATM   18  C13 UNL     1      46.937  34.544  31.814  1.00  0.00     0.127 C 
BRANCH  18  19
HETATM   19  C14 UNL     1      47.697  34.561  33.146  1.00  0.00     0.064 C 
BRANCH  19  20
HETATM   20  C15 UNL     1      49.050  33.900  33.006  1.00  0.00     0.064 C 
BRANCH  20  21
HETATM   21  N4  UNL     1      49.037  32.512  33.018  1.00  0.00    -0.374 N 
HETATM   22  C16 UNL     1      49.594  31.778  31.966  1.00  0.00     0.063 C 
HETATM   23  C17 UNL     1      49.251  30.341  32.306  1.00  0.00     0.046 C 
HETATM   24  C18 UNL     1      48.063  30.468  33.259  1.00  0.00     0.025 C 
HETATM   25  C19 UNL     1      48.446  31.748  34.004  1.00  0.00     0.127 C 
ENDBRANCH  20  21
ENDBRANCH  19  20
ENDBRANCH  18  19
ENDBRANCH  16  18
ENDBRANCH  12  16
BRANCH   1  26
HETATM   26  C2  UNL     1      41.507  31.005  33.354  1.00  0.00    -0.014 C 
HETATM   27  C1  UNL     1      40.122  31.390  32.833  1.00  0.00     0.010 C 
HETATM   28  C3  UNL     1      41.290  30.114  34.538  1.00  0.00     0.010 C 
ENDBRANCH   1  26
TORSDOF 6
ENDMDL
MODEL 4
REMARK VINA RESULT: -7.673864182      2.092      3.198
REMARK  6 active torsions:
REMARK  status: ('A' for Active; 'I' for Inactive)
REMARK    1  A    between atoms: C2_2  and  C4_4 
REMARK    2  A    between atoms: C11_15  and  N3_16 
REMARK    3  A    between atoms: N3_16  and  C13_18 
REMARK    4  A    between atoms: C13_18  and  C14_19 
REMARK    5  A    between atoms: C14_19  and  C15_20 
REMARK    6  A    between atoms: C15_20  and  N4_21 
ROOT
HETATM    1  C4  UNL     1      47.509  32.642  31.922  1.00  0.00    -0.035 C 
HETATM    2  C5  UNL     1      47.274  33.025  33.379  1.00  0.00     0.016 C 
HETATM    3  C6  UNL     1      48.987  32.477  31.734  1.00  0.00     0.012 C 
HETATM    4  C7  UNL     1      49.426  31.052  31.614  1.00  0.00     0.036 C 
HETATM    5  C8  UNL     1      48.770  30.155  32.655  1.00  0.00     0.211 C 
HETATM    6  N1  UNL     1      48.886  28.769  32.314  1.00  0.00    -0.053 N 
ATOM      7  H11 UNL     1      49.747  28.344  32.658  1.00  0.00     0.279 HD
ATOM      8  H12 UNL     1      49.052  28.615  31.320  1.00  0.00     0.279 HD
HETATM    9  C9  UNL     1      47.685  28.103  32.802  1.00  0.00     0.357 C 
HETATM   10  N2  UNL     1      46.666  29.079  32.531  1.00  0.00    -0.358 N 
HETATM   11  C10 UNL     1      45.297  29.103  32.150  1.00  0.00     0.112 C 
HETATM   12  C11 UNL     1      44.661  30.163  31.686  1.00  0.00     0.022 C 
HETATM   13  C20 UNL     1      45.352  31.436  31.536  1.00  0.00     0.066 C 
HETATM   14  C21 UNL     1      46.835  31.324  31.630  1.00  0.00     0.024 C 
HETATM   15  C22 UNL     1      47.299  30.370  32.726  1.00  0.00     0.121 C 
ENDROOT
BRANCH  12  16
HETATM   16  N3  UNL     1      43.266  30.000  31.350  1.00  0.00    -0.387 N 
HETATM   17  C12 UNL     1      42.649  28.684  31.518  1.00  0.00     0.149 C 
BRANCH  16  18
HETATM   18  C13 UNL     1      42.431  31.051  30.868  1.00  0.00     0.127 C 
BRANCH  18  19
HETATM   19  C14 UNL     1      40.950  30.672  30.997  1.00  0.00     0.064 C 
BRANCH  19  20
HETATM   20  C15 UNL     1      40.288  31.448  32.112  1.00  0.00     0.064 C 
BRANCH  20  21
HETATM   21  N4  UNL     1      40.066  30.736  33.283  1.00  0.00    -0.374 N 
HETATM   22  C16 UNL     1      41.075  30.590  34.239  1.00  0.00     0.063 C 
HETATM   23  C17 UNL     1      40.470  29.652  35.265  1.00  0.00     0.046 C 
HETATM   24  C18 UNL     1      39.358  28.942  34.494  1.00  0.00     0.025 C 
HETATM   25  C19 UNL     1      38.890  30.078  33.581  1.00  0.00     0.127 C 
ENDBRANCH  20  21
ENDBRANCH  19  20
ENDBRANCH  18  19
ENDBRANCH  16  18
ENDBRANCH  12  16
BRANCH   1  26
HETATM   26  C2  UNL     1      46.996  33.765  31.075  1.00  0.00    -0.014 C 
HETATM   27  C1  UNL     1      46.463  34.848  32.014  1.00  0.00     0.010 C 
HETATM   28  C3  UNL     1      48.038  34.413  30.217  1.00  0.00     0.010 C 
ENDBRANCH   1  26
TORSDOF 6
ENDMDL
MODEL 5
REMARK VINA RESULT: -7.634030090      1.784      3.165
REMARK  6 active torsions:
REMARK  status: ('A' for Active; 'I' for Inactive)
REMARK    1  A    between atoms: C2_2  and  C4_4 
REMARK    2  A    between atoms: C11_15  and  N3_16 
REMARK    3  A    between atoms: N3_16  and  C13_18 
REMARK    4  A    between atoms: C13_18  and  C14_19 
REMARK    5  A    between atoms: C14_19  and  C15_20 
REMARK    6  A    between atoms: C15_20  and  N4_21 
ROOT
HETATM    1  C4  UNL     1      45.364  31.758  30.529  1.00  0.00    -0.035 C 
HETATM    2  C5  UNL     1      44.848  32.727  29.473  1.00  0.00     0.016 C 
HETATM    3  C6  UNL     1      46.662  32.304  31.044  1.00  0.00     0.012 C 
HETATM    4  C7  UNL     1      46.568  32.896  32.414  1.00  0.00     0.036 C 
HETATM    5  C8  UNL     1      45.345  33.790  32.575  1.00  0.00     0.211 C 
HETATM    6  N1  UNL     1      45.050  34.045  33.953  1.00  0.00    -0.053 N 
ATOM      7  H11 UNL     1      45.547  34.855  34.324  1.00  0.00     0.279 HD
ATOM      8  H12 UNL     1      45.446  33.348  34.582  1.00  0.00     0.279 HD
HETATM    9  C9  UNL     1      43.602  34.162  34.069  1.00  0.00     0.357 C 
HETATM   10  N2  UNL     1      43.143  33.150  33.157  1.00  0.00    -0.358 N 
HETATM   11  C10 UNL     1      42.065  32.230  33.052  1.00  0.00     0.112 C 
HETATM   12  C11 UNL     1      42.033  31.196  32.232  1.00  0.00     0.022 C 
HETATM   13  C20 UNL     1      43.148  30.924  31.336  1.00  0.00     0.066 C 
HETATM   14  C21 UNL     1      44.382  31.687  31.674  1.00  0.00     0.024 C 
HETATM   15  C22 UNL     1      44.108  33.132  32.074  1.00  0.00     0.121 C 
ENDROOT
BRANCH  12  16
HETATM   16  N3  UNL     1      40.849  30.368  32.261  1.00  0.00    -0.387 N 
HETATM   17  C12 UNL     1      39.672  30.791  31.501  1.00  0.00     0.149 C 
BRANCH  16  18
HETATM   18  C13 UNL     1      40.748  29.142  32.984  1.00  0.00     0.127 C 
BRANCH  18  19
HETATM   19  C14 UNL     1      39.454  29.099  33.804  1.00  0.00     0.064 C 
BRANCH  19  20
HETATM   20  C15 UNL     1      39.751  29.110  35.287  1.00  0.00     0.064 C 
BRANCH  20  21
HETATM   21  N4  UNL     1      39.111  28.127  36.028  1.00  0.00    -0.374 N 
HETATM   22  C16 UNL     1      38.807  26.883  35.466  1.00  0.00     0.063 C 
HETATM   23  C17 UNL     1      38.009  26.181  36.547  1.00  0.00     0.046 C 
HETATM   24  C18 UNL     1      37.491  27.327  37.416  1.00  0.00     0.025 C 
HETATM   25  C19 UNL     1      38.675  28.293  37.328  1.00  0.00     0.127 C 
ENDBRANCH  20  21
ENDBRANCH  19  20
ENDBRANCH  18  19
ENDBRANCH  16  18
ENDBRANCH  12  16
BRANCH   1  26
HETATM   26  C2  UNL     1      45.580  30.437  29.858  1.00  0.00    -0.014 C 
HETATM   27  C1  UNL     1      46.288  30.703  28.529  1.00  0.00     0.010 C 
HETATM   28  C3  UNL     1      46.450  29.492  30.628  1.00  0.00     0.010 C 
ENDBRANCH   1  26
TORSDOF 6
ENDMDL
