MODEL 1
REMARK VINA RESULT: -7.517317149      0.000      0.000
REMARK  6 active torsions:
REMARK  status: ('A' for Active; 'I' for Inactive)
REMARK    1  A    between atoms: C2_3  and  N2_4 
REMARK       I    between atoms: N2_4  and  C3_6 
REMARK    2  A    between atoms: C3_6  and  C4_8 
REMARK    3  A    between atoms: C4_8  and  C5_9 
REMARK    4  A    between atoms: C5_9  and  C6_10 
REMARK    5  A    between atoms: C6_10  and  N3_11 
REMARK       I    between atoms: N3_11  and  C7_13 
REMARK    6  A    between atoms: C7_13  and  C8_15 
ROOT
HETATM    1  N1  UNL     1      49.801  30.438  29.546  1.00  0.00    -0.195 NA
HETATM    2  C1  UNL     1      48.700  30.697  29.804  1.00  0.00     0.091 C 
HETATM    3  C2  UNL     1      47.306  31.006  30.119  1.00  0.00     0.122 C 
HETATM    4  C18 UNL     1      46.484  31.109  28.844  1.00  0.00     0.047 C 
HETATM    5  C19 UNL     1      45.391  30.338  29.573  1.00  0.00     0.007 C 
HETATM    6  C20 UNL     1      46.476  29.775  30.468  1.00  0.00     0.047 C 
ENDROOT
BRANCH   3   7
HETATM    7  N2  UNL     1      47.124  32.052  31.061  1.00  0.00    -0.339 N 
HETATM    8  C3  UNL     1      47.444  31.856  32.429  1.00  0.00     0.219 C 
HETATM    9  O1  UNL     1      47.890  30.737  32.772  1.00  0.00    -0.274 OA
ATOM     10  H2  UNL     1      46.758  32.953  30.752  1.00  0.00     0.164 HD
BRANCH   8  11
HETATM   11  C4  UNL     1      47.271  32.915  33.443  1.00  0.00     0.104 C 
BRANCH  11  12
HETATM   12  C5  UNL     1      47.102  34.296  32.907  1.00  0.00     0.029 C 
BRANCH  12  13
HETATM   13  C6  UNL     1      45.717  34.821  33.034  1.00  0.00     0.123 C 
BRANCH  13  14
HETATM   14  N3  UNL     1      44.719  33.769  33.171  1.00  0.00    -0.360 N 
HETATM   15  C7  UNL     1      44.096  33.139  32.065  1.00  0.00     0.226 C 
HETATM   16  O2  UNL     1      44.371  33.457  30.867  1.00  0.00    -0.273 OA
ATOM     17  H3  UNL     1      44.456  33.470  34.111  1.00  0.00     0.162 HD
BRANCH  15  18
HETATM   18  C8  UNL     1      43.090  32.076  32.275  1.00  0.00     0.042 C 
HETATM   19  C9  UNL     1      43.752  30.811  32.709  1.00  0.00     0.024 C 
HETATM   20  C10 UNL     1      42.768  29.680  32.815  1.00  0.00    -0.013 C 
HETATM   21  C11 UNL     1      41.774  30.032  33.893  1.00  0.00     0.009 C 
HETATM   22  C15 UNL     1      42.096  29.508  31.480  1.00  0.00     0.009 C 
HETATM   23  C12 UNL     1      41.131  31.337  33.527  1.00  0.00    -0.013 C 
HETATM   24  C13 UNL     1      40.331  31.098  32.250  1.00  0.00     0.009 C 
HETATM   25  C17 UNL     1      42.102  32.467  33.373  1.00  0.00     0.024 C 
HETATM   26  C14 UNL     1      41.312  30.761  31.169  1.00  0.00    -0.013 C 
HETATM   27  C16 UNL     1      42.266  31.905  31.015  1.00  0.00     0.024 C 
ENDBRANCH  15  18
ENDBRANCH  13  14
ENDBRANCH  12  13
ENDBRANCH  11  12
ENDBRANCH   8  11
ENDBRANCH   3   7
TORSDOF 6
ENDMDL
MODEL 2
REMARK VINA RESULT: -7.487162938      0.153      1.479
REMARK  6 active torsions:
REMARK  status: ('A' for Active; 'I' for Inactive)
REMARK    1  A    between atoms: C2_3  and  N2_4 
REMARK       I    between atoms: N2_4  and  C3_6 
REMARK    2  A    between atoms: C3_6  and  C4_8 
REMARK    3  A    between atoms: C4_8  and  C5_9 
REMARK    4  A    between atoms: C5_9  and  C6_10 
REMARK    5  A    between atoms: C6_10  and  N3_11 
REMARK       I    between atoms: N3_11  and  C7_13 
REMARK    6  A    between atoms: C7_13  and  C8_15 
ROOT
HETATM    1  N1  UNL     1      49.735  30.197  29.616  1.00  0.00    -0.195 NA
HETATM    2  C1  UNL     1      48.644  30.521  29.840  1.00  0.00     0.091 C 
HETATM    3  C2  UNL     1      47.262  30.912  30.113  1.00  0.00     0.122 C 
HETATM    4  C18 UNL     1      46.485  31.055  28.814  1.00  0.00     0.047 C 
HETATM    5  C19 UNL     1      45.328  30.355  29.513  1.00  0.00     0.007 C 
HETATM    6  C20 UNL     1      46.351  29.735  30.442  1.00  0.00     0.047 C 
ENDROOT
BRANCH   3   7
HETATM    7  N2  UNL     1      47.113  31.974  31.045  1.00  0.00    -0.339 N 
HETATM    8  C3  UNL     1      47.461  31.791  32.408  1.00  0.00     0.219 C 
HETATM    9  O1  UNL     1      47.898  30.671  32.757  1.00  0.00    -0.274 OA
ATOM     10  H2  UNL     1      46.753  32.875  30.731  1.00  0.00     0.164 HD
BRANCH   8  11
HETATM   11  C4  UNL     1      47.323  32.866  33.411  1.00  0.00     0.104 C 
BRANCH  11  12
HETATM   12  C5  UNL     1      47.114  34.235  32.860  1.00  0.00     0.029 C 
BRANCH  12  13
HETATM   13  C6  UNL     1      45.758  34.785  33.123  1.00  0.00     0.123 C 
BRANCH  13  14
HETATM   14  N3  UNL     1      44.738  33.752  33.236  1.00  0.00    -0.360 N 
HETATM   15  C7  UNL     1      44.114  33.148  32.116  1.00  0.00     0.226 C 
HETATM   16  O2  UNL     1      44.409  33.473  30.925  1.00  0.00    -0.273 OA
ATOM     17  H3  UNL     1      44.458  33.448  34.169  1.00  0.00     0.162 HD
BRANCH  15  18
HETATM   18  C8  UNL     1      43.085  32.103  32.302  1.00  0.00     0.042 C 
HETATM   19  C9  UNL     1      42.348  31.863  31.028  1.00  0.00     0.024 C 
HETATM   20  C10 UNL     1      41.216  30.892  31.217  1.00  0.00    -0.013 C 
HETATM   21  C11 UNL     1      41.808  29.566  31.622  1.00  0.00     0.009 C 
HETATM   22  C15 UNL     1      40.298  31.433  32.279  1.00  0.00     0.009 C 
HETATM   23  C12 UNL     1      42.616  29.777  32.869  1.00  0.00    -0.013 C 
HETATM   24  C13 UNL     1      41.640  30.179  33.970  1.00  0.00     0.009 C 
HETATM   25  C17 UNL     1      43.721  30.775  32.711  1.00  0.00     0.024 C 
HETATM   26  C14 UNL     1      41.056  31.503  33.584  1.00  0.00    -0.013 C 
HETATM   27  C16 UNL     1      42.170  32.494  33.445  1.00  0.00     0.024 C 
ENDBRANCH  15  18
ENDBRANCH  13  14
ENDBRANCH  12  13
ENDBRANCH  11  12
ENDBRANCH   8  11
ENDBRANCH   3   7
TORSDOF 6
ENDMDL
MODEL 3
REMARK VINA RESULT: -7.479183756      0.982      1.795
REMARK  6 active torsions:
REMARK  status: ('A' for Active; 'I' for Inactive)
REMARK    1  A    between atoms: C2_3  and  N2_4 
REMARK       I    between atoms: N2_4  and  C3_6 
REMARK    2  A    between atoms: C3_6  and  C4_8 
REMARK    3  A    between atoms: C4_8  and  C5_9 
REMARK    4  A    between atoms: C5_9  and  C6_10 
REMARK    5  A    between atoms: C6_10  and  N3_11 
REMARK       I    between atoms: N3_11  and  C7_13 
REMARK    6  A    between atoms: C7_13  and  C8_15 
ROOT
HETATM    1  N1  UNL     1      49.716  30.025  29.415  1.00  0.00    -0.195 NA
HETATM    2  C1  UNL     1      48.660  30.407  29.705  1.00  0.00     0.091 C 
HETATM    3  C2  UNL     1      47.320  30.871  30.061  1.00  0.00     0.122 C 
HETATM    4  C18 UNL     1      46.501  31.138  28.808  1.00  0.00     0.047 C 
HETATM    5  C19 UNL     1      45.330  30.475  29.520  1.00  0.00     0.007 C 
HETATM    6  C20 UNL     1      46.347  29.738  30.367  1.00  0.00     0.047 C 
ENDROOT
BRANCH   3   7
HETATM    7  N2  UNL     1      47.283  31.885  31.054  1.00  0.00    -0.339 N 
HETATM    8  C3  UNL     1      47.907  33.139  30.829  1.00  0.00     0.219 C 
HETATM    9  O1  UNL     1      48.488  33.317  29.734  1.00  0.00    -0.274 OA
ATOM     10  H2  UNL     1      46.802  31.710  31.937  1.00  0.00     0.164 HD
BRANCH   8  11
HETATM   11  C4  UNL     1      47.893  34.222  31.833  1.00  0.00     0.104 C 
BRANCH  11  12
HETATM   12  C5  UNL     1      47.181  33.909  33.105  1.00  0.00     0.029 C 
BRANCH  12  13
HETATM   13  C6  UNL     1      45.851  34.561  33.222  1.00  0.00     0.123 C 
BRANCH  13  14
HETATM   14  N3  UNL     1      44.755  33.606  33.316  1.00  0.00    -0.360 N 
HETATM   15  C7  UNL     1      44.116  33.041  32.183  1.00  0.00     0.226 C 
HETATM   16  O2  UNL     1      44.463  33.336  30.999  1.00  0.00    -0.273 OA
ATOM     17  H3  UNL     1      44.431  33.330  34.243  1.00  0.00     0.162 HD
BRANCH  15  18
HETATM   18  C8  UNL     1      43.009  32.076  32.350  1.00  0.00     0.042 C 
HETATM   19  C9  UNL     1      42.056  32.550  33.393  1.00  0.00     0.024 C 
HETATM   20  C10 UNL     1      40.985  31.533  33.669  1.00  0.00    -0.013 C 
HETATM   21  C11 UNL     1      40.180  31.355  32.407  1.00  0.00     0.009 C 
HETATM   22  C15 UNL     1      41.647  30.248  34.087  1.00  0.00     0.009 C 
HETATM   23  C12 UNL     1      41.117  30.939  31.311  1.00  0.00    -0.013 C 
HETATM   24  C13 UNL     1      41.660  29.565  31.685  1.00  0.00     0.009 C 
HETATM   25  C17 UNL     1      42.217  31.922  31.052  1.00  0.00     0.024 C 
HETATM   26  C14 UNL     1      42.473  29.733  32.932  1.00  0.00    -0.013 C 
HETATM   27  C16 UNL     1      43.578  30.704  32.655  1.00  0.00     0.024 C 
ENDBRANCH  15  18
ENDBRANCH  13  14
ENDBRANCH  12  13
ENDBRANCH  11  12
ENDBRANCH   8  11
ENDBRANCH   3   7
TORSDOF 6
ENDMDL
MODEL 4
REMARK VINA RESULT: -7.474560350      1.009      1.083
REMARK  6 active torsions:
REMARK  status: ('A' for Active; 'I' for Inactive)
REMARK    1  A    between atoms: C2_3  and  N2_4 
REMARK       I    between atoms: N2_4  and  C3_6 
REMARK    2  A    between atoms: C3_6  and  C4_8 
REMARK    3  A    between atoms: C4_8  and  C5_9 
REMARK    4  A    between atoms: C5_9  and  C6_10 
REMARK    5  A    between atoms: C6_10  and  N3_11 
REMARK       I    between atoms: N3_11  and  C7_13 
REMARK    6  A    between atoms: C7_13  and  C8_15 
ROOT
HETATM    1  N1  UNL     1      49.720  30.122  29.541  1.00  0.00    -0.195 NA
HETATM    2  C1  UNL     1      48.644  30.471  29.800  1.00  0.00     0.091 C 
HETATM    3  C2  UNL     1      47.281  30.892  30.117  1.00  0.00     0.122 C 
HETATM    4  C18 UNL     1      46.459  31.032  28.845  1.00  0.00     0.047 C 
HETATM    5  C19 UNL     1      45.316  30.363  29.596  1.00  0.00     0.007 C 
HETATM    6  C20 UNL     1      46.361  29.737  30.497  1.00  0.00     0.047 C 
ENDROOT
BRANCH   3   7
HETATM    7  N2  UNL     1      47.186  31.970  31.038  1.00  0.00    -0.339 N 
HETATM    8  C3  UNL     1      47.649  33.263  30.684  1.00  0.00     0.219 C 
HETATM    9  O1  UNL     1      48.139  33.419  29.543  1.00  0.00    -0.274 OA
ATOM     10  H2  UNL     1      46.782  31.811  31.961  1.00  0.00     0.164 HD
BRANCH   8  11
HETATM   11  C4  UNL     1      47.570  34.412  31.609  1.00  0.00     0.104 C 
BRANCH  11  12
HETATM   12  C5  UNL     1      46.950  34.128  32.935  1.00  0.00     0.029 C 
BRANCH  12  13
HETATM   13  C6  UNL     1      45.580  34.682  33.084  1.00  0.00     0.123 C 
BRANCH  13  14
HETATM   14  N3  UNL     1      44.559  33.650  33.213  1.00  0.00    -0.360 N 
HETATM   15  C7  UNL     1      43.965  33.001  32.101  1.00  0.00     0.226 C 
HETATM   16  O2  UNL     1      44.288  33.282  30.907  1.00  0.00    -0.273 OA
ATOM     17  H3  UNL     1      44.258  33.381  34.149  1.00  0.00     0.162 HD
BRANCH  15  18
HETATM   18  C8  UNL     1      42.935  31.960  32.303  1.00  0.00     0.042 C 
HETATM   19  C9  UNL     1      43.564  30.682  32.745  1.00  0.00     0.024 C 
HETATM   20  C10 UNL     1      42.555  29.573  32.843  1.00  0.00    -0.013 C 
HETATM   21  C11 UNL     1      41.558  29.948  33.909  1.00  0.00     0.009 C 
HETATM   22  C15 UNL     1      41.893  29.413  31.501  1.00  0.00     0.009 C 
HETATM   23  C12 UNL     1      40.947  31.266  33.535  1.00  0.00    -0.013 C 
HETATM   24  C13 UNL     1      40.156  31.042  32.251  1.00  0.00     0.009 C 
HETATM   25  C17 UNL     1      41.944  32.374  33.390  1.00  0.00     0.024 C 
HETATM   26  C14 UNL     1      41.139  30.682  31.180  1.00  0.00    -0.013 C 
HETATM   27  C16 UNL     1      42.119  31.805  31.035  1.00  0.00     0.024 C 
ENDBRANCH  15  18
ENDBRANCH  13  14
ENDBRANCH  12  13
ENDBRANCH  11  12
ENDBRANCH   8  11
ENDBRANCH   3   7
TORSDOF 6
ENDMDL
MODEL 5
REMARK VINA RESULT: -7.416857791      1.932      3.784
REMARK  6 active torsions:
REMARK  status: ('A' for Active; 'I' for Inactive)
REMARK    1  A    between atoms: C2_3  and  N2_4 
REMARK       I    between atoms: N2_4  and  C3_6 
REMARK    2  A    between atoms: C3_6  and  C4_8 
REMARK    3  A    between atoms: C4_8  and  C5_9 
REMARK    4  A    between atoms: C5_9  and  C6_10 
REMARK    5  A    between atoms: C6_10  and  N3_11 
REMARK       I    between atoms: N3_11  and  C7_13 
REMARK    6  A    between atoms: C7_13  and  C8_15 
ROOT
HETATM    1  N1  UNL     1      48.724  34.781  30.213  1.00  0.00    -0.195 NA
HETATM    2  C1  UNL     1      47.945  34.313  30.934  1.00  0.00     0.091 C 
HETATM    3  C2  UNL     1      46.955  33.741  31.844  1.00  0.00     0.122 C 
HETATM    4  C18 UNL     1      47.052  34.396  33.213  1.00  0.00     0.047 C 
HETATM    5  C19 UNL     1      45.530  34.414  33.233  1.00  0.00     0.007 C 
HETATM    6  C20 UNL     1      45.575  34.378  31.719  1.00  0.00     0.047 C 
ENDROOT
BRANCH   3   7
HETATM    7  N2  UNL     1      46.886  32.322  31.839  1.00  0.00    -0.339 N 
HETATM    8  C3  UNL     1      47.945  31.547  32.378  1.00  0.00     0.219 C 
HETATM    9  O1  UNL     1      48.933  32.152  32.852  1.00  0.00    -0.274 OA
ATOM     10  H2  UNL     1      46.068  31.857  31.445  1.00  0.00     0.164 HD
BRANCH   8  11
HETATM   11  C4  UNL     1      47.916  30.070  32.394  1.00  0.00     0.104 C 
BRANCH  11  12
HETATM   12  C5  UNL     1      47.686  29.418  31.074  1.00  0.00     0.029 C 
BRANCH  12  13
HETATM   13  C6  UNL     1      46.461  28.577  31.028  1.00  0.00     0.123 C 
BRANCH  13  14
HETATM   14  N3  UNL     1      45.233  29.352  31.140  1.00  0.00    -0.360 N 
HETATM   15  C7  UNL     1      44.315  29.205  32.210  1.00  0.00     0.226 C 
HETATM   16  O2  UNL     1      44.507  28.376  33.152  1.00  0.00    -0.273 OA
ATOM     17  H3  UNL     1      45.024  30.035  30.412  1.00  0.00     0.162 HD
BRANCH  15  18
HETATM   18  C8  UNL     1      43.087  30.026  32.264  1.00  0.00     0.042 C 
HETATM   19  C9  UNL     1      43.416  31.470  32.088  1.00  0.00     0.024 C 
HETATM   20  C10 UNL     1      42.202  32.339  32.257  1.00  0.00    -0.013 C 
HETATM   21  C11 UNL     1      41.228  31.990  31.162  1.00  0.00     0.009 C 
HETATM   22  C15 UNL     1      41.618  32.080  33.619  1.00  0.00     0.009 C 
HETATM   23  C12 UNL     1      40.919  30.525  31.262  1.00  0.00    -0.013 C 
HETATM   24  C13 UNL     1      40.191  30.311  32.584  1.00  0.00     0.009 C 
HETATM   25  C17 UNL     1      42.125  29.644  31.140  1.00  0.00     0.024 C 
HETATM   26  C14 UNL     1      41.156  30.643  33.681  1.00  0.00    -0.013 C 
HETATM   27  C16 UNL     1      42.348  29.745  33.557  1.00  0.00     0.024 C 
ENDBRANCH  15  18
ENDBRANCH  13  14
ENDBRANCH  12  13
ENDBRANCH  11  12
ENDBRANCH   8  11
ENDBRANCH   3   7
TORSDOF 6
ENDMDL
