MODEL 1
REMARK VINA RESULT: -8.840985674      0.000      0.000
REMARK  13 active torsions:
REMARK  status: ('A' for Active; 'I' for Inactive)
REMARK    1  A    between atoms: C1_2  and  C2_3 
REMARK    2  A    between atoms: C2_3  and  C3_6 
REMARK    3  A    between atoms: C3_6  and  C4_7 
REMARK    4  A    between atoms: C4_7  and  C5_8 
REMARK    5  A    between atoms: C5_8  and  C6_9 
REMARK    6  A    between atoms: C6_9  and  C7_10 
REMARK    7  A    between atoms: C7_10  and  C8_11 
REMARK    8  A    between atoms: C8_11  and  C9_12 
REMARK    9  A    between atoms: C9_12  and  C10_13 
REMARK   10  A    between atoms: C10_13  and  C11_14 
REMARK   11  A    between atoms: C12_15  and  C13_16 
REMARK   12  A    between atoms: C15_20  and  C16_21 
REMARK   13  A    between atoms: C16_21  and  C17_22 
ROOT
HETATM    1  C13 UNL     1      41.514  17.727  -7.003  1.00  0.00     0.104 A 
HETATM    2  N1  UNL     1      41.358  18.548  -5.897  1.00  0.00    -0.350 N 
ATOM      3  H1  UNL     1      40.976  19.494  -5.911  1.00  0.00     0.166 HD
HETATM    4  C14 UNL     1      41.782  17.914  -4.824  1.00  0.00     0.115 A 
HETATM    5  C15 UNL     1      42.227  16.672  -5.173  1.00  0.00     0.032 A 
HETATM    6  N3  UNL     1      42.040  16.607  -6.527  1.00  0.00    -0.344 N 
ATOM      7  H3  UNL     1      42.277  15.796  -7.099  1.00  0.00     0.167 HD
ENDROOT
BRANCH   1   8
HETATM    8  C12 UNL     1      41.160  18.157  -8.348  1.00  0.00     0.044 C 
HETATM    9  C11 UNL     1      40.044  18.284  -8.916  1.00  0.00    -0.023 C 
BRANCH   9  10
HETATM   10  C10 UNL     1      38.686  18.057  -8.455  1.00  0.00     0.027 C 
BRANCH  10  11
HETATM   11  C9  UNL     1      38.396  16.587  -8.417  1.00  0.00     0.004 C 
BRANCH  11  12
HETATM   12  C8  UNL     1      38.492  16.016  -7.044  1.00  0.00     0.000 C 
BRANCH  12  13
HETATM   13  C7  UNL     1      39.205  14.710  -7.022  1.00  0.00     0.000 C 
BRANCH  13  14
HETATM   14  C6  UNL     1      38.919  13.978  -5.747  1.00  0.00     0.000 C 
BRANCH  14  15
HETATM   15  C5  UNL     1      37.941  12.883  -5.922  1.00  0.00     0.000 C 
BRANCH  15  16
HETATM   16  C4  UNL     1      36.923  12.829  -4.833  1.00  0.00     0.004 C 
BRANCH  16  17
HETATM   17  C3  UNL     1      36.171  14.146  -4.759  1.00  0.00     0.063 C 
BRANCH  17  18
HETATM   18  C2  UNL     1      36.313  14.743  -3.369  1.00  0.00     0.212 C 
HETATM   19  F1  UNL     1      37.173  15.830  -3.429  1.00  0.00    -0.223 F 
HETATM   20 BR1  UNL     1      37.065  13.353  -2.237  1.00  0.00    -0.041 Br
BRANCH  18  21
HETATM   21  C1  UNL     1      34.977  15.136  -2.873  1.00  0.00     0.286 C 
HETATM   22  O1  UNL     1      34.752  15.189  -1.662  1.00  0.00    -0.302 OA
ENDBRANCH  18  21
ENDBRANCH  17  18
ENDBRANCH  16  17
ENDBRANCH  15  16
ENDBRANCH  14  15
ENDBRANCH  13  14
ENDBRANCH  12  13
ENDBRANCH  11  12
ENDBRANCH  10  11
ENDBRANCH   9  10
ENDBRANCH   1   8
BRANCH   5  23
HETATM   23  C16 UNL     1      42.793  15.612  -4.293  1.00  0.00     0.115 C 
BRANCH  23  24
HETATM   24  C17 UNL     1      44.261  15.915  -4.174  1.00  0.00     0.017 A 
HETATM   25  C18 UNL     1      44.774  17.190  -3.967  1.00  0.00     0.047 A 
HETATM   26  C19 UNL     1      46.130  17.055  -3.917  1.00  0.00     0.046 A 
HETATM   27 BR2  UNL     1      47.400  18.474  -3.650  1.00  0.00    -0.048 Br
HETATM   28  C20 UNL     1      46.464  15.723  -4.089  1.00  0.00     0.097 A 
HETATM   29 BR3  UNL     1      48.231  14.998  -4.101  1.00  0.00    -0.030 Br
HETATM   30  N2  UNL     1      45.290  15.085  -4.239  1.00  0.00    -0.352 N 
ATOM     31  H2  UNL     1      45.203  14.080  -4.386  1.00  0.00     0.166 HD
ENDBRANCH  23  24
ENDBRANCH   5  23
TORSDOF 13
ENDMDL
MODEL 2
REMARK VINA RESULT: -8.801318348      1.119      1.598
REMARK  13 active torsions:
REMARK  status: ('A' for Active; 'I' for Inactive)
REMARK    1  A    between atoms: C1_2  and  C2_3 
REMARK    2  A    between atoms: C2_3  and  C3_6 
REMARK    3  A    between atoms: C3_6  and  C4_7 
REMARK    4  A    between atoms: C4_7  and  C5_8 
REMARK    5  A    between atoms: C5_8  and  C6_9 
REMARK    6  A    between atoms: C6_9  and  C7_10 
REMARK    7  A    between atoms: C7_10  and  C8_11 
REMARK    8  A    between atoms: C8_11  and  C9_12 
REMARK    9  A    between atoms: C9_12  and  C10_13 
REMARK   10  A    between atoms: C10_13  and  C11_14 
REMARK   11  A    between atoms: C12_15  and  C13_16 
REMARK   12  A    between atoms: C15_20  and  C16_21 
REMARK   13  A    between atoms: C16_21  and  C17_22 
ROOT
HETATM    1  C13 UNL     1      41.479  17.806  -7.091  1.00  0.00     0.104 A 
HETATM    2  N1  UNL     1      41.278  18.639  -6.001  1.00  0.00    -0.350 N 
ATOM      3  H1  UNL     1      40.874  19.575  -6.038  1.00  0.00     0.166 HD
HETATM    4  C14 UNL     1      41.690  18.030  -4.910  1.00  0.00     0.115 A 
HETATM    5  C15 UNL     1      42.173  16.795  -5.229  1.00  0.00     0.032 A 
HETATM    6  N3  UNL     1      42.020  16.705  -6.586  1.00  0.00    -0.344 N 
ATOM      7  H3  UNL     1      42.289  15.893  -7.141  1.00  0.00     0.167 HD
ENDROOT
BRANCH   1   8
HETATM    8  C12 UNL     1      41.148  18.208  -8.450  1.00  0.00     0.044 C 
HETATM    9  C11 UNL     1      40.040  18.338  -9.034  1.00  0.00    -0.023 C 
BRANCH   9  10
HETATM   10  C10 UNL     1      38.673  18.144  -8.584  1.00  0.00     0.027 C 
BRANCH  10  11
HETATM   11  C9  UNL     1      38.343  16.681  -8.565  1.00  0.00     0.004 C 
BRANCH  11  12
HETATM   12  C8  UNL     1      38.485  16.076  -7.211  1.00  0.00     0.000 C 
BRANCH  12  13
HETATM   13  C7  UNL     1      39.317  14.842  -7.227  1.00  0.00     0.000 C 
BRANCH  13  14
HETATM   14  C6  UNL     1      38.774  13.830  -6.266  1.00  0.00     0.000 C 
BRANCH  14  15
HETATM   15  C5  UNL     1      39.595  13.704  -5.043  1.00  0.00     0.000 C 
BRANCH  15  16
HETATM   16  C4  UNL     1      38.801  13.303  -3.844  1.00  0.00     0.004 C 
BRANCH  16  17
HETATM   17  C3  UNL     1      38.037  14.499  -3.304  1.00  0.00     0.063 C 
BRANCH  17  18
HETATM   18  C2  UNL     1      36.703  14.043  -2.736  1.00  0.00     0.212 C 
HETATM   19  F1  UNL     1      36.930  13.315  -1.576  1.00  0.00    -0.223 F 
HETATM   20 BR1  UNL     1      35.875  12.915  -4.085  1.00  0.00    -0.041 Br
BRANCH  18  21
HETATM   21  C1  UNL     1      35.858  15.229  -2.474  1.00  0.00     0.286 C 
HETATM   22  O1  UNL     1      34.947  15.175  -1.646  1.00  0.00    -0.302 OA
ENDBRANCH  18  21
ENDBRANCH  17  18
ENDBRANCH  16  17
ENDBRANCH  15  16
ENDBRANCH  14  15
ENDBRANCH  13  14
ENDBRANCH  12  13
ENDBRANCH  11  12
ENDBRANCH  10  11
ENDBRANCH   9  10
ENDBRANCH   1   8
BRANCH   5  23
HETATM   23  C16 UNL     1      42.742  15.761  -4.320  1.00  0.00     0.115 C 
BRANCH  23  24
HETATM   24  C17 UNL     1      44.205  16.086  -4.191  1.00  0.00     0.017 A 
HETATM   25  C18 UNL     1      45.221  15.143  -4.298  1.00  0.00     0.047 A 
HETATM   26  C19 UNL     1      46.392  15.820  -4.124  1.00  0.00     0.046 A 
HETATM   27 BR2  UNL     1      48.156  15.056  -4.164  1.00  0.00    -0.048 Br
HETATM   28  C20 UNL     1      46.120  17.160  -3.912  1.00  0.00     0.097 A 
HETATM   29 BR3  UNL     1      47.410  18.537  -3.613  1.00  0.00    -0.030 Br
HETATM   30  N2  UNL     1      44.780  17.257  -3.964  1.00  0.00    -0.352 N 
ATOM     31  H2  UNL     1      44.267  18.130  -3.843  1.00  0.00     0.166 HD
ENDBRANCH  23  24
ENDBRANCH   5  23
TORSDOF 13
ENDMDL
MODEL 3
REMARK VINA RESULT: -8.778849003      1.815      2.607
REMARK  13 active torsions:
REMARK  status: ('A' for Active; 'I' for Inactive)
REMARK    1  A    between atoms: C1_2  and  C2_3 
REMARK    2  A    between atoms: C2_3  and  C3_6 
REMARK    3  A    between atoms: C3_6  and  C4_7 
REMARK    4  A    between atoms: C4_7  and  C5_8 
REMARK    5  A    between atoms: C5_8  and  C6_9 
REMARK    6  A    between atoms: C6_9  and  C7_10 
REMARK    7  A    between atoms: C7_10  and  C8_11 
REMARK    8  A    between atoms: C8_11  and  C9_12 
REMARK    9  A    between atoms: C9_12  and  C10_13 
REMARK   10  A    between atoms: C10_13  and  C11_14 
REMARK   11  A    between atoms: C12_15  and  C13_16 
REMARK   12  A    between atoms: C15_20  and  C16_21 
REMARK   13  A    between atoms: C16_21  and  C17_22 
ROOT
HETATM    1  C13 UNL     1      41.278  18.102  -8.004  1.00  0.00     0.104 A 
HETATM    2  N1  UNL     1      40.801  18.999  -7.059  1.00  0.00    -0.350 N 
ATOM      3  H1  UNL     1      40.406  19.917  -7.262  1.00  0.00     0.166 HD
HETATM    4  C14 UNL     1      40.937  18.476  -5.859  1.00  0.00     0.115 A 
HETATM    5  C15 UNL     1      41.501  17.238  -5.960  1.00  0.00     0.032 A 
HETATM    6  N3  UNL     1      41.692  17.055  -7.303  1.00  0.00    -0.344 N 
ATOM      7  H3  UNL     1      42.102  16.216  -7.714  1.00  0.00     0.167 HD
ENDROOT
BRANCH   1   8
HETATM    8  C12 UNL     1      41.290  18.404  -9.428  1.00  0.00     0.044 C 
HETATM    9  C11 UNL     1      40.376  18.780 -10.207  1.00  0.00    -0.023 C 
BRANCH   9  10
HETATM   10  C10 UNL     1      38.967  19.062  -9.993  1.00  0.00     0.027 C 
BRANCH  10  11
HETATM   11  C9  UNL     1      38.127  18.085 -10.759  1.00  0.00     0.004 C 
BRANCH  11  12
HETATM   12  C8  UNL     1      37.343  17.179  -9.873  1.00  0.00     0.000 C 
BRANCH  12  13
HETATM   13  C7  UNL     1      37.737  17.305  -8.443  1.00  0.00     0.000 C 
BRANCH  13  14
HETATM   14  C6  UNL     1      38.377  16.040  -7.962  1.00  0.00     0.000 C 
BRANCH  14  15
HETATM   15  C5  UNL     1      38.359  15.912  -6.490  1.00  0.00     0.000 C 
BRANCH  15  16
HETATM   16  C4  UNL     1      38.397  14.495  -6.024  1.00  0.00     0.004 C 
BRANCH  16  17
HETATM   17  C3  UNL     1      37.092  14.141  -5.332  1.00  0.00     0.063 C 
BRANCH  17  18
HETATM   18  C2  UNL     1      37.224  12.792  -4.645  1.00  0.00     0.212 C 
HETATM   19  F1  UNL     1      37.095  11.787  -5.593  1.00  0.00    -0.223 F 
HETATM   20 BR1  UNL     1      35.781  12.681  -3.347  1.00  0.00    -0.041 Br
BRANCH  18  21
HETATM   21  C1  UNL     1      38.532  12.725  -3.959  1.00  0.00     0.286 C 
HETATM   22  O1  UNL     1      38.607  12.894  -2.740  1.00  0.00    -0.302 OA
ENDBRANCH  18  21
ENDBRANCH  17  18
ENDBRANCH  16  17
ENDBRANCH  15  16
ENDBRANCH  14  15
ENDBRANCH  13  14
ENDBRANCH  12  13
ENDBRANCH  11  12
ENDBRANCH  10  11
ENDBRANCH   9  10
ENDBRANCH   1   8
BRANCH   5  23
HETATM   23  C16 UNL     1      41.841  16.284  -4.867  1.00  0.00     0.115 C 
BRANCH  23  24
HETATM   24  C17 UNL     1      43.303  16.488  -4.583  1.00  0.00     0.017 A 
HETATM   25  C18 UNL     1      44.229  15.453  -4.510  1.00  0.00     0.047 A 
HETATM   26  C19 UNL     1      45.433  16.033  -4.238  1.00  0.00     0.046 A 
HETATM   27 BR2  UNL     1      47.108  15.115  -4.020  1.00  0.00    -0.048 Br
HETATM   28  C20 UNL     1      45.269  17.404  -4.141  1.00  0.00     0.097 A 
HETATM   29 BR3  UNL     1      46.643  18.679  -3.774  1.00  0.00    -0.030 Br
HETATM   30  N2  UNL     1      43.959  17.615  -4.360  1.00  0.00    -0.352 N 
ATOM     31  H2  UNL     1      43.522  18.537  -4.354  1.00  0.00     0.166 HD
ENDBRANCH  23  24
ENDBRANCH   5  23
TORSDOF 13
ENDMDL
MODEL 4
REMARK VINA RESULT: -8.778457926      1.102      1.272
REMARK  13 active torsions:
REMARK  status: ('A' for Active; 'I' for Inactive)
REMARK    1  A    between atoms: C1_2  and  C2_3 
REMARK    2  A    between atoms: C2_3  and  C3_6 
REMARK    3  A    between atoms: C3_6  and  C4_7 
REMARK    4  A    between atoms: C4_7  and  C5_8 
REMARK    5  A    between atoms: C5_8  and  C6_9 
REMARK    6  A    between atoms: C6_9  and  C7_10 
REMARK    7  A    between atoms: C7_10  and  C8_11 
REMARK    8  A    between atoms: C8_11  and  C9_12 
REMARK    9  A    between atoms: C9_12  and  C10_13 
REMARK   10  A    between atoms: C10_13  and  C11_14 
REMARK   11  A    between atoms: C12_15  and  C13_16 
REMARK   12  A    between atoms: C15_20  and  C16_21 
REMARK   13  A    between atoms: C16_21  and  C17_22 
ROOT
HETATM    1  C13 UNL     1      41.578  17.707  -7.007  1.00  0.00     0.104 A 
HETATM    2  N1  UNL     1      41.384  18.545  -5.919  1.00  0.00    -0.350 N 
ATOM      3  H1  UNL     1      40.993  19.486  -5.960  1.00  0.00     0.166 HD
HETATM    4  C14 UNL     1      41.785  17.933  -4.825  1.00  0.00     0.115 A 
HETATM    5  C15 UNL     1      42.253  16.691  -5.140  1.00  0.00     0.032 A 
HETATM    6  N3  UNL     1      42.104  16.601  -6.497  1.00  0.00    -0.344 N 
ATOM      7  H3  UNL     1      42.364  15.783  -7.049  1.00  0.00     0.167 HD
ENDROOT
BRANCH   1   8
HETATM    8  C12 UNL     1      41.257  18.110  -8.368  1.00  0.00     0.044 C 
HETATM    9  C11 UNL     1      40.153  18.273  -8.950  1.00  0.00    -0.023 C 
BRANCH   9  10
HETATM   10  C10 UNL     1      38.781  18.128  -8.495  1.00  0.00     0.027 C 
BRANCH  10  11
HETATM   11  C9  UNL     1      38.431  16.675  -8.380  1.00  0.00     0.004 C 
BRANCH  11  12
HETATM   12  C8  UNL     1      38.388  16.202  -6.968  1.00  0.00     0.000 C 
BRANCH  12  13
HETATM   13  C7  UNL     1      39.056  14.884  -6.791  1.00  0.00     0.000 C 
BRANCH  13  14
HETATM   14  C6  UNL     1      39.278  14.600  -5.337  1.00  0.00     0.000 C 
BRANCH  14  15
HETATM   15  C5  UNL     1      38.868  15.721  -4.465  1.00  0.00     0.000 C 
BRANCH  15  16
HETATM   16  C4  UNL     1      38.426  15.278  -3.111  1.00  0.00     0.004 C 
BRANCH  16  17
HETATM   17  C3  UNL     1      36.912  15.335  -3.014  1.00  0.00     0.063 C 
BRANCH  17  18
HETATM   18  C2  UNL     1      36.370  13.973  -2.613  1.00  0.00     0.212 C 
HETATM   19  F1  UNL     1      37.303  13.332  -1.810  1.00  0.00    -0.223 F 
HETATM   20 BR1  UNL     1      36.097  12.972  -4.256  1.00  0.00    -0.041 Br
BRANCH  18  21
HETATM   21  C1  UNL     1      35.082  14.154  -1.908  1.00  0.00     0.286 C 
HETATM   22  O1  UNL     1      34.726  15.275  -1.539  1.00  0.00    -0.302 OA
ENDBRANCH  18  21
ENDBRANCH  17  18
ENDBRANCH  16  17
ENDBRANCH  15  16
ENDBRANCH  14  15
ENDBRANCH  13  14
ENDBRANCH  12  13
ENDBRANCH  11  12
ENDBRANCH  10  11
ENDBRANCH   9  10
ENDBRANCH   1   8
BRANCH   5  23
HETATM   23  C16 UNL     1      42.806  15.652  -4.227  1.00  0.00     0.115 C 
BRANCH  23  24
HETATM   24  C17 UNL     1      44.281  15.929  -4.132  1.00  0.00     0.017 A 
HETATM   25  C18 UNL     1      44.819  17.194  -3.920  1.00  0.00     0.047 A 
HETATM   26  C19 UNL     1      46.173  17.035  -3.897  1.00  0.00     0.046 A 
HETATM   27 BR2  UNL     1      47.472  18.429  -3.637  1.00  0.00    -0.048 Br
HETATM   28  C20 UNL     1      46.482  15.700  -4.091  1.00  0.00     0.097 A 
HETATM   29 BR3  UNL     1      48.236  14.946  -4.145  1.00  0.00    -0.030 Br
HETATM   30  N2  UNL     1      45.295  15.084  -4.227  1.00  0.00    -0.352 N 
ATOM     31  H2  UNL     1      45.188  14.082  -4.384  1.00  0.00     0.166 HD
ENDBRANCH  23  24
ENDBRANCH   5  23
TORSDOF 13
ENDMDL
MODEL 5
REMARK VINA RESULT: -8.518305500      2.171      3.285
REMARK  13 active torsions:
REMARK  status: ('A' for Active; 'I' for Inactive)
REMARK    1  A    between atoms: C1_2  and  C2_3 
REMARK    2  A    between atoms: C2_3  and  C3_6 
REMARK    3  A    between atoms: C3_6  and  C4_7 
REMARK    4  A    between atoms: C4_7  and  C5_8 
REMARK    5  A    between atoms: C5_8  and  C6_9 
REMARK    6  A    between atoms: C6_9  and  C7_10 
REMARK    7  A    between atoms: C7_10  and  C8_11 
REMARK    8  A    between atoms: C8_11  and  C9_12 
REMARK    9  A    between atoms: C9_12  and  C10_13 
REMARK   10  A    between atoms: C10_13  and  C11_14 
REMARK   11  A    between atoms: C12_15  and  C13_16 
REMARK   12  A    between atoms: C15_20  and  C16_21 
REMARK   13  A    between atoms: C16_21  and  C17_22 
ROOT
HETATM    1  C13 UNL     1      39.685  15.520  -6.860  1.00  0.00     0.104 A 
HETATM    2  N1  UNL     1      39.381  14.797  -5.716  1.00  0.00    -0.350 N 
ATOM      3  H1  UNL     1      38.482  14.802  -5.235  1.00  0.00     0.166 HD
HETATM    4  C14 UNL     1      40.438  14.103  -5.350  1.00  0.00     0.115 A 
HETATM    5  C15 UNL     1      41.463  14.335  -6.220  1.00  0.00     0.032 A 
HETATM    6  N3  UNL     1      40.947  15.216  -7.132  1.00  0.00    -0.344 N 
ATOM      7  H3  UNL     1      41.469  15.592  -7.923  1.00  0.00     0.167 HD
ENDROOT
BRANCH   1   8
HETATM    8  C12 UNL     1      38.726  16.411  -7.496  1.00  0.00     0.044 C 
HETATM    9  C11 UNL     1      38.834  17.599  -7.900  1.00  0.00    -0.023 C 
BRANCH   9  10
HETATM   10  C10 UNL     1      39.946  18.532  -7.895  1.00  0.00     0.027 C 
BRANCH  10  11
HETATM   11  C9  UNL     1      39.859  19.426  -6.695  1.00  0.00     0.004 C 
BRANCH  11  12
HETATM   12  C8  UNL     1      40.669  18.929  -5.546  1.00  0.00     0.000 C 
BRANCH  12  13
HETATM   13  C7  UNL     1      39.983  19.131  -4.241  1.00  0.00     0.000 C 
BRANCH  13  14
HETATM   14  C6  UNL     1      38.691  18.374  -4.204  1.00  0.00     0.000 C 
BRANCH  14  15
HETATM   15  C5  UNL     1      38.690  17.289  -3.201  1.00  0.00     0.000 C 
BRANCH  15  16
HETATM   16  C4  UNL     1      37.342  16.685  -2.992  1.00  0.00     0.004 C 
BRANCH  16  17
HETATM   17  C3  UNL     1      37.478  15.201  -2.697  1.00  0.00     0.063 C 
BRANCH  17  18
HETATM   18  C2  UNL     1      36.324  14.443  -3.331  1.00  0.00     0.212 C 
HETATM   19  F1  UNL     1      36.002  15.038  -4.543  1.00  0.00    -0.223 F 
HETATM   20 BR1  UNL     1      34.825  14.572  -2.101  1.00  0.00    -0.041 Br
BRANCH  18  21
HETATM   21  C1  UNL     1      36.716  13.028  -3.510  1.00  0.00     0.286 C 
HETATM   22  O1  UNL     1      37.316  12.671  -4.525  1.00  0.00    -0.302 OA
ENDBRANCH  18  21
ENDBRANCH  17  18
ENDBRANCH  16  17
ENDBRANCH  15  16
ENDBRANCH  14  15
ENDBRANCH  13  14
ENDBRANCH  12  13
ENDBRANCH  11  12
ENDBRANCH  10  11
ENDBRANCH   9  10
ENDBRANCH   1   8
BRANCH   5  23
HETATM   23  C16 UNL     1      42.840  13.768  -6.199  1.00  0.00     0.115 C 
BRANCH  23  24
HETATM   24  C17 UNL     1      43.680  14.755  -5.436  1.00  0.00     0.017 A 
HETATM   25  C18 UNL     1      44.999  14.523  -5.061  1.00  0.00     0.047 A 
HETATM   26  C19 UNL     1      45.410  15.639  -4.394  1.00  0.00     0.046 A 
HETATM   27 BR2  UNL     1      47.151  15.922  -3.628  1.00  0.00    -0.048 Br
HETATM   28  C20 UNL     1      44.373  16.555  -4.350  1.00  0.00     0.097 A 
HETATM   29 BR3  UNL     1      44.429  18.279  -3.531  1.00  0.00    -0.030 Br
HETATM   30  N2  UNL     1      43.355  15.961  -4.997  1.00  0.00    -0.352 N 
ATOM     31  H2  UNL     1      42.440  16.389  -5.134  1.00  0.00     0.166 HD
ENDBRANCH  23  24
ENDBRANCH   5  23
TORSDOF 13
ENDMDL
