MODEL 1
REMARK VINA RESULT: -9.263843082      0.000      0.000
REMARK  13 active torsions:
REMARK  status: ('A' for Active; 'I' for Inactive)
REMARK    1  A    between atoms: C1_2  and  C2_3 
REMARK    2  A    between atoms: C2_3  and  C3_4 
REMARK    3  A    between atoms: C3_4  and  N1_5 
REMARK       I    between atoms: C4_7  and  N2_8 
REMARK       I    between atoms: C4_7  and  N4_23 
REMARK    4  A    between atoms: N2_8  and  C5_10 
REMARK    5  A    between atoms: C5_10  and  C6_11 
REMARK    6  A    between atoms: C6_11  and  C7_12 
REMARK    7  A    between atoms: C7_12  and  C8_13 
REMARK    8  A    between atoms: C8_13  and  C9_14 
REMARK    9  A    between atoms: C9_14  and  C10_15 
REMARK   10  A    between atoms: C10_15  and  C11_16 
REMARK   11  A    between atoms: C11_16  and  C12_17 
REMARK   12  A    between atoms: C12_17  and  N3_18 
REMARK   13  A    between atoms: N4_23  and  C17_25 
ROOT
HETATM    1  N1  UNL     1      41.474  17.640  -6.727  1.00  0.00    -0.226 N 
ATOM      2  H1  UNL     1      42.483  17.633  -6.582  1.00  0.00     0.177 HD
HETATM    3  C4  UNL     1      40.870  16.662  -6.206  1.00  0.00     0.674 C 
HETATM    4  N2  UNL     1      41.601  15.698  -5.507  1.00  0.00    -0.226 N 
ATOM      5  H2  UNL     1      41.431  15.606  -4.505  1.00  0.00     0.177 HD
HETATM    6  N4  UNL     1      39.475  16.535  -6.305  1.00  0.00    -0.189 N 
ATOM      7  H4  UNL     1      39.002  17.140  -6.975  1.00  0.00     0.184 HD
ENDROOT
BRANCH   1   8
HETATM    8  C3  UNL     1      41.004  18.741  -7.475  1.00  0.00     0.139 C 
BRANCH   8   9
HETATM    9  C2  UNL     1      40.815  18.481  -8.949  1.00  0.00     0.035 C 
BRANCH   9  10
HETATM   10  C1  UNL     1      39.374  18.213  -9.303  1.00  0.00     0.116 C 
HETATM   11 CL1  UNL     1      38.977  18.632 -10.959  1.00  0.00    -0.130 Cl
ENDBRANCH   9  10
ENDBRANCH   8   9
ENDBRANCH   1   8
BRANCH   4  12
HETATM   12  C5  UNL     1      42.570  14.832  -6.099  1.00  0.00     0.138 C 
BRANCH  12  13
HETATM   13  C6  UNL     1      43.872  14.794  -5.379  1.00  0.00     0.020 C 
BRANCH  13  14
HETATM   14  C7  UNL     1      43.915  15.586  -4.100  1.00  0.00     0.002 C 
BRANCH  14  15
HETATM   15  C8  UNL     1      45.133  16.435  -4.009  1.00  0.00     0.000 C 
BRANCH  15  16
HETATM   16  C9  UNL     1      44.815  17.910  -3.898  1.00  0.00     0.000 C 
BRANCH  16  17
HETATM   17  C10 UNL     1      45.998  18.781  -3.674  1.00  0.00     0.002 C 
BRANCH  17  18
HETATM   18  C11 UNL     1      47.259  18.180  -4.234  1.00  0.00     0.030 C 
BRANCH  18  19
HETATM   19  C12 UNL     1      48.265  17.889  -3.144  1.00  0.00     0.272 C 
BRANCH  19  20
HETATM   20  N3  UNL     1      49.003  16.692  -3.368  1.00  0.00     0.088 N 
HETATM   21  C13 UNL     1      48.755  15.716  -2.355  1.00  0.00     0.272 C 
HETATM   22  C14 UNL     1      48.848  14.364  -3.046  1.00  0.00     0.032 C 
HETATM   23  C15 UNL     1      48.321  14.720  -4.419  1.00  0.00     0.032 C 
HETATM   24  C16 UNL     1      48.894  16.096  -4.648  1.00  0.00     0.272 C 
ENDBRANCH  19  20
ENDBRANCH  18  19
ENDBRANCH  17  18
ENDBRANCH  16  17
ENDBRANCH  15  16
ENDBRANCH  14  15
ENDBRANCH  13  14
ENDBRANCH  12  13
ENDBRANCH   4  12
BRANCH   6  25
HETATM   25  C17 UNL     1      38.671  15.650  -5.566  1.00  0.00     0.088 A 
HETATM   26  C18 UNL     1      38.438  14.369  -6.013  1.00  0.00     0.064 A 
HETATM   27 CL2  UNL     1      39.183  13.909  -7.526  1.00  0.00    -0.082 Cl
HETATM   28  C19 UNL     1      37.644  13.478  -5.286  1.00  0.00     0.045 A 
HETATM   29  C20 UNL     1      37.074  13.875  -4.094  1.00  0.00     0.014 A 
HETATM   30 BR1  UNL     1      35.992  12.617  -3.136  1.00  0.00    -0.051 Br
HETATM   31  C21 UNL     1      37.301  15.151  -3.641  1.00  0.00     0.040 A 
HETATM   32  C22 UNL     1      38.099  16.035  -4.378  1.00  0.00     0.041 A 
HETATM   33 BR2  UNL     1      38.392  17.789  -3.689  1.00  0.00    -0.049 Br
ENDBRANCH   6  25
TORSDOF 13
ENDMDL
MODEL 2
REMARK VINA RESULT: -9.180554418      1.537      1.770
REMARK  13 active torsions:
REMARK  status: ('A' for Active; 'I' for Inactive)
REMARK    1  A    between atoms: C1_2  and  C2_3 
REMARK    2  A    between atoms: C2_3  and  C3_4 
REMARK    3  A    between atoms: C3_4  and  N1_5 
REMARK       I    between atoms: C4_7  and  N2_8 
REMARK       I    between atoms: C4_7  and  N4_23 
REMARK    4  A    between atoms: N2_8  and  C5_10 
REMARK    5  A    between atoms: C5_10  and  C6_11 
REMARK    6  A    between atoms: C6_11  and  C7_12 
REMARK    7  A    between atoms: C7_12  and  C8_13 
REMARK    8  A    between atoms: C8_13  and  C9_14 
REMARK    9  A    between atoms: C9_14  and  C10_15 
REMARK   10  A    between atoms: C10_15  and  C11_16 
REMARK   11  A    between atoms: C11_16  and  C12_17 
REMARK   12  A    between atoms: C12_17  and  N3_18 
REMARK   13  A    between atoms: N4_23  and  C17_25 
ROOT
HETATM    1  N1  UNL     1      41.245  18.018  -6.959  1.00  0.00    -0.226 N 
ATOM      2  H1  UNL     1      42.261  18.065  -6.888  1.00  0.00     0.177 HD
HETATM    3  C4  UNL     1      40.717  17.125  -6.240  1.00  0.00     0.674 C 
HETATM    4  N2  UNL     1      41.532  16.315  -5.444  1.00  0.00    -0.226 N 
ATOM      5  H2  UNL     1      41.432  16.389  -4.432  1.00  0.00     0.177 HD
HETATM    6  N4  UNL     1      39.325  16.942  -6.215  1.00  0.00    -0.189 N 
ATOM      7  H4  UNL     1      38.784  17.411  -6.941  1.00  0.00     0.184 HD
ENDROOT
BRANCH   1   8
HETATM    8  C3  UNL     1      40.681  18.962  -7.844  1.00  0.00     0.139 C 
BRANCH   8   9
HETATM    9  C2  UNL     1      40.444  18.464  -9.248  1.00  0.00     0.035 C 
BRANCH   9  10
HETATM   10  C1  UNL     1      38.995  18.130  -9.500  1.00  0.00     0.116 C 
HETATM   11 CL1  UNL     1      38.469  18.510 -11.129  1.00  0.00    -0.130 Cl
ENDBRANCH   9  10
ENDBRANCH   8   9
ENDBRANCH   1   8
BRANCH   4  12
HETATM   12  C5  UNL     1      42.494  15.390  -5.953  1.00  0.00     0.138 C 
BRANCH  12  13
HETATM   13  C6  UNL     1      43.284  14.695  -4.900  1.00  0.00     0.020 C 
BRANCH  13  14
HETATM   14  C7  UNL     1      44.713  15.151  -4.772  1.00  0.00     0.002 C 
BRANCH  14  15
HETATM   15  C8  UNL     1      44.884  16.158  -3.691  1.00  0.00     0.000 C 
BRANCH  15  16
HETATM   16  C9  UNL     1      44.792  17.582  -4.194  1.00  0.00     0.000 C 
BRANCH  16  17
HETATM   17  C10 UNL     1      45.826  18.498  -3.646  1.00  0.00     0.002 C 
BRANCH  17  18
HETATM   18  C11 UNL     1      47.187  18.235  -4.234  1.00  0.00     0.030 C 
BRANCH  18  19
HETATM   19  C12 UNL     1      48.213  17.970  -3.157  1.00  0.00     0.272 C 
BRANCH  19  20
HETATM   20  N3  UNL     1      48.964  16.781  -3.379  1.00  0.00     0.088 N 
HETATM   21  C13 UNL     1      48.757  15.819  -2.343  1.00  0.00     0.272 C 
HETATM   22  C14 UNL     1      48.855  14.457  -3.013  1.00  0.00     0.032 C 
HETATM   23  C15 UNL     1      48.288  14.780  -4.378  1.00  0.00     0.032 C 
HETATM   24  C16 UNL     1      48.832  16.162  -4.646  1.00  0.00     0.272 C 
ENDBRANCH  19  20
ENDBRANCH  18  19
ENDBRANCH  17  18
ENDBRANCH  16  17
ENDBRANCH  15  16
ENDBRANCH  14  15
ENDBRANCH  13  14
ENDBRANCH  12  13
ENDBRANCH   4  12
BRANCH   6  25
HETATM   25  C17 UNL     1      38.609  16.171  -5.283  1.00  0.00     0.088 A 
HETATM   26  C18 UNL     1      38.099  16.744  -4.140  1.00  0.00     0.064 A 
HETATM   27 CL2  UNL     1      38.387  18.454  -3.913  1.00  0.00    -0.082 Cl
HETATM   28  C19 UNL     1      37.381  15.991  -3.207  1.00  0.00     0.045 A 
HETATM   29  C20 UNL     1      37.171  14.644  -3.421  1.00  0.00     0.014 A 
HETATM   30 BR1  UNL     1      36.182  13.656  -2.111  1.00  0.00    -0.051 Br
HETATM   31  C21 UNL     1      37.676  14.065  -4.558  1.00  0.00     0.040 A 
HETATM   32  C22 UNL     1      38.393  14.830  -5.486  1.00  0.00     0.041 A 
HETATM   33 BR2  UNL     1      39.056  13.974  -7.056  1.00  0.00    -0.049 Br
ENDBRANCH   6  25
TORSDOF 13
ENDMDL
MODEL 3
REMARK VINA RESULT: -8.852177112      0.952      1.239
REMARK  13 active torsions:
REMARK  status: ('A' for Active; 'I' for Inactive)
REMARK    1  A    between atoms: C1_2  and  C2_3 
REMARK    2  A    between atoms: C2_3  and  C3_4 
REMARK    3  A    between atoms: C3_4  and  N1_5 
REMARK       I    between atoms: C4_7  and  N2_8 
REMARK       I    between atoms: C4_7  and  N4_23 
REMARK    4  A    between atoms: N2_8  and  C5_10 
REMARK    5  A    between atoms: C5_10  and  C6_11 
REMARK    6  A    between atoms: C6_11  and  C7_12 
REMARK    7  A    between atoms: C7_12  and  C8_13 
REMARK    8  A    between atoms: C8_13  and  C9_14 
REMARK    9  A    between atoms: C9_14  and  C10_15 
REMARK   10  A    between atoms: C10_15  and  C11_16 
REMARK   11  A    between atoms: C11_16  and  C12_17 
REMARK   12  A    between atoms: C12_17  and  N3_18 
REMARK   13  A    between atoms: N4_23  and  C17_25 
ROOT
HETATM    1  N1  UNL     1      40.829  17.614  -7.789  1.00  0.00    -0.226 N 
ATOM      2  H1  UNL     1      41.829  17.594  -7.986  1.00  0.00     0.177 HD
HETATM    3  C4  UNL     1      40.444  16.731  -6.975  1.00  0.00     0.674 C 
HETATM    4  N2  UNL     1      41.377  15.840  -6.437  1.00  0.00    -0.226 N 
ATOM      5  H2  UNL     1      41.548  15.882  -5.433  1.00  0.00     0.177 HD
HETATM    6  N4  UNL     1      39.096  16.636  -6.592  1.00  0.00    -0.189 N 
ATOM      7  H4  UNL     1      38.421  17.166  -7.141  1.00  0.00     0.184 HD
ENDROOT
BRANCH   1   8
HETATM    8  C3  UNL     1      40.125  18.626  -8.477  1.00  0.00     0.139 C 
BRANCH   8   9
HETATM    9  C2  UNL     1      40.161  18.524  -9.981  1.00  0.00     0.035 C 
BRANCH   9  10
HETATM   10  C1  UNL     1      38.781  18.518 -10.589  1.00  0.00     0.116 C 
HETATM   11 CL1  UNL     1      37.666  17.442  -9.768  1.00  0.00    -0.130 Cl
ENDBRANCH   9  10
ENDBRANCH   8   9
ENDBRANCH   1   8
BRANCH   4  12
HETATM   12  C5  UNL     1      42.105  14.876  -7.198  1.00  0.00     0.138 C 
BRANCH  12  13
HETATM   13  C6  UNL     1      42.936  13.955  -6.376  1.00  0.00     0.020 C 
BRANCH  13  14
HETATM   14  C7  UNL     1      43.275  14.462  -5.000  1.00  0.00     0.002 C 
BRANCH  14  15
HETATM   15  C8  UNL     1      44.667  14.982  -4.923  1.00  0.00     0.000 C 
BRANCH  15  16
HETATM   16  C9  UNL     1      44.885  15.905  -3.743  1.00  0.00     0.000 C 
BRANCH  16  17
HETATM   17  C10 UNL     1      45.116  17.327  -4.108  1.00  0.00     0.002 C 
BRANCH  17  18
HETATM   18  C11 UNL     1      46.393  17.864  -3.517  1.00  0.00     0.030 C 
BRANCH  18  19
HETATM   19  C12 UNL     1      47.540  17.764  -4.495  1.00  0.00     0.272 C 
BRANCH  19  20
HETATM   20  N3  UNL     1      48.584  16.906  -4.047  1.00  0.00     0.088 N 
HETATM   21  C13 UNL     1      48.706  16.913  -2.623  1.00  0.00     0.272 C 
HETATM   22  C14 UNL     1      49.153  15.512  -2.235  1.00  0.00     0.032 C 
HETATM   23  C15 UNL     1      48.454  14.696  -3.301  1.00  0.00     0.032 C 
HETATM   24  C16 UNL     1      48.574  15.572  -4.523  1.00  0.00     0.272 C 
ENDBRANCH  19  20
ENDBRANCH  18  19
ENDBRANCH  17  18
ENDBRANCH  16  17
ENDBRANCH  15  16
ENDBRANCH  14  15
ENDBRANCH  13  14
ENDBRANCH  12  13
ENDBRANCH   4  12
BRANCH   6  25
HETATM   25  C17 UNL     1      38.593  15.878  -5.520  1.00  0.00     0.088 A 
HETATM   26  C18 UNL     1      38.372  14.526  -5.656  1.00  0.00     0.064 A 
HETATM   27 CL2  UNL     1      38.743  13.814  -7.209  1.00  0.00    -0.082 Cl
HETATM   28  C19 UNL     1      37.876  13.760  -4.598  1.00  0.00     0.045 A 
HETATM   29  C20 UNL     1      37.596  14.356  -3.385  1.00  0.00     0.014 A 
HETATM   30 BR1  UNL     1      36.916  13.263  -1.966  1.00  0.00    -0.051 Br
HETATM   31  C21 UNL     1      37.813  15.704  -3.241  1.00  0.00     0.040 A 
HETATM   32  C22 UNL     1      38.311  16.461  -4.309  1.00  0.00     0.041 A 
HETATM   33 BR2  UNL     1      38.609  18.326  -4.043  1.00  0.00    -0.049 Br
ENDBRANCH   6  25
TORSDOF 13
ENDMDL
MODEL 4
REMARK VINA RESULT: -8.648472075      2.302      4.365
REMARK  13 active torsions:
REMARK  status: ('A' for Active; 'I' for Inactive)
REMARK    1  A    between atoms: C1_2  and  C2_3 
REMARK    2  A    between atoms: C2_3  and  C3_4 
REMARK    3  A    between atoms: C3_4  and  N1_5 
REMARK       I    between atoms: C4_7  and  N2_8 
REMARK       I    between atoms: C4_7  and  N4_23 
REMARK    4  A    between atoms: N2_8  and  C5_10 
REMARK    5  A    between atoms: C5_10  and  C6_11 
REMARK    6  A    between atoms: C6_11  and  C7_12 
REMARK    7  A    between atoms: C7_12  and  C8_13 
REMARK    8  A    between atoms: C8_13  and  C9_14 
REMARK    9  A    between atoms: C9_14  and  C10_15 
REMARK   10  A    between atoms: C10_15  and  C11_16 
REMARK   11  A    between atoms: C11_16  and  C12_17 
REMARK   12  A    between atoms: C12_17  and  N3_18 
REMARK   13  A    between atoms: N4_23  and  C17_25 
ROOT
HETATM    1  N1  UNL     1      39.205  15.160  -3.207  1.00  0.00    -0.226 N 
ATOM      2  H1  UNL     1      39.759  14.364  -2.894  1.00  0.00     0.177 HD
HETATM    3  C4  UNL     1      39.606  15.678  -4.285  1.00  0.00     0.674 C 
HETATM    4  N2  UNL     1      40.724  15.142  -4.929  1.00  0.00    -0.226 N 
ATOM      5  H2  UNL     1      40.587  14.718  -5.847  1.00  0.00     0.177 HD
HETATM    6  N4  UNL     1      38.941  16.775  -4.855  1.00  0.00    -0.189 N 
ATOM      7  H4  UNL     1      38.258  17.256  -4.271  1.00  0.00     0.184 HD
ENDROOT
BRANCH   1   8
HETATM    8  C3  UNL     1      38.127  15.485  -2.356  1.00  0.00     0.139 C 
BRANCH   8   9
HETATM    9  C2  UNL     1      36.813  14.831  -2.705  1.00  0.00     0.035 C 
BRANCH   9  10
HETATM   10  C1  UNL     1      36.910  13.327  -2.723  1.00  0.00     0.116 C 
HETATM   11 CL1  UNL     1      36.102  12.595  -4.097  1.00  0.00    -0.130 Cl
ENDBRANCH   9  10
ENDBRANCH   8   9
ENDBRANCH   1   8
BRANCH   4  12
HETATM   12  C5  UNL     1      42.047  15.147  -4.390  1.00  0.00     0.138 C 
BRANCH  12  13
HETATM   13  C6  UNL     1      43.122  15.197  -5.418  1.00  0.00     0.020 C 
BRANCH  13  14
HETATM   14  C7  UNL     1      44.524  15.091  -4.878  1.00  0.00     0.002 C 
BRANCH  14  15
HETATM   15  C8  UNL     1      44.792  16.099  -3.818  1.00  0.00     0.000 C 
BRANCH  15  16
HETATM   16  C9  UNL     1      44.809  17.517  -4.345  1.00  0.00     0.000 C 
BRANCH  16  17
HETATM   17  C10 UNL     1      45.764  18.421  -3.653  1.00  0.00     0.002 C 
BRANCH  17  18
HETATM   18  C11 UNL     1      47.155  18.317  -4.219  1.00  0.00     0.030 C 
BRANCH  18  19
HETATM   19  C12 UNL     1      48.169  18.010  -3.142  1.00  0.00     0.272 C 
BRANCH  19  20
HETATM   20  N3  UNL     1      48.922  16.830  -3.403  1.00  0.00     0.088 N 
HETATM   21  C13 UNL     1      48.822  15.887  -2.334  1.00  0.00     0.272 C 
HETATM   22  C14 UNL     1      48.889  14.512  -2.982  1.00  0.00     0.032 C 
HETATM   23  C15 UNL     1      48.203  14.796  -4.300  1.00  0.00     0.032 C 
HETATM   24  C16 UNL     1      48.697  16.180  -4.641  1.00  0.00     0.272 C 
ENDBRANCH  19  20
ENDBRANCH  18  19
ENDBRANCH  17  18
ENDBRANCH  16  17
ENDBRANCH  15  16
ENDBRANCH  14  15
ENDBRANCH  13  14
ENDBRANCH  12  13
ENDBRANCH   4  12
BRANCH   6  25
HETATM   25  C17 UNL     1      39.128  17.272  -6.157  1.00  0.00     0.088 A 
HETATM   26  C18 UNL     1      38.611  16.606  -7.246  1.00  0.00     0.064 A 
HETATM   27 CL2  UNL     1      37.724  15.134  -6.928  1.00  0.00    -0.082 Cl
HETATM   28  C19 UNL     1      38.787  17.091  -8.545  1.00  0.00     0.045 A 
HETATM   29  C20 UNL     1      39.491  18.258  -8.757  1.00  0.00     0.014 A 
HETATM   30 BR1  UNL     1      39.705  18.880 -10.557  1.00  0.00    -0.051 Br
HETATM   31  C21 UNL     1      40.010  18.928  -7.677  1.00  0.00     0.040 A 
HETATM   32  C22 UNL     1      39.827  18.433  -6.380  1.00  0.00     0.041 A 
HETATM   33 BR2  UNL     1      40.557  19.416  -4.917  1.00  0.00    -0.049 Br
ENDBRANCH   6  25
TORSDOF 13
ENDMDL
MODEL 5
REMARK VINA RESULT: -8.536570304      3.970      6.535
REMARK  13 active torsions:
REMARK  status: ('A' for Active; 'I' for Inactive)
REMARK    1  A    between atoms: C1_2  and  C2_3 
REMARK    2  A    between atoms: C2_3  and  C3_4 
REMARK    3  A    between atoms: C3_4  and  N1_5 
REMARK       I    between atoms: C4_7  and  N2_8 
REMARK       I    between atoms: C4_7  and  N4_23 
REMARK    4  A    between atoms: N2_8  and  C5_10 
REMARK    5  A    between atoms: C5_10  and  C6_11 
REMARK    6  A    between atoms: C6_11  and  C7_12 
REMARK    7  A    between atoms: C7_12  and  C8_13 
REMARK    8  A    between atoms: C8_13  and  C9_14 
REMARK    9  A    between atoms: C9_14  and  C10_15 
REMARK   10  A    between atoms: C10_15  and  C11_16 
REMARK   11  A    between atoms: C11_16  and  C12_17 
REMARK   12  A    between atoms: C12_17  and  N3_18 
REMARK   13  A    between atoms: N4_23  and  C17_25 
ROOT
HETATM    1  N1  UNL     1      40.362  14.578  -7.009  1.00  0.00    -0.226 N 
ATOM      2  H1  UNL     1      40.405  14.787  -8.006  1.00  0.00     0.177 HD
HETATM    3  C4  UNL     1      39.256  14.857  -6.470  1.00  0.00     0.674 C 
HETATM    4  N2  UNL     1      38.232  15.404  -7.247  1.00  0.00    -0.226 N 
ATOM      5  H2  UNL     1      37.384  14.851  -7.374  1.00  0.00     0.177 HD
HETATM    6  N4  UNL     1      39.033  14.615  -5.105  1.00  0.00    -0.189 N 
ATOM      7  H4  UNL     1      39.850  14.401  -4.534  1.00  0.00     0.184 HD
ENDROOT
BRANCH   1   8
HETATM    8  C3  UNL     1      41.550  14.028  -6.481  1.00  0.00     0.139 C 
BRANCH   8   9
HETATM    9  C2  UNL     1      42.629  15.029  -6.154  1.00  0.00     0.035 C 
BRANCH   9  10
HETATM   10  C1  UNL     1      43.106  14.912  -4.729  1.00  0.00     0.116 C 
HETATM   11 CL1  UNL     1      44.816  15.251  -4.538  1.00  0.00    -0.130 Cl
ENDBRANCH   9  10
ENDBRANCH   8   9
ENDBRANCH   1   8
BRANCH   4  12
HETATM   12  C5  UNL     1      38.291  16.685  -7.877  1.00  0.00     0.138 C 
BRANCH  12  13
HETATM   13  C6  UNL     1      37.595  16.749  -9.191  1.00  0.00     0.020 C 
BRANCH  13  14
HETATM   14  C7  UNL     1      37.480  18.129  -9.782  1.00  0.00     0.002 C 
BRANCH  14  15
HETATM   15  C8  UNL     1      38.370  18.308 -10.961  1.00  0.00     0.000 C 
BRANCH  15  16
HETATM   16  C9  UNL     1      39.586  19.155 -10.655  1.00  0.00     0.000 C 
BRANCH  16  17
HETATM   17  C10 UNL     1      40.644  18.457  -9.879  1.00  0.00     0.002 C 
BRANCH  17  18
HETATM   18  C11 UNL     1      40.917  19.130  -8.560  1.00  0.00     0.030 C 
BRANCH  18  19
HETATM   19  C12 UNL     1      41.281  18.125  -7.492  1.00  0.00     0.272 C 
BRANCH  19  20
HETATM   20  N3  UNL     1      40.655  18.387  -6.240  1.00  0.00     0.088 N 
HETATM   21  C13 UNL     1      41.579  18.303  -5.154  1.00  0.00     0.272 C 
HETATM   22  C14 UNL     1      41.114  19.327  -4.130  1.00  0.00     0.032 C 
HETATM   23  C15 UNL     1      40.545  20.391  -5.043  1.00  0.00     0.032 C 
HETATM   24  C16 UNL     1      39.895  19.578  -6.135  1.00  0.00     0.272 C 
ENDBRANCH  19  20
ENDBRANCH  18  19
ENDBRANCH  17  18
ENDBRANCH  16  17
ENDBRANCH  15  16
ENDBRANCH  14  15
ENDBRANCH  13  14
ENDBRANCH  12  13
ENDBRANCH   4  12
BRANCH   6  25
HETATM   25  C17 UNL     1      37.788  14.642  -4.452  1.00  0.00     0.088 A 
HETATM   26  C18 UNL     1      37.393  15.747  -3.733  1.00  0.00     0.064 A 
HETATM   27 CL2  UNL     1      38.506  17.094  -3.674  1.00  0.00    -0.082 Cl
HETATM   28  C19 UNL     1      36.157  15.788  -3.083  1.00  0.00     0.045 A 
HETATM   29  C20 UNL     1      35.303  14.706  -3.153  1.00  0.00     0.014 A 
HETATM   30 BR1  UNL     1      33.620  14.811  -2.244  1.00  0.00    -0.051 Br
HETATM   31  C21 UNL     1      35.689  13.600  -3.868  1.00  0.00     0.040 A 
HETATM   32  C22 UNL     1      36.931  13.571  -4.516  1.00  0.00     0.041 A 
HETATM   33 BR2  UNL     1      37.405  12.012  -5.508  1.00  0.00    -0.049 Br
ENDBRANCH   6  25
TORSDOF 13
ENDMDL
