MODEL 1
REMARK VINA RESULT: -11.344928757      0.000      0.000
REMARK  13 active torsions:
REMARK  status: ('A' for Active; 'I' for Inactive)
REMARK    1  A    between atoms: C1_2  and  C2_3 
REMARK       I    between atoms: C1_2  and  N1_7 
REMARK    2  A    between atoms: C2_3  and  C3_4 
REMARK    3  A    between atoms: C3_4  and  C4_5 
REMARK    4  A    between atoms: N1_7  and  C5_9 
REMARK    5  A    between atoms: C5_9  and  C6_10 
REMARK    6  A    between atoms: C6_10  and  C7_11 
REMARK    7  A    between atoms: C7_11  and  C8_12 
REMARK    8  A    between atoms: C8_12  and  C9_13 
REMARK    9  A    between atoms: C9_13  and  N2_14 
REMARK       I    between atoms: N2_14  and  C10_16 
REMARK   10  A    between atoms: C10_16  and  C11_18 
REMARK   11  A    between atoms: C11_18  and  C12_19 
REMARK   12  A    between atoms: C12_19  and  C13_20 
REMARK   13  A    between atoms: C17_24  and  C18_25 
ROOT
HETATM    1  C11 UNL     1      40.312  15.236  -5.447  1.00  0.00     0.046 C 
HETATM    2  C16 UNL     1      40.075  15.443  -6.931  1.00  0.00     0.029 C 
HETATM    3  C17 UNL     1      40.479  16.880  -7.176  1.00  0.00     0.024 C 
HETATM    4  C24 UNL     1      40.380  17.604  -5.895  1.00  0.00    -0.001 C 
HETATM    5  C25 UNL     1      39.460  18.774  -5.825  1.00  0.00     0.005 C 
HETATM    6  C26 UNL     1      39.381  19.128  -4.324  1.00  0.00     0.000 C 
HETATM    7  C27 UNL     1      38.419  18.112  -3.738  1.00  0.00     0.000 C 
HETATM    8  C28 UNL     1      38.614  16.741  -4.343  1.00  0.00     0.006 C 
HETATM    9  C29 UNL     1      40.028  16.584  -4.813  1.00  0.00     0.008 C 
ENDROOT
BRANCH   1  10
HETATM   10  C10 UNL     1      41.734  14.913  -5.257  1.00  0.00     0.226 C 
HETATM   11  N2  UNL     1      42.656  15.528  -4.399  1.00  0.00    -0.360 N 
ATOM     12  H2  UNL     1      42.341  16.299  -3.810  1.00  0.00     0.162 HD
HETATM   13  O2  UNL     1      42.158  13.933  -5.985  1.00  0.00    -0.273 OA
BRANCH  11  14
HETATM   14  C9  UNL     1      44.036  15.111  -4.318  1.00  0.00     0.122 C 
BRANCH  14  15
HETATM   15  C8  UNL     1      44.989  16.153  -3.847  1.00  0.00     0.020 C 
BRANCH  15  16
HETATM   16  C7  UNL     1      44.599  17.560  -4.242  1.00  0.00     0.003 C 
BRANCH  16  17
HETATM   17  C6  UNL     1      45.371  18.580  -3.447  1.00  0.00     0.020 C 
BRANCH  17  18
HETATM   18  C5  UNL     1      46.572  19.049  -4.197  1.00  0.00     0.122 C 
BRANCH  18  19
HETATM   19  N1  UNL     1      47.606  18.037  -4.221  1.00  0.00    -0.361 N 
HETATM   20  C1  UNL     1      48.490  17.863  -3.117  1.00  0.00     0.217 C 
HETATM   21  O1  UNL     1      48.345  18.612  -2.129  1.00  0.00    -0.274 OA
ATOM     22  H1  UNL     1      47.703  17.438  -5.040  1.00  0.00     0.162 HD
BRANCH  20  23
HETATM   23  C2  UNL     1      49.540  16.834  -3.138  1.00  0.00     0.103 C 
BRANCH  23  24
HETATM   24  C3  UNL     1      49.298  15.698  -2.219  1.00  0.00     0.020 C 
BRANCH  24  25
HETATM   25  C4  UNL     1      48.157  14.813  -2.605  1.00  0.00     0.085 C 
HETATM   26 BR1  UNL     1      48.353  14.433  -4.512  1.00  0.00    -0.097 Br
ENDBRANCH  24  25
ENDBRANCH  23  24
ENDBRANCH  20  23
ENDBRANCH  18  19
ENDBRANCH  17  18
ENDBRANCH  16  17
ENDBRANCH  15  16
ENDBRANCH  14  15
ENDBRANCH  11  14
ENDBRANCH   1  10
BRANCH   1  27
HETATM   27  C12 UNL     1      39.438  14.160  -4.953  1.00  0.00     0.024 C 
BRANCH  27  28
HETATM   28  C13 UNL     1      38.332  13.738  -5.880  1.00  0.00    -0.013 A 
HETATM   29  C14 UNL     1      37.645  12.432  -5.649  1.00  0.00     0.005 A 
HETATM   30  C15 UNL     1      36.903  13.679  -5.345  1.00  0.00     0.005 A 
ENDBRANCH  27  28
ENDBRANCH   1  27
BRANCH   3  31
HETATM   31  C18 UNL     1      39.719  17.375  -8.314  1.00  0.00    -0.048 A 
HETATM   32  C19 UNL     1      40.280  18.275  -9.198  1.00  0.00     0.053 A 
HETATM   33  C20 UNL     1      39.572  18.747 -10.299  1.00  0.00     0.158 A 
HETATM   34  F1  UNL     1      40.117  19.634 -11.174  1.00  0.00    -0.203 F 
HETATM   35  C21 UNL     1      38.287  18.330 -10.540  1.00  0.00     0.193 A 
HETATM   36  F2  UNL     1      37.606  18.808 -11.632  1.00  0.00    -0.200 F 
HETATM   37  C22 UNL     1      37.715  17.435  -9.671  1.00  0.00     0.158 A 
HETATM   38  F3  UNL     1      36.431  16.997  -9.884  1.00  0.00    -0.203 F 
HETATM   39  C23 UNL     1      38.433  16.979  -8.588  1.00  0.00     0.053 A 
ENDBRANCH   3  31
TORSDOF 13
ENDMDL
MODEL 2
REMARK VINA RESULT: -11.336653424      1.262      1.640
REMARK  13 active torsions:
REMARK  status: ('A' for Active; 'I' for Inactive)
REMARK    1  A    between atoms: C1_2  and  C2_3 
REMARK       I    between atoms: C1_2  and  N1_7 
REMARK    2  A    between atoms: C2_3  and  C3_4 
REMARK    3  A    between atoms: C3_4  and  C4_5 
REMARK    4  A    between atoms: N1_7  and  C5_9 
REMARK    5  A    between atoms: C5_9  and  C6_10 
REMARK    6  A    between atoms: C6_10  and  C7_11 
REMARK    7  A    between atoms: C7_11  and  C8_12 
REMARK    8  A    between atoms: C8_12  and  C9_13 
REMARK    9  A    between atoms: C9_13  and  N2_14 
REMARK       I    between atoms: N2_14  and  C10_16 
REMARK   10  A    between atoms: C10_16  and  C11_18 
REMARK   11  A    between atoms: C11_18  and  C12_19 
REMARK   12  A    between atoms: C12_19  and  C13_20 
REMARK   13  A    between atoms: C17_24  and  C18_25 
ROOT
HETATM    1  C11 UNL     1      39.540  15.931  -5.148  1.00  0.00     0.046 C 
HETATM    2  C16 UNL     1      39.255  15.912  -6.638  1.00  0.00     0.029 C 
HETATM    3  C17 UNL     1      40.134  17.009  -7.198  1.00  0.00     0.024 C 
HETATM    4  C24 UNL     1      40.431  17.955  -6.107  1.00  0.00    -0.001 C 
HETATM    5  C25 UNL     1      40.016  19.376  -6.284  1.00  0.00     0.005 C 
HETATM    6  C26 UNL     1      40.216  20.024  -4.897  1.00  0.00     0.000 C 
HETATM    7  C27 UNL     1      39.009  19.588  -4.089  1.00  0.00     0.000 C 
HETATM    8  C28 UNL     1      38.628  18.155  -4.380  1.00  0.00     0.006 C 
HETATM    9  C29 UNL     1      39.833  17.383  -4.823  1.00  0.00     0.008 C 
ENDROOT
BRANCH   1  10
HETATM   10  C10 UNL     1      40.755  15.137  -4.910  1.00  0.00     0.226 C 
HETATM   11  N2  UNL     1      41.597  14.534  -5.855  1.00  0.00    -0.360 N 
ATOM     12  H2  UNL     1      41.378  14.640  -6.846  1.00  0.00     0.162 HD
HETATM   13  O2  UNL     1      41.060  14.995  -3.662  1.00  0.00    -0.273 OA
BRANCH  11  14
HETATM   14  C9  UNL     1      42.762  13.770  -5.477  1.00  0.00     0.122 C 
BRANCH  14  15
HETATM   15  C8  UNL     1      44.061  14.486  -5.605  1.00  0.00     0.020 C 
BRANCH  15  16
HETATM   16  C7  UNL     1      44.335  15.461  -4.481  1.00  0.00     0.003 C 
BRANCH  16  17
HETATM   17  C6  UNL     1      43.883  16.851  -4.847  1.00  0.00     0.020 C 
BRANCH  17  18
HETATM   18  C5  UNL     1      44.193  17.821  -3.756  1.00  0.00     0.122 C 
BRANCH  18  19
HETATM   19  N1  UNL     1      45.572  17.714  -3.333  1.00  0.00    -0.361 N 
HETATM   20  C1  UNL     1      46.579  18.554  -3.893  1.00  0.00     0.217 C 
HETATM   21  O1  UNL     1      46.234  19.384  -4.758  1.00  0.00    -0.274 OA
ATOM     22  H1  UNL     1      45.828  17.028  -2.624  1.00  0.00     0.162 HD
BRANCH  20  23
HETATM   23  C2  UNL     1      47.982  18.447  -3.464  1.00  0.00     0.103 C 
BRANCH  23  24
HETATM   24  C3  UNL     1      48.417  17.068  -3.141  1.00  0.00     0.020 C 
BRANCH  24  25
HETATM   25  C4  UNL     1      48.927  16.284  -4.307  1.00  0.00     0.085 C 
HETATM   26 BR1  UNL     1      48.105  14.514  -4.203  1.00  0.00    -0.097 Br
ENDBRANCH  24  25
ENDBRANCH  23  24
ENDBRANCH  20  23
ENDBRANCH  18  19
ENDBRANCH  17  18
ENDBRANCH  16  17
ENDBRANCH  15  16
ENDBRANCH  14  15
ENDBRANCH  11  14
ENDBRANCH   1  10
BRANCH   1  27
HETATM   27  C12 UNL     1      38.383  15.389  -4.417  1.00  0.00     0.024 C 
BRANCH  27  28
HETATM   28  C13 UNL     1      37.349  14.690  -5.256  1.00  0.00    -0.013 A 
HETATM   29  C14 UNL     1      37.035  13.255  -4.981  1.00  0.00     0.005 A 
HETATM   30  C15 UNL     1      36.029  14.278  -4.609  1.00  0.00     0.005 A 
ENDBRANCH  27  28
ENDBRANCH   1  27
BRANCH   3  31
HETATM   31  C18 UNL     1      39.505  17.519  -8.408  1.00  0.00    -0.048 A 
HETATM   32  C19 UNL     1      40.205  18.327  -9.280  1.00  0.00     0.053 A 
HETATM   33  C20 UNL     1      39.623  18.810 -10.447  1.00  0.00     0.158 A 
HETATM   34  F1  UNL     1      40.306  19.607 -11.311  1.00  0.00    -0.203 F 
HETATM   35  C21 UNL     1      38.326  18.496 -10.768  1.00  0.00     0.193 A 
HETATM   36  F2  UNL     1      37.770  18.984 -11.924  1.00  0.00    -0.200 F 
HETATM   37  C22 UNL     1      37.616  17.693  -9.911  1.00  0.00     0.158 A 
HETATM   38  F3  UNL     1      36.315  17.360 -10.203  1.00  0.00    -0.203 F 
HETATM   39  C23 UNL     1      38.210  17.224  -8.761  1.00  0.00     0.053 A 
ENDBRANCH   3  31
TORSDOF 13
ENDMDL
MODEL 3
REMARK VINA RESULT: -11.237409196      1.249      2.092
REMARK  13 active torsions:
REMARK  status: ('A' for Active; 'I' for Inactive)
REMARK    1  A    between atoms: C1_2  and  C2_3 
REMARK       I    between atoms: C1_2  and  N1_7 
REMARK    2  A    between atoms: C2_3  and  C3_4 
REMARK    3  A    between atoms: C3_4  and  C4_5 
REMARK    4  A    between atoms: N1_7  and  C5_9 
REMARK    5  A    between atoms: C5_9  and  C6_10 
REMARK    6  A    between atoms: C6_10  and  C7_11 
REMARK    7  A    between atoms: C7_11  and  C8_12 
REMARK    8  A    between atoms: C8_12  and  C9_13 
REMARK    9  A    between atoms: C9_13  and  N2_14 
REMARK       I    between atoms: N2_14  and  C10_16 
REMARK   10  A    between atoms: C10_16  and  C11_18 
REMARK   11  A    between atoms: C11_18  and  C12_19 
REMARK   12  A    between atoms: C12_19  and  C13_20 
REMARK   13  A    between atoms: C17_24  and  C18_25 
ROOT
HETATM    1  C11 UNL     1      39.556  15.952  -5.142  1.00  0.00     0.046 C 
HETATM    2  C16 UNL     1      39.298  15.916  -6.637  1.00  0.00     0.029 C 
HETATM    3  C17 UNL     1      40.187  17.006  -7.194  1.00  0.00     0.024 C 
HETATM    4  C24 UNL     1      40.464  17.964  -6.109  1.00  0.00    -0.001 C 
HETATM    5  C25 UNL     1      40.054  19.383  -6.310  1.00  0.00     0.005 C 
HETATM    6  C26 UNL     1      40.229  20.047  -4.927  1.00  0.00     0.000 C 
HETATM    7  C27 UNL     1      39.008  19.621  -4.136  1.00  0.00     0.000 C 
HETATM    8  C28 UNL     1      38.631  18.185  -4.417  1.00  0.00     0.006 C 
HETATM    9  C29 UNL     1      39.843  17.407  -4.829  1.00  0.00     0.008 C 
ENDROOT
BRANCH   1  10
HETATM   10  C10 UNL     1      40.766  15.161  -4.873  1.00  0.00     0.226 C 
HETATM   11  N2  UNL     1      41.621  14.542  -5.796  1.00  0.00    -0.360 N 
ATOM     12  H2  UNL     1      41.418  14.632  -6.791  1.00  0.00     0.162 HD
HETATM   13  O2  UNL     1      41.052  15.039  -3.619  1.00  0.00    -0.273 OA
BRANCH  11  14
HETATM   14  C9  UNL     1      42.780  13.782  -5.388  1.00  0.00     0.122 C 
BRANCH  14  15
HETATM   15  C8  UNL     1      44.083  14.487  -5.531  1.00  0.00     0.020 C 
BRANCH  15  16
HETATM   16  C7  UNL     1      44.369  15.474  -4.420  1.00  0.00     0.003 C 
BRANCH  16  17
HETATM   17  C6  UNL     1      43.929  16.863  -4.803  1.00  0.00     0.020 C 
BRANCH  17  18
HETATM   18  C5  UNL     1      44.277  17.849  -3.739  1.00  0.00     0.122 C 
BRANCH  18  19
HETATM   19  N1  UNL     1      45.661  17.724  -3.338  1.00  0.00    -0.361 N 
HETATM   20  C1  UNL     1      46.676  18.521  -3.943  1.00  0.00     0.217 C 
HETATM   21  O1  UNL     1      46.333  19.331  -4.828  1.00  0.00    -0.274 OA
ATOM     22  H1  UNL     1      45.915  17.055  -2.612  1.00  0.00     0.162 HD
BRANCH  20  23
HETATM   23  C2  UNL     1      48.084  18.396  -3.536  1.00  0.00     0.103 C 
BRANCH  23  24
HETATM   24  C3  UNL     1      48.490  17.021  -3.164  1.00  0.00     0.020 C 
BRANCH  24  25
HETATM   25  C4  UNL     1      48.915  16.162  -4.311  1.00  0.00     0.085 C 
HETATM   26 BR1  UNL     1      48.051  14.425  -4.070  1.00  0.00    -0.097 Br
ENDBRANCH  24  25
ENDBRANCH  23  24
ENDBRANCH  20  23
ENDBRANCH  18  19
ENDBRANCH  17  18
ENDBRANCH  16  17
ENDBRANCH  15  16
ENDBRANCH  14  15
ENDBRANCH  11  14
ENDBRANCH   1  10
BRANCH   1  27
HETATM   27  C12 UNL     1      38.386  15.419  -4.426  1.00  0.00     0.024 C 
BRANCH  27  28
HETATM   28  C13 UNL     1      37.392  14.665  -5.266  1.00  0.00    -0.013 A 
HETATM   29  C14 UNL     1      37.268  13.186  -5.097  1.00  0.00     0.005 A 
HETATM   30  C15 UNL     1      36.173  14.046  -4.588  1.00  0.00     0.005 A 
ENDBRANCH  27  28
ENDBRANCH   1  27
BRANCH   3  31
HETATM   31  C18 UNL     1      39.579  17.501  -8.420  1.00  0.00    -0.048 A 
HETATM   32  C19 UNL     1      38.267  17.203  -8.727  1.00  0.00     0.053 A 
HETATM   33  C20 UNL     1      37.667  17.679  -9.888  1.00  0.00     0.158 A 
HETATM   34  F1  UNL     1      36.376  17.389 -10.198  1.00  0.00    -0.203 F 
HETATM   35  C21 UNL     1      38.366  18.466 -10.769  1.00  0.00     0.193 A 
HETATM   36  F2  UNL     1      37.756  18.926 -11.909  1.00  0.00    -0.200 F 
HETATM   37  C22 UNL     1      39.672  18.773 -10.478  1.00  0.00     0.158 A 
HETATM   38  F3  UNL     1      40.400  19.558 -11.339  1.00  0.00    -0.203 F 
HETATM   39  C23 UNL     1      40.247  18.292  -9.324  1.00  0.00     0.053 A 
ENDBRANCH   3  31
TORSDOF 13
ENDMDL
MODEL 4
REMARK VINA RESULT: -11.139716031      1.995      2.421
REMARK  13 active torsions:
REMARK  status: ('A' for Active; 'I' for Inactive)
REMARK    1  A    between atoms: C1_2  and  C2_3 
REMARK       I    between atoms: C1_2  and  N1_7 
REMARK    2  A    between atoms: C2_3  and  C3_4 
REMARK    3  A    between atoms: C3_4  and  C4_5 
REMARK    4  A    between atoms: N1_7  and  C5_9 
REMARK    5  A    between atoms: C5_9  and  C6_10 
REMARK    6  A    between atoms: C6_10  and  C7_11 
REMARK    7  A    between atoms: C7_11  and  C8_12 
REMARK    8  A    between atoms: C8_12  and  C9_13 
REMARK    9  A    between atoms: C9_13  and  N2_14 
REMARK       I    between atoms: N2_14  and  C10_16 
REMARK   10  A    between atoms: C10_16  and  C11_18 
REMARK   11  A    between atoms: C11_18  and  C12_19 
REMARK   12  A    between atoms: C12_19  and  C13_20 
REMARK   13  A    between atoms: C17_24  and  C18_25 
ROOT
HETATM    1  C11 UNL     1      40.827  15.607  -5.505  1.00  0.00     0.046 C 
HETATM    2  C16 UNL     1      40.411  15.731  -6.959  1.00  0.00     0.029 C 
HETATM    3  C17 UNL     1      40.955  17.077  -7.387  1.00  0.00     0.024 C 
HETATM    4  C24 UNL     1      41.129  17.902  -6.178  1.00  0.00    -0.001 C 
HETATM    5  C25 UNL     1      40.383  19.190  -6.099  1.00  0.00     0.005 C 
HETATM    6  C26 UNL     1      40.560  19.663  -4.641  1.00  0.00     0.000 C 
HETATM    7  C27 UNL     1      39.570  18.837  -3.843  1.00  0.00     0.000 C 
HETATM    8  C28 UNL     1      39.504  17.410  -4.337  1.00  0.00     0.006 C 
HETATM    9  C29 UNL     1      40.806  17.025  -4.969  1.00  0.00     0.008 C 
ENDROOT
BRANCH   1  10
HETATM   10  C10 UNL     1      42.209  15.107  -5.471  1.00  0.00     0.226 C 
HETATM   11  N2  UNL     1      43.290  15.597  -4.725  1.00  0.00    -0.360 N 
ATOM     12  H2  UNL     1      43.142  16.398  -4.112  1.00  0.00     0.162 HD
HETATM   13  O2  UNL     1      42.423  14.086  -6.233  1.00  0.00    -0.273 OA
BRANCH  11  14
HETATM   14  C9  UNL     1      44.608  15.008  -4.794  1.00  0.00     0.122 C 
BRANCH  14  15
HETATM   15  C8  UNL     1      45.658  15.707  -4.003  1.00  0.00     0.020 C 
BRANCH  15  16
HETATM   16  C7  UNL     1      47.058  15.201  -4.266  1.00  0.00     0.003 C 
BRANCH  16  17
HETATM   17  C6  UNL     1      47.955  15.448  -3.081  1.00  0.00     0.020 C 
BRANCH  17  18
HETATM   18  C5  UNL     1      48.697  16.735  -3.229  1.00  0.00     0.122 C 
BRANCH  18  19
HETATM   19  N1  UNL     1      50.062  16.611  -2.764  1.00  0.00    -0.361 N 
HETATM   20  C1  UNL     1      51.132  16.389  -3.679  1.00  0.00     0.217 C 
HETATM   21  O1  UNL     1      50.856  16.304  -4.893  1.00  0.00    -0.274 OA
ATOM     22  H1  UNL     1      50.261  16.684  -1.767  1.00  0.00     0.162 HD
BRANCH  20  23
HETATM   23  C2  UNL     1      52.520  16.263  -3.209  1.00  0.00     0.103 C 
BRANCH  23  24
HETATM   24  C3  UNL     1      53.525  16.177  -4.294  1.00  0.00     0.020 C 
BRANCH  24  25
HETATM   25  C4  UNL     1      54.231  17.459  -4.596  1.00  0.00     0.085 C 
HETATM   26 BR1  UNL     1      53.771  17.940  -6.434  1.00  0.00    -0.097 Br
ENDBRANCH  24  25
ENDBRANCH  23  24
ENDBRANCH  20  23
ENDBRANCH  18  19
ENDBRANCH  17  18
ENDBRANCH  16  17
ENDBRANCH  15  16
ENDBRANCH  14  15
ENDBRANCH  11  14
ENDBRANCH   1  10
BRANCH   1  27
HETATM   27  C12 UNL     1      39.902  14.702  -4.803  1.00  0.00     0.024 C 
BRANCH  27  28
HETATM   28  C13 UNL     1      38.885  14.008  -5.667  1.00  0.00    -0.013 A 
HETATM   29  C14 UNL     1      38.091  12.880  -5.094  1.00  0.00     0.005 A 
HETATM   30  C15 UNL     1      37.404  14.170  -5.337  1.00  0.00     0.005 A 
ENDBRANCH  27  28
ENDBRANCH   1  27
BRANCH   3  31
HETATM   31  C18 UNL     1      40.111  17.584  -8.459  1.00  0.00    -0.048 A 
HETATM   32  C19 UNL     1      40.606  18.487  -9.379  1.00  0.00     0.053 A 
HETATM   33  C20 UNL     1      39.817  18.971 -10.417  1.00  0.00     0.158 A 
HETATM   34  F1  UNL     1      40.297  19.860 -11.326  1.00  0.00    -0.203 F 
HETATM   35  C21 UNL     1      38.515  18.562 -10.560  1.00  0.00     0.193 A 
HETATM   36  F2  UNL     1      37.753  19.052 -11.591  1.00  0.00    -0.200 F 
HETATM   37  C22 UNL     1      38.007  17.664  -9.654  1.00  0.00     0.158 A 
HETATM   38  F3  UNL     1      36.707  17.235  -9.769  1.00  0.00    -0.203 F 
HETATM   39  C23 UNL     1      38.805  17.197  -8.634  1.00  0.00     0.053 A 
ENDBRANCH   3  31
TORSDOF 13
ENDMDL
MODEL 5
REMARK VINA RESULT: -11.105587975      1.978      2.749
REMARK  13 active torsions:
REMARK  status: ('A' for Active; 'I' for Inactive)
REMARK    1  A    between atoms: C1_2  and  C2_3 
REMARK       I    between atoms: C1_2  and  N1_7 
REMARK    2  A    between atoms: C2_3  and  C3_4 
REMARK    3  A    between atoms: C3_4  and  C4_5 
REMARK    4  A    between atoms: N1_7  and  C5_9 
REMARK    5  A    between atoms: C5_9  and  C6_10 
REMARK    6  A    between atoms: C6_10  and  C7_11 
REMARK    7  A    between atoms: C7_11  and  C8_12 
REMARK    8  A    between atoms: C8_12  and  C9_13 
REMARK    9  A    between atoms: C9_13  and  N2_14 
REMARK       I    between atoms: N2_14  and  C10_16 
REMARK   10  A    between atoms: C10_16  and  C11_18 
REMARK   11  A    between atoms: C11_18  and  C12_19 
REMARK   12  A    between atoms: C12_19  and  C13_20 
REMARK   13  A    between atoms: C17_24  and  C18_25 
ROOT
HETATM    1  C11 UNL     1      40.800  15.633  -5.510  1.00  0.00     0.046 C 
HETATM    2  C16 UNL     1      40.397  15.751  -6.968  1.00  0.00     0.029 C 
HETATM    3  C17 UNL     1      40.949  17.093  -7.398  1.00  0.00     0.024 C 
HETATM    4  C24 UNL     1      41.116  17.923  -6.192  1.00  0.00    -0.001 C 
HETATM    5  C25 UNL     1      40.375  19.214  -6.125  1.00  0.00     0.005 C 
HETATM    6  C26 UNL     1      40.543  19.694  -4.667  1.00  0.00     0.000 C 
HETATM    7  C27 UNL     1      39.543  18.876  -3.873  1.00  0.00     0.000 C 
HETATM    8  C28 UNL     1      39.475  17.447  -4.361  1.00  0.00     0.006 C 
HETATM    9  C29 UNL     1      40.781  17.054  -4.981  1.00  0.00     0.008 C 
ENDROOT
BRANCH   1  10
HETATM   10  C10 UNL     1      42.180  15.127  -5.463  1.00  0.00     0.226 C 
HETATM   11  N2  UNL     1      43.254  15.609  -4.702  1.00  0.00    -0.360 N 
ATOM     12  H2  UNL     1      43.101  16.407  -4.085  1.00  0.00     0.162 HD
HETATM   13  O2  UNL     1      42.399  14.110  -6.229  1.00  0.00    -0.273 OA
BRANCH  11  14
HETATM   14  C9  UNL     1      44.570  15.016  -4.759  1.00  0.00     0.122 C 
BRANCH  14  15
HETATM   15  C8  UNL     1      45.618  15.718  -3.968  1.00  0.00     0.020 C 
BRANCH  15  16
HETATM   16  C7  UNL     1      47.022  15.225  -4.240  1.00  0.00     0.003 C 
BRANCH  16  17
HETATM   17  C6  UNL     1      47.921  15.471  -3.056  1.00  0.00     0.020 C 
BRANCH  17  18
HETATM   18  C5  UNL     1      48.664  16.756  -3.204  1.00  0.00     0.122 C 
BRANCH  18  19
HETATM   19  N1  UNL     1      50.031  16.630  -2.745  1.00  0.00    -0.361 N 
HETATM   20  C1  UNL     1      51.095  16.395  -3.664  1.00  0.00     0.217 C 
HETATM   21  O1  UNL     1      50.812  16.303  -4.876  1.00  0.00    -0.274 OA
ATOM     22  H1  UNL     1      50.236  16.710  -1.750  1.00  0.00     0.162 HD
BRANCH  20  23
HETATM   23  C2  UNL     1      52.484  16.267  -3.200  1.00  0.00     0.103 C 
BRANCH  23  24
HETATM   24  C3  UNL     1      53.483  16.168  -4.290  1.00  0.00     0.020 C 
BRANCH  24  25
HETATM   25  C4  UNL     1      54.180  17.449  -4.619  1.00  0.00     0.085 C 
HETATM   26 BR1  UNL     1      53.732  17.879  -6.473  1.00  0.00    -0.097 Br
ENDBRANCH  24  25
ENDBRANCH  23  24
ENDBRANCH  20  23
ENDBRANCH  18  19
ENDBRANCH  17  18
ENDBRANCH  16  17
ENDBRANCH  15  16
ENDBRANCH  14  15
ENDBRANCH  11  14
ENDBRANCH   1  10
BRANCH   1  27
HETATM   27  C12 UNL     1      39.866  14.735  -4.811  1.00  0.00     0.024 C 
BRANCH  27  28
HETATM   28  C13 UNL     1      38.848  14.046  -5.678  1.00  0.00    -0.013 A 
HETATM   29  C14 UNL     1      38.064  12.906  -5.116  1.00  0.00     0.005 A 
HETATM   30  C15 UNL     1      37.368  14.196  -5.337  1.00  0.00     0.005 A 
ENDBRANCH  27  28
ENDBRANCH   1  27
BRANCH   3  31
HETATM   31  C18 UNL     1      40.116  17.598  -8.479  1.00  0.00    -0.048 A 
HETATM   32  C19 UNL     1      38.805  17.187  -8.610  1.00  0.00     0.053 A 
HETATM   33  C20 UNL     1      37.991  17.671  -9.629  1.00  0.00     0.158 A 
HETATM   34  F1  UNL     1      36.699  17.270  -9.765  1.00  0.00    -0.203 F 
HETATM   35  C21 UNL     1      38.470  18.578 -10.541  1.00  0.00     0.193 A 
HETATM   36  F2  UNL     1      37.651  19.043 -11.540  1.00  0.00    -0.200 F 
HETATM   37  C22 UNL     1      39.772  18.998 -10.425  1.00  0.00     0.158 A 
HETATM   38  F3  UNL     1      40.282  19.904 -11.321  1.00  0.00    -0.203 F 
HETATM   39  C23 UNL     1      40.561  18.507  -9.409  1.00  0.00     0.053 A 
ENDBRANCH   3  31
TORSDOF 13
ENDMDL
