MODEL 1
REMARK VINA RESULT: -9.166952422      0.000      0.000
REMARK  13 active torsions:
REMARK  status: ('A' for Active; 'I' for Inactive)
REMARK    1  A    between atoms: C2_2  and  C3_3 
REMARK    2  A    between atoms: C2_2  and  C20_29 
REMARK    3  A    between atoms: C3_3  and  C4_5 
REMARK    4  A    between atoms: C4_5  and  C5_6 
REMARK    5  A    between atoms: C5_6  and  C6_7 
REMARK    6  A    between atoms: C6_7  and  C7_8 
REMARK    7  A    between atoms: C7_8  and  O2_9 
REMARK    8  A    between atoms: C7_8  and  C8_11 
REMARK    9  A    between atoms: C8_11  and  O3_13 
REMARK   10  A    between atoms: C8_11  and  S1_15 
REMARK   11  A    between atoms: S1_15  and  C10_16 
REMARK   12  A    between atoms: C11_17  and  C12_18 
REMARK   13  A    between atoms: N1_24  and  C18_26 
ROOT
HETATM    1  C8  UNL     1      23.441 -19.817  17.783  1.00  0.00     0.132 C 
HETATM    2  C9  UNL     1      23.584 -20.474  16.438  1.00  0.00     0.061 C 
ENDROOT
BRANCH   1   3
HETATM    3  C7  UNL     1      22.765 -18.457  17.670  1.00  0.00     0.163 C 
BRANCH   3   4
HETATM    4  C6  UNL     1      21.765 -18.268  18.788  1.00  0.00     0.036 C 
BRANCH   4   5
HETATM    5  C5  UNL     1      21.451 -16.811  19.042  1.00  0.00     0.010 C 
BRANCH   5   6
HETATM    6  C4  UNL     1      20.168 -16.456  18.386  1.00  0.00     0.079 C 
BRANCH   6   7
HETATM    7  C3  UNL     1      18.964 -16.526  19.215  1.00  0.00     0.135 C 
HETATM    8  O1  UNL     1      19.157 -16.429  20.436  1.00  0.00    -0.297 OA
BRANCH   7   9
HETATM    9  C2  UNL     1      17.571 -16.699  18.729  1.00  0.00     0.105 C 
HETATM   10  C1  UNL     1      16.645 -15.585  19.150  1.00  0.00     0.022 C 
BRANCH   9  11
HETATM   11  C20 UNL     1      16.987 -17.989  19.278  1.00  0.00     0.198 C 
HETATM   12 CL1  UNL     1      15.875 -17.517  20.599  1.00  0.00    -0.083 Cl
HETATM   13 CL2  UNL     1      16.026 -18.731  17.986  1.00  0.00    -0.083 Cl
HETATM   14 CL3  UNL     1      18.257 -19.074  19.873  1.00  0.00    -0.083 Cl
ENDBRANCH   9  11
ENDBRANCH   7   9
ENDBRANCH   6   7
ENDBRANCH   5   6
ENDBRANCH   4   5
ENDBRANCH   3   4
BRANCH   3  15
HETATM   15  O2  UNL     1      22.151 -18.437  16.423  1.00  0.00    -0.392 OA
ATOM     16  H2  UNL     1      22.097 -17.556  16.072  1.00  0.00     0.210 HD
ENDBRANCH   3  15
ENDBRANCH   1   3
BRANCH   1  17
HETATM   17  O3  UNL     1      22.601 -20.593  18.596  1.00  0.00    -0.377 OA
ATOM     18  H3  UNL     1      23.150 -20.912  19.302  1.00  0.00     0.211 HD
ENDBRANCH   1  17
BRANCH   1  19
HETATM   19  S1  UNL     1      25.061 -19.591  18.510  1.00  0.00    -0.102 SA
BRANCH  19  20
HETATM   20  C10 UNL     1      25.532 -17.899  18.669  1.00  0.00     0.044 C 
HETATM   21  C11 UNL     1      25.606 -17.298  19.838  1.00  0.00    -0.015 C 
BRANCH  21  22
HETATM   22  C12 UNL     1      26.003 -15.876  19.955  1.00  0.00     0.014 C 
HETATM   23  C13 UNL     1      25.000 -14.921  19.351  1.00  0.00     0.009 C 
HETATM   24  C14 UNL     1      25.389 -13.518  19.761  1.00  0.00     0.001 C 
HETATM   25  C15 UNL     1      26.204 -12.802  18.709  1.00  0.00     0.006 C 
HETATM   26  C16 UNL     1      27.687 -13.092  18.870  1.00  0.00     0.052 C 
HETATM   27  C17 UNL     1      27.869 -14.390  19.571  1.00  0.00    -0.011 C 
HETATM   28  N1  UNL     1      28.604 -14.327  20.614  1.00  0.00    -0.342 N 
HETATM   29  C19 UNL     1      27.298 -15.687  19.182  1.00  0.00     0.061 C 
ATOM     30  H1  UNL     1      28.993 -13.420  20.872  1.00  0.00     0.167 HD
BRANCH  28  31
HETATM   31  C18 UNL     1      28.909 -15.439  21.431  1.00  0.00     0.352 C 
HETATM   32  O4  UNL     1      29.976 -16.117  21.257  1.00  0.00    -0.283 OA
ENDBRANCH  28  31
ENDBRANCH  21  22
ENDBRANCH  19  20
ENDBRANCH   1  19
TORSDOF 13
ENDMDL
MODEL 2
REMARK VINA RESULT: -9.037193015      0.979      1.402
REMARK  13 active torsions:
REMARK  status: ('A' for Active; 'I' for Inactive)
REMARK    1  A    between atoms: C2_2  and  C3_3 
REMARK    2  A    between atoms: C2_2  and  C20_29 
REMARK    3  A    between atoms: C3_3  and  C4_5 
REMARK    4  A    between atoms: C4_5  and  C5_6 
REMARK    5  A    between atoms: C5_6  and  C6_7 
REMARK    6  A    between atoms: C6_7  and  C7_8 
REMARK    7  A    between atoms: C7_8  and  O2_9 
REMARK    8  A    between atoms: C7_8  and  C8_11 
REMARK    9  A    between atoms: C8_11  and  O3_13 
REMARK   10  A    between atoms: C8_11  and  S1_15 
REMARK   11  A    between atoms: S1_15  and  C10_16 
REMARK   12  A    between atoms: C11_17  and  C12_18 
REMARK   13  A    between atoms: N1_24  and  C18_26 
ROOT
HETATM    1  C8  UNL     1      23.378 -19.697  17.900  1.00  0.00     0.132 C 
HETATM    2  C9  UNL     1      23.494 -20.228  16.498  1.00  0.00     0.061 C 
ENDROOT
BRANCH   1   3
HETATM    3  C7  UNL     1      22.655 -18.357  17.930  1.00  0.00     0.163 C 
BRANCH   3   4
HETATM    4  C6  UNL     1      21.621 -18.337  19.032  1.00  0.00     0.036 C 
BRANCH   4   5
HETATM    5  C5  UNL     1      21.266 -16.933  19.466  1.00  0.00     0.010 C 
BRANCH   5   6
HETATM    6  C4  UNL     1      19.963 -16.944  20.176  1.00  0.00     0.079 C 
BRANCH   6   7
HETATM    7  C3  UNL     1      18.778 -17.237  19.370  1.00  0.00     0.135 C 
HETATM    8  O1  UNL     1      18.616 -16.504  18.382  1.00  0.00    -0.297 OA
BRANCH   7   9
HETATM    9  C2  UNL     1      17.781 -18.308  19.628  1.00  0.00     0.105 C 
HETATM   10  C1  UNL     1      17.723 -19.350  18.538  1.00  0.00     0.022 C 
BRANCH   9  11
HETATM   11  C20 UNL     1      16.391 -17.706  19.737  1.00  0.00     0.198 C 
HETATM   12 CL1  UNL     1      15.643 -17.870  18.119  1.00  0.00    -0.083 Cl
HETATM   13 CL2  UNL     1      15.467 -18.704  20.875  1.00  0.00    -0.083 Cl
HETATM   14 CL3  UNL     1      16.456 -16.007  20.239  1.00  0.00    -0.083 Cl
ENDBRANCH   9  11
ENDBRANCH   7   9
ENDBRANCH   6   7
ENDBRANCH   5   6
ENDBRANCH   4   5
ENDBRANCH   3   4
BRANCH   3  15
HETATM   15  O2  UNL     1      22.072 -18.208  16.676  1.00  0.00    -0.392 OA
ATOM     16  H2  UNL     1      21.223 -18.631  16.631  1.00  0.00     0.210 HD
ENDBRANCH   3  15
ENDBRANCH   1   3
BRANCH   1  17
HETATM   17  O3  UNL     1      22.592 -20.570  18.668  1.00  0.00    -0.377 OA
ATOM     18  H3  UNL     1      22.745 -20.324  19.573  1.00  0.00     0.211 HD
ENDBRANCH   1  17
BRANCH   1  19
HETATM   19  S1  UNL     1      25.014 -19.478  18.591  1.00  0.00    -0.102 SA
BRANCH  19  20
HETATM   20  C10 UNL     1      25.506 -17.790  18.718  1.00  0.00     0.044 C 
HETATM   21  C11 UNL     1      25.681 -17.195  19.880  1.00  0.00    -0.015 C 
BRANCH  21  22
HETATM   22  C12 UNL     1      26.093 -15.776  19.970  1.00  0.00     0.014 C 
HETATM   23  C13 UNL     1      25.114 -14.823  19.323  1.00  0.00     0.009 C 
HETATM   24  C14 UNL     1      25.513 -13.416  19.707  1.00  0.00     0.001 C 
HETATM   25  C15 UNL     1      26.357 -12.736  18.654  1.00  0.00     0.006 C 
HETATM   26  C16 UNL     1      27.833 -13.040  18.851  1.00  0.00     0.052 C 
HETATM   27  C17 UNL     1      27.985 -14.323  19.586  1.00  0.00    -0.011 C 
HETATM   28  N1  UNL     1      28.701 -14.243  20.641  1.00  0.00    -0.342 N 
HETATM   29  C19 UNL     1      27.406 -15.622  19.218  1.00  0.00     0.061 C 
ATOM     30  H1  UNL     1      29.097 -13.335  20.885  1.00  0.00     0.167 HD
BRANCH  28  31
HETATM   31  C18 UNL     1      28.976 -15.338  21.491  1.00  0.00     0.352 C 
HETATM   32  O4  UNL     1      29.996 -16.082  21.304  1.00  0.00    -0.283 OA
ENDBRANCH  28  31
ENDBRANCH  21  22
ENDBRANCH  19  20
ENDBRANCH   1  19
TORSDOF 13
ENDMDL
MODEL 3
REMARK VINA RESULT: -9.017086554      4.806      9.733
REMARK  13 active torsions:
REMARK  status: ('A' for Active; 'I' for Inactive)
REMARK    1  A    between atoms: C2_2  and  C3_3 
REMARK    2  A    between atoms: C2_2  and  C20_29 
REMARK    3  A    between atoms: C3_3  and  C4_5 
REMARK    4  A    between atoms: C4_5  and  C5_6 
REMARK    5  A    between atoms: C5_6  and  C6_7 
REMARK    6  A    between atoms: C6_7  and  C7_8 
REMARK    7  A    between atoms: C7_8  and  O2_9 
REMARK    8  A    between atoms: C7_8  and  C8_11 
REMARK    9  A    between atoms: C8_11  and  O3_13 
REMARK   10  A    between atoms: C8_11  and  S1_15 
REMARK   11  A    between atoms: S1_15  and  C10_16 
REMARK   12  A    between atoms: C11_17  and  C12_18 
REMARK   13  A    between atoms: N1_24  and  C18_26 
ROOT
HETATM    1  C8  UNL     1      22.419 -16.534  18.287  1.00  0.00     0.132 C 
HETATM    2  C9  UNL     1      22.251 -17.787  19.102  1.00  0.00     0.061 C 
ENDROOT
BRANCH   1   3
HETATM    3  C7  UNL     1      23.707 -15.804  18.647  1.00  0.00     0.163 C 
BRANCH   3   4
HETATM    4  C6  UNL     1      24.467 -16.562  19.710  1.00  0.00     0.036 C 
BRANCH   4   5
HETATM    5  C5  UNL     1      25.766 -17.138  19.192  1.00  0.00     0.010 C 
BRANCH   5   6
HETATM    6  C4  UNL     1      26.769 -17.169  20.285  1.00  0.00     0.079 C 
BRANCH   6   7
HETATM    7  C3  UNL     1      27.776 -16.108  20.283  1.00  0.00     0.135 C 
HETATM    8  O1  UNL     1      28.575 -16.135  21.232  1.00  0.00    -0.297 OA
BRANCH   7   9
HETATM    9  C2  UNL     1      27.919 -15.031  19.269  1.00  0.00     0.105 C 
HETATM   10  C1  UNL     1      29.353 -14.730  18.911  1.00  0.00     0.022 C 
BRANCH   9  11
HETATM   11  C20 UNL     1      27.314 -13.741  19.795  1.00  0.00     0.198 C 
HETATM   12 CL1  UNL     1      28.688 -12.649  20.148  1.00  0.00    -0.083 Cl
HETATM   13 CL2  UNL     1      26.364 -13.025  18.480  1.00  0.00    -0.083 Cl
HETATM   14 CL3  UNL     1      26.338 -14.026  21.246  1.00  0.00    -0.083 Cl
ENDBRANCH   9  11
ENDBRANCH   7   9
ENDBRANCH   6   7
ENDBRANCH   5   6
ENDBRANCH   4   5
ENDBRANCH   3   4
BRANCH   3  15
HETATM   15  O2  UNL     1      23.321 -14.544  19.090  1.00  0.00    -0.392 OA
ATOM     16  H2  UNL     1      23.610 -13.860  18.498  1.00  0.00     0.210 HD
ENDBRANCH   3  15
ENDBRANCH   1   3
BRANCH   1  17
HETATM   17  O3  UNL     1      22.540 -16.871  16.930  1.00  0.00    -0.377 OA
ATOM     18  H3  UNL     1      22.326 -17.794  16.874  1.00  0.00     0.211 HD
ENDBRANCH   1  17
BRANCH   1  19
HETATM   19  S1  UNL     1      21.038 -15.438  18.589  1.00  0.00    -0.102 SA
BRANCH  19  20
HETATM   20  C10 UNL     1      19.467 -16.204  18.356  1.00  0.00     0.044 C 
HETATM   21  C11 UNL     1      18.338 -15.592  18.647  1.00  0.00    -0.015 C 
BRANCH  21  22
HETATM   22  C12 UNL     1      17.026 -16.250  18.446  1.00  0.00     0.014 C 
HETATM   23  C13 UNL     1      15.928 -15.291  18.044  1.00  0.00     0.009 C 
HETATM   24  C14 UNL     1      14.728 -16.110  17.623  1.00  0.00     0.001 C 
HETATM   25  C15 UNL     1      13.715 -16.280  18.732  1.00  0.00     0.006 C 
HETATM   26  C16 UNL     1      14.040 -17.489  19.594  1.00  0.00     0.052 C 
HETATM   27  C17 UNL     1      15.493 -17.788  19.507  1.00  0.00    -0.011 C 
HETATM   28  N1  UNL     1      15.764 -18.987  19.161  1.00  0.00    -0.342 N 
HETATM   29  C19 UNL     1      16.601 -16.859  19.773  1.00  0.00     0.061 C 
ATOM     30  H1  UNL     1      14.986 -19.621  18.979  1.00  0.00     0.167 HD
BRANCH  28  31
HETATM   31  C18 UNL     1      17.077 -19.489  19.016  1.00  0.00     0.352 C 
HETATM   32  O4  UNL     1      17.589 -19.683  17.863  1.00  0.00    -0.283 OA
ENDBRANCH  28  31
ENDBRANCH  21  22
ENDBRANCH  19  20
ENDBRANCH   1  19
TORSDOF 13
ENDMDL
MODEL 4
REMARK VINA RESULT: -8.906494286      4.325      8.803
REMARK  13 active torsions:
REMARK  status: ('A' for Active; 'I' for Inactive)
REMARK    1  A    between atoms: C2_2  and  C3_3 
REMARK    2  A    between atoms: C2_2  and  C20_29 
REMARK    3  A    between atoms: C3_3  and  C4_5 
REMARK    4  A    between atoms: C4_5  and  C5_6 
REMARK    5  A    between atoms: C5_6  and  C6_7 
REMARK    6  A    between atoms: C6_7  and  C7_8 
REMARK    7  A    between atoms: C7_8  and  O2_9 
REMARK    8  A    between atoms: C7_8  and  C8_11 
REMARK    9  A    between atoms: C8_11  and  O3_13 
REMARK   10  A    between atoms: C8_11  and  S1_15 
REMARK   11  A    between atoms: S1_15  and  C10_16 
REMARK   12  A    between atoms: C11_17  and  C12_18 
REMARK   13  A    between atoms: N1_24  and  C18_26 
ROOT
HETATM    1  C8  UNL     1      23.512 -18.990  18.101  1.00  0.00     0.132 C 
HETATM    2  C9  UNL     1      23.401 -20.185  19.007  1.00  0.00     0.061 C 
ENDROOT
BRANCH   1   3
HETATM    3  C7  UNL     1      24.956 -18.733  17.690  1.00  0.00     0.163 C 
BRANCH   3   4
HETATM    4  C6  UNL     1      25.528 -17.569  18.465  1.00  0.00     0.036 C 
BRANCH   4   5
HETATM    5  C5  UNL     1      26.472 -18.012  19.560  1.00  0.00     0.010 C 
BRANCH   5   6
HETATM    6  C4  UNL     1      26.723 -16.883  20.490  1.00  0.00     0.079 C 
BRANCH   6   7
HETATM    7  C3  UNL     1      27.906 -16.062  20.224  1.00  0.00     0.135 C 
HETATM    8  O1  UNL     1      28.860 -16.246  20.995  1.00  0.00    -0.297 OA
BRANCH   7   9
HETATM    9  C2  UNL     1      28.054 -15.057  19.140  1.00  0.00     0.105 C 
HETATM   10  C1  UNL     1      29.444 -14.479  19.043  1.00  0.00     0.022 C 
BRANCH   9  11
HETATM   11  C20 UNL     1      27.108 -13.894  19.381  1.00  0.00     0.198 C 
HETATM   12 CL1  UNL     1      26.943 -13.737  21.156  1.00  0.00    -0.083 Cl
HETATM   13 CL2  UNL     1      27.900 -12.430  18.768  1.00  0.00    -0.083 Cl
HETATM   14 CL3  UNL     1      25.532 -14.170  18.617  1.00  0.00    -0.083 Cl
ENDBRANCH   9  11
ENDBRANCH   7   9
ENDBRANCH   6   7
ENDBRANCH   5   6
ENDBRANCH   4   5
ENDBRANCH   3   4
BRANCH   3  15
HETATM   15  O2  UNL     1      24.925 -18.477  16.324  1.00  0.00    -0.392 OA
ATOM     16  H2  UNL     1      25.476 -17.739  16.093  1.00  0.00     0.210 HD
ENDBRANCH   3  15
ENDBRANCH   1   3
BRANCH   1  17
HETATM   17  O3  UNL     1      22.817 -19.241  16.908  1.00  0.00    -0.377 OA
ATOM     18  H3  UNL     1      22.005 -18.752  16.975  1.00  0.00     0.211 HD
ENDBRANCH   1  17
BRANCH   1  19
HETATM   19  S1  UNL     1      22.892 -17.541  18.949  1.00  0.00    -0.102 SA
BRANCH  19  20
HETATM   20  C10 UNL     1      21.134 -17.493  19.069  1.00  0.00     0.044 C 
HETATM   21  C11 UNL     1      20.408 -16.623  18.398  1.00  0.00    -0.015 C 
BRANCH  21  22
HETATM   22  C12 UNL     1      18.932 -16.595  18.511  1.00  0.00     0.014 C 
HETATM   23  C13 UNL     1      18.325 -15.264  18.130  1.00  0.00     0.009 C 
HETATM   24  C14 UNL     1      16.826 -15.446  18.038  1.00  0.00     0.001 C 
HETATM   25  C15 UNL     1      16.106 -15.035  19.301  1.00  0.00     0.006 C 
HETATM   26  C16 UNL     1      16.027 -16.187  20.289  1.00  0.00     0.052 C 
HETATM   27  C17 UNL     1      17.135 -17.143  20.031  1.00  0.00    -0.011 C 
HETATM   28  N1  UNL     1      16.758 -18.350  19.849  1.00  0.00    -0.342 N 
HETATM   29  C19 UNL     1      18.570 -16.832  19.969  1.00  0.00     0.061 C 
ATOM     30  H1  UNL     1      15.759 -18.552  19.895  1.00  0.00     0.167 HD
BRANCH  28  31
HETATM   31  C18 UNL     1      17.641 -19.422  19.588  1.00  0.00     0.352 C 
HETATM   32  O4  UNL     1      17.918 -19.777  18.394  1.00  0.00    -0.283 OA
ENDBRANCH  28  31
ENDBRANCH  21  22
ENDBRANCH  19  20
ENDBRANCH   1  19
TORSDOF 13
ENDMDL
MODEL 5
REMARK VINA RESULT: -8.847839941      4.956      9.105
REMARK  13 active torsions:
REMARK  status: ('A' for Active; 'I' for Inactive)
REMARK    1  A    between atoms: C2_2  and  C3_3 
REMARK    2  A    between atoms: C2_2  and  C20_29 
REMARK    3  A    between atoms: C3_3  and  C4_5 
REMARK    4  A    between atoms: C4_5  and  C5_6 
REMARK    5  A    between atoms: C5_6  and  C6_7 
REMARK    6  A    between atoms: C6_7  and  C7_8 
REMARK    7  A    between atoms: C7_8  and  O2_9 
REMARK    8  A    between atoms: C7_8  and  C8_11 
REMARK    9  A    between atoms: C8_11  and  O3_13 
REMARK   10  A    between atoms: C8_11  and  S1_15 
REMARK   11  A    between atoms: S1_15  and  C10_16 
REMARK   12  A    between atoms: C11_17  and  C12_18 
REMARK   13  A    between atoms: N1_24  and  C18_26 
ROOT
HETATM    1  C8  UNL     1      23.481 -17.316  17.538  1.00  0.00     0.132 C 
HETATM    2  C9  UNL     1      22.602 -18.193  16.691  1.00  0.00     0.061 C 
ENDROOT
BRANCH   1   3
HETATM    3  C7  UNL     1      24.261 -18.130  18.562  1.00  0.00     0.163 C 
BRANCH   3   4
HETATM    4  C6  UNL     1      24.165 -17.493  19.929  1.00  0.00     0.036 C 
BRANCH   4   5
HETATM    5  C5  UNL     1      25.508 -17.026  20.444  1.00  0.00     0.010 C 
BRANCH   5   6
HETATM    6  C4  UNL     1      25.533 -15.544  20.502  1.00  0.00     0.079 C 
BRANCH   6   7
HETATM    7  C3  UNL     1      26.389 -14.862  19.531  1.00  0.00     0.135 C 
HETATM    8  O1  UNL     1      26.055 -15.000  18.344  1.00  0.00    -0.297 OA
BRANCH   7   9
HETATM    9  C2  UNL     1      27.588 -14.041  19.839  1.00  0.00     0.105 C 
HETATM   10  C1  UNL     1      27.735 -12.833  18.946  1.00  0.00     0.022 C 
BRANCH   9  11
HETATM   11  C20 UNL     1      28.845 -14.875  19.664  1.00  0.00     0.198 C 
HETATM   12 CL1  UNL     1      29.956 -13.905  18.650  1.00  0.00    -0.083 Cl
HETATM   13 CL2  UNL     1      29.584 -15.066  21.265  1.00  0.00    -0.083 Cl
HETATM   14 CL3  UNL     1      28.488 -16.436  18.903  1.00  0.00    -0.083 Cl
ENDBRANCH   9  11
ENDBRANCH   7   9
ENDBRANCH   6   7
ENDBRANCH   5   6
ENDBRANCH   4   5
ENDBRANCH   3   4
BRANCH   3  15
HETATM   15  O2  UNL     1      25.572 -18.167  18.103  1.00  0.00    -0.392 OA
ATOM     16  H2  UNL     1      26.007 -18.975  18.347  1.00  0.00     0.210 HD
ENDBRANCH   3  15
ENDBRANCH   1   3
BRANCH   1  17
HETATM   17  O3  UNL     1      24.447 -16.699  16.728  1.00  0.00    -0.377 OA
ATOM     18  H3  UNL     1      25.130 -16.407  17.319  1.00  0.00     0.211 HD
ENDBRANCH   1  17
BRANCH   1  19
HETATM   19  S1  UNL     1      22.470 -16.122  18.407  1.00  0.00    -0.102 SA
BRANCH  19  20
HETATM   20  C10 UNL     1      20.789 -16.622  18.590  1.00  0.00     0.044 C 
HETATM   21  C11 UNL     1      19.784 -15.831  18.278  1.00  0.00    -0.015 C 
BRANCH  21  22
HETATM   22  C12 UNL     1      18.377 -16.265  18.439  1.00  0.00     0.014 C 
HETATM   23  C13 UNL     1      17.372 -15.190  18.093  1.00  0.00     0.009 C 
HETATM   24  C14 UNL     1      16.003 -15.831  18.047  1.00  0.00     0.001 C 
HETATM   25  C15 UNL     1      15.234 -15.668  19.337  1.00  0.00     0.006 C 
HETATM   26  C16 UNL     1      15.553 -16.788  20.314  1.00  0.00     0.052 C 
HETATM   27  C17 UNL     1      16.895 -17.350  20.009  1.00  0.00    -0.011 C 
HETATM   28  N1  UNL     1      16.906 -18.614  19.825  1.00  0.00    -0.342 N 
HETATM   29  C19 UNL     1      18.157 -16.605  19.904  1.00  0.00     0.061 C 
ATOM     30  H1  UNL     1      16.023 -19.118  19.900  1.00  0.00     0.167 HD
BRANCH  28  31
HETATM   31  C18 UNL     1      18.071 -19.355  19.523  1.00  0.00     0.352 C 
HETATM   32  O4  UNL     1      18.329 -19.728  18.330  1.00  0.00    -0.283 OA
ENDBRANCH  28  31
ENDBRANCH  21  22
ENDBRANCH  19  20
ENDBRANCH   1  19
TORSDOF 13
ENDMDL
