MODEL 1
REMARK VINA RESULT: -7.907991634      0.000      0.000
REMARK  10 active torsions:
REMARK  status: ('A' for Active; 'I' for Inactive)
REMARK    1  A    between atoms: C5_6  and  N1_7 
REMARK    2  A    between atoms: N1_7  and  C6_9 
REMARK    3  A    between atoms: C6_9  and  C7_10 
REMARK    4  A    between atoms: C7_10  and  C8_11 
REMARK    5  A    between atoms: C8_11  and  C9_12 
REMARK    6  A    between atoms: C9_12  and  C10_13 
REMARK    7  A    between atoms: C10_13  and  C11_14 
REMARK    8  A    between atoms: C11_14  and  N2_15 
REMARK    9  A    between atoms: N2_15  and  S1_17 
REMARK   10  A    between atoms: N4_28  and  C18_29 
ROOT
HETATM    1  C1  UNL     1      26.263 -19.275  19.596  1.00  0.00     0.070 C 
HETATM    2  C2  UNL     1      25.247 -18.273  19.230  1.00  0.00     0.032 A 
HETATM    3  C3  UNL     1      23.918 -18.524  18.910  1.00  0.00     0.071 A 
HETATM    4 CL1  UNL     1      23.222 -20.131  18.853  1.00  0.00    -0.081 Cl
HETATM    5  C4  UNL     1      23.264 -17.341  18.665  1.00  0.00     0.044 A 
HETATM    6  C5  UNL     1      21.948 -17.063  18.328  1.00  0.00     0.064 A 
HETATM    7  C13 UNL     1      21.587 -15.754  18.171  1.00  0.00     0.062 A 
HETATM    8 CL2  UNL     1      19.948 -15.331  17.754  1.00  0.00    -0.082 Cl
HETATM    9  C14 UNL     1      22.520 -14.764  18.345  1.00  0.00     0.051 A 
HETATM   10  C15 UNL     1      23.863 -15.020  18.685  1.00  0.00     0.074 A 
HETATM   11  C16 UNL     1      24.739 -13.902  18.884  1.00  0.00     0.102 C 
HETATM   12  N3  UNL     1      25.413 -12.978  19.050  1.00  0.00    -0.191 NA
HETATM   13  C17 UNL     1      24.225 -16.331  18.842  1.00  0.00     0.071 A 
HETATM   14  N4  UNL     1      25.412 -16.927  19.179  1.00  0.00    -0.329 N 
ENDROOT
BRANCH  14  15
HETATM   15  C18 UNL     1      26.638 -16.228  19.399  1.00  0.00     0.182 C 
HETATM   16  C19 UNL     1      27.830 -16.775  18.584  1.00  0.00     0.050 C 
HETATM   17 CL3  UNL     1      27.195 -16.336  21.082  1.00  0.00    -0.102 Cl
ENDBRANCH  14  15
BRANCH   6  18
HETATM   18  N1  UNL     1      21.035 -18.144  18.146  1.00  0.00    -0.388 N 
ATOM     19  H1  UNL     1      20.993 -18.648  17.261  1.00  0.00     0.159 HD
BRANCH  18  20
HETATM   20  C6  UNL     1      20.165 -18.511  19.250  1.00  0.00     0.120 C 
BRANCH  20  21
HETATM   21  C7  UNL     1      18.730 -18.191  19.024  1.00  0.00     0.020 C 
BRANCH  21  22
HETATM   22  C8  UNL     1      17.808 -19.362  18.912  1.00  0.00     0.002 C 
BRANCH  22  23
HETATM   23  C9  UNL     1      16.490 -18.979  18.277  1.00  0.00     0.002 C 
BRANCH  23  24
HETATM   24  C10 UNL     1      15.406 -18.948  19.320  1.00  0.00     0.020 C 
BRANCH  24  25
HETATM   25  C11 UNL     1      14.680 -17.634  19.341  1.00  0.00     0.132 C 
BRANCH  25  26
HETATM   26  N2  UNL     1      15.621 -16.660  19.925  1.00  0.00    -0.320 N 
ATOM     27  H2  UNL     1      16.188 -16.784  20.764  1.00  0.00     0.172 HD
BRANCH  26  28
HETATM   28  S1  UNL     1      15.570 -15.263  18.901  1.00  0.00     0.222 S 
HETATM   29  C12 UNL     1      14.072 -15.298  17.946  1.00  0.00     0.185 C 
HETATM   30  O1  UNL     1      15.569 -14.022  19.765  1.00  0.00    -0.206 OA
HETATM   31  O2  UNL     1      16.747 -15.202  17.992  1.00  0.00    -0.206 OA
ENDBRANCH  26  28
ENDBRANCH  25  26
ENDBRANCH  24  25
ENDBRANCH  23  24
ENDBRANCH  22  23
ENDBRANCH  21  22
ENDBRANCH  20  21
ENDBRANCH  18  20
ENDBRANCH   6  18
TORSDOF 10
ENDMDL
MODEL 2
REMARK VINA RESULT: -7.800728814      2.109      2.203
REMARK  10 active torsions:
REMARK  status: ('A' for Active; 'I' for Inactive)
REMARK    1  A    between atoms: C5_6  and  N1_7 
REMARK    2  A    between atoms: N1_7  and  C6_9 
REMARK    3  A    between atoms: C6_9  and  C7_10 
REMARK    4  A    between atoms: C7_10  and  C8_11 
REMARK    5  A    between atoms: C8_11  and  C9_12 
REMARK    6  A    between atoms: C9_12  and  C10_13 
REMARK    7  A    between atoms: C10_13  and  C11_14 
REMARK    8  A    between atoms: C11_14  and  N2_15 
REMARK    9  A    between atoms: N2_15  and  S1_17 
REMARK   10  A    between atoms: N4_28  and  C18_29 
ROOT
HETATM    1  C1  UNL     1      25.812 -19.595  19.323  1.00  0.00     0.070 C 
HETATM    2  C2  UNL     1      24.792 -18.561  19.082  1.00  0.00     0.032 A 
HETATM    3  C3  UNL     1      23.441 -18.774  18.834  1.00  0.00     0.071 A 
HETATM    4 CL1  UNL     1      22.716 -20.366  18.730  1.00  0.00    -0.081 Cl
HETATM    5  C4  UNL     1      22.792 -17.572  18.700  1.00  0.00     0.044 A 
HETATM    6  C5  UNL     1      21.463 -17.257  18.466  1.00  0.00     0.064 A 
HETATM    7  C13 UNL     1      21.114 -15.937  18.408  1.00  0.00     0.062 A 
HETATM    8 CL2  UNL     1      19.459 -15.469  18.124  1.00  0.00    -0.082 Cl
HETATM    9  C14 UNL     1      22.073 -14.971  18.578  1.00  0.00     0.051 A 
HETATM   10  C15 UNL     1      23.430 -15.263  18.815  1.00  0.00     0.074 A 
HETATM   11  C16 UNL     1      24.335 -14.170  19.022  1.00  0.00     0.102 C 
HETATM   12  N3  UNL     1      25.034 -13.266  19.197  1.00  0.00    -0.191 NA
HETATM   13  C17 UNL     1      23.779 -16.586  18.873  1.00  0.00     0.071 A 
HETATM   14  N4  UNL     1      24.975 -17.216  19.098  1.00  0.00    -0.329 N 
ENDROOT
BRANCH  14  15
HETATM   15  C18 UNL     1      26.225 -16.546  19.278  1.00  0.00     0.182 C 
HETATM   16  C19 UNL     1      27.331 -17.004  18.302  1.00  0.00     0.050 C 
HETATM   17 CL3  UNL     1      26.932 -16.838  20.880  1.00  0.00    -0.102 Cl
ENDBRANCH  14  15
BRANCH   6  18
HETATM   18  N1  UNL     1      20.522 -18.314  18.282  1.00  0.00    -0.388 N 
ATOM     19  H1  UNL     1      20.488 -18.835  17.406  1.00  0.00     0.159 HD
BRANCH  18  20
HETATM   20  C6  UNL     1      19.613 -18.632  19.370  1.00  0.00     0.120 C 
BRANCH  20  21
HETATM   21  C7  UNL     1      18.230 -18.956  18.928  1.00  0.00     0.020 C 
BRANCH  21  22
HETATM   22  C8  UNL     1      17.170 -17.981  19.327  1.00  0.00     0.002 C 
BRANCH  22  23
HETATM   23  C9  UNL     1      15.862 -18.253  18.619  1.00  0.00     0.002 C 
BRANCH  23  24
HETATM   24  C10 UNL     1      15.318 -16.978  18.033  1.00  0.00     0.020 C 
BRANCH  24  25
HETATM   25  C11 UNL     1      13.910 -16.708  18.477  1.00  0.00     0.132 C 
BRANCH  25  26
HETATM   26  N2  UNL     1      13.183 -16.264  17.273  1.00  0.00    -0.320 N 
ATOM     27  H2  UNL     1      13.589 -15.888  16.416  1.00  0.00     0.172 HD
BRANCH  26  28
HETATM   28  S1  UNL     1      11.500 -16.509  17.607  1.00  0.00     0.222 S 
HETATM   29  C12 UNL     1      10.660 -14.946  17.537  1.00  0.00     0.185 C 
HETATM   30  O1  UNL     1      10.919 -17.423  16.552  1.00  0.00    -0.206 OA
HETATM   31  O2  UNL     1      11.288 -17.137  18.941  1.00  0.00    -0.206 OA
ENDBRANCH  26  28
ENDBRANCH  25  26
ENDBRANCH  24  25
ENDBRANCH  23  24
ENDBRANCH  22  23
ENDBRANCH  21  22
ENDBRANCH  20  21
ENDBRANCH  18  20
ENDBRANCH   6  18
TORSDOF 10
ENDMDL
MODEL 3
REMARK VINA RESULT: -7.678606772      1.136      1.298
REMARK  10 active torsions:
REMARK  status: ('A' for Active; 'I' for Inactive)
REMARK    1  A    between atoms: C5_6  and  N1_7 
REMARK    2  A    between atoms: N1_7  and  C6_9 
REMARK    3  A    between atoms: C6_9  and  C7_10 
REMARK    4  A    between atoms: C7_10  and  C8_11 
REMARK    5  A    between atoms: C8_11  and  C9_12 
REMARK    6  A    between atoms: C9_12  and  C10_13 
REMARK    7  A    between atoms: C10_13  and  C11_14 
REMARK    8  A    between atoms: C11_14  and  N2_15 
REMARK    9  A    between atoms: N2_15  and  S1_17 
REMARK   10  A    between atoms: N4_28  and  C18_29 
ROOT
HETATM    1  C1  UNL     1      26.288 -19.230  19.822  1.00  0.00     0.070 C 
HETATM    2  C2  UNL     1      25.276 -18.248  19.399  1.00  0.00     0.032 A 
HETATM    3  C3  UNL     1      23.952 -18.516  19.069  1.00  0.00     0.071 A 
HETATM    4 CL1  UNL     1      23.262 -20.126  19.068  1.00  0.00    -0.081 Cl
HETATM    5  C4  UNL     1      23.299 -17.347  18.765  1.00  0.00     0.044 A 
HETATM    6  C5  UNL     1      21.988 -17.087  18.397  1.00  0.00     0.064 A 
HETATM    7  C13 UNL     1      21.627 -15.787  18.179  1.00  0.00     0.062 A 
HETATM    8 CL2  UNL     1      19.993 -15.387  17.721  1.00  0.00    -0.082 Cl
HETATM    9  C14 UNL     1      22.554 -14.788  18.327  1.00  0.00     0.051 A 
HETATM   10  C15 UNL     1      23.892 -15.024  18.698  1.00  0.00     0.074 A 
HETATM   11  C16 UNL     1      24.762 -13.896  18.865  1.00  0.00     0.102 C 
HETATM   12  N3  UNL     1      25.430 -12.964  19.003  1.00  0.00    -0.191 NA
HETATM   13  C17 UNL     1      24.255 -16.327  18.915  1.00  0.00     0.071 A 
HETATM   14  N4  UNL     1      25.438 -16.905  19.295  1.00  0.00    -0.329 N 
ENDROOT
BRANCH  14  15
HETATM   15  C18 UNL     1      26.659 -16.192  19.505  1.00  0.00     0.182 C 
HETATM   16  C19 UNL     1      27.839 -16.699  18.646  1.00  0.00     0.050 C 
HETATM   17 CL3  UNL     1      27.258 -16.339  21.170  1.00  0.00    -0.102 Cl
ENDBRANCH  14  15
BRANCH   6  18
HETATM   18  N1  UNL     1      21.081 -18.178  18.246  1.00  0.00    -0.388 N 
ATOM     19  H1  UNL     1      21.057 -18.720  17.383  1.00  0.00     0.159 HD
BRANCH  18  20
HETATM   20  C6  UNL     1      20.191 -18.498  19.348  1.00  0.00     0.120 C 
BRANCH  20  21
HETATM   21  C7  UNL     1      18.761 -18.184  19.084  1.00  0.00     0.020 C 
BRANCH  21  22
HETATM   22  C8  UNL     1      17.849 -19.360  18.939  1.00  0.00     0.002 C 
BRANCH  22  23
HETATM   23  C9  UNL     1      16.517 -18.965  18.341  1.00  0.00     0.002 C 
BRANCH  23  24
HETATM   24  C10 UNL     1      15.448 -18.997  19.400  1.00  0.00     0.020 C 
BRANCH  24  25
HETATM   25  C11 UNL     1      15.095 -17.622  19.886  1.00  0.00     0.132 C 
BRANCH  25  26
HETATM   26  N2  UNL     1      13.695 -17.395  19.480  1.00  0.00    -0.320 N 
ATOM     27  H2  UNL     1      12.865 -17.845  19.864  1.00  0.00     0.172 HD
BRANCH  26  28
HETATM   28  S1  UNL     1      13.746 -16.208  18.217  1.00  0.00     0.222 S 
HETATM   29  C12 UNL     1      15.134 -15.133  18.485  1.00  0.00     0.185 C 
HETATM   30  O1  UNL     1      13.922 -16.912  16.890  1.00  0.00    -0.206 OA
HETATM   31  O2  UNL     1      12.491 -15.409  18.161  1.00  0.00    -0.206 OA
ENDBRANCH  26  28
ENDBRANCH  25  26
ENDBRANCH  24  25
ENDBRANCH  23  24
ENDBRANCH  22  23
ENDBRANCH  21  22
ENDBRANCH  20  21
ENDBRANCH  18  20
ENDBRANCH   6  18
TORSDOF 10
ENDMDL
MODEL 4
REMARK VINA RESULT: -7.504050490      1.958      3.104
REMARK  10 active torsions:
REMARK  status: ('A' for Active; 'I' for Inactive)
REMARK    1  A    between atoms: C5_6  and  N1_7 
REMARK    2  A    between atoms: N1_7  and  C6_9 
REMARK    3  A    between atoms: C6_9  and  C7_10 
REMARK    4  A    between atoms: C7_10  and  C8_11 
REMARK    5  A    between atoms: C8_11  and  C9_12 
REMARK    6  A    between atoms: C9_12  and  C10_13 
REMARK    7  A    between atoms: C10_13  and  C11_14 
REMARK    8  A    between atoms: C11_14  and  N2_15 
REMARK    9  A    between atoms: N2_15  and  S1_17 
REMARK   10  A    between atoms: N4_28  and  C18_29 
ROOT
HETATM    1  C1  UNL     1      29.333 -16.367  20.392  1.00  0.00     0.070 C 
HETATM    2  C2  UNL     1      28.008 -15.903  19.945  1.00  0.00     0.032 A 
HETATM    3  C3  UNL     1      26.811 -16.603  20.043  1.00  0.00     0.071 A 
HETATM    4 CL1  UNL     1      26.688 -18.221  20.703  1.00  0.00    -0.081 Cl
HETATM    5  C4  UNL     1      25.779 -15.836  19.561  1.00  0.00     0.044 A 
HETATM    6  C5  UNL     1      24.417 -16.075  19.459  1.00  0.00     0.064 A 
HETATM    7  C13 UNL     1      23.627 -15.085  18.947  1.00  0.00     0.062 A 
HETATM    8 CL2  UNL     1      21.905 -15.314  18.796  1.00  0.00    -0.082 Cl
HETATM    9  C14 UNL     1      24.191 -13.899  18.551  1.00  0.00     0.051 A 
HETATM   10  C15 UNL     1      25.571 -13.631  18.643  1.00  0.00     0.074 A 
HETATM   11  C16 UNL     1      26.041 -12.338  18.239  1.00  0.00     0.102 C 
HETATM   12  N3  UNL     1      26.383 -11.282  17.918  1.00  0.00    -0.191 NA
HETATM   13  C17 UNL     1      26.363 -14.624  19.155  1.00  0.00     0.071 A 
HETATM   14  N4  UNL     1      27.709 -14.698  19.397  1.00  0.00    -0.329 N 
ENDROOT
BRANCH  14  15
HETATM   15  C18 UNL     1      28.650 -13.670  19.076  1.00  0.00     0.182 C 
HETATM   16  C19 UNL     1      30.025 -14.198  18.613  1.00  0.00     0.050 C 
HETATM   17 CL3  UNL     1      29.042 -12.643  20.471  1.00  0.00    -0.102 Cl
ENDBRANCH  14  15
BRANCH   6  18
HETATM   18  N1  UNL     1      23.902 -17.339  19.874  1.00  0.00    -0.388 N 
ATOM     19  H1  UNL     1      23.738 -17.536  20.861  1.00  0.00     0.159 HD
BRANCH  18  20
HETATM   20  C6  UNL     1      23.615 -18.338  18.860  1.00  0.00     0.120 C 
BRANCH  20  21
HETATM   21  C7  UNL     1      22.310 -19.030  19.043  1.00  0.00     0.020 C 
BRANCH  21  22
HETATM   22  C8  UNL     1      21.114 -18.328  18.486  1.00  0.00     0.002 C 
BRANCH  22  23
HETATM   23  C9  UNL     1      19.958 -18.330  19.461  1.00  0.00     0.002 C 
BRANCH  23  24
HETATM   24  C10 UNL     1      18.756 -17.675  18.837  1.00  0.00     0.020 C 
BRANCH  24  25
HETATM   25  C11 UNL     1      18.349 -16.429  19.569  1.00  0.00     0.132 C 
BRANCH  25  26
HETATM   26  N2  UNL     1      17.545 -15.642  18.615  1.00  0.00    -0.320 N 
ATOM     27  H2  UNL     1      17.863 -15.235  17.735  1.00  0.00     0.172 HD
BRANCH  26  28
HETATM   28  S1  UNL     1      15.951 -15.548  19.289  1.00  0.00     0.222 S 
HETATM   29  C12 UNL     1      14.780 -16.150  18.096  1.00  0.00     0.185 C 
HETATM   30  O1  UNL     1      15.887 -16.425  20.520  1.00  0.00    -0.206 OA
HETATM   31  O2  UNL     1      15.600 -14.157  19.684  1.00  0.00    -0.206 OA
ENDBRANCH  26  28
ENDBRANCH  25  26
ENDBRANCH  24  25
ENDBRANCH  23  24
ENDBRANCH  22  23
ENDBRANCH  21  22
ENDBRANCH  20  21
ENDBRANCH  18  20
ENDBRANCH   6  18
TORSDOF 10
ENDMDL
MODEL 5
REMARK VINA RESULT: -7.475441824      1.811      2.121
REMARK  10 active torsions:
REMARK  status: ('A' for Active; 'I' for Inactive)
REMARK    1  A    between atoms: C5_6  and  N1_7 
REMARK    2  A    between atoms: N1_7  and  C6_9 
REMARK    3  A    between atoms: C6_9  and  C7_10 
REMARK    4  A    between atoms: C7_10  and  C8_11 
REMARK    5  A    between atoms: C8_11  and  C9_12 
REMARK    6  A    between atoms: C9_12  and  C10_13 
REMARK    7  A    between atoms: C10_13  and  C11_14 
REMARK    8  A    between atoms: C11_14  and  N2_15 
REMARK    9  A    between atoms: N2_15  and  S1_17 
REMARK   10  A    between atoms: N4_28  and  C18_29 
ROOT
HETATM    1  C1  UNL     1      26.658 -18.940  19.986  1.00  0.00     0.070 C 
HETATM    2  C2  UNL     1      25.659 -17.975  19.496  1.00  0.00     0.032 A 
HETATM    3  C3  UNL     1      24.353 -18.259  19.115  1.00  0.00     0.071 A 
HETATM    4 CL1  UNL     1      23.673 -19.874  19.123  1.00  0.00    -0.081 Cl
HETATM    5  C4  UNL     1      23.707 -17.103  18.755  1.00  0.00     0.044 A 
HETATM    6  C5  UNL     1      22.412 -16.861  18.325  1.00  0.00     0.064 A 
HETATM    7  C13 UNL     1      22.052 -15.569  18.061  1.00  0.00     0.062 A 
HETATM    8 CL2  UNL     1      20.437 -15.191  17.522  1.00  0.00    -0.082 Cl
HETATM    9  C14 UNL     1      22.966 -14.560  18.224  1.00  0.00     0.051 A 
HETATM   10  C15 UNL     1      24.289 -14.778  18.658  1.00  0.00     0.074 A 
HETATM   11  C16 UNL     1      25.143 -13.641  18.835  1.00  0.00     0.102 C 
HETATM   12  N3  UNL     1      25.800 -12.701  18.979  1.00  0.00    -0.191 NA
HETATM   13  C17 UNL     1      24.649 -16.073  18.922  1.00  0.00     0.071 A 
HETATM   14  N4  UNL     1      25.818 -16.633  19.367  1.00  0.00    -0.329 N 
ENDROOT
BRANCH  14  15
HETATM   15  C18 UNL     1      27.025 -15.908  19.612  1.00  0.00     0.182 C 
HETATM   16  C19 UNL     1      28.209 -16.337  18.719  1.00  0.00     0.050 C 
HETATM   17 CL3  UNL     1      27.637 -16.138  21.262  1.00  0.00    -0.102 Cl
ENDBRANCH  14  15
BRANCH   6  18
HETATM   18  N1  UNL     1      21.518 -17.961  18.161  1.00  0.00    -0.388 N 
ATOM     19  H1  UNL     1      21.482 -18.477  17.282  1.00  0.00     0.159 HD
BRANCH  18  20
HETATM   20  C6  UNL     1      20.661 -18.330  19.273  1.00  0.00     0.120 C 
BRANCH  20  21
HETATM   21  C7  UNL     1      19.209 -18.127  19.013  1.00  0.00     0.020 C 
BRANCH  21  22
HETATM   22  C8  UNL     1      18.571 -16.980  19.727  1.00  0.00     0.002 C 
BRANCH  22  23
HETATM   23  C9  UNL     1      17.789 -16.096  18.781  1.00  0.00     0.002 C 
BRANCH  23  24
HETATM   24  C10 UNL     1      16.450 -15.760  19.379  1.00  0.00     0.020 C 
BRANCH  24  25
HETATM   25  C11 UNL     1      15.339 -16.557  18.760  1.00  0.00     0.132 C 
BRANCH  25  26
HETATM   26  N2  UNL     1      14.589 -17.148  19.884  1.00  0.00    -0.320 N 
ATOM     27  H2  UNL     1      13.922 -16.674  20.492  1.00  0.00     0.172 HD
BRANCH  26  28
HETATM   28  S1  UNL     1      15.069 -18.813  19.963  1.00  0.00     0.222 S 
HETATM   29  C12 UNL     1      15.864 -19.261  18.439  1.00  0.00     0.185 C 
HETATM   30  O1  UNL     1      16.054 -18.984  21.097  1.00  0.00    -0.206 OA
HETATM   31  O2  UNL     1      13.907 -19.710  20.210  1.00  0.00    -0.206 OA
ENDBRANCH  26  28
ENDBRANCH  25  26
ENDBRANCH  24  25
ENDBRANCH  23  24
ENDBRANCH  22  23
ENDBRANCH  21  22
ENDBRANCH  20  21
ENDBRANCH  18  20
ENDBRANCH   6  18
TORSDOF 10
ENDMDL
