MODEL 1
REMARK VINA RESULT: -10.196158338      0.000      0.000
REMARK  10 active torsions:
REMARK  status: ('A' for Active; 'I' for Inactive)
REMARK    1  A    between atoms: C6_8  and  O1_9 
REMARK    2  A    between atoms: O1_9  and  C7_10 
REMARK    3  A    between atoms: C9_12  and  O2_13 
REMARK    4  A    between atoms: O2_13  and  C10_14 
REMARK    5  A    between atoms: C10_14  and  C13_17 
REMARK    6  A    between atoms: C13_17  and  C14_18 
REMARK    7  A    between atoms: C14_18  and  N1_19 
REMARK    8  A    between atoms: C18_25  and  N3_26 
REMARK    9  A    between atoms: C19_31  and  C20_32 
REMARK   10  A    between atoms: C20_32  and  C21_33 
ROOT
HETATM    1  C7  UNL     1      20.637 -16.523  18.339  1.00  0.00     0.167 A 
HETATM    2  C8  UNL     1      19.611 -15.692  17.934  1.00  0.00     0.113 A 
HETATM    3  C9  UNL     1      18.289 -15.900  18.255  1.00  0.00     0.162 A 
HETATM    4  N2  UNL     1      18.015 -16.971  19.003  1.00  0.00    -0.171 N 
ATOM      5  H2  UNL     1      17.048 -17.160  19.266  1.00  0.00     0.186 HD
HETATM    6  C18 UNL     1      18.995 -17.816  19.424  1.00  0.00     0.679 A 
HETATM    7  N4  UNL     1      20.271 -17.600  19.101  1.00  0.00    -0.170 N 
ATOM      8  H4  UNL     1      20.987 -18.249  19.428  1.00  0.00     0.186 HD
ENDROOT
BRANCH   1   9
HETATM    9  O1  UNL     1      21.952 -16.341  18.030  1.00  0.00    -0.289 OA
BRANCH   9  10
HETATM   10  C6  UNL     1      22.947 -17.283  17.949  1.00  0.00     0.123 A 
HETATM   11  C5  UNL     1      22.872 -18.295  17.038  1.00  0.00     0.153 A 
HETATM   12  C4  UNL     1      23.907 -19.223  16.999  1.00  0.00     0.088 A 
HETATM   13  F2  UNL     1      21.814 -18.428  16.170  1.00  0.00    -0.203 F 
HETATM   14  C3  UNL     1      24.950 -19.080  17.876  1.00  0.00     0.126 A 
HETATM   15  C2  UNL     1      25.025 -18.041  18.814  1.00  0.00    -0.014 A 
HETATM   16  F1  UNL     1      25.967 -19.972  17.856  1.00  0.00    -0.205 F 
HETATM   17  C1  UNL     1      26.162 -18.028  19.767  1.00  0.00     0.052 C 
HETATM   18  C19 UNL     1      24.020 -17.137  18.848  1.00  0.00    -0.012 A 
BRANCH  18  19
HETATM   19  C20 UNL     1      23.989 -15.973  19.726  1.00  0.00     0.047 C 
BRANCH  19  20
HETATM   20  C21 UNL     1      24.478 -14.672  19.241  1.00  0.00    -0.007 C 
HETATM   21  C22 UNL     1      25.567 -14.585  18.263  1.00  0.00     0.008 C 
HETATM   22  C23 UNL     1      26.873 -14.601  19.035  1.00  0.00     0.037 C 
HETATM   23  C24 UNL     1      26.513 -14.348  20.482  1.00  0.00     0.170 C 
HETATM   24  F3  UNL     1      27.335 -13.409  21.040  1.00  0.00    -0.249 F 
HETATM   25  C25 UNL     1      25.057 -13.940  20.479  1.00  0.00     0.042 C 
ENDBRANCH  19  20
ENDBRANCH  18  19
ENDBRANCH   9  10
ENDBRANCH   1   9
BRANCH   3  26
HETATM   26  O2  UNL     1      17.257 -15.076  17.849  1.00  0.00    -0.325 OA
BRANCH  26  27
HETATM   27  C10 UNL     1      15.939 -15.210  18.340  1.00  0.00     0.064 C 
HETATM   28  C11 UNL     1      15.934 -14.625  19.800  1.00  0.00     0.046 C 
HETATM   29  C12 UNL     1      14.907 -14.402  17.634  1.00  0.00     0.046 C 
BRANCH  27  30
HETATM   30  C13 UNL     1      15.622 -16.651  18.525  1.00  0.00     0.068 C 
BRANCH  30  31
HETATM   31  C14 UNL     1      14.244 -16.977  18.888  1.00  0.00     0.275 C 
BRANCH  31  32
HETATM   32  N1  UNL     1      14.066 -17.981  19.882  1.00  0.00     0.088 N 
HETATM   33  C15 UNL     1      15.008 -17.729  21.045  1.00  0.00     0.274 C 
HETATM   34  C16 UNL     1      14.996 -19.230  21.214  1.00  0.00     0.060 C 
HETATM   35  C17 UNL     1      14.968 -19.158  19.671  1.00  0.00     0.274 C 
ENDBRANCH  31  32
ENDBRANCH  30  31
ENDBRANCH  27  30
ENDBRANCH  26  27
ENDBRANCH   3  26
BRANCH   6  36
HETATM   36  N3  UNL     1      18.680 -18.844  20.158  1.00  0.00    -0.234 N 
ATOM     37  H32 UNL     1      18.281 -18.699  21.085  1.00  0.00     0.174 HD
ATOM     38  H31 UNL     1      18.831 -19.784  19.793  1.00  0.00     0.174 HD
ENDBRANCH   6  36
TORSDOF 10
ENDMDL
MODEL 2
REMARK VINA RESULT: -10.117781655      1.984      4.686
REMARK  10 active torsions:
REMARK  status: ('A' for Active; 'I' for Inactive)
REMARK    1  A    between atoms: C6_8  and  O1_9 
REMARK    2  A    between atoms: O1_9  and  C7_10 
REMARK    3  A    between atoms: C9_12  and  O2_13 
REMARK    4  A    between atoms: O2_13  and  C10_14 
REMARK    5  A    between atoms: C10_14  and  C13_17 
REMARK    6  A    between atoms: C13_17  and  C14_18 
REMARK    7  A    between atoms: C14_18  and  N1_19 
REMARK    8  A    between atoms: C18_25  and  N3_26 
REMARK    9  A    between atoms: C19_31  and  C20_32 
REMARK   10  A    between atoms: C20_32  and  C21_33 
ROOT
HETATM    1  C7  UNL     1      22.563 -16.340  19.452  1.00  0.00     0.167 A 
HETATM    2  C8  UNL     1      21.658 -17.380  19.373  1.00  0.00     0.113 A 
HETATM    3  C9  UNL     1      20.519 -17.343  18.602  1.00  0.00     0.162 A 
HETATM    4  N2  UNL     1      20.306 -16.228  17.901  1.00  0.00    -0.171 N 
ATOM      5  H2  UNL     1      19.474 -16.160  17.314  1.00  0.00     0.186 HD
HETATM    6  C18 UNL     1      21.172 -15.178  17.950  1.00  0.00     0.679 A 
HETATM    7  N4  UNL     1      22.270 -15.231  18.705  1.00  0.00    -0.170 N 
ATOM      8  H4  UNL     1      22.902 -14.431  18.725  1.00  0.00     0.186 HD
ENDROOT
BRANCH   1   9
HETATM    9  O1  UNL     1      23.695 -16.351  20.212  1.00  0.00    -0.289 OA
BRANCH   9  10
HETATM   10  C6  UNL     1      24.881 -15.699  19.984  1.00  0.00     0.123 A 
HETATM   11  C5  UNL     1      24.989 -14.357  20.201  1.00  0.00     0.153 A 
HETATM   12  C4  UNL     1      26.213 -13.747  19.952  1.00  0.00     0.088 A 
HETATM   13  F2  UNL     1      23.933 -13.596  20.645  1.00  0.00    -0.203 F 
HETATM   14  C3  UNL     1      27.251 -14.518  19.502  1.00  0.00     0.126 A 
HETATM   15  C2  UNL     1      27.140 -15.897  19.277  1.00  0.00    -0.014 A 
HETATM   16  F1  UNL     1      28.452 -13.945  19.253  1.00  0.00    -0.205 F 
HETATM   17  C1  UNL     1      28.307 -16.620  18.714  1.00  0.00     0.052 C 
HETATM   18  C19 UNL     1      25.950 -16.490  19.522  1.00  0.00    -0.012 A 
BRANCH  18  19
HETATM   19  C20 UNL     1      25.701 -17.921  19.392  1.00  0.00     0.047 C 
BRANCH  19  20
HETATM   20  C21 UNL     1      25.776 -18.564  18.069  1.00  0.00    -0.007 C 
HETATM   21  C22 UNL     1      25.034 -18.034  16.922  1.00  0.00     0.008 C 
HETATM   22  C23 UNL     1      23.646 -18.648  16.956  1.00  0.00     0.037 C 
HETATM   23  C24 UNL     1      23.717 -19.798  17.935  1.00  0.00     0.170 C 
HETATM   24  F3  UNL     1      23.127 -20.921  17.424  1.00  0.00    -0.249 F 
HETATM   25  C25 UNL     1      25.185 -19.986  18.247  1.00  0.00     0.042 C 
ENDBRANCH  19  20
ENDBRANCH  18  19
ENDBRANCH   9  10
ENDBRANCH   1   9
BRANCH   3  26
HETATM   26  O2  UNL     1      19.607 -18.377  18.521  1.00  0.00    -0.325 OA
BRANCH  26  27
HETATM   27  C10 UNL     1      18.375 -18.361  19.213  1.00  0.00     0.064 C 
HETATM   28  C11 UNL     1      17.290 -18.923  18.224  1.00  0.00     0.046 C 
HETATM   29  C12 UNL     1      18.287 -19.271  20.388  1.00  0.00     0.046 C 
BRANCH  27  30
HETATM   30  C13 UNL     1      17.958 -16.953  19.448  1.00  0.00     0.068 C 
BRANCH  30  31
HETATM   31  C14 UNL     1      16.617 -16.751  19.997  1.00  0.00     0.275 C 
BRANCH  31  32
HETATM   32  N1  UNL     1      15.897 -15.619  19.522  1.00  0.00     0.088 N 
HETATM   33  C15 UNL     1      14.728 -16.073  18.665  1.00  0.00     0.274 C 
HETATM   34  C16 UNL     1      14.932 -14.774  17.923  1.00  0.00     0.060 C 
HETATM   35  C17 UNL     1      16.410 -15.130  18.202  1.00  0.00     0.274 C 
ENDBRANCH  31  32
ENDBRANCH  30  31
ENDBRANCH  27  30
ENDBRANCH  26  27
ENDBRANCH   3  26
BRANCH   6  36
HETATM   36  N3  UNL     1      20.925 -14.113  17.243  1.00  0.00    -0.234 N 
ATOM     37  H32 UNL     1      20.549 -14.209  16.299  1.00  0.00     0.174 HD
ATOM     38  H31 UNL     1      21.105 -13.194  17.644  1.00  0.00     0.174 HD
ENDBRANCH   6  36
TORSDOF 10
ENDMDL
MODEL 3
REMARK VINA RESULT: -9.865317582      1.216      3.451
REMARK  10 active torsions:
REMARK  status: ('A' for Active; 'I' for Inactive)
REMARK    1  A    between atoms: C6_8  and  O1_9 
REMARK    2  A    between atoms: O1_9  and  C7_10 
REMARK    3  A    between atoms: C9_12  and  O2_13 
REMARK    4  A    between atoms: O2_13  and  C10_14 
REMARK    5  A    between atoms: C10_14  and  C13_17 
REMARK    6  A    between atoms: C13_17  and  C14_18 
REMARK    7  A    between atoms: C14_18  and  N1_19 
REMARK    8  A    between atoms: C18_25  and  N3_26 
REMARK    9  A    between atoms: C19_31  and  C20_32 
REMARK   10  A    between atoms: C20_32  and  C21_33 
ROOT
HETATM    1  C7  UNL     1      20.671 -17.247  18.518  1.00  0.00     0.167 A 
HETATM    2  C8  UNL     1      19.780 -16.242  18.193  1.00  0.00     0.113 A 
HETATM    3  C9  UNL     1      18.441 -16.279  18.507  1.00  0.00     0.162 A 
HETATM    4  N2  UNL     1      18.009 -17.356  19.165  1.00  0.00    -0.171 N 
ATOM      5  H2  UNL     1      17.023 -17.422  19.419  1.00  0.00     0.186 HD
HETATM    6  C18 UNL     1      18.852 -18.370  19.505  1.00  0.00     0.679 A 
HETATM    7  N4  UNL     1      20.147 -18.319  19.191  1.00  0.00    -0.170 N 
ATOM      8  H4  UNL     1      20.757 -19.091  19.455  1.00  0.00     0.186 HD
ENDROOT
BRANCH   1   9
HETATM    9  O1  UNL     1      22.000 -17.236  18.215  1.00  0.00    -0.289 OA
BRANCH   9  10
HETATM   10  C6  UNL     1      23.009 -16.540  18.830  1.00  0.00     0.123 A 
HETATM   11  C5  UNL     1      23.059 -15.178  18.756  1.00  0.00     0.153 A 
HETATM   12  C4  UNL     1      24.105 -14.523  19.397  1.00  0.00     0.088 A 
HETATM   13  F2  UNL     1      22.121 -14.444  18.070  1.00  0.00    -0.203 F 
HETATM   14  C3  UNL     1      25.034 -15.271  20.068  1.00  0.00     0.126 A 
HETATM   15  C2  UNL     1      24.985 -16.670  20.142  1.00  0.00    -0.014 A 
HETATM   16  F1  UNL     1      26.061 -14.654  20.698  1.00  0.00    -0.205 F 
HETATM   17  C1  UNL     1      26.088 -17.383  20.831  1.00  0.00     0.052 C 
HETATM   18  C19 UNL     1      23.966 -17.306  19.522  1.00  0.00    -0.012 A 
BRANCH  18  19
HETATM   19  C20 UNL     1      23.750 -18.748  19.561  1.00  0.00     0.047 C 
BRANCH  19  20
HETATM   20  C21 UNL     1      24.549 -19.635  18.699  1.00  0.00    -0.007 C 
HETATM   21  C22 UNL     1      25.532 -19.096  17.755  1.00  0.00     0.008 C 
HETATM   22  C23 UNL     1      24.797 -18.780  16.465  1.00  0.00     0.037 C 
HETATM   23  C24 UNL     1      23.453 -19.467  16.565  1.00  0.00     0.170 C 
HETATM   24  F3  UNL     1      23.156 -20.142  15.414  1.00  0.00    -0.249 F 
HETATM   25  C25 UNL     1      23.538 -20.366  17.778  1.00  0.00     0.042 C 
ENDBRANCH  19  20
ENDBRANCH  18  19
ENDBRANCH   9  10
ENDBRANCH   1   9
BRANCH   3  26
HETATM   26  O2  UNL     1      17.544 -15.280  18.180  1.00  0.00    -0.325 OA
BRANCH  26  27
HETATM   27  C10 UNL     1      16.169 -15.361  18.494  1.00  0.00     0.064 C 
HETATM   28  C11 UNL     1      15.989 -14.728  19.922  1.00  0.00     0.046 C 
HETATM   29  C12 UNL     1      15.266 -14.549  17.632  1.00  0.00     0.046 C 
BRANCH  27  30
HETATM   30  C13 UNL     1      15.785 -16.786  18.677  1.00  0.00     0.068 C 
BRANCH  30  31
HETATM   31  C14 UNL     1      14.367 -17.057  18.907  1.00  0.00     0.275 C 
BRANCH  31  32
HETATM   32  N1  UNL     1      14.053 -17.983  19.942  1.00  0.00     0.088 N 
HETATM   33  C15 UNL     1      15.023 -17.814  21.098  1.00  0.00     0.274 C 
HETATM   34  C16 UNL     1      14.805 -19.290  21.331  1.00  0.00     0.060 C 
HETATM   35  C17 UNL     1      14.785 -19.281  19.786  1.00  0.00     0.274 C 
ENDBRANCH  31  32
ENDBRANCH  30  31
ENDBRANCH  27  30
ENDBRANCH  26  27
ENDBRANCH   3  26
BRANCH   6  36
HETATM   36  N3  UNL     1      18.385 -19.398  20.153  1.00  0.00    -0.234 N 
ATOM     37  H32 UNL     1      17.860 -20.115  19.651  1.00  0.00     0.174 HD
ATOM     38  H31 UNL     1      18.555 -19.477  21.155  1.00  0.00     0.174 HD
ENDBRANCH   6  36
TORSDOF 10
ENDMDL
MODEL 4
REMARK VINA RESULT: -9.623634424      1.942      4.550
REMARK  10 active torsions:
REMARK  status: ('A' for Active; 'I' for Inactive)
REMARK    1  A    between atoms: C6_8  and  O1_9 
REMARK    2  A    between atoms: O1_9  and  C7_10 
REMARK    3  A    between atoms: C9_12  and  O2_13 
REMARK    4  A    between atoms: O2_13  and  C10_14 
REMARK    5  A    between atoms: C10_14  and  C13_17 
REMARK    6  A    between atoms: C13_17  and  C14_18 
REMARK    7  A    between atoms: C14_18  and  N1_19 
REMARK    8  A    between atoms: C18_25  and  N3_26 
REMARK    9  A    between atoms: C19_31  and  C20_32 
REMARK   10  A    between atoms: C20_32  and  C21_33 
ROOT
HETATM    1  C7  UNL     1      22.548 -16.307  19.427  1.00  0.00     0.167 A 
HETATM    2  C8  UNL     1      21.584 -17.296  19.390  1.00  0.00     0.113 A 
HETATM    3  C9  UNL     1      20.432 -17.211  18.642  1.00  0.00     0.162 A 
HETATM    4  N2  UNL     1      20.267 -16.101  17.921  1.00  0.00    -0.171 N 
ATOM      5  H2  UNL     1      19.427 -15.999  17.350  1.00  0.00     0.186 HD
HETATM    6  C18 UNL     1      21.191 -15.102  17.927  1.00  0.00     0.679 A 
HETATM    7  N4  UNL     1      22.301 -15.200  18.660  1.00  0.00    -0.170 N 
ATOM      8  H4  UNL     1      22.977 -14.437  18.649  1.00  0.00     0.186 HD
ENDROOT
BRANCH   1   9
HETATM    9  O1  UNL     1      23.694 -16.366  20.162  1.00  0.00    -0.289 OA
BRANCH   9  10
HETATM   10  C6  UNL     1      24.880 -15.708  19.948  1.00  0.00     0.123 A 
HETATM   11  C5  UNL     1      24.975 -14.363  20.158  1.00  0.00     0.153 A 
HETATM   12  C4  UNL     1      26.199 -13.747  19.924  1.00  0.00     0.088 A 
HETATM   13  F2  UNL     1      23.908 -13.607  20.582  1.00  0.00    -0.203 F 
HETATM   14  C3  UNL     1      27.249 -14.515  19.493  1.00  0.00     0.126 A 
HETATM   15  C2  UNL     1      27.150 -15.896  19.276  1.00  0.00    -0.014 A 
HETATM   16  F1  UNL     1      28.449 -13.935  19.259  1.00  0.00    -0.205 F 
HETATM   17  C1  UNL     1      28.329 -16.615  18.734  1.00  0.00     0.052 C 
HETATM   18  C19 UNL     1      25.960 -16.495  19.507  1.00  0.00    -0.012 A 
BRANCH  18  19
HETATM   19  C20 UNL     1      25.722 -17.928  19.382  1.00  0.00     0.047 C 
BRANCH  19  20
HETATM   20  C21 UNL     1      25.766 -18.568  18.057  1.00  0.00    -0.007 C 
HETATM   21  C22 UNL     1      24.992 -18.040  16.929  1.00  0.00     0.008 C 
HETATM   22  C23 UNL     1      23.608 -18.659  16.998  1.00  0.00     0.037 C 
HETATM   23  C24 UNL     1      23.708 -19.810  17.973  1.00  0.00     0.170 C 
HETATM   24  F3  UNL     1      23.109 -20.934  17.475  1.00  0.00    -0.249 F 
HETATM   25  C25 UNL     1      25.184 -19.993  18.247  1.00  0.00     0.042 C 
ENDBRANCH  19  20
ENDBRANCH  18  19
ENDBRANCH   9  10
ENDBRANCH   1   9
BRANCH   3  26
HETATM   26  O2  UNL     1      19.462 -18.193  18.605  1.00  0.00    -0.325 OA
BRANCH  26  27
HETATM   27  C10 UNL     1      18.218 -18.059  19.260  1.00  0.00     0.064 C 
HETATM   28  C11 UNL     1      18.103 -19.256  20.273  1.00  0.00     0.046 C 
HETATM   29  C12 UNL     1      18.074 -16.854  20.123  1.00  0.00     0.046 C 
BRANCH  27  30
HETATM   30  C13 UNL     1      17.117 -18.298  18.289  1.00  0.00     0.068 C 
BRANCH  30  31
HETATM   31  C14 UNL     1      15.759 -18.031  18.760  1.00  0.00     0.275 C 
BRANCH  31  32
HETATM   32  N1  UNL     1      14.948 -17.203  17.934  1.00  0.00     0.088 N 
HETATM   33  C15 UNL     1      15.262 -15.742  18.199  1.00  0.00     0.274 C 
HETATM   34  C16 UNL     1      13.817 -15.497  17.835  1.00  0.00     0.060 C 
HETATM   35  C17 UNL     1      13.654 -16.834  18.592  1.00  0.00     0.274 C 
ENDBRANCH  31  32
ENDBRANCH  30  31
ENDBRANCH  27  30
ENDBRANCH  26  27
ENDBRANCH   3  26
BRANCH   6  36
HETATM   36  N3  UNL     1      20.988 -14.040  17.201  1.00  0.00    -0.234 N 
ATOM     37  H32 UNL     1      21.776 -13.588  16.736  1.00  0.00     0.174 HD
ATOM     38  H31 UNL     1      20.042 -13.675  17.102  1.00  0.00     0.174 HD
ENDBRANCH   6  36
TORSDOF 10
ENDMDL
MODEL 5
REMARK VINA RESULT: -9.612681604      1.691      2.624
REMARK  10 active torsions:
REMARK  status: ('A' for Active; 'I' for Inactive)
REMARK    1  A    between atoms: C6_8  and  O1_9 
REMARK    2  A    between atoms: O1_9  and  C7_10 
REMARK    3  A    between atoms: C9_12  and  O2_13 
REMARK    4  A    between atoms: O2_13  and  C10_14 
REMARK    5  A    between atoms: C10_14  and  C13_17 
REMARK    6  A    between atoms: C13_17  and  C14_18 
REMARK    7  A    between atoms: C14_18  and  N1_19 
REMARK    8  A    between atoms: C18_25  and  N3_26 
REMARK    9  A    between atoms: C19_31  and  C20_32 
REMARK   10  A    between atoms: C20_32  and  C21_33 
ROOT
HETATM    1  C7  UNL     1      21.002 -16.548  19.582  1.00  0.00     0.167 A 
HETATM    2  C8  UNL     1      19.708 -16.791  20.000  1.00  0.00     0.113 A 
HETATM    3  C9  UNL     1      18.594 -16.316  19.347  1.00  0.00     0.162 A 
HETATM    4  N2  UNL     1      18.808 -15.586  18.250  1.00  0.00    -0.171 N 
ATOM      5  H2  UNL     1      18.008 -15.218  17.734  1.00  0.00     0.186 HD
HETATM    6  C18 UNL     1      20.066 -15.323  17.803  1.00  0.00     0.679 A 
HETATM    7  N4  UNL     1      21.135 -15.790  18.450  1.00  0.00    -0.170 N 
ATOM      8  H4  UNL     1      22.067 -15.578  18.096  1.00  0.00     0.186 HD
ENDROOT
BRANCH   1   9
HETATM    9  O1  UNL     1      22.121 -17.003  20.214  1.00  0.00    -0.289 OA
BRANCH   9  10
HETATM   10  C6  UNL     1      23.077 -17.865  19.740  1.00  0.00     0.123 A 
HETATM   11  C5  UNL     1      22.719 -19.043  19.151  1.00  0.00     0.153 A 
HETATM   12  C4  UNL     1      23.729 -19.880  18.690  1.00  0.00     0.088 A 
HETATM   13  F2  UNL     1      21.406 -19.425  19.008  1.00  0.00    -0.203 F 
HETATM   14  C3  UNL     1      25.031 -19.487  18.849  1.00  0.00     0.126 A 
HETATM   15  C2  UNL     1      25.399 -18.278  19.456  1.00  0.00    -0.014 A 
HETATM   16  F1  UNL     1      26.030 -20.287  18.407  1.00  0.00    -0.205 F 
HETATM   17  C1  UNL     1      26.841 -17.990  19.645  1.00  0.00     0.052 C 
HETATM   18  C19 UNL     1      24.416 -17.463  19.901  1.00  0.00    -0.012 A 
BRANCH  18  19
HETATM   19  C20 UNL     1      24.642 -16.152  20.498  1.00  0.00     0.047 C 
BRANCH  19  20
HETATM   20  C21 UNL     1      24.680 -14.952  19.645  1.00  0.00    -0.007 C 
HETATM   21  C22 UNL     1      25.398 -14.949  18.367  1.00  0.00     0.008 C 
HETATM   22  C23 UNL     1      26.842 -14.585  18.658  1.00  0.00     0.037 C 
HETATM   23  C24 UNL     1      26.866 -14.042  20.069  1.00  0.00     0.170 C 
HETATM   24  F3  UNL     1      27.592 -12.886  20.143  1.00  0.00    -0.249 F 
HETATM   25  C25 UNL     1      25.418 -13.863  20.467  1.00  0.00     0.042 C 
ENDBRANCH  19  20
ENDBRANCH  18  19
ENDBRANCH   9  10
ENDBRANCH   1   9
BRANCH   3  26
HETATM   26  O2  UNL     1      17.297 -16.549  19.761  1.00  0.00    -0.325 OA
BRANCH  26  27
HETATM   27  C10 UNL     1      16.591 -17.725  19.423  1.00  0.00     0.064 C 
HETATM   28  C11 UNL     1      17.664 -18.804  19.026  1.00  0.00     0.046 C 
HETATM   29  C12 UNL     1      15.842 -18.367  20.538  1.00  0.00     0.046 C 
BRANCH  27  30
HETATM   30  C13 UNL     1      15.823 -17.499  18.169  1.00  0.00     0.068 C 
BRANCH  30  31
HETATM   31  C14 UNL     1      15.111 -16.227  18.059  1.00  0.00     0.275 C 
BRANCH  31  32
HETATM   32  N1  UNL     1      13.828 -16.264  17.442  1.00  0.00     0.088 N 
HETATM   33  C15 UNL     1      13.126 -14.931  17.627  1.00  0.00     0.274 C 
HETATM   34  C16 UNL     1      11.853 -15.742  17.607  1.00  0.00     0.060 C 
HETATM   35  C17 UNL     1      12.757 -16.726  18.383  1.00  0.00     0.274 C 
ENDBRANCH  31  32
ENDBRANCH  30  31
ENDBRANCH  27  30
ENDBRANCH  26  27
ENDBRANCH   3  26
BRANCH   6  36
HETATM   36  N3  UNL     1      20.224 -14.612  16.724  1.00  0.00    -0.234 N 
ATOM     37  H32 UNL     1      19.513 -14.637  15.993  1.00  0.00     0.174 HD
ATOM     38  H31 UNL     1      21.058 -14.033  16.624  1.00  0.00     0.174 HD
ENDBRANCH   6  36
TORSDOF 10
ENDMDL
