MODEL 1
REMARK VINA RESULT: -7.911133209      0.000      0.000
REMARK  4 active torsions:
REMARK  status: ('A' for Active; 'I' for Inactive)
REMARK    1  A    between atoms: C3_3  and  N1_4 
REMARK    2  A    between atoms: C7_8  and  O1_9 
REMARK    3  A    between atoms: C7_8  and  C8_11 
REMARK    4  A    between atoms: C8_11  and  C9_12 
ROOT
HETATM    1  C1  UNL     1      18.733   9.869  -1.112  1.00  0.00     0.098 C 
HETATM    2  C2  UNL     1      17.596  10.096  -1.519  1.00  0.00    -0.158 C 
HETATM    3  C3  UNL     1      16.259  10.359  -2.037  1.00  0.00     0.355 C 
ENDROOT
BRANCH   3   4
HETATM    4  N1  UNL     1      15.272   9.770  -1.214  1.00  0.00     0.133 N 
HETATM    5  C4  UNL     1      14.170   9.185  -1.959  1.00  0.00     0.277 C 
HETATM    6  C5  UNL     1      12.969  10.047  -1.780  1.00  0.00     0.035 C 
HETATM    7  C6  UNL     1      13.593  11.302  -1.198  1.00  0.00     0.073 C 
HETATM    8  C7  UNL     1      14.624  10.700  -0.263  1.00  0.00     0.261 C 
BRANCH   8   9
HETATM    9  O1  UNL     1      15.493  11.644   0.191  1.00  0.00    -0.363 OA
ATOM     10  H1  UNL     1      15.243  11.969   1.047  1.00  0.00     0.212 HD
ENDBRANCH   8   9
BRANCH   8  11
HETATM   11  C8  UNL     1      14.056   9.828   0.792  1.00  0.00     0.104 C 
BRANCH  11  12
HETATM   12  C9  UNL     1      14.515   9.984   2.194  1.00  0.00     0.195 C 
HETATM   13  C10 UNL     1      13.684   9.405   3.270  1.00  0.00     0.075 C 
HETATM   14  C11 UNL     1      14.462   9.205   4.516  1.00  0.00    -0.017 A 
HETATM   15  C12 UNL     1      13.772   8.883   5.681  1.00  0.00     0.098 A 
HETATM   16  C14 UNL     1      15.824   9.327   4.596  1.00  0.00     0.043 A 
HETATM   17  N2  UNL     1      14.434   8.703   6.831  1.00  0.00    -0.362 N 
HETATM   18  C13 UNL     1      15.777   8.825   6.901  1.00  0.00     0.180 A 
ATOM     19  H2  UNL     1      13.912   8.467   7.675  1.00  0.00     0.166 HD
HETATM   20  N3  UNL     1      16.430   9.138   5.757  1.00  0.00    -0.354 N 
ATOM     21  H3  UNL     1      17.445   9.234   5.792  1.00  0.00     0.166 HD
HETATM   22  C15 UNL     1      16.611   9.664   3.360  1.00  0.00     0.290 C 
HETATM   23  N4  UNL     1      15.824   9.285   2.208  1.00  0.00    -0.065 N 
ATOM     24  H42 UNL     1      15.708   8.274   2.150  1.00  0.00     0.278 HD
ATOM     25  H41 UNL     1      16.337   9.435   1.339  1.00  0.00     0.278 HD
ENDBRANCH  11  12
ENDBRANCH   8  11
ENDBRANCH   3   4
TORSDOF 4
ENDMDL
MODEL 2
REMARK VINA RESULT: -7.835119759      2.125      6.464
REMARK  4 active torsions:
REMARK  status: ('A' for Active; 'I' for Inactive)
REMARK    1  A    between atoms: C3_3  and  N1_4 
REMARK    2  A    between atoms: C7_8  and  O1_9 
REMARK    3  A    between atoms: C7_8  and  C8_11 
REMARK    4  A    between atoms: C8_11  and  C9_12 
ROOT
HETATM    1  C1  UNL     1      19.590  10.616   2.891  1.00  0.00     0.098 C 
HETATM    2  C2  UNL     1      18.486  10.099   3.051  1.00  0.00    -0.158 C 
HETATM    3  C3  UNL     1      17.186   9.480   3.276  1.00  0.00     0.355 C 
ENDROOT
BRANCH   3   4
HETATM    4  N1  UNL     1      16.162  10.201   2.621  1.00  0.00     0.133 N 
HETATM    5  C4  UNL     1      15.800  11.436   3.296  1.00  0.00     0.277 C 
HETATM    6  C5  UNL     1      14.464  11.255   3.928  1.00  0.00     0.035 C 
HETATM    7  C6  UNL     1      14.306   9.748   3.853  1.00  0.00     0.073 C 
HETATM    8  C7  UNL     1      14.884   9.469   2.479  1.00  0.00     0.261 C 
BRANCH   8   9
HETATM    9  O1  UNL     1      15.085   8.137   2.286  1.00  0.00    -0.363 OA
ATOM     10  H1  UNL     1      14.347   7.622   2.593  1.00  0.00     0.212 HD
ENDBRANCH   8   9
BRANCH   8  11
HETATM   11  C8  UNL     1      14.177  10.152   1.369  1.00  0.00     0.104 C 
BRANCH  11  12
HETATM   12  C9  UNL     1      14.500   9.793  -0.033  1.00  0.00     0.195 C 
HETATM   13  C10 UNL     1      13.405   9.800  -1.026  1.00  0.00     0.075 C 
HETATM   14  C11 UNL     1      13.923   9.904  -2.411  1.00  0.00    -0.017 A 
HETATM   15  C12 UNL     1      13.037   9.694  -3.465  1.00  0.00     0.098 A 
HETATM   16  C14 UNL     1      15.227  10.186  -2.723  1.00  0.00     0.043 A 
HETATM   17  N2  UNL     1      13.464   9.770  -4.732  1.00  0.00    -0.362 N 
HETATM   18  C13 UNL     1      14.751  10.048  -5.029  1.00  0.00     0.180 A 
ATOM     19  H2  UNL     1      12.801   9.614  -5.491  1.00  0.00     0.166 HD
HETATM   20  N3  UNL     1      15.596  10.249  -3.991  1.00  0.00    -0.354 N 
ATOM     21  H3  UNL     1      16.572  10.461  -4.199  1.00  0.00     0.166 HD
HETATM   22  C15 UNL     1      16.216  10.428  -1.617  1.00  0.00     0.290 C 
HETATM   23  N4  UNL     1      15.483  10.829  -0.437  1.00  0.00    -0.065 N 
ATOM     24  H42 UNL     1      15.037  11.738  -0.563  1.00  0.00     0.278 HD
ATOM     25  H41 UNL     1      16.111  11.068   0.331  1.00  0.00     0.278 HD
ENDBRANCH  11  12
ENDBRANCH   8  11
ENDBRANCH   3   4
TORSDOF 4
ENDMDL
MODEL 3
REMARK VINA RESULT: -7.774225352      1.902      6.949
REMARK  4 active torsions:
REMARK  status: ('A' for Active; 'I' for Inactive)
REMARK    1  A    between atoms: C3_3  and  N1_4 
REMARK    2  A    between atoms: C7_8  and  O1_9 
REMARK    3  A    between atoms: C7_8  and  C8_11 
REMARK    4  A    between atoms: C8_11  and  C9_12 
ROOT
HETATM    1  C1  UNL     1      13.914  10.117   6.896  1.00  0.00     0.098 C 
HETATM    2  C2  UNL     1      14.341  10.566   5.835  1.00  0.00    -0.158 C 
HETATM    3  C3  UNL     1      14.882  11.094   4.588  1.00  0.00     0.355 C 
ENDROOT
BRANCH   3   4
HETATM    4  N1  UNL     1      14.153  10.614   3.476  1.00  0.00     0.133 N 
HETATM    5  C4  UNL     1      13.638   9.267   3.659  1.00  0.00     0.277 C 
HETATM    6  C5  UNL     1      14.426   8.340   2.800  1.00  0.00     0.035 C 
HETATM    7  C6  UNL     1      15.611   9.215   2.433  1.00  0.00     0.073 C 
HETATM    8  C7  UNL     1      14.921  10.549   2.214  1.00  0.00     0.261 C 
BRANCH   8   9
HETATM    9  O1  UNL     1      15.824  11.563   2.120  1.00  0.00    -0.363 OA
ATOM     10  H1  UNL     1      15.649  12.122   1.372  1.00  0.00     0.212 HD
ENDBRANCH   8   9
BRANCH   8  11
HETATM   11  C8  UNL     1      13.895  10.537   1.145  1.00  0.00     0.104 C 
BRANCH  11  12
HETATM   12  C9  UNL     1      14.259  10.060  -0.212  1.00  0.00     0.195 C 
HETATM   13  C10 UNL     1      13.213  10.059  -1.256  1.00  0.00     0.075 C 
HETATM   14  C11 UNL     1      13.798  10.034  -2.617  1.00  0.00    -0.017 A 
HETATM   15  C12 UNL     1      12.950   9.801  -3.697  1.00  0.00     0.098 A 
HETATM   16  C14 UNL     1      15.129  10.218  -2.883  1.00  0.00     0.043 A 
HETATM   17  N2  UNL     1      13.438   9.761  -4.943  1.00  0.00    -0.362 N 
HETATM   18  C13 UNL     1      14.752   9.944  -5.195  1.00  0.00     0.180 A 
ATOM     19  H2  UNL     1      12.802   9.589  -5.722  1.00  0.00     0.166 HD
HETATM   20  N3  UNL     1      15.559  10.170  -4.133  1.00  0.00    -0.354 N 
ATOM     21  H3  UNL     1      16.555  10.310  -4.305  1.00  0.00     0.166 HD
HETATM   22  C15 UNL     1      16.080  10.482  -1.748  1.00  0.00     0.290 C 
HETATM   23  N4  UNL     1      15.320  11.007  -0.636  1.00  0.00    -0.065 N 
ATOM     24  H42 UNL     1      14.936  11.929  -0.847  1.00  0.00     0.278 HD
ATOM     25  H41 UNL     1      15.926  11.264   0.143  1.00  0.00     0.278 HD
ENDBRANCH  11  12
ENDBRANCH   8  11
ENDBRANCH   3   4
TORSDOF 4
ENDMDL
MODEL 4
REMARK VINA RESULT: -7.738930655      0.950      1.462
REMARK  4 active torsions:
REMARK  status: ('A' for Active; 'I' for Inactive)
REMARK    1  A    between atoms: C3_3  and  N1_4 
REMARK    2  A    between atoms: C7_8  and  O1_9 
REMARK    3  A    between atoms: C7_8  and  C8_11 
REMARK    4  A    between atoms: C8_11  and  C9_12 
ROOT
HETATM    1  C1  UNL     1      15.068  10.078  -5.109  1.00  0.00     0.098 C 
HETATM    2  C2  UNL     1      15.445  10.195  -3.946  1.00  0.00    -0.158 C 
HETATM    3  C3  UNL     1      15.903  10.368  -2.573  1.00  0.00     0.355 C 
ENDROOT
BRANCH   3   4
HETATM    4  N1  UNL     1      15.002   9.773  -1.660  1.00  0.00     0.133 N 
HETATM    5  C4  UNL     1      13.797   9.259  -2.288  1.00  0.00     0.277 C 
HETATM    6  C5  UNL     1      12.659  10.149  -1.927  1.00  0.00     0.035 C 
HETATM    7  C6  UNL     1      13.395  11.356  -1.374  1.00  0.00     0.073 C 
HETATM    8  C7  UNL     1      14.509  10.679  -0.599  1.00  0.00     0.261 C 
BRANCH   8   9
HETATM    9  O1  UNL     1      15.461  11.573  -0.216  1.00  0.00    -0.363 OA
ATOM     10  H1  UNL     1      16.193  11.145   0.212  1.00  0.00     0.212 HD
ENDBRANCH   8   9
BRANCH   8  11
HETATM   11  C8  UNL     1      14.041   9.778   0.481  1.00  0.00     0.104 C 
BRANCH  11  12
HETATM   12  C9  UNL     1      14.488  10.015   1.875  1.00  0.00     0.195 C 
HETATM   13  C10 UNL     1      13.706   9.409   2.973  1.00  0.00     0.075 C 
HETATM   14  C11 UNL     1      14.498   9.311   4.221  1.00  0.00    -0.017 A 
HETATM   15  C12 UNL     1      13.837   8.976   5.399  1.00  0.00     0.098 A 
HETATM   16  C14 UNL     1      15.847   9.541   4.293  1.00  0.00     0.043 A 
HETATM   17  N2  UNL     1      14.513   8.885   6.552  1.00  0.00    -0.362 N 
HETATM   18  C13 UNL     1      15.842   9.113   6.613  1.00  0.00     0.180 A 
ATOM     19  H2  UNL     1      14.011   8.638   7.405  1.00  0.00     0.166 HD
HETATM   20  N3  UNL     1      16.467   9.438   5.457  1.00  0.00    -0.354 N 
ATOM     21  H3  UNL     1      17.471   9.613   5.485  1.00  0.00     0.166 HD
HETATM   22  C15 UNL     1      16.604   9.897   3.044  1.00  0.00     0.290 C 
HETATM   23  N4  UNL     1      15.847   9.421   1.907  1.00  0.00    -0.065 N 
ATOM     24  H42 UNL     1      15.811   8.402   1.883  1.00  0.00     0.278 HD
ATOM     25  H41 UNL     1      16.347   9.581   1.032  1.00  0.00     0.278 HD
ENDBRANCH  11  12
ENDBRANCH   8  11
ENDBRANCH   3   4
TORSDOF 4
ENDMDL
MODEL 5
REMARK VINA RESULT: -7.704327017      2.029      6.939
REMARK  4 active torsions:
REMARK  status: ('A' for Active; 'I' for Inactive)
REMARK    1  A    between atoms: C3_3  and  N1_4 
REMARK    2  A    between atoms: C7_8  and  O1_9 
REMARK    3  A    between atoms: C7_8  and  C8_11 
REMARK    4  A    between atoms: C8_11  and  C9_12 
ROOT
HETATM    1  C1  UNL     1      14.010  10.276   6.822  1.00  0.00     0.098 C 
HETATM    2  C2  UNL     1      14.277   9.683   5.779  1.00  0.00    -0.158 C 
HETATM    3  C3  UNL     1      14.569   8.955   4.551  1.00  0.00     0.355 C 
ENDROOT
BRANCH   3   4
HETATM    4  N1  UNL     1      14.736   9.842   3.463  1.00  0.00     0.133 N 
HETATM    5  C4  UNL     1      13.856  10.997   3.517  1.00  0.00     0.277 C 
HETATM    6  C5  UNL     1      12.808  10.842   2.471  1.00  0.00     0.035 C 
HETATM    7  C6  UNL     1      12.971   9.377   2.107  1.00  0.00     0.073 C 
HETATM    8  C7  UNL     1      14.482   9.245   2.133  1.00  0.00     0.261 C 
BRANCH   8   9
HETATM    9  O1  UNL     1      14.866   7.940   2.084  1.00  0.00    -0.363 OA
ATOM     10  H1  UNL     1      15.802   7.844   2.214  1.00  0.00     0.212 HD
ENDBRANCH   8   9
BRANCH   8  11
HETATM   11  C8  UNL     1      15.189  10.131   1.178  1.00  0.00     0.104 C 
BRANCH  11  12
HETATM   12  C9  UNL     1      15.226   9.773  -0.260  1.00  0.00     0.195 C 
HETATM   13  C10 UNL     1      13.970   9.855  -1.034  1.00  0.00     0.075 C 
HETATM   14  C11 UNL     1      14.228   9.947  -2.490  1.00  0.00    -0.017 A 
HETATM   15  C12 UNL     1      13.153   9.802  -3.363  1.00  0.00     0.098 A 
HETATM   16  C14 UNL     1      15.466  10.159  -3.037  1.00  0.00     0.043 A 
HETATM   17  N2  UNL     1      13.342   9.870  -4.687  1.00  0.00    -0.362 N 
HETATM   18  C13 UNL     1      14.567  10.079  -5.216  1.00  0.00     0.180 A 
ATOM     19  H2  UNL     1      12.543   9.762  -5.310  1.00  0.00     0.166 HD
HETATM   20  N3  UNL     1      15.599  10.218  -4.352  1.00  0.00    -0.354 N 
ATOM     21  H3  UNL     1      16.530  10.377  -4.736  1.00  0.00     0.166 HD
HETATM   22  C15 UNL     1      16.654  10.331  -2.132  1.00  0.00     0.290 C 
HETATM   23  N4  UNL     1      16.176  10.757  -0.836  1.00  0.00    -0.065 N 
ATOM     24  H42 UNL     1      15.768  11.691  -0.876  1.00  0.00     0.278 HD
ATOM     25  H41 UNL     1      16.948  10.950  -0.197  1.00  0.00     0.278 HD
ENDBRANCH  11  12
ENDBRANCH   8  11
ENDBRANCH   3   4
TORSDOF 4
ENDMDL
