MODEL 1
REMARK VINA RESULT: -7.706002545      0.000      0.000
REMARK  4 active torsions:
REMARK  status: ('A' for Active; 'I' for Inactive)
REMARK       I    between atoms: C1_2  and  N1_3 
REMARK    1  A    between atoms: C1_2  and  C8_11 
REMARK    2  A    between atoms: N1_3  and  C2_5 
REMARK    3  A    between atoms: C8_11  and  O2_12 
REMARK    4  A    between atoms: C8_11  and  C9_14 
ROOT
HETATM    1  C8  UNL     1      14.879  10.214   1.370  1.00  0.00     0.241 C 
ENDROOT
BRANCH   1   2
HETATM    2  C1  UNL     1      14.423   9.582   0.108  1.00  0.00     0.249 C 
HETATM    3  O1  UNL     1      13.942   8.411   0.118  1.00  0.00    -0.271 OA
HETATM    4  N1  UNL     1      14.498  10.235  -1.151  1.00  0.00    -0.354 N 
ATOM      5  H1  UNL     1      14.881  11.180  -1.189  1.00  0.00     0.162 HD
BRANCH   4   6
HETATM    6  C2  UNL     1      14.054   9.619  -2.382  1.00  0.00     0.084 C 
HETATM    7  C3  UNL     1      12.599   9.951  -2.571  1.00  0.00     0.025 C 
HETATM    8  C4  UNL     1      12.070   9.621  -3.921  1.00  0.00     0.002 C 
HETATM    9  C5  UNL     1      13.012   9.840  -5.047  1.00  0.00     0.000 C 
HETATM   10  C6  UNL     1      14.421   9.399  -4.777  1.00  0.00     0.002 C 
HETATM   11  C7  UNL     1      14.893  10.166  -3.540  1.00  0.00     0.025 C 
ENDBRANCH   4   6
ENDBRANCH   1   2
BRANCH   1  12
HETATM   12  O2  UNL     1      13.883  10.989   1.927  1.00  0.00    -0.383 OA
ATOM     13  H2  UNL     1      13.092  10.482   2.068  1.00  0.00     0.210 HD
ENDBRANCH   1  12
BRANCH   1  14
HETATM   14  C9  UNL     1      16.030  11.130   1.018  1.00  0.00     0.188 C 
HETATM   15  O3  UNL     1      17.026  10.427   0.301  1.00  0.00    -0.378 OA
HETATM   16  C10 UNL     1      17.897  11.434  -0.177  1.00  0.00     0.200 C 
HETATM   17  C11 UNL     1      18.462  12.178   1.008  1.00  0.00     0.145 C 
HETATM   18  C12 UNL     1      18.996  11.150   1.974  1.00  0.00     0.036 C 
HETATM   19  O4  UNL     1      17.480  12.806   1.767  1.00  0.00    -0.376 OA
HETATM   20  C13 UNL     1      17.772  10.812   2.786  1.00  0.00     0.037 C 
HETATM   21  C14 UNL     1      16.702  11.720   2.219  1.00  0.00     0.154 C 
ENDBRANCH   1  14
TORSDOF 4
ENDMDL
MODEL 2
REMARK VINA RESULT: -7.679407179      3.963      7.299
REMARK  4 active torsions:
REMARK  status: ('A' for Active; 'I' for Inactive)
REMARK       I    between atoms: C1_2  and  N1_3 
REMARK    1  A    between atoms: C1_2  and  C8_11 
REMARK    2  A    between atoms: N1_3  and  C2_5 
REMARK    3  A    between atoms: C8_11  and  O2_12 
REMARK    4  A    between atoms: C8_11  and  C9_14 
ROOT
HETATM    1  C8  UNL     1      13.398   9.218   2.199  1.00  0.00     0.241 C 
ENDROOT
BRANCH   1   2
HETATM    2  C1  UNL     1      14.147   9.073   3.470  1.00  0.00     0.249 C 
HETATM    3  O1  UNL     1      15.323   8.605   3.469  1.00  0.00    -0.271 OA
HETATM    4  N1  UNL     1      13.605   9.443   4.730  1.00  0.00    -0.354 N 
ATOM      5  H1  UNL     1      12.659   9.824   4.761  1.00  0.00     0.162 HD
BRANCH   4   6
HETATM    6  C2  UNL     1      14.335   9.302   5.970  1.00  0.00     0.084 C 
HETATM    7  C3  UNL     1      13.972  10.459   6.859  1.00  0.00     0.025 C 
HETATM    8  C4  UNL     1      14.428  10.312   8.267  1.00  0.00     0.002 C 
HETATM    9  C5  UNL     1      14.368   8.935   8.817  1.00  0.00     0.000 C 
HETATM   10  C6  UNL     1      14.829   7.865   7.870  1.00  0.00     0.002 C 
HETATM   11  C7  UNL     1      13.950   7.971   6.623  1.00  0.00     0.025 C 
ENDBRANCH   4   6
ENDBRANCH   1   2
BRANCH   1  12
HETATM   12  O2  UNL     1      12.783   8.035   1.846  1.00  0.00    -0.383 OA
ATOM     13  H2  UNL     1      12.152   8.170   1.149  1.00  0.00     0.210 HD
ENDBRANCH   1  12
BRANCH   1  14
HETATM   14  C9  UNL     1      14.409   9.548   1.122  1.00  0.00     0.188 C 
HETATM   15  O3  UNL     1      14.559  10.949   0.992  1.00  0.00    -0.378 OA
HETATM   16  C10 UNL     1      15.690  11.108   0.159  1.00  0.00     0.200 C 
HETATM   17  C11 UNL     1      15.408  10.437  -1.163  1.00  0.00     0.145 C 
HETATM   18  C12 UNL     1      14.070  10.937  -1.647  1.00  0.00     0.036 C 
HETATM   19  O4  UNL     1      15.178   9.072  -1.035  1.00  0.00    -0.376 OA
HETATM   20  C13 UNL     1      13.113   9.985  -0.974  1.00  0.00     0.037 C 
HETATM   21  C14 UNL     1      14.022   9.031  -0.229  1.00  0.00     0.154 C 
ENDBRANCH   1  14
TORSDOF 4
ENDMDL
MODEL 3
REMARK VINA RESULT: -7.562810534      2.161      3.729
REMARK  4 active torsions:
REMARK  status: ('A' for Active; 'I' for Inactive)
REMARK       I    between atoms: C1_2  and  N1_3 
REMARK    1  A    between atoms: C1_2  and  C8_11 
REMARK    2  A    between atoms: N1_3  and  C2_5 
REMARK    3  A    between atoms: C8_11  and  O2_12 
REMARK    4  A    between atoms: C8_11  and  C9_14 
ROOT
HETATM    1  C8  UNL     1      16.823  10.603   2.000  1.00  0.00     0.241 C 
ENDROOT
BRANCH   1   2
HETATM    2  C1  UNL     1      16.204  10.966   0.702  1.00  0.00     0.249 C 
HETATM    3  O1  UNL     1      16.369  12.123   0.216  1.00  0.00    -0.271 OA
HETATM    4  N1  UNL     1      15.410  10.060  -0.052  1.00  0.00    -0.354 N 
ATOM      5  H1  UNL     1      15.260   9.121   0.315  1.00  0.00     0.162 HD
BRANCH   4   6
HETATM    6  C2  UNL     1      14.805  10.414  -1.317  1.00  0.00     0.084 C 
HETATM    7  C3  UNL     1      15.806  10.137  -2.405  1.00  0.00     0.025 C 
HETATM    8  C4  UNL     1      15.241  10.190  -3.780  1.00  0.00     0.002 C 
HETATM    9  C5  UNL     1      13.858   9.670  -3.922  1.00  0.00     0.000 C 
HETATM   10  C6  UNL     1      12.923  10.074  -2.820  1.00  0.00     0.002 C 
HETATM   11  C7  UNL     1      13.540   9.574  -1.513  1.00  0.00     0.025 C 
ENDBRANCH   4   6
ENDBRANCH   1   2
BRANCH   1  12
HETATM   12  O2  UNL     1      17.935   9.808   1.816  1.00  0.00    -0.383 OA
ATOM     13  H2  UNL     1      17.693   8.893   1.734  1.00  0.00     0.210 HD
ENDBRANCH   1  12
BRANCH   1  14
HETATM   14  C9  UNL     1      15.803   9.794   2.770  1.00  0.00     0.188 C 
HETATM   15  O3  UNL     1      14.552  10.455   2.786  1.00  0.00    -0.378 OA
HETATM   16  C10 UNL     1      13.650   9.494   3.299  1.00  0.00     0.200 C 
HETATM   17  C11 UNL     1      14.108   9.099   4.682  1.00  0.00     0.145 C 
HETATM   18  C12 UNL     1      14.341  10.371   5.461  1.00  0.00     0.036 C 
HETATM   19  O4  UNL     1      15.374   8.523   4.685  1.00  0.00    -0.376 OA
HETATM   20  C13 UNL     1      15.765  10.708   5.099  1.00  0.00     0.037 C 
HETATM   21  C14 UNL     1      16.187   9.567   4.199  1.00  0.00     0.154 C 
ENDBRANCH   1  14
TORSDOF 4
ENDMDL
MODEL 4
REMARK VINA RESULT: -7.420693780      1.063      1.232
REMARK  4 active torsions:
REMARK  status: ('A' for Active; 'I' for Inactive)
REMARK       I    between atoms: C1_2  and  N1_3 
REMARK    1  A    between atoms: C1_2  and  C8_11 
REMARK    2  A    between atoms: N1_3  and  C2_5 
REMARK    3  A    between atoms: C8_11  and  O2_12 
REMARK    4  A    between atoms: C8_11  and  C9_14 
ROOT
HETATM    1  C8  UNL     1      14.090   9.267   1.290  1.00  0.00     0.241 C 
ENDROOT
BRANCH   1   2
HETATM    2  C1  UNL     1      14.095   8.873  -0.139  1.00  0.00     0.249 C 
HETATM    3  O1  UNL     1      14.287   7.665  -0.468  1.00  0.00    -0.271 OA
HETATM    4  N1  UNL     1      13.890   9.801  -1.195  1.00  0.00    -0.354 N 
ATOM      5  H1  UNL     1      13.733  10.781  -0.959  1.00  0.00     0.162 HD
BRANCH   4   6
HETATM    6  C2  UNL     1      13.896   9.417  -2.589  1.00  0.00     0.084 C 
HETATM    7  C3  UNL     1      12.541   9.730  -3.164  1.00  0.00     0.025 C 
HETATM    8  C4  UNL     1      12.475   9.646  -4.647  1.00  0.00     0.002 C 
HETATM    9  C5  UNL     1      13.689  10.108  -5.367  1.00  0.00     0.000 C 
HETATM   10  C6  UNL     1      14.985   9.671  -4.750  1.00  0.00     0.002 C 
HETATM   11  C7  UNL     1      14.991  10.203  -3.315  1.00  0.00     0.025 C 
ENDBRANCH   4   6
ENDBRANCH   1   2
BRANCH   1  12
HETATM   12  O2  UNL     1      12.823   9.614   1.706  1.00  0.00    -0.383 OA
ATOM     13  H2  UNL     1      12.178   8.986   1.404  1.00  0.00     0.210 HD
ENDBRANCH   1  12
BRANCH   1  14
HETATM   14  C9  UNL     1      14.968  10.493   1.416  1.00  0.00     0.188 C 
HETATM   15  O3  UNL     1      16.161  10.331   0.674  1.00  0.00    -0.378 OA
HETATM   16  C10 UNL     1      16.751  11.616   0.668  1.00  0.00     0.200 C 
HETATM   17  C11 UNL     1      17.016  12.027   2.096  1.00  0.00     0.145 C 
HETATM   18  C12 UNL     1      17.749  10.891   2.764  1.00  0.00     0.036 C 
HETATM   19  O4  UNL     1      15.854  12.109   2.856  1.00  0.00    -0.376 OA
HETATM   20  C13 UNL     1      16.615  10.017   3.239  1.00  0.00     0.037 C 
HETATM   21  C14 UNL     1      15.376  10.783   2.828  1.00  0.00     0.154 C 
ENDBRANCH   1  14
TORSDOF 4
ENDMDL
MODEL 5
REMARK VINA RESULT: -7.345004473      1.891      3.109
REMARK  4 active torsions:
REMARK  status: ('A' for Active; 'I' for Inactive)
REMARK       I    between atoms: C1_2  and  N1_3 
REMARK    1  A    between atoms: C1_2  and  C8_11 
REMARK    2  A    between atoms: N1_3  and  C2_5 
REMARK    3  A    between atoms: C8_11  and  O2_12 
REMARK    4  A    between atoms: C8_11  and  C9_14 
ROOT
HETATM    1  C8  UNL     1      15.496  10.379   1.127  1.00  0.00     0.241 C 
ENDROOT
BRANCH   1   2
HETATM    2  C1  UNL     1      14.873   9.717  -0.044  1.00  0.00     0.249 C 
HETATM    3  O1  UNL     1      14.335   8.577   0.078  1.00  0.00    -0.271 OA
HETATM    4  N1  UNL     1      14.843  10.306  -1.336  1.00  0.00    -0.354 N 
ATOM      5  H1  UNL     1      15.268  11.224  -1.464  1.00  0.00     0.162 HD
BRANCH   4   6
HETATM    6  C2  UNL     1      14.236   9.660  -2.479  1.00  0.00     0.084 C 
HETATM    7  C3  UNL     1      12.774  10.014  -2.493  1.00  0.00     0.025 C 
HETATM    8  C4  UNL     1      12.071   9.652  -3.752  1.00  0.00     0.002 C 
HETATM    9  C5  UNL     1      12.865   9.817  -4.996  1.00  0.00     0.000 C 
HETATM   10  C6  UNL     1      14.290   9.356  -4.892  1.00  0.00     0.002 C 
HETATM   11  C7  UNL     1      14.928  10.153  -3.753  1.00  0.00     0.025 C 
ENDBRANCH   4   6
ENDBRANCH   1   2
BRANCH   1  12
HETATM   12  O2  UNL     1      16.872  10.307   1.066  1.00  0.00    -0.383 OA
ATOM     13  H2  UNL     1      17.167   9.405   1.037  1.00  0.00     0.210 HD
ENDBRANCH   1  12
BRANCH   1  14
HETATM   14  C9  UNL     1      15.050   9.619   2.357  1.00  0.00     0.188 C 
HETATM   15  O3  UNL     1      13.833  10.142   2.853  1.00  0.00    -0.378 OA
HETATM   16  C10 UNL     1      13.410   9.200   3.819  1.00  0.00     0.200 C 
HETATM   17  C11 UNL     1      14.471   9.104   4.889  1.00  0.00     0.145 C 
HETATM   18  C12 UNL     1      14.793  10.509   5.332  1.00  0.00     0.036 C 
HETATM   19  O4  UNL     1      15.695   8.668   4.395  1.00  0.00    -0.376 OA
HETATM   20  C13 UNL     1      15.850  10.921   4.339  1.00  0.00     0.037 C 
HETATM   21  C14 UNL     1      16.037   9.687   3.482  1.00  0.00     0.154 C 
ENDBRANCH   1  14
TORSDOF 4
ENDMDL
