MODEL 1
REMARK VINA RESULT: -7.316408682      0.000      0.000
REMARK  5 active torsions:
REMARK  status: ('A' for Active; 'I' for Inactive)
REMARK    1  A    between atoms: C4_4  and  O1_5 
REMARK    2  A    between atoms: N1_8  and  C6_9 
REMARK    3  A    between atoms: C6_9  and  C7_10 
REMARK    4  A    between atoms: C7_10  and  C8_11 
REMARK    5  A    between atoms: C8_11  and  O2_12 
ROOT
HETATM    1  C7  UNL     1      13.769  10.577   1.933  1.00  0.00     0.069 C 
ENDROOT
BRANCH   1   2
HETATM    2  C6  UNL     1      13.609   9.682   0.784  1.00  0.00     0.275 C 
BRANCH   2   3
HETATM    3  N1  UNL     1      14.213   9.919  -0.450  1.00  0.00     0.091 N 
HETATM    4  C5  UNL     1      15.588  10.270  -0.497  1.00  0.00     0.303 C 
HETATM    5  C4  UNL     1      16.159  10.010  -1.872  1.00  0.00     0.146 C 
HETATM    6  C3  UNL     1      15.092   9.808  -2.913  1.00  0.00     0.039 C 
HETATM    7  C2  UNL     1      13.853  10.604  -2.704  1.00  0.00     0.012 C 
HETATM    8  C1  UNL     1      12.710   9.847  -3.397  1.00  0.00     0.012 C 
HETATM    9  C15 UNL     1      13.485  10.862  -1.282  1.00  0.00     0.277 C 
BRANCH   5  10
HETATM   10  O1  UNL     1      16.983  11.068  -2.280  1.00  0.00    -0.394 OA
ATOM     11  H1  UNL     1      17.794  11.024  -1.787  1.00  0.00     0.210 HD
ENDBRANCH   5  10
ENDBRANCH   2   3
ENDBRANCH   1   2
BRANCH   1  12
HETATM   12  C8  UNL     1      14.257  10.027   3.219  1.00  0.00     0.069 C 
HETATM   13  C9  UNL     1      15.407   9.107   3.197  1.00  0.00     0.039 C 
HETATM   14  C10 UNL     1      16.737   9.645   2.818  1.00  0.00     0.010 C 
HETATM   15  C11 UNL     1      17.099  10.983   3.390  1.00  0.00     0.079 C 
HETATM   16  C12 UNL     1      15.904  11.779   3.770  1.00  0.00     0.133 C 
HETATM   17  O3  UNL     1      16.020  12.991   3.726  1.00  0.00    -0.297 OA
HETATM   18  C13 UNL     1      14.629  11.194   4.183  1.00  0.00     0.085 C 
HETATM   19  C14 UNL     1      14.610  10.633   5.571  1.00  0.00     0.021 C 
BRANCH  12  20
HETATM   20  O2  UNL     1      13.182   9.346   3.880  1.00  0.00    -0.389 OA
ATOM     21  H2  UNL     1      12.964   8.560   3.393  1.00  0.00     0.210 HD
ENDBRANCH  12  20
ENDBRANCH   1  12
TORSDOF 5
ENDMDL
MODEL 2
REMARK VINA RESULT: -7.100492203      2.829      6.708
REMARK  5 active torsions:
REMARK  status: ('A' for Active; 'I' for Inactive)
REMARK    1  A    between atoms: C4_4  and  O1_5 
REMARK    2  A    between atoms: N1_8  and  C6_9 
REMARK    3  A    between atoms: C6_9  and  C7_10 
REMARK    4  A    between atoms: C7_10  and  C8_11 
REMARK    5  A    between atoms: C8_11  and  O2_12 
ROOT
HETATM    1  C7  UNL     1      15.087  10.321   2.999  1.00  0.00     0.069 C 
ENDROOT
BRANCH   1   2
HETATM    2  C6  UNL     1      15.172  10.979   4.306  1.00  0.00     0.275 C 
BRANCH   2   3
HETATM    3  N1  UNL     1      15.224  10.274   5.507  1.00  0.00     0.091 N 
HETATM    4  C5  UNL     1      16.115   9.175   5.632  1.00  0.00     0.303 C 
HETATM    5  C4  UNL     1      16.382   8.866   7.087  1.00  0.00     0.146 C 
HETATM    6  C3  UNL     1      15.391   9.523   8.009  1.00  0.00     0.039 C 
HETATM    7  C2  UNL     1      14.013   9.649   7.462  1.00  0.00     0.012 C 
HETATM    8  C1  UNL     1      13.353  10.837   8.176  1.00  0.00     0.012 C 
HETATM    9  C15 UNL     1      13.921   9.845   5.987  1.00  0.00     0.277 C 
BRANCH   5  10
HETATM   10  O1  UNL     1      16.356   7.484   7.318  1.00  0.00    -0.394 OA
ATOM     11  H1  UNL     1      16.379   7.038   6.479  1.00  0.00     0.210 HD
ENDBRANCH   5  10
ENDBRANCH   2   3
ENDBRANCH   1   2
BRANCH   1  12
HETATM   12  C8  UNL     1      13.819  10.388   2.235  1.00  0.00     0.069 C 
HETATM   13  C9  UNL     1      13.876  10.772   0.814  1.00  0.00     0.039 C 
HETATM   14  C10 UNL     1      14.512   9.836  -0.147  1.00  0.00     0.010 C 
HETATM   15  C11 UNL     1      14.190   8.383   0.030  1.00  0.00     0.079 C 
HETATM   16  C12 UNL     1      13.758   8.062   1.415  1.00  0.00     0.133 C 
HETATM   17  O3  UNL     1      13.987   6.933   1.810  1.00  0.00    -0.297 OA
HETATM   18  C13 UNL     1      13.090   9.013   2.304  1.00  0.00     0.085 C 
HETATM   19  C14 UNL     1      11.649   9.269   1.988  1.00  0.00     0.021 C 
BRANCH  12  20
HETATM   20  O2  UNL     1      12.924  11.301   2.885  1.00  0.00    -0.389 OA
ATOM     21  H2  UNL     1      13.281  12.179   2.833  1.00  0.00     0.210 HD
ENDBRANCH  12  20
ENDBRANCH   1  12
TORSDOF 5
ENDMDL
MODEL 3
REMARK VINA RESULT: -7.060463717      1.805      2.928
REMARK  5 active torsions:
REMARK  status: ('A' for Active; 'I' for Inactive)
REMARK    1  A    between atoms: C4_4  and  O1_5 
REMARK    2  A    between atoms: N1_8  and  C6_9 
REMARK    3  A    between atoms: C6_9  and  C7_10 
REMARK    4  A    between atoms: C7_10  and  C8_11 
REMARK    5  A    between atoms: C8_11  and  O2_12 
ROOT
HETATM    1  C7  UNL     1      14.973   9.254   0.059  1.00  0.00     0.069 C 
ENDROOT
BRANCH   1   2
HETATM    2  C6  UNL     1      13.893   8.936  -0.879  1.00  0.00     0.275 C 
BRANCH   2   3
HETATM    3  N1  UNL     1      13.925   9.304  -2.223  1.00  0.00     0.091 N 
HETATM    4  C5  UNL     1      15.068   9.974  -2.734  1.00  0.00     0.303 C 
HETATM    5  C4  UNL     1      15.131   9.851  -4.239  1.00  0.00     0.146 C 
HETATM    6  C3  UNL     1      13.829   9.392  -4.837  1.00  0.00     0.039 C 
HETATM    7  C2  UNL     1      12.611   9.868  -4.129  1.00  0.00     0.012 C 
HETATM    8  C1  UNL     1      11.495   8.855  -4.423  1.00  0.00     0.012 C 
HETATM    9  C15 UNL     1      12.749  10.040  -2.654  1.00  0.00     0.277 C 
BRANCH   5  10
HETATM   10  O1  UNL     1      15.484  11.074  -4.828  1.00  0.00    -0.394 OA
ATOM     11  H1  UNL     1      15.913  11.610  -4.172  1.00  0.00     0.210 HD
ENDBRANCH   5  10
ENDBRANCH   2   3
ENDBRANCH   1   2
BRANCH   1  12
HETATM   12  C8  UNL     1      14.790  10.359   1.029  1.00  0.00     0.069 C 
HETATM   13  C9  UNL     1      13.438  10.613   1.556  1.00  0.00     0.039 C 
HETATM   14  C10 UNL     1      12.827   9.602   2.454  1.00  0.00     0.010 C 
HETATM   15  C11 UNL     1      13.730   9.002   3.490  1.00  0.00     0.079 C 
HETATM   16  C12 UNL     1      15.164   9.089   3.111  1.00  0.00     0.133 C 
HETATM   17  O3  UNL     1      15.898   8.222   3.550  1.00  0.00    -0.297 OA
HETATM   18  C13 UNL     1      15.722  10.140   2.259  1.00  0.00     0.085 C 
HETATM   19  C14 UNL     1      15.887  11.471   2.921  1.00  0.00     0.021 C 
BRANCH  12  20
HETATM   20  O2  UNL     1      15.253  11.583   0.443  1.00  0.00    -0.389 OA
ATOM     21  H2  UNL     1      15.067  12.303   1.035  1.00  0.00     0.210 HD
ENDBRANCH  12  20
ENDBRANCH   1  12
TORSDOF 5
ENDMDL
MODEL 4
REMARK VINA RESULT: -7.030816157      3.482      5.412
REMARK  5 active torsions:
REMARK  status: ('A' for Active; 'I' for Inactive)
REMARK    1  A    between atoms: C4_4  and  O1_5 
REMARK    2  A    between atoms: N1_8  and  C6_9 
REMARK    3  A    between atoms: C6_9  and  C7_10 
REMARK    4  A    between atoms: C7_10  and  C8_11 
REMARK    5  A    between atoms: C8_11  and  O2_12 
ROOT
HETATM    1  C7  UNL     1      19.190   9.900  -0.663  1.00  0.00     0.069 C 
ENDROOT
BRANCH   1   2
HETATM    2  C6  UNL     1      18.080  10.530  -1.384  1.00  0.00     0.275 C 
BRANCH   2   3
HETATM    3  N1  UNL     1      16.743  10.294  -1.070  1.00  0.00     0.091 N 
HETATM    4  C5  UNL     1      15.796  10.153  -2.118  1.00  0.00     0.303 C 
HETATM    5  C4  UNL     1      14.557   9.440  -1.627  1.00  0.00     0.146 C 
HETATM    6  C3  UNL     1      14.475   9.391  -0.126  1.00  0.00     0.039 C 
HETATM    7  C2  UNL     1      15.040  10.576   0.573  1.00  0.00     0.012 C 
HETATM    8  C1  UNL     1      15.462  10.113   1.976  1.00  0.00     0.012 C 
HETATM    9  C15 UNL     1      16.198  11.230  -0.102  1.00  0.00     0.277 C 
BRANCH   5  10
HETATM   10  O1  UNL     1      13.397  10.058  -2.115  1.00  0.00    -0.394 OA
ATOM     11  H1  UNL     1      12.684   9.432  -2.079  1.00  0.00     0.210 HD
ENDBRANCH   5  10
ENDBRANCH   2   3
ENDBRANCH   1   2
BRANCH   1  12
HETATM   12  C8  UNL     1      19.938  10.685   0.347  1.00  0.00     0.069 C 
HETATM   13  C9  UNL     1      19.325  10.890   1.670  1.00  0.00     0.039 C 
HETATM   14  C10 UNL     1      19.167   9.717   2.566  1.00  0.00     0.010 C 
HETATM   15  C11 UNL     1      20.324   8.765   2.624  1.00  0.00     0.079 C 
HETATM   16  C12 UNL     1      21.177   8.835   1.410  1.00  0.00     0.133 C 
HETATM   17  O3  UNL     1      21.770   7.817   1.101  1.00  0.00    -0.297 OA
HETATM   18  C13 UNL     1      21.334  10.036   0.589  1.00  0.00     0.085 C 
HETATM   19  C14 UNL     1      22.209  11.097   1.181  1.00  0.00     0.021 C 
BRANCH  12  20
HETATM   20  O2  UNL     1      20.234  11.982  -0.188  1.00  0.00    -0.389 OA
ATOM     21  H2  UNL     1      21.047  12.298   0.190  1.00  0.00     0.210 HD
ENDBRANCH  12  20
ENDBRANCH   1  12
TORSDOF 5
ENDMDL
MODEL 5
REMARK VINA RESULT: -7.023062339      2.597      3.956
REMARK  5 active torsions:
REMARK  status: ('A' for Active; 'I' for Inactive)
REMARK    1  A    between atoms: C4_4  and  O1_5 
REMARK    2  A    between atoms: N1_8  and  C6_9 
REMARK    3  A    between atoms: C6_9  and  C7_10 
REMARK    4  A    between atoms: C7_10  and  C8_11 
REMARK    5  A    between atoms: C8_11  and  O2_12 
ROOT
HETATM    1  C7  UNL     1      15.012  11.223  -1.082  1.00  0.00     0.069 C 
ENDROOT
BRANCH   1   2
HETATM    2  C6  UNL     1      13.669  10.742  -1.416  1.00  0.00     0.275 C 
BRANCH   2   3
HETATM    3  N1  UNL     1      13.337  10.234  -2.671  1.00  0.00     0.091 N 
HETATM    4  C5  UNL     1      12.030   9.727  -2.895  1.00  0.00     0.303 C 
HETATM    5  C4  UNL     1      11.718   9.686  -4.373  1.00  0.00     0.146 C 
HETATM    6  C3  UNL     1      12.948   9.829  -5.228  1.00  0.00     0.039 C 
HETATM    7  C2  UNL     1      14.182   9.225  -4.658  1.00  0.00     0.012 C 
HETATM    8  C1  UNL     1      15.374   9.979  -5.267  1.00  0.00     0.012 C 
HETATM    9  C15 UNL     1      14.285   9.253  -3.171  1.00  0.00     0.277 C 
BRANCH   5  10
HETATM   10  O1  UNL     1      11.076   8.488  -4.716  1.00  0.00    -0.394 OA
ATOM     11  H1  UNL     1      10.143   8.595  -4.573  1.00  0.00     0.210 HD
ENDBRANCH   5  10
ENDBRANCH   2   3
ENDBRANCH   1   2
BRANCH   1  12
HETATM   12  C8  UNL     1      15.884  10.397  -0.215  1.00  0.00     0.069 C 
HETATM   13  C9  UNL     1      16.972   9.628  -0.843  1.00  0.00     0.039 C 
HETATM   14  C10 UNL     1      18.112  10.369  -1.437  1.00  0.00     0.010 C 
HETATM   15  C11 UNL     1      18.630  11.534  -0.647  1.00  0.00     0.079 C 
HETATM   16  C12 UNL     1      17.613  12.084   0.285  1.00  0.00     0.133 C 
HETATM   17  O3  UNL     1      17.704  13.269   0.554  1.00  0.00    -0.297 OA
HETATM   18  C13 UNL     1      16.536  11.293   0.881  1.00  0.00     0.085 C 
HETATM   19  C14 UNL     1      16.960  10.381   1.991  1.00  0.00     0.021 C 
BRANCH  12  20
HETATM   20  O2  UNL     1      15.075   9.467   0.518  1.00  0.00    -0.389 OA
ATOM     21  H2  UNL     1      15.266   9.550   1.445  1.00  0.00     0.210 HD
ENDBRANCH  12  20
ENDBRANCH   1  12
TORSDOF 5
ENDMDL
