MODEL 1
REMARK VINA RESULT: -7.449505193      0.000      0.000
REMARK  4 active torsions:
REMARK  status: ('A' for Active; 'I' for Inactive)
REMARK    1  A    between atoms: N1_4  and  C4_5 
REMARK    2  A    between atoms: C4_5  and  C5_6 
REMARK    3  A    between atoms: C5_6  and  N2_7 
REMARK    4  A    between atoms: N2_7  and  C6_9 
ROOT
HETATM    1  C6  UNL     1      19.592  10.616   0.494  1.00  0.00     0.174 A 
HETATM    2  O1  UNL     1      20.206  11.561  -0.161  1.00  0.00    -0.219 OA
HETATM    3  N3  UNL     1      21.424  11.713   0.278  1.00  0.00    -0.263 N 
ATOM      4  H3  UNL     1      22.094  12.393  -0.082  1.00  0.00     0.194 HD
HETATM    5  C7  UNL     1      21.671  10.844   1.274  1.00  0.00     0.044 A 
HETATM    6  C8  UNL     1      20.495  10.136   1.417  1.00  0.00     0.021 A 
HETATM    7  C9  UNL     1      20.196   9.030   2.385  1.00  0.00     0.064 C 
HETATM    8  C10 UNL     1      21.180   9.092   3.529  1.00  0.00     0.118 C 
HETATM    9  N4  UNL     1      22.454   8.541   3.217  1.00  0.00    -0.421 N 
ATOM     10  H4  UNL     1      22.791   7.688   3.663  1.00  0.00     0.153 HD
HETATM   11  C11 UNL     1      23.237   9.234   2.255  1.00  0.00     0.120 C 
HETATM   12  C12 UNL     1      22.920  10.675   2.055  1.00  0.00     0.079 C 
ENDROOT
BRANCH   1  13
HETATM   13  N2  UNL     1      18.378  10.236   0.287  1.00  0.00    -0.367 N 
ATOM     14  H2  UNL     1      18.097   9.331   0.664  1.00  0.00     0.161 HD
BRANCH  13  15
HETATM   15  C5  UNL     1      17.386  10.994  -0.440  1.00  0.00     0.141 C 
BRANCH  15  16
HETATM   16  C4  UNL     1      16.959  10.268  -1.694  1.00  0.00     0.136 C 
BRANCH  16  17
HETATM   17  N1  UNL     1      15.560  10.126  -1.854  1.00  0.00    -0.411 N 
HETATM   18  C3  UNL     1      15.041  10.251  -3.177  1.00  0.00     0.117 C 
HETATM   19  C2  UNL     1      13.722   9.464  -3.189  1.00  0.00     0.019 C 
HETATM   20  C1  UNL     1      12.775  10.136  -2.246  1.00  0.00     0.003 C 
HETATM   21  C14 UNL     1      13.429  11.229  -1.425  1.00  0.00     0.019 C 
HETATM   22  C13 UNL     1      14.734  10.723  -0.854  1.00  0.00     0.117 C 
ENDBRANCH  16  17
ENDBRANCH  15  16
ENDBRANCH  13  15
ENDBRANCH   1  13
TORSDOF 4
ENDMDL
MODEL 2
REMARK VINA RESULT: -7.410651385      1.739      2.313
REMARK  4 active torsions:
REMARK  status: ('A' for Active; 'I' for Inactive)
REMARK    1  A    between atoms: N1_4  and  C4_5 
REMARK    2  A    between atoms: C4_5  and  C5_6 
REMARK    3  A    between atoms: C5_6  and  N2_7 
REMARK    4  A    between atoms: N2_7  and  C6_9 
ROOT
HETATM    1  C6  UNL     1      18.002  10.624   1.209  1.00  0.00     0.174 A 
HETATM    2  O1  UNL     1      17.884  11.394   2.254  1.00  0.00    -0.219 OA
HETATM    3  N3  UNL     1      19.049  11.635   2.787  1.00  0.00    -0.263 N 
ATOM      4  H3  UNL     1      19.206  12.212   3.613  1.00  0.00     0.194 HD
HETATM    5  C7  UNL     1      20.016  11.011   2.090  1.00  0.00     0.044 A 
HETATM    6  C8  UNL     1      19.347  10.359   1.074  1.00  0.00     0.021 A 
HETATM    7  C9  UNL     1      19.927   9.503  -0.012  1.00  0.00     0.064 C 
HETATM    8  C10 UNL     1      21.300   9.033   0.406  1.00  0.00     0.118 C 
HETATM    9  N4  UNL     1      22.315  10.017   0.241  1.00  0.00    -0.421 N 
ATOM     10  H4  UNL     1      23.060   9.905  -0.446  1.00  0.00     0.153 HD
HETATM   11  C11 UNL     1      22.243  11.163   1.078  1.00  0.00     0.120 C 
HETATM   12  C12 UNL     1      21.476  11.012   2.345  1.00  0.00     0.079 C 
ENDROOT
BRANCH   1  13
HETATM   13  N2  UNL     1      17.026  10.214   0.475  1.00  0.00    -0.367 N 
ATOM     14  H2  UNL     1      16.694   9.261   0.621  1.00  0.00     0.161 HD
BRANCH  13  15
HETATM   15  C5  UNL     1      16.366  11.002  -0.541  1.00  0.00     0.141 C 
BRANCH  15  16
HETATM   16  C4  UNL     1      16.389  10.295  -1.876  1.00  0.00     0.136 C 
BRANCH  16  17
HETATM   17  N1  UNL     1      15.138  10.225  -2.535  1.00  0.00    -0.411 N 
HETATM   18  C3  UNL     1      14.138   9.394  -1.946  1.00  0.00     0.117 C 
HETATM   19  C2  UNL     1      12.790   9.956  -2.420  1.00  0.00     0.019 C 
HETATM   20  C1  UNL     1      12.720   9.797  -3.905  1.00  0.00     0.003 C 
HETATM   21  C14 UNL     1      14.028   9.340  -4.517  1.00  0.00     0.019 C 
HETATM   22  C13 UNL     1      15.164  10.168  -3.962  1.00  0.00     0.117 C 
ENDBRANCH  16  17
ENDBRANCH  15  16
ENDBRANCH  13  15
ENDBRANCH   1  13
TORSDOF 4
ENDMDL
MODEL 3
REMARK VINA RESULT: -7.328972039      5.252      7.918
REMARK  4 active torsions:
REMARK  status: ('A' for Active; 'I' for Inactive)
REMARK    1  A    between atoms: N1_4  and  C4_5 
REMARK    2  A    between atoms: C4_5  and  C5_6 
REMARK    3  A    between atoms: C5_6  and  N2_7 
REMARK    4  A    between atoms: N2_7  and  C6_9 
ROOT
HETATM    1  C6  UNL     1      14.869  10.834   1.920  1.00  0.00     0.174 A 
HETATM    2  O1  UNL     1      15.911  11.617   1.925  1.00  0.00    -0.219 OA
HETATM    3  N3  UNL     1      16.544  11.556   0.788  1.00  0.00    -0.263 N 
ATOM      4  H3  UNL     1      17.388  12.081   0.560  1.00  0.00     0.194 HD
HETATM    5  C7  UNL     1      15.923  10.698  -0.043  1.00  0.00     0.044 A 
HETATM    6  C8  UNL     1      14.845  10.231   0.681  1.00  0.00     0.021 A 
HETATM    7  C9  UNL     1      13.801   9.245   0.249  1.00  0.00     0.064 C 
HETATM    8  C10 UNL     1      14.328   8.443  -0.917  1.00  0.00     0.118 C 
HETATM    9  N4  UNL     1      14.264   9.132  -2.161  1.00  0.00    -0.421 N 
ATOM     10  H4  UNL     1      13.641   8.826  -2.908  1.00  0.00     0.153 HD
HETATM   11  C11 UNL     1      15.107  10.265  -2.313  1.00  0.00     0.120 C 
HETATM   12  C12 UNL     1      16.302  10.327  -1.427  1.00  0.00     0.079 C 
ENDROOT
BRANCH   1  13
HETATM   13  N2  UNL     1      14.048  10.681   2.902  1.00  0.00    -0.367 N 
ATOM     14  H2  UNL     1      13.169  11.196   2.865  1.00  0.00     0.161 HD
BRANCH  13  15
HETATM   15  C5  UNL     1      14.280   9.836   4.051  1.00  0.00     0.141 C 
BRANCH  15  16
HETATM   16  C4  UNL     1      14.672  10.657   5.257  1.00  0.00     0.136 C 
BRANCH  16  17
HETATM   17  N1  UNL     1      14.661   9.955   6.486  1.00  0.00    -0.411 N 
HETATM   18  C3  UNL     1      14.651   8.529   6.419  1.00  0.00     0.117 C 
HETATM   19  C2  UNL     1      15.263   8.041   7.741  1.00  0.00     0.019 C 
HETATM   20  C1  UNL     1      14.359   8.468   8.854  1.00  0.00     0.003 C 
HETATM   21  C14 UNL     1      13.255   9.401   8.399  1.00  0.00     0.019 C 
HETATM   22  C13 UNL     1      13.838  10.488   7.524  1.00  0.00     0.117 C 
ENDBRANCH  16  17
ENDBRANCH  15  16
ENDBRANCH  13  15
ENDBRANCH   1  13
TORSDOF 4
ENDMDL
MODEL 4
REMARK VINA RESULT: -7.304158768      0.560      1.175
REMARK  4 active torsions:
REMARK  status: ('A' for Active; 'I' for Inactive)
REMARK    1  A    between atoms: N1_4  and  C4_5 
REMARK    2  A    between atoms: C4_5  and  C5_6 
REMARK    3  A    between atoms: C5_6  and  N2_7 
REMARK    4  A    between atoms: N2_7  and  C6_9 
ROOT
HETATM    1  C6  UNL     1      19.348  10.625   0.464  1.00  0.00     0.174 A 
HETATM    2  O1  UNL     1      19.973  11.538  -0.226  1.00  0.00    -0.219 OA
HETATM    3  N3  UNL     1      21.189  11.701   0.213  1.00  0.00    -0.263 N 
ATOM      4  H3  UNL     1      21.864  12.361  -0.172  1.00  0.00     0.194 HD
HETATM    5  C7  UNL     1      21.424  10.875   1.248  1.00  0.00     0.044 A 
HETATM    6  C8  UNL     1      20.243  10.180   1.413  1.00  0.00     0.021 A 
HETATM    7  C9  UNL     1      19.931   9.120   2.427  1.00  0.00     0.064 C 
HETATM    8  C10 UNL     1      20.908   9.224   3.573  1.00  0.00     0.118 C 
HETATM    9  N4  UNL     1      22.181   8.653   3.293  1.00  0.00    -0.421 N 
ATOM     10  H4  UNL     1      22.509   7.818   3.778  1.00  0.00     0.153 HD
HETATM   11  C11 UNL     1      22.974   9.299   2.307  1.00  0.00     0.120 C 
HETATM   12  C12 UNL     1      22.667  10.732   2.043  1.00  0.00     0.079 C 
ENDROOT
BRANCH   1  13
HETATM   13  N2  UNL     1      18.134  10.244   0.266  1.00  0.00    -0.367 N 
ATOM     14  H2  UNL     1      17.840   9.365   0.692  1.00  0.00     0.161 HD
BRANCH  13  15
HETATM   15  C5  UNL     1      17.156  10.967  -0.514  1.00  0.00     0.141 C 
BRANCH  15  16
HETATM   16  C4  UNL     1      16.856  10.248  -1.808  1.00  0.00     0.136 C 
BRANCH  16  17
HETATM   17  N1  UNL     1      15.490  10.236  -2.181  1.00  0.00    -0.411 N 
HETATM   18  C3  UNL     1      14.615   9.405  -1.419  1.00  0.00     0.117 C 
HETATM   19  C2  UNL     1      13.215  10.020  -1.567  1.00  0.00     0.019 C 
HETATM   20  C1  UNL     1      12.820   9.926  -3.007  1.00  0.00     0.003 C 
HETATM   21  C14 UNL     1      13.949   9.464  -3.905  1.00  0.00     0.019 C 
HETATM   22  C13 UNL     1      15.205  10.240  -3.581  1.00  0.00     0.117 C 
ENDBRANCH  16  17
ENDBRANCH  15  16
ENDBRANCH  13  15
ENDBRANCH   1  13
TORSDOF 4
ENDMDL
MODEL 5
REMARK VINA RESULT: -7.292572706      3.645      5.038
REMARK  4 active torsions:
REMARK  status: ('A' for Active; 'I' for Inactive)
REMARK    1  A    between atoms: N1_4  and  C4_5 
REMARK    2  A    between atoms: C4_5  and  C5_6 
REMARK    3  A    between atoms: C5_6  and  N2_7 
REMARK    4  A    between atoms: N2_7  and  C6_9 
ROOT
HETATM    1  C6  UNL     1      16.803  10.703   1.742  1.00  0.00     0.174 A 
HETATM    2  O1  UNL     1      17.552  11.492   2.460  1.00  0.00    -0.219 OA
HETATM    3  N3  UNL     1      17.023  11.692   3.634  1.00  0.00    -0.263 N 
ATOM      4  H3  UNL     1      17.430  12.275   4.366  1.00  0.00     0.194 HD
HETATM    5  C7  UNL     1      15.863  11.020   3.742  1.00  0.00     0.044 A 
HETATM    6  C8  UNL     1      15.717  10.382   2.527  1.00  0.00     0.021 A 
HETATM    7  C9  UNL     1      14.599   9.487   2.083  1.00  0.00     0.064 C 
HETATM    8  C10 UNL     1      13.388   9.736   2.951  1.00  0.00     0.118 C 
HETATM    9  N4  UNL     1      13.457   9.103   4.224  1.00  0.00    -0.421 N 
ATOM     10  H4  UNL     1      12.828   8.341   4.475  1.00  0.00     0.153 HD
HETATM   11  C11 UNL     1      14.443   9.583   5.128  1.00  0.00     0.120 C 
HETATM   12  C12 UNL     1      14.937  10.968   4.898  1.00  0.00     0.079 C 
ENDROOT
BRANCH   1  13
HETATM   13  N2  UNL     1      17.063  10.323   0.539  1.00  0.00    -0.367 N 
ATOM     14  H2  UNL     1      17.519   9.418   0.419  1.00  0.00     0.161 HD
BRANCH  13  15
HETATM   15  C5  UNL     1      16.760  11.081  -0.653  1.00  0.00     0.141 C 
BRANCH  15  16
HETATM   16  C4  UNL     1      16.570  10.169  -1.843  1.00  0.00     0.136 C 
BRANCH  16  17
HETATM   17  N1  UNL     1      15.263  10.163  -2.387  1.00  0.00    -0.411 N 
HETATM   18  C3  UNL     1      14.291   9.348  -1.734  1.00  0.00     0.117 C 
HETATM   19  C2  UNL     1      12.927   9.972  -2.066  1.00  0.00     0.019 C 
HETATM   20  C1  UNL     1      12.718   9.863  -3.544  1.00  0.00     0.003 C 
HETATM   21  C14 UNL     1      13.948   9.382  -4.285  1.00  0.00     0.019 C 
HETATM   22  C13 UNL     1      15.160  10.152  -3.811  1.00  0.00     0.117 C 
ENDBRANCH  16  17
ENDBRANCH  15  16
ENDBRANCH  13  15
ENDBRANCH   1  13
TORSDOF 4
ENDMDL
