MODEL 1
REMARK VINA RESULT: -5.840030621      0.000      0.000
REMARK  3 active torsions:
REMARK  status: ('A' for Active; 'I' for Inactive)
REMARK    1  A    between atoms: C1_2  and  C2_4 
REMARK    2  A    between atoms: N1_8  and  C5_9 
REMARK    3  A    between atoms: C5_9  and  C6_10 
ROOT
HETATM    1  C2  UNL     1     -57.894 -66.748  19.092  1.00  0.00     0.391 C 
HETATM    2  O3  UNL     1     -58.695 -66.871  17.956  1.00  0.00    -0.345 OA
HETATM    3  C3  UNL     1     -60.008 -66.734  18.417  1.00  0.00     0.218 C 
HETATM    4  C4  UNL     1     -60.283 -67.539  19.636  1.00  0.00     0.116 C 
HETATM    5  N1  UNL     1     -59.201 -68.250  20.190  1.00  0.00    -0.268 N 
HETATM    6  O4  UNL     1     -57.990 -67.946  19.783  1.00  0.00    -0.235 OA
ENDROOT
BRANCH   5   7
HETATM    7  C5  UNL     1     -59.287 -68.476  21.614  1.00  0.00     0.159 C 
BRANCH   7   8
HETATM    8  C6  UNL     1     -60.011 -69.784  21.874  1.00  0.00     0.006 C 
HETATM    9  C7  UNL     1     -59.797 -70.260  23.281  1.00  0.00     0.006 C 
HETATM   10  C8  UNL     1     -58.328 -70.487  23.485  1.00  0.00     0.000 C 
HETATM   11  C9  UNL     1     -57.883 -71.567  22.520  1.00  0.00     0.000 C 
HETATM   12  C10 UNL     1     -59.000 -72.066  21.648  1.00  0.00     0.000 C 
HETATM   13  C11 UNL     1     -59.601 -70.864  20.932  1.00  0.00     0.006 C 
ENDBRANCH   7   8
ENDBRANCH   5   7
BRANCH   1  14
HETATM   14  C1  UNL     1     -56.511 -66.451  18.740  1.00  0.00     0.233 C 
HETATM   15  O1  UNL     1     -55.826 -65.685  19.467  1.00  0.00    -0.644 OA
HETATM   16  O2  UNL     1     -55.975 -67.028  17.598  1.00  0.00    -0.644 OA
ENDBRANCH   1  14
TORSDOF 3
ENDMDL
MODEL 2
REMARK VINA RESULT: -5.718899688      0.802      1.523
REMARK  3 active torsions:
REMARK  status: ('A' for Active; 'I' for Inactive)
REMARK    1  A    between atoms: C1_2  and  C2_4 
REMARK    2  A    between atoms: N1_8  and  C5_9 
REMARK    3  A    between atoms: C5_9  and  C6_10 
ROOT
HETATM    1  C2  UNL     1     -57.842 -66.517  18.955  1.00  0.00     0.391 C 
HETATM    2  O3  UNL     1     -58.568 -66.608  17.767  1.00  0.00    -0.345 OA
HETATM    3  C3  UNL     1     -59.910 -66.525  18.151  1.00  0.00     0.218 C 
HETATM    4  C4  UNL     1     -60.237 -67.393  19.312  1.00  0.00     0.116 C 
HETATM    5  N1  UNL     1     -59.172 -68.101  19.901  1.00  0.00    -0.268 N 
HETATM    6  O4  UNL     1     -57.947 -67.748  19.585  1.00  0.00    -0.235 OA
ENDROOT
BRANCH   5   7
HETATM    7  C5  UNL     1     -59.339 -68.395  21.304  1.00  0.00     0.159 C 
BRANCH   7   8
HETATM    8  C6  UNL     1     -58.526 -69.626  21.663  1.00  0.00     0.006 C 
HETATM    9  C7  UNL     1     -59.035 -70.846  20.955  1.00  0.00     0.006 C 
HETATM   10  C8  UNL     1     -60.454 -71.082  21.381  1.00  0.00     0.000 C 
HETATM   11  C9  UNL     1     -60.460 -71.333  22.875  1.00  0.00     0.000 C 
HETATM   12  C10 UNL     1     -59.088 -71.252  23.484  1.00  0.00     0.000 C 
HETATM   13  C11 UNL     1     -58.503 -69.892  23.129  1.00  0.00     0.006 C 
ENDBRANCH   7   8
ENDBRANCH   5   7
BRANCH   1  14
HETATM   14  C1  UNL     1     -56.448 -66.169  18.706  1.00  0.00     0.233 C 
HETATM   15  O1  UNL     1     -55.734 -65.719  19.638  1.00  0.00    -0.644 OA
HETATM   16  O2  UNL     1     -55.937 -66.346  17.428  1.00  0.00    -0.644 OA
ENDBRANCH   1  14
TORSDOF 3
ENDMDL
MODEL 3
REMARK VINA RESULT: -5.649175891      0.714      1.205
REMARK  3 active torsions:
REMARK  status: ('A' for Active; 'I' for Inactive)
REMARK    1  A    between atoms: C1_2  and  C2_4 
REMARK    2  A    between atoms: N1_8  and  C5_9 
REMARK    3  A    between atoms: C5_9  and  C6_10 
ROOT
HETATM    1  C2  UNL     1     -57.996 -66.472  18.755  1.00  0.00     0.391 C 
HETATM    2  O3  UNL     1     -58.849 -66.433  17.653  1.00  0.00    -0.345 OA
HETATM    3  C3  UNL     1     -60.140 -66.437  18.190  1.00  0.00     0.218 C 
HETATM    4  C4  UNL     1     -60.322 -67.453  19.260  1.00  0.00     0.116 C 
HETATM    5  N1  UNL     1     -59.188 -68.199  19.632  1.00  0.00    -0.268 N 
HETATM    6  O4  UNL     1     -58.011 -67.774  19.230  1.00  0.00    -0.235 OA
ENDROOT
BRANCH   5   7
HETATM    7  C5  UNL     1     -59.191 -68.671  20.996  1.00  0.00     0.159 C 
BRANCH   7   8
HETATM    8  C6  UNL     1     -59.282 -70.186  21.006  1.00  0.00     0.006 C 
HETATM    9  C7  UNL     1     -60.099 -70.680  22.163  1.00  0.00     0.006 C 
HETATM   10  C8  UNL     1     -59.432 -70.243  23.434  1.00  0.00     0.000 C 
HETATM   11  C9  UNL     1     -58.058 -70.879  23.485  1.00  0.00     0.000 C 
HETATM   12  C10 UNL     1     -57.760 -71.719  22.275  1.00  0.00     0.000 C 
HETATM   13  C11 UNL     1     -57.945 -70.842  21.045  1.00  0.00     0.006 C 
ENDBRANCH   7   8
ENDBRANCH   5   7
BRANCH   1  14
HETATM   14  C1  UNL     1     -56.644 -66.056  18.400  1.00  0.00     0.233 C 
HETATM   15  O1  UNL     1     -56.296 -66.007  17.192  1.00  0.00    -0.644 OA
HETATM   16  O2  UNL     1     -55.761 -65.721  19.417  1.00  0.00    -0.644 OA
ENDBRANCH   1  14
TORSDOF 3
ENDMDL
MODEL 4
REMARK VINA RESULT: -5.569918732      0.929      1.785
REMARK  3 active torsions:
REMARK  status: ('A' for Active; 'I' for Inactive)
REMARK    1  A    between atoms: C1_2  and  C2_4 
REMARK    2  A    between atoms: N1_8  and  C5_9 
REMARK    3  A    between atoms: C5_9  and  C6_10 
ROOT
HETATM    1  C2  UNL     1     -58.079 -66.993  19.010  1.00  0.00     0.391 C 
HETATM    2  O3  UNL     1     -58.900 -66.358  18.078  1.00  0.00    -0.345 OA
HETATM    3  C3  UNL     1     -60.185 -66.409  18.627  1.00  0.00     0.218 C 
HETATM    4  C4  UNL     1     -60.536 -67.750  19.164  1.00  0.00     0.116 C 
HETATM    5  N1  UNL     1     -59.534 -68.738  19.119  1.00  0.00    -0.268 N 
HETATM    6  O4  UNL     1     -58.301 -68.356  18.878  1.00  0.00    -0.235 OA
ENDROOT
BRANCH   5   7
HETATM    7  C5  UNL     1     -59.630 -69.749  20.145  1.00  0.00     0.159 C 
BRANCH   7   8
HETATM    8  C6  UNL     1     -58.414 -69.667  21.050  1.00  0.00     0.006 C 
HETATM    9  C7  UNL     1     -57.694 -70.981  21.123  1.00  0.00     0.006 C 
HETATM   10  C8  UNL     1     -58.633 -72.004  21.692  1.00  0.00     0.000 C 
HETATM   11  C9  UNL     1     -59.014 -71.565  23.091  1.00  0.00     0.000 C 
HETATM   12  C10 UNL     1     -58.380 -70.261  23.484  1.00  0.00     0.000 C 
HETATM   13  C11 UNL     1     -58.755 -69.227  22.432  1.00  0.00     0.006 C 
ENDBRANCH   7   8
ENDBRANCH   5   7
BRANCH   1  14
HETATM   14  C1  UNL     1     -56.675 -66.664  18.798  1.00  0.00     0.233 C 
HETATM   15  O1  UNL     1     -56.036 -67.200  17.856  1.00  0.00    -0.644 OA
HETATM   16  O2  UNL     1     -56.068 -65.754  19.652  1.00  0.00    -0.644 OA
ENDBRANCH   1  14
TORSDOF 3
ENDMDL
MODEL 5
REMARK VINA RESULT: -5.468969448      5.006      8.465
REMARK  3 active torsions:
REMARK  status: ('A' for Active; 'I' for Inactive)
REMARK    1  A    between atoms: C1_2  and  C2_4 
REMARK    2  A    between atoms: N1_8  and  C5_9 
REMARK    3  A    between atoms: C5_9  and  C6_10 
ROOT
HETATM    1  C2  UNL     1     -57.022 -65.129  17.511  1.00  0.00     0.391 C 
HETATM    2  O3  UNL     1     -58.344 -64.989  17.932  1.00  0.00    -0.345 OA
HETATM    3  C3  UNL     1     -59.007 -64.383  16.861  1.00  0.00     0.218 C 
HETATM    4  C4  UNL     1     -58.261 -63.229  16.292  1.00  0.00     0.116 C 
HETATM    5  N1  UNL     1     -56.993 -62.956  16.840  1.00  0.00    -0.268 N 
HETATM    6  O4  UNL     1     -56.438 -63.874  17.597  1.00  0.00    -0.235 OA
ENDROOT
BRANCH   5   7
HETATM    7  C5  UNL     1     -56.065 -62.320  15.936  1.00  0.00     0.159 C 
BRANCH   7   8
HETATM    8  C6  UNL     1     -54.645 -62.580  16.406  1.00  0.00     0.006 C 
HETATM    9  C7  UNL     1     -53.866 -61.304  16.532  1.00  0.00     0.006 C 
HETATM   10  C8  UNL     1     -53.801 -60.654  15.181  1.00  0.00     0.000 C 
HETATM   11  C9  UNL     1     -53.072 -61.593  14.243  1.00  0.00     0.000 C 
HETATM   12  C10 UNL     1     -52.658 -62.875  14.909  1.00  0.00     0.000 C 
HETATM   13  C11 UNL     1     -53.905 -63.511  15.508  1.00  0.00     0.006 C 
ENDBRANCH   7   8
ENDBRANCH   5   7
BRANCH   1  14
HETATM   14  C1  UNL     1     -56.302 -66.103  18.323  1.00  0.00     0.233 C 
HETATM   15  O1  UNL     1     -56.161 -67.284  17.914  1.00  0.00    -0.644 OA
HETATM   16  O2  UNL     1     -55.784 -65.698  19.545  1.00  0.00    -0.644 OA
ENDBRANCH   1  14
TORSDOF 3
ENDMDL
