MODEL 1
REMARK VINA RESULT: -5.162073850      0.000      0.000
REMARK  3 active torsions:
REMARK  status: ('A' for Active; 'I' for Inactive)
REMARK    1  A    between atoms: O1_2  and  C2_3 
REMARK    2  A    between atoms: C2_3  and  C3_4 
REMARK    3  A    between atoms: C8_11  and  C9_12 
ROOT
HETATM    1  C3  UNL     1     -61.015 -67.670  19.177  1.00  0.00     0.154 C 
HETATM    2  O2  UNL     1     -60.604 -68.998  19.020  1.00  0.00    -0.375 OA
HETATM    3  C4  UNL     1     -59.506 -68.874  19.865  1.00  0.00     0.164 C 
HETATM    4  C5  UNL     1     -60.074 -67.588  20.357  1.00  0.00     0.076 C 
HETATM    5  C6  UNL     1     -60.740 -67.917  21.644  1.00  0.00     0.282 C 
HETATM    6  N1  UNL     1     -60.567 -69.296  21.853  1.00  0.00     0.092 N 
HETATM    7  C7  UNL     1     -61.771 -70.064  21.970  1.00  0.00     0.310 C 
HETATM    8  C8  UNL     1     -59.567 -69.833  21.024  1.00  0.00     0.257 C 
ENDROOT
BRANCH   8   9
HETATM    9  C9  UNL     1     -58.228 -70.086  21.660  1.00  0.00     0.047 C 
HETATM   10  C10 UNL     1     -58.426 -70.224  23.177  1.00  0.00     0.035 C 
HETATM   11  C11 UNL     1     -58.112 -71.663  23.482  1.00  0.00     0.168 C 
HETATM   12  O3  UNL     1     -58.036 -72.327  22.264  1.00  0.00    -0.391 OA
HETATM   13  C12 UNL     1     -57.598 -71.392  21.331  1.00  0.00     0.174 C 
ENDBRANCH   8   9
BRANCH   1  14
HETATM   14  C2  UNL     1     -60.641 -66.757  18.054  1.00  0.00     0.199 C 
BRANCH  14  15
HETATM   15  O1  UNL     1     -60.987 -65.435  18.283  1.00  0.00    -0.393 OA
HETATM   16  C1  UNL     1     -59.890 -64.660  17.857  1.00  0.00     0.201 C 
ENDBRANCH  14  15
ENDBRANCH   1  14
TORSDOF 3
ENDMDL
MODEL 2
REMARK VINA RESULT: -5.036801862      1.945      2.227
REMARK  3 active torsions:
REMARK  status: ('A' for Active; 'I' for Inactive)
REMARK    1  A    between atoms: O1_2  and  C2_3 
REMARK    2  A    between atoms: C2_3  and  C3_4 
REMARK    3  A    between atoms: C8_11  and  C9_12 
ROOT
HETATM    1  C3  UNL     1     -58.648 -67.907  19.364  1.00  0.00     0.154 C 
HETATM    2  O2  UNL     1     -58.247 -69.233  19.556  1.00  0.00    -0.375 OA
HETATM    3  C4  UNL     1     -58.617 -69.267  20.897  1.00  0.00     0.164 C 
HETATM    4  C5  UNL     1     -59.384 -68.009  20.680  1.00  0.00     0.076 C 
HETATM    5  C6  UNL     1     -60.799 -68.432  20.513  1.00  0.00     0.282 C 
HETATM    6  N1  UNL     1     -60.822 -69.833  20.616  1.00  0.00     0.092 N 
HETATM    7  C7  UNL     1     -61.329 -70.534  19.475  1.00  0.00     0.310 C 
HETATM    8  C8  UNL     1     -59.637 -70.339  21.179  1.00  0.00     0.257 C 
ENDROOT
BRANCH   8   9
HETATM    9  C9  UNL     1     -59.696 -70.738  22.627  1.00  0.00     0.047 C 
HETATM   10  C10 UNL     1     -59.527 -72.262  22.722  1.00  0.00     0.035 C 
HETATM   11  C11 UNL     1     -58.197 -72.466  23.395  1.00  0.00     0.168 C 
HETATM   12  O3  UNL     1     -57.559 -71.232  23.412  1.00  0.00    -0.391 OA
HETATM   13  C12 UNL     1     -58.562 -70.269  23.468  1.00  0.00     0.174 C 
ENDBRANCH   8   9
BRANCH   1  14
HETATM   14  C2  UNL     1     -57.540 -66.904  19.380  1.00  0.00     0.199 C 
BRANCH  14  15
HETATM   15  O1  UNL     1     -57.704 -65.889  18.451  1.00  0.00    -0.393 OA
HETATM   16  C1  UNL     1     -56.414 -65.574  17.979  1.00  0.00     0.201 C 
ENDBRANCH  14  15
ENDBRANCH   1  14
TORSDOF 3
ENDMDL
MODEL 3
REMARK VINA RESULT: -4.913111594      1.939      2.230
REMARK  3 active torsions:
REMARK  status: ('A' for Active; 'I' for Inactive)
REMARK    1  A    between atoms: O1_2  and  C2_3 
REMARK    2  A    between atoms: C2_3  and  C3_4 
REMARK    3  A    between atoms: C8_11  and  C9_12 
ROOT
HETATM    1  C3  UNL     1     -58.593 -67.412  19.282  1.00  0.00     0.154 C 
HETATM    2  O2  UNL     1     -58.530 -68.735  18.830  1.00  0.00    -0.375 OA
HETATM    3  C4  UNL     1     -58.546 -69.289  20.106  1.00  0.00     0.164 C 
HETATM    4  C5  UNL     1     -58.973 -67.964  20.637  1.00  0.00     0.076 C 
HETATM    5  C6  UNL     1     -60.445 -68.068  20.821  1.00  0.00     0.282 C 
HETATM    6  N1  UNL     1     -60.818 -69.358  20.409  1.00  0.00     0.092 N 
HETATM    7  C7  UNL     1     -61.767 -69.420  19.337  1.00  0.00     0.310 C 
HETATM    8  C8  UNL     1     -59.712 -70.220  20.309  1.00  0.00     0.257 C 
ENDROOT
BRANCH   8   9
HETATM    9  C9  UNL     1     -59.510 -71.191  21.440  1.00  0.00     0.047 C 
HETATM   10  C10 UNL     1     -58.122 -70.949  22.050  1.00  0.00     0.035 C 
HETATM   11  C11 UNL     1     -58.389 -70.408  23.428  1.00  0.00     0.168 C 
HETATM   12  O3  UNL     1     -59.744 -70.101  23.485  1.00  0.00    -0.391 OA
HETATM   13  C12 UNL     1     -60.386 -70.986  22.624  1.00  0.00     0.174 C 
ENDBRANCH   8   9
BRANCH   1  14
HETATM   14  C2  UNL     1     -57.288 -66.683  19.283  1.00  0.00     0.199 C 
BRANCH  14  15
HETATM   15  O1  UNL     1     -57.154 -65.797  18.227  1.00  0.00    -0.393 OA
HETATM   16  C1  UNL     1     -58.461 -65.421  17.858  1.00  0.00     0.201 C 
ENDBRANCH  14  15
ENDBRANCH   1  14
TORSDOF 3
ENDMDL
MODEL 4
REMARK VINA RESULT: -4.718892661      2.736      5.858
REMARK  3 active torsions:
REMARK  status: ('A' for Active; 'I' for Inactive)
REMARK    1  A    between atoms: O1_2  and  C2_3 
REMARK    2  A    between atoms: C2_3  and  C3_4 
REMARK    3  A    between atoms: C8_11  and  C9_12 
ROOT
HETATM    1  C3  UNL     1     -58.940 -69.084  20.501  1.00  0.00     0.154 C 
HETATM    2  O2  UNL     1     -58.514 -67.757  20.631  1.00  0.00    -0.375 OA
HETATM    3  C4  UNL     1     -57.888 -67.720  19.389  1.00  0.00     0.164 C 
HETATM    4  C5  UNL     1     -58.601 -68.978  19.032  1.00  0.00     0.076 C 
HETATM    5  C6  UNL     1     -59.762 -68.553  18.206  1.00  0.00     0.282 C 
HETATM    6  N1  UNL     1     -59.709 -67.152  18.117  1.00  0.00     0.092 N 
HETATM    7  C7  UNL     1     -60.852 -66.452  18.623  1.00  0.00     0.310 C 
HETATM    8  C8  UNL     1     -58.453 -66.647  18.498  1.00  0.00     0.257 C 
ENDROOT
BRANCH   8   9
HETATM    9  C9  UNL     1     -57.524 -66.245  17.386  1.00  0.00     0.047 C 
HETATM   10  C10 UNL     1     -57.766 -64.765  17.057  1.00  0.00     0.035 C 
HETATM   11  C11 UNL     1     -56.509 -64.058  17.484  1.00  0.00     0.168 C 
HETATM   12  O3  UNL     1     -55.768 -64.967  18.230  1.00  0.00    -0.391 OA
HETATM   13  C12 UNL     1     -56.078 -66.230  17.734  1.00  0.00     0.174 C 
ENDBRANCH   8   9
BRANCH   1  14
HETATM   14  C2  UNL     1     -58.109 -70.088  21.232  1.00  0.00     0.199 C 
BRANCH  14  15
HETATM   15  O1  UNL     1     -58.017 -69.840  22.592  1.00  0.00    -0.393 OA
HETATM   16  C1  UNL     1     -59.295 -70.095  23.127  1.00  0.00     0.201 C 
ENDBRANCH  14  15
ENDBRANCH   1  14
TORSDOF 3
ENDMDL
MODEL 5
REMARK VINA RESULT: -4.716060284      2.046      3.258
REMARK  3 active torsions:
REMARK  status: ('A' for Active; 'I' for Inactive)
REMARK    1  A    between atoms: O1_2  and  C2_3 
REMARK    2  A    between atoms: C2_3  and  C3_4 
REMARK    3  A    between atoms: C8_11  and  C9_12 
ROOT
HETATM    1  C3  UNL     1     -58.302 -68.118  20.141  1.00  0.00     0.154 C 
HETATM    2  O2  UNL     1     -59.284 -67.724  21.056  1.00  0.00    -0.375 OA
HETATM    3  C4  UNL     1     -60.106 -68.819  20.814  1.00  0.00     0.164 C 
HETATM    4  C5  UNL     1     -58.967 -69.475  20.113  1.00  0.00     0.076 C 
HETATM    5  C6  UNL     1     -58.385 -70.419  21.103  1.00  0.00     0.282 C 
HETATM    6  N1  UNL     1     -59.138 -70.291  22.282  1.00  0.00     0.092 N 
HETATM    7  C7  UNL     1     -58.408 -69.894  23.449  1.00  0.00     0.310 C 
HETATM    8  C8  UNL     1     -60.358 -69.629  22.058  1.00  0.00     0.257 C 
ENDROOT
BRANCH   8   9
HETATM    9  C9  UNL     1     -61.587 -70.491  21.970  1.00  0.00     0.047 C 
HETATM   10  C10 UNL     1     -62.141 -70.408  20.540  1.00  0.00     0.035 C 
HETATM   11  C11 UNL     1     -61.933 -71.780  19.959  1.00  0.00     0.168 C 
HETATM   12  O3  UNL     1     -61.100 -72.467  20.835  1.00  0.00    -0.391 OA
HETATM   13  C12 UNL     1     -61.353 -71.954  22.104  1.00  0.00     0.174 C 
ENDBRANCH   8   9
BRANCH   1  14
HETATM   14  C2  UNL     1     -58.344 -67.410  18.825  1.00  0.00     0.199 C 
BRANCH  14  15
HETATM   15  O1  UNL     1     -58.445 -68.268  17.743  1.00  0.00    -0.393 OA
HETATM   16  C1  UNL     1     -59.249 -67.609  16.791  1.00  0.00     0.201 C 
ENDBRANCH  14  15
ENDBRANCH   1  14
TORSDOF 3
ENDMDL
