MODEL 1
REMARK VINA RESULT: -5.315726045      0.000      0.000
REMARK  4 active torsions:
REMARK  status: ('A' for Active; 'I' for Inactive)
REMARK    1  A    between atoms: C1_2  and  O2_3 
REMARK    2  A    between atoms: C1_2  and  C6_10 
REMARK    3  A    between atoms: O2_3  and  C2_4 
REMARK    4  A    between atoms: C2_4  and  C3_5 
ROOT
HETATM    1  O1  UNL     1     -59.835 -67.952  21.612  1.00  0.00    -0.262 OA
HETATM    2  C1  UNL     1     -59.047 -68.820  21.156  1.00  0.00     0.294 C 
ENDROOT
BRANCH   2   3
HETATM    3  O2  UNL     1     -58.372 -68.547  19.999  1.00  0.00    -0.316 OA
BRANCH   3   4
HETATM    4  C2  UNL     1     -58.336 -67.232  19.506  1.00  0.00     0.213 C 
BRANCH   4   5
HETATM    5  C3  UNL     1     -59.181 -67.061  18.264  1.00  0.00     0.172 C 
HETATM    6  C4  UNL     1     -58.691 -65.941  17.395  1.00  0.00     0.204 C 
HETATM    7  O3  UNL     1     -59.407 -64.850  17.860  1.00  0.00    -0.364 OA
HETATM    8  C5  UNL     1     -60.642 -65.366  18.235  1.00  0.00     0.338 C 
HETATM    9  O4  UNL     1     -60.475 -66.691  18.544  1.00  0.00    -0.357 OA
ENDBRANCH   4   5
ENDBRANCH   3   4
ENDBRANCH   2   3
BRANCH   2  10
HETATM   10  C6  UNL     1     -58.915 -70.081  21.925  1.00  0.00     0.154 C 
HETATM   11  C7  UNL     1     -59.670 -71.181  21.256  1.00  0.00     0.076 C 
HETATM   12  C8  UNL     1     -59.352 -72.467  21.975  1.00  0.00    -0.025 C 
HETATM   13  C9  UNL     1     -58.621 -72.343  23.069  1.00  0.00     0.001 C 
HETATM   14  C10 UNL     1     -58.188 -70.986  23.485  1.00  0.00     0.149 C 
HETATM   15  C11 UNL     1     -59.321 -69.991  23.368  1.00  0.00     0.085 C 
HETATM   16  O5  UNL     1     -57.642 -70.396  22.321  1.00  0.00    -0.360 OA
ENDBRANCH   2  10
TORSDOF 4
ENDMDL
MODEL 2
REMARK VINA RESULT: -5.306228349      1.410      1.701
REMARK  4 active torsions:
REMARK  status: ('A' for Active; 'I' for Inactive)
REMARK    1  A    between atoms: C1_2  and  O2_3 
REMARK    2  A    between atoms: C1_2  and  C6_10 
REMARK    3  A    between atoms: O2_3  and  C2_4 
REMARK    4  A    between atoms: C2_4  and  C3_5 
ROOT
HETATM    1  O1  UNL     1     -59.917 -67.985  21.512  1.00  0.00    -0.262 OA
HETATM    2  C1  UNL     1     -59.065 -68.814  21.099  1.00  0.00     0.294 C 
ENDROOT
BRANCH   2   3
HETATM    3  O2  UNL     1     -58.355 -68.513  19.971  1.00  0.00    -0.316 OA
BRANCH   3   4
HETATM    4  C2  UNL     1     -57.901 -67.201  19.761  1.00  0.00     0.213 C 
BRANCH   4   5
HETATM    5  C3  UNL     1     -57.342 -67.001  18.370  1.00  0.00     0.172 C 
HETATM    6  C4  UNL     1     -55.896 -66.603  18.393  1.00  0.00     0.204 C 
HETATM    7  O3  UNL     1     -55.955 -65.219  18.413  1.00  0.00    -0.364 OA
HETATM    8  C5  UNL     1     -57.075 -64.897  17.657  1.00  0.00     0.338 C 
HETATM    9  O4  UNL     1     -57.938 -65.962  17.698  1.00  0.00    -0.357 OA
ENDBRANCH   4   5
ENDBRANCH   3   4
ENDBRANCH   2   3
BRANCH   2  10
HETATM   10  C6  UNL     1     -58.904 -70.061  21.884  1.00  0.00     0.154 C 
HETATM   11  C7  UNL     1     -59.572 -71.203  21.193  1.00  0.00     0.076 C 
HETATM   12  C8  UNL     1     -59.221 -72.466  21.936  1.00  0.00    -0.025 C 
HETATM   13  C9  UNL     1     -58.544 -72.298  23.059  1.00  0.00     0.001 C 
HETATM   14  C10 UNL     1     -58.198 -70.919  23.481  1.00  0.00     0.149 C 
HETATM   15  C11 UNL     1     -59.375 -69.983  23.308  1.00  0.00     0.085 C 
HETATM   16  O5  UNL     1     -57.634 -70.309  22.336  1.00  0.00    -0.360 OA
ENDBRANCH   2  10
TORSDOF 4
ENDMDL
MODEL 3
REMARK VINA RESULT: -5.238016542      1.391      1.800
REMARK  4 active torsions:
REMARK  status: ('A' for Active; 'I' for Inactive)
REMARK    1  A    between atoms: C1_2  and  O2_3 
REMARK    2  A    between atoms: C1_2  and  C6_10 
REMARK    3  A    between atoms: O2_3  and  C2_4 
REMARK    4  A    between atoms: C2_4  and  C3_5 
ROOT
HETATM    1  O1  UNL     1     -60.051 -68.059  21.582  1.00  0.00    -0.262 OA
HETATM    2  C1  UNL     1     -59.078 -68.773  21.228  1.00  0.00     0.294 C 
ENDROOT
BRANCH   2   3
HETATM    3  O2  UNL     1     -58.272 -68.326  20.219  1.00  0.00    -0.316 OA
BRANCH   3   4
HETATM    4  C2  UNL     1     -58.845 -67.770  19.063  1.00  0.00     0.213 C 
BRANCH   4   5
HETATM    5  C3  UNL     1     -58.191 -66.465  18.668  1.00  0.00     0.172 C 
HETATM    6  C4  UNL     1     -57.914 -66.393  17.196  1.00  0.00     0.204 C 
HETATM    7  O3  UNL     1     -56.629 -66.903  17.096  1.00  0.00    -0.364 OA
HETATM    8  C5  UNL     1     -55.991 -66.495  18.261  1.00  0.00     0.338 C 
HETATM    9  O4  UNL     1     -56.946 -66.301  19.225  1.00  0.00    -0.357 OA
ENDBRANCH   4   5
ENDBRANCH   3   4
ENDBRANCH   2   3
BRANCH   2  10
HETATM   10  C6  UNL     1     -58.887 -70.056  21.946  1.00  0.00     0.154 C 
HETATM   11  C7  UNL     1     -59.559 -71.170  21.214  1.00  0.00     0.076 C 
HETATM   12  C8  UNL     1     -59.180 -72.464  21.887  1.00  0.00    -0.025 C 
HETATM   13  C9  UNL     1     -58.481 -72.343  23.003  1.00  0.00     0.001 C 
HETATM   14  C10 UNL     1     -58.140 -70.983  23.485  1.00  0.00     0.149 C 
HETATM   15  C11 UNL     1     -59.329 -70.052  23.382  1.00  0.00     0.085 C 
HETATM   16  O5  UNL     1     -57.606 -70.312  22.360  1.00  0.00    -0.360 OA
ENDBRANCH   2  10
TORSDOF 4
ENDMDL
MODEL 4
REMARK VINA RESULT: -5.202405210      1.137      1.714
REMARK  4 active torsions:
REMARK  status: ('A' for Active; 'I' for Inactive)
REMARK    1  A    between atoms: C1_2  and  O2_3 
REMARK    2  A    between atoms: C1_2  and  C6_10 
REMARK    3  A    between atoms: O2_3  and  C2_4 
REMARK    4  A    between atoms: C2_4  and  C3_5 
ROOT
HETATM    1  O1  UNL     1     -57.925 -69.365  19.726  1.00  0.00    -0.262 OA
HETATM    2  C1  UNL     1     -58.709 -69.160  20.688  1.00  0.00     0.294 C 
ENDROOT
BRANCH   2   3
HETATM    3  O2  UNL     1     -59.402 -67.982  20.728  1.00  0.00    -0.316 OA
BRANCH   3   4
HETATM    4  C2  UNL     1     -60.645 -67.882  20.081  1.00  0.00     0.213 C 
BRANCH   4   5
HETATM    5  C3  UNL     1     -60.640 -66.839  18.986  1.00  0.00     0.172 C 
HETATM    6  C4  UNL     1     -61.234 -67.357  17.709  1.00  0.00     0.204 C 
HETATM    7  O3  UNL     1     -60.132 -67.862  17.037  1.00  0.00    -0.364 OA
HETATM    8  C5  UNL     1     -59.082 -67.024  17.391  1.00  0.00     0.338 C 
HETATM    9  O4  UNL     1     -59.374 -66.465  18.608  1.00  0.00    -0.357 OA
ENDBRANCH   4   5
ENDBRANCH   3   4
ENDBRANCH   2   3
BRANCH   2  10
HETATM   10  C6  UNL     1     -58.815 -70.228  21.710  1.00  0.00     0.154 C 
HETATM   11  C7  UNL     1     -59.682 -71.338  21.218  1.00  0.00     0.076 C 
HETATM   12  C8  UNL     1     -59.605 -72.466  22.214  1.00  0.00    -0.025 C 
HETATM   13  C9  UNL     1     -58.932 -72.204  23.322  1.00  0.00     0.001 C 
HETATM   14  C10 UNL     1     -58.328 -70.859  23.485  1.00  0.00     0.149 C 
HETATM   15  C11 UNL     1     -59.291 -69.772  23.060  1.00  0.00     0.085 C 
HETATM   16  O5  UNL     1     -57.630 -70.615  22.279  1.00  0.00    -0.360 OA
ENDBRANCH   2  10
TORSDOF 4
ENDMDL
MODEL 5
REMARK VINA RESULT: -5.123348341      1.062      1.272
REMARK  4 active torsions:
REMARK  status: ('A' for Active; 'I' for Inactive)
REMARK    1  A    between atoms: C1_2  and  O2_3 
REMARK    2  A    between atoms: C1_2  and  C6_10 
REMARK    3  A    between atoms: O2_3  and  C2_4 
REMARK    4  A    between atoms: C2_4  and  C3_5 
ROOT
HETATM    1  O1  UNL     1     -57.962 -68.299  20.184  1.00  0.00    -0.262 OA
HETATM    2  C1  UNL     1     -59.009 -68.952  20.429  1.00  0.00     0.294 C 
ENDROOT
BRANCH   2   3
HETATM    3  O2  UNL     1     -60.133 -68.681  19.701  1.00  0.00    -0.316 OA
BRANCH   3   4
HETATM    4  C2  UNL     1     -60.690 -67.391  19.731  1.00  0.00     0.213 C 
BRANCH   4   5
HETATM    5  C3  UNL     1     -60.904 -66.825  18.346  1.00  0.00     0.172 C 
HETATM    6  C4  UNL     1     -59.704 -67.013  17.466  1.00  0.00     0.204 C 
HETATM    7  O3  UNL     1     -58.980 -65.850  17.674  1.00  0.00    -0.364 OA
HETATM    8  C5  UNL     1     -59.938 -64.863  17.872  1.00  0.00     0.338 C 
HETATM    9  O4  UNL     1     -61.077 -65.462  18.346  1.00  0.00    -0.357 OA
ENDBRANCH   4   5
ENDBRANCH   3   4
ENDBRANCH   2   3
BRANCH   2  10
HETATM   10  C6  UNL     1     -58.930 -69.973  21.500  1.00  0.00     0.154 C 
HETATM   11  C7  UNL     1     -59.562 -71.249  21.053  1.00  0.00     0.076 C 
HETATM   12  C8  UNL     1     -59.292 -72.295  22.104  1.00  0.00    -0.025 C 
HETATM   13  C9  UNL     1     -58.703 -71.860  23.204  1.00  0.00     0.001 C 
HETATM   14  C10 UNL     1     -58.368 -70.418  23.308  1.00  0.00     0.149 C 
HETATM   15  C11 UNL     1     -59.510 -69.554  22.821  1.00  0.00     0.085 C 
HETATM   16  O5  UNL     1     -57.705 -70.102  22.100  1.00  0.00    -0.360 OA
ENDBRANCH   2  10
TORSDOF 4
ENDMDL
