MODEL 1
REMARK VINA RESULT: -4.953549743      0.000      0.000
REMARK  4 active torsions:
REMARK  status: ('A' for Active; 'I' for Inactive)
REMARK    1  A    between atoms: N1_1  and  N2_4 
REMARK    2  A    between atoms: N3_6  and  N4_8 
REMARK    3  A    between atoms: N4_8  and  C1_10 
REMARK    4  A    between atoms: C1_10  and  C2_11 
ROOT
HETATM    1  N4  UNL     1      12.949  18.849  -9.765  1.00  0.00    -0.318 N 
ATOM      2  H4  UNL     1      12.164  18.545  -9.188  1.00  0.00     0.181 HD
ENDROOT
BRANCH   1   3
HETATM    3  N3  UNL     1      13.941  17.947 -10.150  1.00  0.00    -0.233 N 
HETATM    4  N2  UNL     1      13.621  16.966 -10.871  1.00  0.00    -0.235 N 
ATOM      5  H2  UNL     1      14.328  16.292 -11.166  1.00  0.00     0.209 HD
ATOM      6  H3  UNL     1      14.907  18.080  -9.852  1.00  0.00     0.209 HD
BRANCH   4   7
HETATM    7  N1  UNL     1      12.294  16.810 -11.262  1.00  0.00    -0.330 N 
ATOM      8  H12 UNL     1      11.671  16.236 -10.695  1.00  0.00     0.178 HD
ATOM      9  H11 UNL     1      11.965  17.272 -12.110  1.00  0.00     0.178 HD
ENDBRANCH   4   7
ENDBRANCH   1   3
BRANCH   1  10
HETATM   10  C1  UNL     1      13.055  20.222 -10.200  1.00  0.00     0.177 C 
BRANCH  10  11
HETATM   11  C2  UNL     1      11.872  20.980  -9.549  1.00  0.00     0.172 A 
HETATM   12  N5  UNL     1      10.962  20.206  -8.918  1.00  0.00    -0.358 N 
HETATM   13  C3  UNL     1       9.960  20.423  -9.562  1.00  0.00     0.153 A 
ATOM     14  H5  UNL     1      11.087  19.598  -8.109  1.00  0.00     0.162 HD
HETATM   15  N6  UNL     1       8.561  19.943  -9.481  1.00  0.00    -0.075 NA
HETATM   16  S1  UNL     1      10.677  21.531 -10.684  1.00  0.00    -0.070 SA
ENDBRANCH  10  11
ENDBRANCH   1  10
TORSDOF 4
ENDMDL
MODEL 2
REMARK VINA RESULT: -4.906230764      1.580      1.608
REMARK  4 active torsions:
REMARK  status: ('A' for Active; 'I' for Inactive)
REMARK    1  A    between atoms: N1_1  and  N2_4 
REMARK    2  A    between atoms: N3_6  and  N4_8 
REMARK    3  A    between atoms: N4_8  and  C1_10 
REMARK    4  A    between atoms: C1_10  and  C2_11 
ROOT
HETATM    1  N4  UNL     1      12.935  19.312 -10.297  1.00  0.00    -0.318 N 
ATOM      2  H4  UNL     1      12.529  19.330 -11.233  1.00  0.00     0.181 HD
ENDROOT
BRANCH   1   3
HETATM    3  N3  UNL     1      13.955  18.415  -9.981  1.00  0.00    -0.233 N 
HETATM    4  N2  UNL     1      13.891  17.241 -10.433  1.00  0.00    -0.235 N 
ATOM      5  H2  UNL     1      14.624  16.566 -10.216  1.00  0.00     0.209 HD
ATOM      6  H3  UNL     1      14.739  18.704  -9.396  1.00  0.00     0.209 HD
BRANCH   4   7
HETATM    7  N1  UNL     1      12.810  16.874 -11.229  1.00  0.00    -0.330 N 
ATOM      8  H12 UNL     1      11.888  17.261 -11.029  1.00  0.00     0.178 HD
ATOM      9  H11 UNL     1      12.956  16.224 -12.002  1.00  0.00     0.178 HD
ENDBRANCH   4   7
ENDBRANCH   1   3
BRANCH   1  10
HETATM   10  C1  UNL     1      12.465  20.214  -9.273  1.00  0.00     0.177 C 
BRANCH  10  11
HETATM   11  C2  UNL     1      10.941  19.974  -9.144  1.00  0.00     0.172 A 
HETATM   12  N5  UNL     1      10.583  18.833  -8.515  1.00  0.00    -0.358 N 
HETATM   13  C3  UNL     1       9.993  18.240  -9.390  1.00  0.00     0.153 A 
ATOM     14  H5  UNL     1      10.764  18.546  -7.554  1.00  0.00     0.162 HD
HETATM   15  N6  UNL     1       9.313  16.926  -9.464  1.00  0.00    -0.075 NA
HETATM   16  S1  UNL     1      10.183  19.447 -10.617  1.00  0.00    -0.070 SA
ENDBRANCH  10  11
ENDBRANCH   1  10
TORSDOF 4
ENDMDL
MODEL 3
REMARK VINA RESULT: -4.813842641      2.196      2.803
REMARK  4 active torsions:
REMARK  status: ('A' for Active; 'I' for Inactive)
REMARK    1  A    between atoms: N1_1  and  N2_4 
REMARK    2  A    between atoms: N3_6  and  N4_8 
REMARK    3  A    between atoms: N4_8  and  C1_10 
REMARK    4  A    between atoms: C1_10  and  C2_11 
ROOT
HETATM    1  N4  UNL     1      12.769  16.280 -11.563  1.00  0.00    -0.318 N 
ATOM      2  H4  UNL     1      12.662  15.924 -10.613  1.00  0.00     0.181 HD
ENDROOT
BRANCH   1   3
HETATM    3  N3  UNL     1      12.713  15.418 -12.657  1.00  0.00    -0.233 N 
HETATM    4  N2  UNL     1      12.375  14.220 -12.468  1.00  0.00    -0.235 N 
ATOM      5  H2  UNL     1      12.327  13.569 -13.252  1.00  0.00     0.209 HD
ATOM      6  H3  UNL     1      12.942  15.750 -13.594  1.00  0.00     0.209 HD
BRANCH   4   7
HETATM    7  N1  UNL     1      12.068  13.793 -11.179  1.00  0.00    -0.330 N 
ATOM      8  H12 UNL     1      12.743  13.225 -10.667  1.00  0.00     0.178 HD
ATOM      9  H11 UNL     1      11.173  14.054 -10.765  1.00  0.00     0.178 HD
ENDBRANCH   4   7
ENDBRANCH   1   3
BRANCH   1  10
HETATM   10  C1  UNL     1      12.982  17.688 -11.801  1.00  0.00     0.177 C 
BRANCH  10  11
HETATM   11  C2  UNL     1      12.287  18.439 -10.638  1.00  0.00     0.172 A 
HETATM   12  N5  UNL     1      11.204  17.826 -10.116  1.00  0.00    -0.358 N 
HETATM   13  C3  UNL     1      10.325  18.624 -10.355  1.00  0.00     0.153 A 
ATOM     14  H5  UNL     1      11.141  16.925  -9.642  1.00  0.00     0.162 HD
HETATM   15  N6  UNL     1       8.868  18.660 -10.094  1.00  0.00    -0.075 NA
HETATM   16  S1  UNL     1      11.326  19.794 -11.149  1.00  0.00    -0.070 SA
ENDBRANCH  10  11
ENDBRANCH   1  10
TORSDOF 4
ENDMDL
MODEL 4
REMARK VINA RESULT: -4.731822979      1.640      2.311
REMARK  4 active torsions:
REMARK  status: ('A' for Active; 'I' for Inactive)
REMARK    1  A    between atoms: N1_1  and  N2_4 
REMARK    2  A    between atoms: N3_6  and  N4_8 
REMARK    3  A    between atoms: N4_8  and  C1_10 
REMARK    4  A    between atoms: C1_10  and  C2_11 
ROOT
HETATM    1  N4  UNL     1      11.587  17.923 -10.182  1.00  0.00    -0.318 N 
ATOM      2  H4  UNL     1      12.181  18.682  -9.849  1.00  0.00     0.181 HD
ENDROOT
BRANCH   1   3
HETATM    3  N3  UNL     1      12.088  16.961 -11.059  1.00  0.00    -0.233 N 
HETATM    4  N2  UNL     1      13.331  16.764 -11.098  1.00  0.00    -0.235 N 
ATOM      5  H2  UNL     1      13.722  16.066 -11.731  1.00  0.00     0.209 HD
ATOM      6  H3  UNL     1      11.459  16.426 -11.658  1.00  0.00     0.209 HD
BRANCH   4   7
HETATM    7  N1  UNL     1      14.166  17.508 -10.270  1.00  0.00    -0.330 N 
ATOM      8  H12 UNL     1      13.818  17.825  -9.365  1.00  0.00     0.178 HD
ATOM      9  H11 UNL     1      15.113  17.726 -10.579  1.00  0.00     0.178 HD
ENDBRANCH   4   7
ENDBRANCH   1   3
BRANCH   1  10
HETATM   10  C1  UNL     1      10.212  17.822  -9.756  1.00  0.00     0.177 C 
BRANCH  10  11
HETATM   11  C2  UNL     1       9.860  19.175  -9.089  1.00  0.00     0.172 A 
HETATM   12  N5  UNL     1       9.237  20.071  -9.885  1.00  0.00    -0.358 N 
HETATM   13  C3  UNL     1      10.037  20.980  -9.911  1.00  0.00     0.153 A 
ATOM     14  H5  UNL     1       8.330  20.000 -10.344  1.00  0.00     0.162 HD
HETATM   15  N6  UNL     1      10.067  22.305 -10.571  1.00  0.00    -0.075 NA
HETATM   16  S1  UNL     1      11.221  20.237  -8.888  1.00  0.00    -0.070 SA
ENDBRANCH  10  11
ENDBRANCH   1  10
TORSDOF 4
ENDMDL
MODEL 5
REMARK VINA RESULT: -4.673655075      6.147      6.852
REMARK  4 active torsions:
REMARK  status: ('A' for Active; 'I' for Inactive)
REMARK    1  A    between atoms: N1_1  and  N2_4 
REMARK    2  A    between atoms: N3_6  and  N4_8 
REMARK    3  A    between atoms: N4_8  and  C1_10 
REMARK    4  A    between atoms: C1_10  and  C2_11 
ROOT
HETATM    1  N4  UNL     1      15.161  19.671 -16.298  1.00  0.00    -0.318 N 
ATOM      2  H4  UNL     1      15.545  18.825 -15.878  1.00  0.00     0.181 HD
ENDROOT
BRANCH   1   3
HETATM    3  N3  UNL     1      15.928  20.834 -16.385  1.00  0.00    -0.233 N 
HETATM    4  N2  UNL     1      17.182  20.737 -16.338  1.00  0.00    -0.235 N 
ATOM      5  H2  UNL     1      17.765  21.572 -16.399  1.00  0.00     0.209 HD
ATOM      6  H3  UNL     1      15.481  21.745 -16.484  1.00  0.00     0.209 HD
BRANCH   4   7
HETATM    7  N1  UNL     1      17.765  19.480 -16.202  1.00  0.00    -0.330 N 
ATOM      8  H12 UNL     1      17.853  18.879 -17.020  1.00  0.00     0.178 HD
ATOM      9  H11 UNL     1      18.096  19.179 -15.285  1.00  0.00     0.178 HD
ENDBRANCH   4   7
ENDBRANCH   1   3
BRANCH   1  10
HETATM   10  C1  UNL     1      13.813  19.691 -16.815  1.00  0.00     0.177 C 
BRANCH  10  11
HETATM   11  C2  UNL     1      13.127  18.403 -16.298  1.00  0.00     0.172 A 
HETATM   12  N5  UNL     1      11.997  18.593 -15.583  1.00  0.00    -0.358 N 
HETATM   13  C3  UNL     1      12.305  18.141 -14.503  1.00  0.00     0.153 A 
ATOM     14  H5  UNL     1      11.114  19.010 -15.876  1.00  0.00     0.162 HD
HETATM   15  N6  UNL     1      11.599  17.994 -13.209  1.00  0.00    -0.075 NA
HETATM   16  S1  UNL     1      13.920  17.683 -14.929  1.00  0.00    -0.070 SA
ENDBRANCH  10  11
ENDBRANCH   1  10
TORSDOF 4
ENDMDL
