MODEL 1
REMARK VINA RESULT: -4.482416196      0.000      0.000
REMARK  5 active torsions:
REMARK  status: ('A' for Active; 'I' for Inactive)
REMARK    1  A    between atoms: N1_1  and  C1_5 
REMARK    2  A    between atoms: C1_5  and  C2_6 
REMARK    3  A    between atoms: C2_6  and  C3_7 
REMARK    4  A    between atoms: C3_7  and  N2_8 
REMARK    5  A    between atoms: N2_8  and  C4_10 
ROOT
HETATM    1  N2  UNL     1      12.153  21.124  -8.944  1.00  0.00    -0.361 N 
ATOM      2  H2  UNL     1      12.283  21.616  -8.060  1.00  0.00     0.162 HD
ENDROOT
BRANCH   1   3
HETATM    3  C3  UNL     1      13.170  21.189  -9.977  1.00  0.00     0.124 C 
BRANCH   3   4
HETATM    4  C2  UNL     1      13.684  22.578 -10.191  1.00  0.00     0.047 C 
BRANCH   4   5
HETATM    5  C1  UNL     1      13.224  23.483  -9.046  1.00  0.00     0.231 C 
BRANCH   5   6
HETATM    6  N1  UNL     1      14.289  24.445  -8.800  1.00  0.00    -0.079 N 
ATOM      7  H13 UNL     1      15.194  24.005  -8.633  1.00  0.00     0.274 HD
ATOM      8  H12 UNL     1      14.551  24.972  -9.634  1.00  0.00     0.274 HD
ATOM      9  H11 UNL     1      13.988  25.042  -8.030  1.00  0.00     0.274 HD
ENDBRANCH   5   6
ENDBRANCH   4   5
ENDBRANCH   3   4
ENDBRANCH   1   3
BRANCH   1  10
HETATM   10  C4  UNL     1      10.968  20.364  -9.182  1.00  0.00     0.188 C 
HETATM   11  N3  UNL     1      10.803  19.140  -8.824  1.00  0.00    -0.346 N 
HETATM   12  C5  UNL     1       9.492  18.730  -9.237  1.00  0.00     0.259 C 
ATOM     13  H3  UNL     1      11.486  18.562  -8.333  1.00  0.00     0.163 HD
HETATM   14  N4  UNL     1       8.782  19.984  -9.386  1.00  0.00    -0.119 NA
HETATM   15  N5  UNL     1       9.792  20.838  -9.841  1.00  0.00    -0.274 N 
ATOM     16  H5  UNL     1       9.708  21.619 -10.492  1.00  0.00     0.185 HD
ENDBRANCH   1  10
TORSDOF 5
ENDMDL
MODEL 2
REMARK VINA RESULT: -4.471925305      3.020      3.552
REMARK  5 active torsions:
REMARK  status: ('A' for Active; 'I' for Inactive)
REMARK    1  A    between atoms: N1_1  and  C1_5 
REMARK    2  A    between atoms: C1_5  and  C2_6 
REMARK    3  A    between atoms: C2_6  and  C3_7 
REMARK    4  A    between atoms: C3_7  and  N2_8 
REMARK    5  A    between atoms: N2_8  and  C4_10 
ROOT
HETATM    1  N2  UNL     1      12.629  18.242 -10.332  1.00  0.00    -0.361 N 
ATOM      2  H2  UNL     1      12.928  17.309 -10.617  1.00  0.00     0.162 HD
ENDROOT
BRANCH   1   3
HETATM    3  C3  UNL     1      13.599  19.312 -10.192  1.00  0.00     0.124 C 
BRANCH   3   4
HETATM    4  C2  UNL     1      14.977  18.897 -10.603  1.00  0.00     0.047 C 
BRANCH   4   5
HETATM    5  C1  UNL     1      15.320  19.512 -11.962  1.00  0.00     0.231 C 
BRANCH   5   6
HETATM    6  N1  UNL     1      16.715  19.201 -12.238  1.00  0.00    -0.079 N 
ATOM      7  H13 UNL     1      17.294  20.034 -12.351  1.00  0.00     0.274 HD
ATOM      8  H12 UNL     1      17.203  18.809 -11.433  1.00  0.00     0.274 HD
ATOM      9  H11 UNL     1      16.734  18.589 -13.053  1.00  0.00     0.274 HD
ENDBRANCH   5   6
ENDBRANCH   4   5
ENDBRANCH   3   4
ENDBRANCH   1   3
BRANCH   1  10
HETATM   10  C4  UNL     1      11.253  18.510 -10.064  1.00  0.00     0.188 C 
HETATM   11  N3  UNL     1      10.682  19.647 -10.255  1.00  0.00    -0.346 N 
HETATM   12  C5  UNL     1       9.305  19.520  -9.871  1.00  0.00     0.259 C 
ATOM     13  H3  UNL     1      11.129  20.489 -10.615  1.00  0.00     0.163 HD
HETATM   14  N4  UNL     1       9.068  18.093  -9.946  1.00  0.00    -0.119 NA
HETATM   15  N5  UNL     1      10.305  17.571  -9.554  1.00  0.00    -0.274 N 
ATOM     16  H5  UNL     1      10.488  16.717  -9.026  1.00  0.00     0.185 HD
ENDBRANCH   1  10
TORSDOF 5
ENDMDL
MODEL 3
REMARK VINA RESULT: -4.451853892      3.254      4.807
REMARK  5 active torsions:
REMARK  status: ('A' for Active; 'I' for Inactive)
REMARK    1  A    between atoms: N1_1  and  C1_5 
REMARK    2  A    between atoms: C1_5  and  C2_6 
REMARK    3  A    between atoms: C2_6  and  C3_7 
REMARK    4  A    between atoms: C3_7  and  N2_8 
REMARK    5  A    between atoms: N2_8  and  C4_10 
ROOT
HETATM    1  N2  UNL     1      12.650  18.815 -10.092  1.00  0.00    -0.361 N 
ATOM      2  H2  UNL     1      13.279  19.014  -9.314  1.00  0.00     0.162 HD
ENDROOT
BRANCH   1   3
HETATM    3  C3  UNL     1      13.183  18.486 -11.401  1.00  0.00     0.124 C 
BRANCH   3   4
HETATM    4  C2  UNL     1      13.627  17.060 -11.500  1.00  0.00     0.047 C 
BRANCH   4   5
HETATM    5  C1  UNL     1      12.712  16.298 -12.462  1.00  0.00     0.231 C 
BRANCH   5   6
HETATM    6  N1  UNL     1      12.149  15.175 -11.727  1.00  0.00    -0.079 N 
ATOM      7  H13 UNL     1      12.732  14.877 -10.945  1.00  0.00     0.274 HD
ATOM      8  H12 UNL     1      11.321  15.428 -11.186  1.00  0.00     0.274 HD
ATOM      9  H11 UNL     1      11.973  14.429 -12.400  1.00  0.00     0.274 HD
ENDBRANCH   5   6
ENDBRANCH   4   5
ENDBRANCH   3   4
ENDBRANCH   1   3
BRANCH   1  10
HETATM   10  C4  UNL     1      11.235  18.857  -9.908  1.00  0.00     0.188 C 
HETATM   11  N3  UNL     1      10.519  19.921 -10.003  1.00  0.00    -0.346 N 
HETATM   12  C5  UNL     1       9.154  19.560  -9.753  1.00  0.00     0.259 C 
ATOM     13  H3  UNL     1      10.863  20.857 -10.219  1.00  0.00     0.163 HD
HETATM   14  N4  UNL     1       9.130  18.137 -10.023  1.00  0.00    -0.119 NA
HETATM   15  N5  UNL     1      10.402  17.739  -9.598  1.00  0.00    -0.274 N 
ATOM     16  H5  UNL     1      10.672  16.855  -9.166  1.00  0.00     0.185 HD
ENDBRANCH   1  10
TORSDOF 5
ENDMDL
MODEL 4
REMARK VINA RESULT: -4.449946230      6.126      7.232
REMARK  5 active torsions:
REMARK  status: ('A' for Active; 'I' for Inactive)
REMARK    1  A    between atoms: N1_1  and  C1_5 
REMARK    2  A    between atoms: C1_5  and  C2_6 
REMARK    3  A    between atoms: C2_6  and  C3_7 
REMARK    4  A    between atoms: C3_7  and  N2_8 
REMARK    5  A    between atoms: N2_8  and  C4_10 
ROOT
HETATM    1  N2  UNL     1      12.088  14.969 -11.754  1.00  0.00    -0.361 N 
ATOM      2  H2  UNL     1      11.597  15.706 -11.246  1.00  0.00     0.162 HD
ENDROOT
BRANCH   1   3
HETATM    3  C3  UNL     1      13.042  15.306 -12.793  1.00  0.00     0.124 C 
BRANCH   3   4
HETATM    4  C2  UNL     1      13.744  16.602 -12.531  1.00  0.00     0.047 C 
BRANCH   4   5
HETATM    5  C1  UNL     1      12.996  17.388 -11.452  1.00  0.00     0.231 C 
BRANCH   5   6
HETATM    6  N1  UNL     1      13.924  17.604 -10.351  1.00  0.00    -0.079 N 
ATOM      7  H13 UNL     1      13.487  18.046  -9.542  1.00  0.00     0.274 HD
ATOM      8  H12 UNL     1      14.207  16.738  -9.892  1.00  0.00     0.274 HD
ATOM      9  H11 UNL     1      14.713  18.136 -10.719  1.00  0.00     0.274 HD
ENDBRANCH   5   6
ENDBRANCH   4   5
ENDBRANCH   3   4
ENDBRANCH   1   3
BRANCH   1  10
HETATM   10  C4  UNL     1      11.844  13.595 -11.452  1.00  0.00     0.188 C 
HETATM   11  N3  UNL     1      12.386  12.956 -10.477  1.00  0.00    -0.346 N 
HETATM   12  C5  UNL     1      11.894  11.609 -10.503  1.00  0.00     0.259 C 
ATOM     13  H3  UNL     1      13.050  13.340  -9.805  1.00  0.00     0.163 HD
HETATM   14  N4  UNL     1      10.660  11.719 -11.253  1.00  0.00    -0.119 NA
HETATM   15  N5  UNL     1      10.967  12.727 -12.173  1.00  0.00    -0.274 N 
ATOM     16  H5  UNL     1      10.640  12.821 -13.134  1.00  0.00     0.185 HD
ENDBRANCH   1  10
TORSDOF 5
ENDMDL
MODEL 5
REMARK VINA RESULT: -4.397955760      3.030      3.550
REMARK  5 active torsions:
REMARK  status: ('A' for Active; 'I' for Inactive)
REMARK    1  A    between atoms: N1_1  and  C1_5 
REMARK    2  A    between atoms: C1_5  and  C2_6 
REMARK    3  A    between atoms: C2_6  and  C3_7 
REMARK    4  A    between atoms: C3_7  and  N2_8 
REMARK    5  A    between atoms: N2_8  and  C4_10 
ROOT
HETATM    1  N2  UNL     1      11.727  17.533 -10.525  1.00  0.00    -0.361 N 
ATOM      2  H2  UNL     1      11.527  16.551 -10.333  1.00  0.00     0.162 HD
ENDROOT
BRANCH   1   3
HETATM    3  C3  UNL     1      12.882  17.905 -11.320  1.00  0.00     0.124 C 
BRANCH   3   4
HETATM    4  C2  UNL     1      14.140  17.972 -10.511  1.00  0.00     0.047 C 
BRANCH   4   5
HETATM    5  C1  UNL     1      14.747  19.373 -10.612  1.00  0.00     0.231 C 
BRANCH   5   6
HETATM    6  N1  UNL     1      15.909  19.280 -11.484  1.00  0.00    -0.079 N 
ATOM      7  H13 UNL     1      16.207  18.319 -11.650  1.00  0.00     0.274 HD
ATOM      8  H12 UNL     1      15.701  19.523 -12.453  1.00  0.00     0.274 HD
ATOM      9  H11 UNL     1      16.642  19.860 -11.077  1.00  0.00     0.274 HD
ENDBRANCH   5   6
ENDBRANCH   4   5
ENDBRANCH   3   4
ENDBRANCH   1   3
BRANCH   1  10
HETATM   10  C4  UNL     1      10.875  18.559 -10.013  1.00  0.00     0.188 C 
HETATM   11  N3  UNL     1      10.615  19.661 -10.623  1.00  0.00    -0.346 N 
HETATM   12  C5  UNL     1       9.728  20.426  -9.795  1.00  0.00     0.259 C 
ATOM     13  H3  UNL     1      10.977  19.942 -11.534  1.00  0.00     0.163 HD
HETATM   14  N4  UNL     1       9.130  19.425  -8.933  1.00  0.00    -0.119 NA
HETATM   15  N5  UNL     1      10.184  18.521  -8.763  1.00  0.00    -0.274 N 
ATOM     16  H5  UNL     1      10.407  17.963  -7.939  1.00  0.00     0.185 HD
ENDBRANCH   1  10
TORSDOF 5
ENDMDL
