MODEL 1
REMARK VINA RESULT: -4.770772730      0.000      0.000
REMARK  5 active torsions:
REMARK  status: ('A' for Active; 'I' for Inactive)
REMARK    1  A    between atoms: N1_1  and  C1_5 
REMARK    2  A    between atoms: C1_5  and  C2_6 
REMARK    3  A    between atoms: C2_6  and  O1_7 
REMARK    4  A    between atoms: O1_7  and  C3_8 
REMARK    5  A    between atoms: N2_9  and  N3_10 
ROOT
HETATM    1  C3  UNL     1      10.967  18.881  -9.839  1.00  0.00     0.271 A 
HETATM    2  N2  UNL     1       9.846  19.494  -9.974  1.00  0.00    -0.147 N 
HETATM    3  N4  UNL     1       8.790  18.580 -10.006  1.00  0.00     0.018 NA
HETATM    4  N5  UNL     1       9.296  17.293  -9.811  1.00  0.00    -0.004 NA
HETATM    5  N6  UNL     1      10.686  17.513  -9.775  1.00  0.00    -0.248 N 
ATOM      6  H6  UNL     1      11.389  16.778  -9.711  1.00  0.00     0.187 HD
ENDROOT
BRANCH   1   7
HETATM    7  O1  UNL     1      12.162  19.520  -9.778  1.00  0.00    -0.317 OA
BRANCH   7   8
HETATM    8  C2  UNL     1      13.104  19.575 -10.825  1.00  0.00     0.206 C 
BRANCH   8   9
HETATM    9  C1  UNL     1      14.432  18.966 -10.460  1.00  0.00     0.256 C 
BRANCH   9  10
HETATM   10  N1  UNL     1      14.275  17.556 -10.060  1.00  0.00    -0.077 N 
ATOM     11  H13 UNL     1      13.559  17.085 -10.613  1.00  0.00     0.274 HD
ATOM     12  H12 UNL     1      15.079  16.994 -10.337  1.00  0.00     0.274 HD
ATOM     13  H11 UNL     1      14.088  17.479  -9.060  1.00  0.00     0.274 HD
ENDBRANCH   9  10
ENDBRANCH   8   9
ENDBRANCH   7   8
ENDBRANCH   1   7
BRANCH   2  14
HETATM   14  N3  UNL     1       9.723  20.870 -10.074  1.00  0.00    -0.322 N 
ATOM     15  H32 UNL     1       9.927  21.424 -10.906  1.00  0.00     0.178 HD
ATOM     16  H31 UNL     1       9.413  21.471  -9.310  1.00  0.00     0.178 HD
ENDBRANCH   2  14
TORSDOF 5
ENDMDL
MODEL 2
REMARK VINA RESULT: -4.720904333      1.423      1.924
REMARK  5 active torsions:
REMARK  status: ('A' for Active; 'I' for Inactive)
REMARK    1  A    between atoms: N1_1  and  C1_5 
REMARK    2  A    between atoms: C1_5  and  C2_6 
REMARK    3  A    between atoms: C2_6  and  O1_7 
REMARK    4  A    between atoms: O1_7  and  C3_8 
REMARK    5  A    between atoms: N2_9  and  N3_10 
ROOT
HETATM    1  C3  UNL     1      10.678  19.310  -9.859  1.00  0.00     0.271 A 
HETATM    2  N2  UNL     1      10.758  20.546  -9.521  1.00  0.00    -0.147 N 
HETATM    3  N4  UNL     1       9.485  21.076  -9.296  1.00  0.00     0.018 NA
HETATM    4  N5  UNL     1       8.538  20.062  -9.447  1.00  0.00    -0.004 NA
HETATM    5  N6  UNL     1       9.322  18.971  -9.869  1.00  0.00    -0.248 N 
ATOM      6  H6  UNL     1       8.952  18.061 -10.143  1.00  0.00     0.187 HD
ENDROOT
BRANCH   1   7
HETATM    7  O1  UNL     1      11.761  18.543 -10.140  1.00  0.00    -0.317 OA
BRANCH   7   8
HETATM    8  C2  UNL     1      12.080  18.029 -11.413  1.00  0.00     0.206 C 
BRANCH   8   9
HETATM    9  C1  UNL     1      13.452  17.411 -11.475  1.00  0.00     0.256 C 
BRANCH   9  10
HETATM   10  N1  UNL     1      14.152  17.548 -10.185  1.00  0.00    -0.077 N 
ATOM     11  H13 UNL     1      13.512  17.813  -9.436  1.00  0.00     0.274 HD
ATOM     12  H12 UNL     1      14.451  16.644  -9.820  1.00  0.00     0.274 HD
ATOM     13  H11 UNL     1      14.933  18.201 -10.261  1.00  0.00     0.274 HD
ENDBRANCH   9  10
ENDBRANCH   8   9
ENDBRANCH   7   8
ENDBRANCH   1   7
BRANCH   2  14
HETATM   14  N3  UNL     1      11.951  21.241  -9.404  1.00  0.00    -0.322 N 
ATOM     15  H32 UNL     1      12.880  20.821  -9.373  1.00  0.00     0.178 HD
ATOM     16  H31 UNL     1      12.014  22.256  -9.334  1.00  0.00     0.178 HD
ENDBRANCH   2  14
TORSDOF 5
ENDMDL
MODEL 3
REMARK VINA RESULT: -4.713306366      0.823      2.042
REMARK  5 active torsions:
REMARK  status: ('A' for Active; 'I' for Inactive)
REMARK    1  A    between atoms: N1_1  and  C1_5 
REMARK    2  A    between atoms: C1_5  and  C2_6 
REMARK    3  A    between atoms: C2_6  and  O1_7 
REMARK    4  A    between atoms: O1_7  and  C3_8 
REMARK    5  A    between atoms: N2_9  and  N3_10 
ROOT
HETATM    1  C3  UNL     1      10.887  19.480  -9.783  1.00  0.00     0.271 A 
HETATM    2  N2  UNL     1       9.897  18.792  -9.340  1.00  0.00    -0.147 N 
HETATM    3  N4  UNL     1       8.804  19.622  -9.075  1.00  0.00     0.018 NA
HETATM    4  N5  UNL     1       9.126  20.930  -9.445  1.00  0.00    -0.004 NA
HETATM    5  N6  UNL     1      10.477  20.815  -9.828  1.00  0.00    -0.248 N 
ATOM      6  H6  UNL     1      11.072  21.598 -10.100  1.00  0.00     0.187 HD
ENDROOT
BRANCH   1   7
HETATM    7  O1  UNL     1      12.081  18.932 -10.122  1.00  0.00    -0.317 OA
BRANCH   7   8
HETATM    8  C2  UNL     1      13.320  19.603 -10.078  1.00  0.00     0.206 C 
BRANCH   8   9
HETATM    9  C1  UNL     1      14.490  18.707 -10.387  1.00  0.00     0.256 C 
BRANCH   9  10
HETATM   10  N1  UNL     1      14.086  17.289 -10.379  1.00  0.00    -0.077 N 
ATOM     11  H13 UNL     1      13.811  16.982  -9.446  1.00  0.00     0.274 HD
ATOM     12  H12 UNL     1      13.195  17.149 -10.856  1.00  0.00     0.274 HD
ATOM     13  H11 UNL     1      14.820  16.698 -10.769  1.00  0.00     0.274 HD
ENDBRANCH   9  10
ENDBRANCH   8   9
ENDBRANCH   7   8
ENDBRANCH   1   7
BRANCH   2  14
HETATM   14  N3  UNL     1       9.927  17.420  -9.157  1.00  0.00    -0.322 N 
ATOM     15  H32 UNL     1      10.581  16.777  -9.604  1.00  0.00     0.178 HD
ATOM     16  H31 UNL     1       9.287  16.912  -8.547  1.00  0.00     0.178 HD
ENDBRANCH   2  14
TORSDOF 5
ENDMDL
MODEL 4
REMARK VINA RESULT: -4.555284592      2.020      2.086
REMARK  5 active torsions:
REMARK  status: ('A' for Active; 'I' for Inactive)
REMARK    1  A    between atoms: N1_1  and  C1_5 
REMARK    2  A    between atoms: C1_5  and  C2_6 
REMARK    3  A    between atoms: C2_6  and  O1_7 
REMARK    4  A    between atoms: O1_7  and  C3_8 
REMARK    5  A    between atoms: N2_9  and  N3_10 
ROOT
HETATM    1  C3  UNL     1      10.535  18.237 -10.205  1.00  0.00     0.271 A 
HETATM    2  N2  UNL     1      10.046  19.343  -9.773  1.00  0.00    -0.147 N 
HETATM    3  N4  UNL     1       9.335  19.135  -8.588  1.00  0.00     0.018 NA
HETATM    4  N5  UNL     1       9.447  17.792  -8.221  1.00  0.00    -0.004 NA
HETATM    5  N6  UNL     1      10.158  17.238  -9.303  1.00  0.00    -0.248 N 
ATOM      6  H6  UNL     1      10.369  16.246  -9.412  1.00  0.00     0.187 HD
ENDROOT
BRANCH   1   7
HETATM    7  O1  UNL     1      11.272  18.141 -11.340  1.00  0.00    -0.317 OA
BRANCH   7   8
HETATM    8  C2  UNL     1      12.561  17.578 -11.421  1.00  0.00     0.206 C 
BRANCH   8   9
HETATM    9  C1  UNL     1      12.642  16.420 -12.382  1.00  0.00     0.256 C 
BRANCH   9  10
HETATM   10  N1  UNL     1      12.142  15.181 -11.759  1.00  0.00    -0.077 N 
ATOM     11  H13 UNL     1      12.270  14.374 -12.369  1.00  0.00     0.274 HD
ATOM     12  H12 UNL     1      12.734  14.884 -10.983  1.00  0.00     0.274 HD
ATOM     13  H11 UNL     1      11.168  15.285 -11.472  1.00  0.00     0.274 HD
ENDBRANCH   9  10
ENDBRANCH   8   9
ENDBRANCH   7   8
ENDBRANCH   1   7
BRANCH   2  14
HETATM   14  N3  UNL     1      10.210  20.563 -10.409  1.00  0.00    -0.322 N 
ATOM     15  H32 UNL     1      10.891  20.762 -11.142  1.00  0.00     0.178 HD
ATOM     16  H31 UNL     1       9.657  21.394 -10.199  1.00  0.00     0.178 HD
ENDBRANCH   2  14
TORSDOF 5
ENDMDL
MODEL 5
REMARK VINA RESULT: -4.535148238      1.226      1.226
REMARK  5 active torsions:
REMARK  status: ('A' for Active; 'I' for Inactive)
REMARK    1  A    between atoms: N1_1  and  C1_5 
REMARK    2  A    between atoms: C1_5  and  C2_6 
REMARK    3  A    between atoms: C2_6  and  O1_7 
REMARK    4  A    between atoms: O1_7  and  C3_8 
REMARK    5  A    between atoms: N2_9  and  N3_10 
ROOT
HETATM    1  C3  UNL     1      11.064  18.779  -9.935  1.00  0.00     0.271 A 
HETATM    2  N2  UNL     1       9.984  19.459 -10.082  1.00  0.00    -0.147 N 
HETATM    3  N4  UNL     1       8.869  18.619 -10.050  1.00  0.00     0.018 NA
HETATM    4  N5  UNL     1       9.291  17.312  -9.799  1.00  0.00    -0.004 NA
HETATM    5  N6  UNL     1      10.693  17.438  -9.797  1.00  0.00    -0.248 N 
ATOM      6  H6  UNL     1      11.347  16.660  -9.708  1.00  0.00     0.187 HD
ENDROOT
BRANCH   1   7
HETATM    7  O1  UNL     1      12.300  19.337  -9.927  1.00  0.00    -0.317 OA
BRANCH   7   8
HETATM    8  C2  UNL     1      13.446  18.772 -10.522  1.00  0.00     0.206 C 
BRANCH   8   9
HETATM    9  C1  UNL     1      14.580  19.753 -10.673  1.00  0.00     0.256 C 
BRANCH   9  10
HETATM   10  N1  UNL     1      14.080  21.140 -10.679  1.00  0.00    -0.077 N 
ATOM     11  H13 UNL     1      14.629  21.735 -11.299  1.00  0.00     0.274 HD
ATOM     12  H12 UNL     1      13.179  21.214 -11.152  1.00  0.00     0.274 HD
ATOM     13  H11 UNL     1      14.041  21.517  -9.732  1.00  0.00     0.274 HD
ENDBRANCH   9  10
ENDBRANCH   8   9
ENDBRANCH   7   8
ENDBRANCH   1   7
BRANCH   2  14
HETATM   14  N3  UNL     1       9.952  20.834 -10.249  1.00  0.00    -0.322 N 
ATOM     15  H32 UNL     1      10.551  21.368 -10.878  1.00  0.00     0.178 HD
ATOM     16  H31 UNL     1       9.316  21.453  -9.748  1.00  0.00     0.178 HD
ENDBRANCH   2  14
TORSDOF 5
ENDMDL
