MODEL 1
REMARK VINA RESULT: -4.536019262      0.000      0.000
REMARK  6 active torsions:
REMARK  status: ('A' for Active; 'I' for Inactive)
REMARK    1  A    between atoms: N1_1  and  C1_4 
REMARK    2  A    between atoms: C2_9  and  N4_10 
REMARK    3  A    between atoms: N4_10  and  C3_12 
REMARK    4  A    between atoms: C3_12  and  C4_13 
REMARK    5  A    between atoms: C4_13  and  N5_14 
REMARK    6  A    between atoms: N6_18  and  O1_19 
ROOT
HETATM    1  C1  UNL     1      13.278  15.475 -12.893  1.00  0.00     0.732 A 
HETATM    2  N2  UNL     1      14.169  16.460 -13.083  1.00  0.00    -0.115 N 
ATOM      3  H2  UNL     1      14.935  16.439 -13.756  1.00  0.00     0.206 HD
HETATM    4  N3  UNL     1      13.902  17.461 -12.265  1.00  0.00    -0.115 N 
ATOM      5  H3  UNL     1      14.424  18.334 -12.203  1.00  0.00     0.206 HD
HETATM    6  C2  UNL     1      12.819  17.134 -11.524  1.00  0.00     0.735 A 
HETATM    7  N6  UNL     1      12.448  15.905 -11.927  1.00  0.00     0.129 N 
ENDROOT
BRANCH   6   8
HETATM    8  N4  UNL     1      12.194  17.931 -10.518  1.00  0.00    -0.221 N 
ATOM      9  H4  UNL     1      12.438  17.818  -9.534  1.00  0.00     0.177 HD
BRANCH   8  10
HETATM   10  C3  UNL     1      11.204  18.901 -10.930  1.00  0.00     0.165 C 
BRANCH  10  11
HETATM   11  C4  UNL     1       9.932  18.656 -10.108  1.00  0.00     0.249 C 
BRANCH  11  12
HETATM   12  N5  UNL     1      10.119  17.407  -9.413  1.00  0.00    -0.078 N 
ATOM     13  H53 UNL     1       9.856  16.594  -9.969  1.00  0.00     0.274 HD
ATOM     14  H52 UNL     1      11.101  17.163  -9.282  1.00  0.00     0.274 HD
ATOM     15  H51 UNL     1       9.603  17.477  -8.536  1.00  0.00     0.274 HD
ENDBRANCH  11  12
ENDBRANCH  10  11
ENDBRANCH   8  10
ENDBRANCH   6   8
BRANCH   7  16
HETATM   16  O1  UNL     1      11.366  15.188 -11.416  1.00  0.00    -0.256 OA
ATOM     17  H1  UNL     1      11.179  15.061 -10.493  1.00  0.00     0.246 HD
ENDBRANCH   7  16
BRANCH   1  18
HETATM   18  N1  UNL     1      13.217  14.361 -13.495  1.00  0.00    -0.231 N 
ATOM     19  H12 UNL     1      13.988  13.710 -13.642  1.00  0.00     0.174 HD
ATOM     20  H11 UNL     1      12.399  13.933 -13.929  1.00  0.00     0.174 HD
ENDBRANCH   1  18
TORSDOF 6
ENDMDL
MODEL 2
REMARK VINA RESULT: -4.497199071      4.230      5.653
REMARK  6 active torsions:
REMARK  status: ('A' for Active; 'I' for Inactive)
REMARK    1  A    between atoms: N1_1  and  C1_4 
REMARK    2  A    between atoms: C2_9  and  N4_10 
REMARK    3  A    between atoms: N4_10  and  C3_12 
REMARK    4  A    between atoms: C3_12  and  C4_13 
REMARK    5  A    between atoms: C4_13  and  N5_14 
REMARK    6  A    between atoms: N6_18  and  O1_19 
ROOT
HETATM    1  C1  UNL     1      10.629  19.050  -9.688  1.00  0.00     0.732 A 
HETATM    2  N2  UNL     1      11.890  18.592  -9.734  1.00  0.00    -0.115 N 
ATOM      3  H2  UNL     1      12.162  17.640  -9.976  1.00  0.00     0.206 HD
HETATM    4  N3  UNL     1      12.723  19.566  -9.419  1.00  0.00    -0.115 N 
ATOM      5  H3  UNL     1      13.739  19.489  -9.378  1.00  0.00     0.206 HD
HETATM    6  C2  UNL     1      12.006  20.683  -9.161  1.00  0.00     0.735 A 
HETATM    7  N6  UNL     1      10.715  20.343  -9.333  1.00  0.00     0.129 N 
ENDROOT
BRANCH   6   8
HETATM    8  N4  UNL     1      12.512  21.962  -8.784  1.00  0.00    -0.221 N 
ATOM      9  H4  UNL     1      12.449  22.287  -7.819  1.00  0.00     0.177 HD
BRANCH   8  10
HETATM   10  C3  UNL     1      13.117  22.787  -9.806  1.00  0.00     0.165 C 
BRANCH  10  11
HETATM   11  C4  UNL     1      13.896  23.909  -9.106  1.00  0.00     0.249 C 
BRANCH  11  12
HETATM   12  N5  UNL     1      13.076  25.093  -9.176  1.00  0.00    -0.078 N 
ATOM     13  H53 UNL     1      13.234  25.643 -10.020  1.00  0.00     0.274 HD
ATOM     14  H52 UNL     1      12.089  24.889  -9.338  1.00  0.00     0.274 HD
ATOM     15  H51 UNL     1      13.241  25.618  -8.318  1.00  0.00     0.274 HD
ENDBRANCH  11  12
ENDBRANCH  10  11
ENDBRANCH   8  10
ENDBRANCH   6   8
BRANCH   7  16
HETATM   16  O1  UNL     1       9.632  21.206  -9.166  1.00  0.00    -0.256 OA
ATOM     17  H1  UNL     1       8.913  21.310  -9.779  1.00  0.00     0.246 HD
ENDBRANCH   7  16
BRANCH   1  18
HETATM   18  N1  UNL     1       9.564  18.405  -9.928  1.00  0.00    -0.231 N 
ATOM     19  H12 UNL     1       9.324  17.480  -9.571  1.00  0.00     0.174 HD
ATOM     20  H11 UNL     1       8.779  18.697 -10.510  1.00  0.00     0.174 HD
ENDBRANCH   1  18
TORSDOF 6
ENDMDL
MODEL 3
REMARK VINA RESULT: -4.402552019      1.647      4.238
REMARK  6 active torsions:
REMARK  status: ('A' for Active; 'I' for Inactive)
REMARK    1  A    between atoms: N1_1  and  C1_4 
REMARK    2  A    between atoms: C2_9  and  N4_10 
REMARK    3  A    between atoms: N4_10  and  C3_12 
REMARK    4  A    between atoms: C3_12  and  C4_13 
REMARK    5  A    between atoms: C4_13  and  N5_14 
REMARK    6  A    between atoms: N6_18  and  O1_19 
ROOT
HETATM    1  C1  UNL     1      10.185  19.347 -10.177  1.00  0.00     0.732 A 
HETATM    2  N2  UNL     1      11.090  20.307 -10.422  1.00  0.00    -0.115 N 
ATOM      3  H2  UNL     1      10.895  21.308 -10.452  1.00  0.00     0.206 HD
HETATM    4  N3  UNL     1      12.274  19.756 -10.619  1.00  0.00    -0.115 N 
ATOM      5  H3  UNL     1      13.137  20.258 -10.824  1.00  0.00     0.206 HD
HETATM    6  C2  UNL     1      12.150  18.415 -10.502  1.00  0.00     0.735 A 
HETATM    7  N6  UNL     1      10.853  18.182 -10.228  1.00  0.00     0.129 N 
ENDROOT
BRANCH   6   8
HETATM    8  N4  UNL     1      13.184  17.441 -10.638  1.00  0.00    -0.221 N 
ATOM      9  H4  UNL     1      13.549  16.946  -9.824  1.00  0.00     0.177 HD
BRANCH   8  10
HETATM   10  C3  UNL     1      13.702  17.173 -11.962  1.00  0.00     0.165 C 
BRANCH  10  11
HETATM   11  C4  UNL     1      12.656  16.342 -12.717  1.00  0.00     0.249 C 
BRANCH  11  12
HETATM   12  N5  UNL     1      12.306  15.235 -11.863  1.00  0.00    -0.078 N 
ATOM     13  H53 UNL     1      11.300  15.136 -11.725  1.00  0.00     0.274 HD
ATOM     14  H52 UNL     1      12.467  14.326 -12.298  1.00  0.00     0.274 HD
ATOM     15  H51 UNL     1      12.820  15.360 -10.992  1.00  0.00     0.274 HD
ENDBRANCH  11  12
ENDBRANCH  10  11
ENDBRANCH   8  10
ENDBRANCH   6   8
BRANCH   7  16
HETATM   16  O1  UNL     1      10.291  16.921 -10.030  1.00  0.00    -0.256 OA
ATOM     17  H1  UNL     1      10.366  16.406  -9.235  1.00  0.00     0.246 HD
ENDBRANCH   7  16
BRANCH   1  18
HETATM   18  N1  UNL     1       8.948  19.495  -9.942  1.00  0.00    -0.231 N 
ATOM     19  H12 UNL     1       8.454  19.206  -9.098  1.00  0.00     0.174 HD
ATOM     20  H11 UNL     1       8.246  19.920 -10.549  1.00  0.00     0.174 HD
ENDBRANCH   1  18
TORSDOF 6
ENDMDL
MODEL 4
REMARK VINA RESULT: -4.370508417      3.657      4.920
REMARK  6 active torsions:
REMARK  status: ('A' for Active; 'I' for Inactive)
REMARK    1  A    between atoms: N1_1  and  C1_4 
REMARK    2  A    between atoms: C2_9  and  N4_10 
REMARK    3  A    between atoms: N4_10  and  C3_12 
REMARK    4  A    between atoms: C3_12  and  C4_13 
REMARK    5  A    between atoms: C4_13  and  N5_14 
REMARK    6  A    between atoms: N6_18  and  O1_19 
ROOT
HETATM    1  C1  UNL     1      10.326  18.290  -9.532  1.00  0.00     0.732 A 
HETATM    2  N2  UNL     1      11.531  18.252 -10.120  1.00  0.00    -0.115 N 
ATOM      3  H2  UNL     1      12.162  17.450 -10.120  1.00  0.00     0.206 HD
HETATM    4  N3  UNL     1      11.775  19.412 -10.701  1.00  0.00    -0.115 N 
ATOM      5  H3  UNL     1      12.620  19.653 -11.219  1.00  0.00     0.206 HD
HETATM    6  C2  UNL     1      10.717  20.229 -10.494  1.00  0.00     0.735 A 
HETATM    7  N6  UNL     1       9.833  19.517  -9.771  1.00  0.00     0.129 N 
ENDROOT
BRANCH   6   8
HETATM    8  N4  UNL     1      10.566  21.573 -10.950  1.00  0.00    -0.221 N 
ATOM      9  H4  UNL     1       9.670  22.054 -10.872  1.00  0.00     0.177 HD
BRANCH   8  10
HETATM   10  C3  UNL     1      11.716  22.233 -11.526  1.00  0.00     0.165 C 
BRANCH  10  11
HETATM   11  C4  UNL     1      12.457  22.960 -10.396  1.00  0.00     0.249 C 
BRANCH  11  12
HETATM   12  N5  UNL     1      13.772  22.374 -10.315  1.00  0.00    -0.078 N 
ATOM     13  H53 UNL     1      13.943  21.892  -9.432  1.00  0.00     0.274 HD
ATOM     14  H52 UNL     1      13.890  21.567 -10.927  1.00  0.00     0.274 HD
ATOM     15  H51 UNL     1      14.441  23.121 -10.501  1.00  0.00     0.274 HD
ENDBRANCH  11  12
ENDBRANCH  10  11
ENDBRANCH   8  10
ENDBRANCH   6   8
BRANCH   7  16
HETATM   16  O1  UNL     1       8.594  19.987  -9.336  1.00  0.00    -0.256 OA
ATOM     17  H1  UNL     1       8.073  20.650  -9.775  1.00  0.00     0.246 HD
ENDBRANCH   7  16
BRANCH   1  18
HETATM   18  N1  UNL     1       9.755  17.364  -8.880  1.00  0.00    -0.231 N 
ATOM     19  H12 UNL     1       9.311  17.453  -7.967  1.00  0.00     0.174 HD
ATOM     20  H11 UNL     1       9.645  16.388  -9.155  1.00  0.00     0.174 HD
ENDBRANCH   1  18
TORSDOF 6
ENDMDL
MODEL 5
REMARK VINA RESULT: -4.285505061      2.600      4.139
REMARK  6 active torsions:
REMARK  status: ('A' for Active; 'I' for Inactive)
REMARK    1  A    between atoms: N1_1  and  C1_4 
REMARK    2  A    between atoms: C2_9  and  N4_10 
REMARK    3  A    between atoms: N4_10  and  C3_12 
REMARK    4  A    between atoms: C3_12  and  C4_13 
REMARK    5  A    between atoms: C4_13  and  N5_14 
REMARK    6  A    between atoms: N6_18  and  O1_19 
ROOT
HETATM    1  C1  UNL     1      13.103  16.245 -13.171  1.00  0.00     0.732 A 
HETATM    2  N2  UNL     1      13.507  15.139 -13.814  1.00  0.00    -0.115 N 
ATOM      3  H2  UNL     1      14.023  15.125 -14.694  1.00  0.00     0.206 HD
HETATM    4  N3  UNL     1      13.135  14.072 -13.132  1.00  0.00    -0.115 N 
ATOM      5  H3  UNL     1      13.315  13.104 -13.396  1.00  0.00     0.206 HD
HETATM    6  C2  UNL     1      12.476  14.477 -12.023  1.00  0.00     0.735 A 
HETATM    7  N6  UNL     1      12.467  15.823 -12.065  1.00  0.00     0.129 N 
ENDROOT
BRANCH   6   8
HETATM    8  N4  UNL     1      11.905  13.649 -11.011  1.00  0.00    -0.221 N 
ATOM      9  H4  UNL     1      11.550  14.052 -10.143  1.00  0.00     0.177 HD
BRANCH   8  10
HETATM   10  C3  UNL     1      11.844  12.224 -11.246  1.00  0.00     0.165 C 
BRANCH  10  11
HETATM   11  C4  UNL     1      12.590  11.524 -10.102  1.00  0.00     0.249 C 
BRANCH  11  12
HETATM   12  N5  UNL     1      12.672  12.470  -9.018  1.00  0.00    -0.078 N 
ATOM     13  H53 UNL     1      13.604  12.867  -8.900  1.00  0.00     0.274 HD
ATOM     14  H52 UNL     1      12.182  13.344  -9.209  1.00  0.00     0.274 HD
ATOM     15  H51 UNL     1      12.330  11.993  -8.183  1.00  0.00     0.274 HD
ENDBRANCH  11  12
ENDBRANCH  10  11
ENDBRANCH   8  10
ENDBRANCH   6   8
BRANCH   7  16
HETATM   16  O1  UNL     1      11.884  16.649 -11.105  1.00  0.00    -0.256 OA
ATOM     17  H1  UNL     1      12.205  17.507 -10.851  1.00  0.00     0.246 HD
ENDBRANCH   7  16
BRANCH   1  18
HETATM   18  N1  UNL     1      13.278  17.451 -13.523  1.00  0.00    -0.231 N 
ATOM     19  H12 UNL     1      12.745  17.958 -14.230  1.00  0.00     0.174 HD
ATOM     20  H11 UNL     1      13.970  18.109 -13.165  1.00  0.00     0.174 HD
ENDBRANCH   1  18
TORSDOF 6
ENDMDL
