MODEL 1
REMARK VINA RESULT: -4.474347940      0.000      0.000
REMARK  5 active torsions:
REMARK  status: ('A' for Active; 'I' for Inactive)
REMARK    1  A    between atoms: N1_1  and  C1_4 
REMARK    2  A    between atoms: C3_10  and  N4_11 
REMARK    3  A    between atoms: N4_11  and  C4_13 
REMARK    4  A    between atoms: C4_13  and  C5_14 
REMARK    5  A    between atoms: C5_14  and  N5_15 
ROOT
HETATM    1  C1  UNL     1      13.762  16.923 -13.709  1.00  0.00     0.691 A 
HETATM    2  N2  UNL     1      14.117  17.807 -12.760  1.00  0.00    -0.187 N 
ATOM      3  H2  UNL     1      14.661  18.625 -13.031  1.00  0.00     0.185 HD
HETATM    4  C2  UNL     1      13.778  17.652 -11.455  1.00  0.00     0.215 A 
HETATM    5  N3  UNL     1      13.065  16.572 -11.116  1.00  0.00    -0.187 N 
ATOM      6  H3  UNL     1      12.799  16.432 -10.141  1.00  0.00     0.185 HD
HETATM    7  C3  UNL     1      12.694  15.666 -12.043  1.00  0.00     0.693 A 
HETATM    8  N6  UNL     1      13.047  15.853 -13.327  1.00  0.00    -0.023 N 
ATOM      9  H6  UNL     1      12.765  15.167 -14.026  1.00  0.00     0.203 HD
ENDROOT
BRANCH   7  10
HETATM   10  N4  UNL     1      12.004  14.619 -11.730  1.00  0.00    -0.224 N 
ATOM     11  H4  UNL     1      11.141  14.753 -11.203  1.00  0.00     0.177 HD
BRANCH  10  12
HETATM   12  C4  UNL     1      12.380  13.281 -12.077  1.00  0.00     0.165 C 
BRANCH  12  13
HETATM   13  C5  UNL     1      11.834  12.340 -11.025  1.00  0.00     0.249 C 
BRANCH  13  14
HETATM   14  N5  UNL     1      12.485  12.624  -9.757  1.00  0.00    -0.078 N 
ATOM     15  H53 UNL     1      12.701  13.614  -9.643  1.00  0.00     0.274 HD
ATOM     16  H52 UNL     1      11.852  12.525  -8.964  1.00  0.00     0.274 HD
ATOM     17  H51 UNL     1      13.311  12.033  -9.671  1.00  0.00     0.274 HD
ENDBRANCH  13  14
ENDBRANCH  12  13
ENDBRANCH  10  12
ENDBRANCH   7  10
BRANCH   1  18
HETATM   18  N1  UNL     1      14.091  17.078 -14.955  1.00  0.00    -0.234 N 
ATOM     19  H12 UNL     1      14.045  18.002 -15.387  1.00  0.00     0.174 HD
ATOM     20  H11 UNL     1      14.399  16.300 -15.536  1.00  0.00     0.174 HD
ENDBRANCH   1  18
TORSDOF 5
ENDMDL
MODEL 2
REMARK VINA RESULT: -4.390364730      0.791      1.962
REMARK  5 active torsions:
REMARK  status: ('A' for Active; 'I' for Inactive)
REMARK    1  A    between atoms: N1_1  and  C1_4 
REMARK    2  A    between atoms: C3_10  and  N4_11 
REMARK    3  A    between atoms: N4_11  and  C4_13 
REMARK    4  A    between atoms: C4_13  and  C5_14 
REMARK    5  A    between atoms: C5_14  and  N5_15 
ROOT
HETATM    1  C1  UNL     1      13.220  17.521 -11.653  1.00  0.00     0.691 A 
HETATM    2  N2  UNL     1      13.869  17.483 -12.829  1.00  0.00    -0.187 N 
ATOM      3  H2  UNL     1      14.381  18.312 -13.133  1.00  0.00     0.185 HD
HETATM    4  C2  UNL     1      13.868  16.387 -13.629  1.00  0.00     0.215 A 
HETATM    5  N3  UNL     1      13.190  15.310 -13.217  1.00  0.00    -0.187 N 
ATOM      6  H3  UNL     1      13.174  14.474 -13.799  1.00  0.00     0.185 HD
HETATM    7  C3  UNL     1      12.529  15.314 -12.042  1.00  0.00     0.693 A 
HETATM    8  N6  UNL     1      12.552  16.419 -11.275  1.00  0.00    -0.023 N 
ATOM      9  H6  UNL     1      12.051  16.421 -10.387  1.00  0.00     0.203 HD
ENDROOT
BRANCH   7  10
HETATM   10  N4  UNL     1      11.870  14.281 -11.630  1.00  0.00    -0.224 N 
ATOM     11  H4  UNL     1      11.036  14.439 -11.064  1.00  0.00     0.177 HD
BRANCH  10  12
HETATM   12  C4  UNL     1      12.241  12.929 -11.921  1.00  0.00     0.165 C 
BRANCH  12  13
HETATM   13  C5  UNL     1      11.892  12.068 -10.727  1.00  0.00     0.249 C 
BRANCH  13  14
HETATM   14  N5  UNL     1      12.556  12.604  -9.550  1.00  0.00    -0.078 N 
ATOM     15  H53 UNL     1      13.187  11.929  -9.118  1.00  0.00     0.274 HD
ATOM     16  H52 UNL     1      13.248  13.315  -9.784  1.00  0.00     0.274 HD
ATOM     17  H51 UNL     1      11.850  12.948  -8.900  1.00  0.00     0.274 HD
ENDBRANCH  13  14
ENDBRANCH  12  13
ENDBRANCH  10  12
ENDBRANCH   7  10
BRANCH   1  18
HETATM   18  N1  UNL     1      13.225  18.574 -10.894  1.00  0.00    -0.234 N 
ATOM     19  H12 UNL     1      14.108  19.005 -10.620  1.00  0.00     0.174 HD
ATOM     20  H11 UNL     1      12.365  19.000 -10.550  1.00  0.00     0.174 HD
ENDBRANCH   1  18
TORSDOF 5
ENDMDL
MODEL 3
REMARK VINA RESULT: -4.316004312      1.665      4.968
REMARK  5 active torsions:
REMARK  status: ('A' for Active; 'I' for Inactive)
REMARK    1  A    between atoms: N1_1  and  C1_4 
REMARK    2  A    between atoms: C3_10  and  N4_11 
REMARK    3  A    between atoms: N4_11  and  C4_13 
REMARK    4  A    between atoms: C4_13  and  C5_14 
REMARK    5  A    between atoms: C5_14  and  N5_15 
ROOT
HETATM    1  C1  UNL     1      12.769  15.841 -12.102  1.00  0.00     0.691 A 
HETATM    2  N2  UNL     1      13.279  16.717 -11.219  1.00  0.00    -0.187 N 
ATOM      3  H2  UNL     1      13.070  16.591 -10.229  1.00  0.00     0.185 HD
HETATM    4  C2  UNL     1      14.060  17.762 -11.594  1.00  0.00     0.215 A 
HETATM    5  N3  UNL     1      14.322  17.912 -12.897  1.00  0.00    -0.187 N 
ATOM      6  H3  UNL     1      14.906  18.689 -13.205  1.00  0.00     0.185 HD
HETATM    7  C3  UNL     1      13.827  17.052 -13.809  1.00  0.00     0.693 A 
HETATM    8  N6  UNL     1      13.057  16.028 -13.400  1.00  0.00    -0.023 N 
ATOM      9  H6  UNL     1      12.682  15.378 -14.092  1.00  0.00     0.203 HD
ENDROOT
BRANCH   7  10
HETATM   10  N4  UNL     1      14.072  17.185 -15.071  1.00  0.00    -0.224 N 
ATOM     11  H4  UNL     1      13.961  16.366 -15.670  1.00  0.00     0.177 HD
BRANCH  10  12
HETATM   12  C4  UNL     1      14.491  18.412 -15.679  1.00  0.00     0.165 C 
BRANCH  12  13
HETATM   13  C5  UNL     1      13.264  19.147 -16.172  1.00  0.00     0.249 C 
BRANCH  13  14
HETATM   14  N5  UNL     1      12.654  18.377 -17.244  1.00  0.00    -0.078 N 
ATOM     15  H53 UNL     1      13.346  17.952 -17.861  1.00  0.00     0.274 HD
ATOM     16  H52 UNL     1      12.218  17.519 -16.907  1.00  0.00     0.274 HD
ATOM     17  H51 UNL     1      11.998  18.974 -17.747  1.00  0.00     0.274 HD
ENDBRANCH  13  14
ENDBRANCH  12  13
ENDBRANCH  10  12
ENDBRANCH   7  10
BRANCH   1  18
HETATM   18  N1  UNL     1      12.022  14.845 -11.735  1.00  0.00    -0.234 N 
ATOM     19  H12 UNL     1      12.403  14.111 -11.137  1.00  0.00     0.174 HD
ATOM     20  H11 UNL     1      11.049  14.760 -12.026  1.00  0.00     0.174 HD
ENDBRANCH   1  18
TORSDOF 5
ENDMDL
MODEL 4
REMARK VINA RESULT: -4.306082818      2.325      3.917
REMARK  5 active torsions:
REMARK  status: ('A' for Active; 'I' for Inactive)
REMARK    1  A    between atoms: N1_1  and  C1_4 
REMARK    2  A    between atoms: C3_10  and  N4_11 
REMARK    3  A    between atoms: N4_11  and  C4_13 
REMARK    4  A    between atoms: C4_13  and  C5_14 
REMARK    5  A    between atoms: C5_14  and  N5_15 
ROOT
HETATM    1  C1  UNL     1      12.965  15.797 -12.394  1.00  0.00     0.691 A 
HETATM    2  N2  UNL     1      13.986  16.363 -13.060  1.00  0.00    -0.187 N 
ATOM      3  H2  UNL     1      14.441  15.832 -13.802  1.00  0.00     0.185 HD
HETATM    4  C2  UNL     1      14.435  17.613 -12.783  1.00  0.00     0.215 A 
HETATM    5  N3  UNL     1      13.827  18.295 -11.806  1.00  0.00    -0.187 N 
ATOM      6  H3  UNL     1      14.145  19.237 -11.578  1.00  0.00     0.185 HD
HETATM    7  C3  UNL     1      12.800  17.757 -11.118  1.00  0.00     0.693 A 
HETATM    8  N6  UNL     1      12.383  16.515 -11.420  1.00  0.00    -0.023 N 
ATOM      9  H6  UNL     1      11.606  16.109 -10.899  1.00  0.00     0.203 HD
ENDROOT
BRANCH   7  10
HETATM   10  N4  UNL     1      12.204  18.404 -10.172  1.00  0.00    -0.224 N 
ATOM     11  H4  UNL     1      12.671  18.469  -9.267  1.00  0.00     0.177 HD
BRANCH  10  12
HETATM   12  C4  UNL     1      10.926  19.036 -10.317  1.00  0.00     0.165 C 
BRANCH  12  13
HETATM   13  C5  UNL     1      10.119  18.781  -9.063  1.00  0.00     0.249 C 
BRANCH  13  14
HETATM   14  N5  UNL     1       9.885  17.352  -8.937  1.00  0.00    -0.078 N 
ATOM     15  H53 UNL     1       8.994  17.141  -8.490  1.00  0.00     0.274 HD
ATOM     16  H52 UNL     1       9.702  16.907  -9.836  1.00  0.00     0.274 HD
ATOM     17  H51 UNL     1      10.675  16.930  -8.448  1.00  0.00     0.274 HD
ENDBRANCH  13  14
ENDBRANCH  12  13
ENDBRANCH  10  12
ENDBRANCH   7  10
BRANCH   1  18
HETATM   18  N1  UNL     1      12.543  14.599 -12.664  1.00  0.00    -0.234 N 
ATOM     19  H12 UNL     1      11.888  14.447 -13.432  1.00  0.00     0.174 HD
ATOM     20  H11 UNL     1      12.843  13.784 -12.131  1.00  0.00     0.174 HD
ENDBRANCH   1  18
TORSDOF 5
ENDMDL
MODEL 5
REMARK VINA RESULT: -4.288684139      1.700      5.290
REMARK  5 active torsions:
REMARK  status: ('A' for Active; 'I' for Inactive)
REMARK    1  A    between atoms: N1_1  and  C1_4 
REMARK    2  A    between atoms: C3_10  and  N4_11 
REMARK    3  A    between atoms: N4_11  and  C4_13 
REMARK    4  A    between atoms: C4_13  and  C5_14 
REMARK    5  A    between atoms: C5_14  and  N5_15 
ROOT
HETATM    1  C1  UNL     1      12.085  11.714 -10.113  1.00  0.00     0.691 A 
HETATM    2  N2  UNL     1      11.152  11.107 -10.865  1.00  0.00    -0.187 N 
ATOM      3  H2  UNL     1      10.896  10.144 -10.645  1.00  0.00     0.185 HD
HETATM    4  C2  UNL     1      10.536  11.723 -11.905  1.00  0.00     0.215 A 
HETATM    5  N3  UNL     1      10.884  12.985 -12.180  1.00  0.00    -0.187 N 
ATOM      6  H3  UNL     1      10.436  13.471 -12.957  1.00  0.00     0.185 HD
HETATM    7  C3  UNL     1      11.817  13.624 -11.446  1.00  0.00     0.693 A 
HETATM    8  N6  UNL     1      12.406  12.981 -10.423  1.00  0.00    -0.023 N 
ATOM      9  H6  UNL     1      13.111  13.466  -9.869  1.00  0.00     0.203 HD
ENDROOT
BRANCH   7  10
HETATM   10  N4  UNL     1      12.162  14.843 -11.701  1.00  0.00    -0.224 N 
ATOM     11  H4  UNL     1      11.785  15.582 -11.107  1.00  0.00     0.177 HD
BRANCH  10  12
HETATM   12  C4  UNL     1      13.043  15.219 -12.765  1.00  0.00     0.165 C 
BRANCH  12  13
HETATM   13  C5  UNL     1      13.553  16.618 -12.496  1.00  0.00     0.249 C 
BRANCH  13  14
HETATM   14  N5  UNL     1      13.457  16.887 -11.071  1.00  0.00    -0.078 N 
ATOM     15  H53 UNL     1      14.231  17.456 -10.729  1.00  0.00     0.274 HD
ATOM     16  H52 UNL     1      12.698  17.530 -10.847  1.00  0.00     0.274 HD
ATOM     17  H51 UNL     1      13.375  16.001 -10.573  1.00  0.00     0.274 HD
ENDBRANCH  13  14
ENDBRANCH  12  13
ENDBRANCH  10  12
ENDBRANCH   7  10
BRANCH   1  18
HETATM   18  N1  UNL     1      12.670  11.117  -9.120  1.00  0.00    -0.234 N 
ATOM     19  H12 UNL     1      12.126  10.807  -8.314  1.00  0.00     0.174 HD
ATOM     20  H11 UNL     1      13.674  10.939  -9.108  1.00  0.00     0.174 HD
ENDBRANCH   1  18
TORSDOF 5
ENDMDL
