MODEL 1
REMARK VINA RESULT: -5.587250991      0.000      0.000
REMARK  5 active torsions:
REMARK  status: ('A' for Active; 'I' for Inactive)
REMARK    1  A    between atoms: C2_2  and  C3_5 
REMARK    2  A    between atoms: C3_5  and  N1_6 
REMARK    3  A    between atoms: C5_8  and  C6_9 
REMARK    4  A    between atoms: C6_9  and  O1_12 
REMARK    5  A    between atoms: C9_15  and  N2_16 
ROOT
HETATM    1  N1  UNL     1      -7.314  43.819  -3.212  1.00  0.00    -0.334 N 
HETATM    2  C4  UNL     1      -7.553  44.935  -3.868  1.00  0.00     0.111 A 
HETATM    3  C5  UNL     1      -8.821  45.193  -4.278  1.00  0.00     0.035 A 
HETATM    4  S1  UNL     1      -9.664  43.822  -3.712  1.00  0.00    -0.054 SA
HETATM    5  C9  UNL     1      -8.331  42.999  -2.979  1.00  0.00     0.144 A 
ENDROOT
BRANCH   1   6
HETATM    6  C3  UNL     1      -5.942  43.448  -2.778  1.00  0.00     0.172 C 
BRANCH   6   7
HETATM    7  C2  UNL     1      -5.092  42.940  -3.878  1.00  0.00     0.126 C 
HETATM    8  C1  UNL     1      -5.379  41.594  -4.444  1.00  0.00     0.052 C 
HETATM    9 CL1  UNL     1      -3.412  42.843  -3.213  1.00  0.00    -0.100 Cl
HETATM   10 CL2  UNL     1      -4.942  44.165  -5.207  1.00  0.00    -0.100 Cl
ENDBRANCH   6   7
ENDBRANCH   1   6
BRANCH   5  11
HETATM   11  N2  UNL     1      -8.394  41.849  -2.336  1.00  0.00    -0.379 N 
ATOM     12  H22 UNL     1      -7.861  41.010  -2.561  1.00  0.00     0.158 HD
ATOM     13  H21 UNL     1      -8.962  41.550  -1.543  1.00  0.00     0.158 HD
ENDBRANCH   5  11
BRANCH   3  14
HETATM   14  C6  UNL     1      -9.397  46.341  -5.040  1.00  0.00     0.085 C 
HETATM   15  C7  UNL     1     -10.484  47.028  -4.225  1.00  0.00     0.051 C 
HETATM   16  C8  UNL     1      -8.350  47.391  -5.332  1.00  0.00     0.051 C 
BRANCH  14  17
HETATM   17  O1  UNL     1      -9.940  45.880  -6.253  1.00  0.00    -0.385 OA
ATOM     18  H1  UNL     1      -9.467  46.262  -6.983  1.00  0.00     0.211 HD
ENDBRANCH  14  17
ENDBRANCH   3  14
TORSDOF 5
ENDMDL
MODEL 2
REMARK VINA RESULT: -5.520460043      3.435      5.146
REMARK  5 active torsions:
REMARK  status: ('A' for Active; 'I' for Inactive)
REMARK    1  A    between atoms: C2_2  and  C3_5 
REMARK    2  A    between atoms: C3_5  and  N1_6 
REMARK    3  A    between atoms: C5_8  and  C6_9 
REMARK    4  A    between atoms: C6_9  and  O1_12 
REMARK    5  A    between atoms: C9_15  and  N2_16 
ROOT
HETATM    1  N1  UNL     1      -8.737  45.256  -4.032  1.00  0.00    -0.334 N 
HETATM    2  C4  UNL     1      -7.476  44.888  -4.122  1.00  0.00     0.111 A 
HETATM    3  C5  UNL     1      -7.099  43.709  -3.562  1.00  0.00     0.035 A 
HETATM    4  S1  UNL     1      -8.567  43.139  -2.909  1.00  0.00    -0.054 SA
HETATM    5  C9  UNL     1      -9.582  44.452  -3.398  1.00  0.00     0.144 A 
ENDROOT
BRANCH   1   6
HETATM    6  C3  UNL     1      -9.210  46.556  -4.575  1.00  0.00     0.172 C 
BRANCH   6   7
HETATM    7  C2  UNL     1      -9.315  46.576  -6.051  1.00  0.00     0.126 C 
HETATM    8  C1  UNL     1      -8.066  46.635  -6.858  1.00  0.00     0.052 C 
HETATM    9 CL1  UNL     1     -10.239  48.074  -6.470  1.00  0.00    -0.100 Cl
HETATM   10 CL2  UNL     1     -10.391  45.244  -6.648  1.00  0.00    -0.100 Cl
ENDBRANCH   6   7
ENDBRANCH   1   6
BRANCH   5  11
HETATM   11  N2  UNL     1     -10.879  44.546  -3.181  1.00  0.00    -0.379 N 
ATOM     12  H22 UNL     1     -11.351  44.362  -2.296  1.00  0.00     0.158 HD
ATOM     13  H21 UNL     1     -11.651  44.784  -3.804  1.00  0.00     0.158 HD
ENDBRANCH   5  11
BRANCH   3  14
HETATM   14  C6  UNL     1      -5.768  43.037  -3.484  1.00  0.00     0.085 C 
HETATM   15  C7  UNL     1      -5.905  41.552  -3.792  1.00  0.00     0.051 C 
HETATM   16  C8  UNL     1      -4.803  43.600  -4.503  1.00  0.00     0.051 C 
BRANCH  14  17
HETATM   17  O1  UNL     1      -5.227  43.202  -2.196  1.00  0.00    -0.385 OA
ATOM     18  H1  UNL     1      -4.479  42.628  -2.086  1.00  0.00     0.211 HD
ENDBRANCH  14  17
ENDBRANCH   3  14
TORSDOF 5
ENDMDL
MODEL 3
REMARK VINA RESULT: -5.486361454      3.087      5.018
REMARK  5 active torsions:
REMARK  status: ('A' for Active; 'I' for Inactive)
REMARK    1  A    between atoms: C2_2  and  C3_5 
REMARK    2  A    between atoms: C3_5  and  N1_6 
REMARK    3  A    between atoms: C5_8  and  C6_9 
REMARK    4  A    between atoms: C6_9  and  O1_12 
REMARK    5  A    between atoms: C9_15  and  N2_16 
ROOT
HETATM    1  N1  UNL     1      -8.591  45.225  -4.008  1.00  0.00    -0.334 N 
HETATM    2  C4  UNL     1      -7.339  44.843  -4.147  1.00  0.00     0.111 A 
HETATM    3  C5  UNL     1      -6.956  43.653  -3.615  1.00  0.00     0.035 A 
HETATM    4  S1  UNL     1      -8.408  43.094  -2.916  1.00  0.00    -0.054 SA
HETATM    5  C9  UNL     1      -9.422  44.424  -3.353  1.00  0.00     0.144 A 
ENDROOT
BRANCH   1   6
HETATM    6  C3  UNL     1      -9.067  46.537  -4.519  1.00  0.00     0.172 C 
BRANCH   6   7
HETATM    7  C2  UNL     1      -9.432  46.515  -5.953  1.00  0.00     0.126 C 
HETATM    8  C1  UNL     1     -10.163  45.335  -6.489  1.00  0.00     0.052 C 
HETATM    9 CL1  UNL     1      -7.874  46.583  -6.871  1.00  0.00    -0.100 Cl
HETATM   10 CL2  UNL     1     -10.267  48.050  -6.439  1.00  0.00    -0.100 Cl
ENDBRANCH   6   7
ENDBRANCH   1   6
BRANCH   5  11
HETATM   11  N2  UNL     1     -10.709  44.532  -3.088  1.00  0.00    -0.379 N 
ATOM     12  H22 UNL     1     -11.421  43.830  -3.290  1.00  0.00     0.158 HD
ATOM     13  H21 UNL     1     -11.252  45.291  -2.676  1.00  0.00     0.158 HD
ENDBRANCH   5  11
BRANCH   3  14
HETATM   14  C6  UNL     1      -5.632  42.964  -3.593  1.00  0.00     0.085 C 
HETATM   15  C7  UNL     1      -5.793  41.496  -3.962  1.00  0.00     0.051 C 
HETATM   16  C8  UNL     1      -4.681  43.561  -4.605  1.00  0.00     0.051 C 
BRANCH  14  17
HETATM   17  O1  UNL     1      -5.065  43.066  -2.309  1.00  0.00    -0.385 OA
ATOM     18  H1  UNL     1      -4.598  43.889  -2.229  1.00  0.00     0.211 HD
ENDBRANCH  14  17
ENDBRANCH   3  14
TORSDOF 5
ENDMDL
MODEL 4
REMARK VINA RESULT: -5.251687815      0.849      1.216
REMARK  5 active torsions:
REMARK  status: ('A' for Active; 'I' for Inactive)
REMARK    1  A    between atoms: C2_2  and  C3_5 
REMARK    2  A    between atoms: C3_5  and  N1_6 
REMARK    3  A    between atoms: C5_8  and  C6_9 
REMARK    4  A    between atoms: C6_9  and  O1_12 
REMARK    5  A    between atoms: C9_15  and  N2_16 
ROOT
HETATM    1  N1  UNL     1      -7.306  43.798  -3.211  1.00  0.00    -0.334 N 
HETATM    2  C4  UNL     1      -7.537  44.918  -3.863  1.00  0.00     0.111 A 
HETATM    3  C5  UNL     1      -8.801  45.180  -4.283  1.00  0.00     0.035 A 
HETATM    4  S1  UNL     1      -9.651  43.807  -3.733  1.00  0.00    -0.054 SA
HETATM    5  C9  UNL     1      -8.327  42.977  -2.992  1.00  0.00     0.144 A 
ENDROOT
BRANCH   1   6
HETATM    6  C3  UNL     1      -5.939  43.422  -2.767  1.00  0.00     0.172 C 
BRANCH   6   7
HETATM    7  C2  UNL     1      -5.017  43.120  -3.884  1.00  0.00     0.126 C 
HETATM    8  C1  UNL     1      -5.021  44.010  -5.078  1.00  0.00     0.052 C 
HETATM    9 CL1  UNL     1      -5.481  41.482  -4.494  1.00  0.00    -0.100 Cl
HETATM   10 CL2  UNL     1      -3.322  42.875  -3.285  1.00  0.00    -0.100 Cl
ENDBRANCH   6   7
ENDBRANCH   1   6
BRANCH   5  11
HETATM   11  N2  UNL     1      -8.397  41.824  -2.357  1.00  0.00    -0.379 N 
ATOM     12  H22 UNL     1      -7.973  41.614  -1.454  1.00  0.00     0.158 HD
ATOM     13  H21 UNL     1      -8.837  40.940  -2.612  1.00  0.00     0.158 HD
ENDBRANCH   5  11
BRANCH   3  14
HETATM   14  C6  UNL     1      -9.368  46.333  -5.044  1.00  0.00     0.085 C 
HETATM   15  C7  UNL     1     -10.453  47.024  -4.230  1.00  0.00     0.051 C 
HETATM   16  C8  UNL     1      -8.314  47.378  -5.330  1.00  0.00     0.051 C 
BRANCH  14  17
HETATM   17  O1  UNL     1      -9.910  45.879  -6.261  1.00  0.00    -0.385 OA
ATOM     18  H1  UNL     1     -10.784  45.538  -6.115  1.00  0.00     0.211 HD
ENDBRANCH  14  17
ENDBRANCH   3  14
TORSDOF 5
ENDMDL
MODEL 5
REMARK VINA RESULT: -5.208919088      3.252      5.279
REMARK  5 active torsions:
REMARK  status: ('A' for Active; 'I' for Inactive)
REMARK    1  A    between atoms: C2_2  and  C3_5 
REMARK    2  A    between atoms: C3_5  and  N1_6 
REMARK    3  A    between atoms: C5_8  and  C6_9 
REMARK    4  A    between atoms: C6_9  and  O1_12 
REMARK    5  A    between atoms: C9_15  and  N2_16 
ROOT
HETATM    1  N1  UNL     1      -9.859  45.146  -4.700  1.00  0.00    -0.334 N 
HETATM    2  C4  UNL     1      -8.622  44.694  -4.693  1.00  0.00     0.111 A 
HETATM    3  C5  UNL     1      -8.166  44.059  -3.582  1.00  0.00     0.035 A 
HETATM    4  S1  UNL     1      -9.526  44.118  -2.555  1.00  0.00    -0.054 SA
HETATM    5  C9  UNL     1     -10.604  44.954  -3.618  1.00  0.00     0.144 A 
ENDROOT
BRANCH   1   6
HETATM    6  C3  UNL     1     -10.408  45.894  -5.861  1.00  0.00     0.172 C 
BRANCH   6   7
HETATM    7  C2  UNL     1      -9.675  47.144  -6.159  1.00  0.00     0.126 C 
HETATM    8  C1  UNL     1      -9.505  48.151  -5.076  1.00  0.00     0.052 C 
HETATM    9 CL1  UNL     1     -10.611  47.981  -7.461  1.00  0.00    -0.100 Cl
HETATM   10 CL2  UNL     1      -8.082  46.795  -6.952  1.00  0.00    -0.100 Cl
ENDBRANCH   6   7
ENDBRANCH   1   6
BRANCH   5  11
HETATM   11  N2  UNL     1     -11.858  45.266  -3.357  1.00  0.00    -0.379 N 
ATOM     12  H22 UNL     1     -12.465  44.789  -2.691  1.00  0.00     0.158 HD
ATOM     13  H21 UNL     1     -12.469  45.984  -3.746  1.00  0.00     0.158 HD
ENDBRANCH   5  11
BRANCH   3  14
HETATM   14  C6  UNL     1      -6.836  43.461  -3.266  1.00  0.00     0.085 C 
HETATM   15  C7  UNL     1      -6.864  41.955  -3.492  1.00  0.00     0.051 C 
HETATM   16  C8  UNL     1      -5.754  44.010  -4.168  1.00  0.00     0.051 C 
BRANCH  14  17
HETATM   17  O1  UNL     1      -6.500  43.728  -1.926  1.00  0.00    -0.385 OA
ATOM     18  H1  UNL     1      -7.278  43.675  -1.384  1.00  0.00     0.211 HD
ENDBRANCH  14  17
ENDBRANCH   3  14
TORSDOF 5
ENDMDL
