MODEL 1
REMARK VINA RESULT: -5.860487480      0.000      0.000
REMARK  4 active torsions:
REMARK  status: ('A' for Active; 'I' for Inactive)
REMARK    1  A    between atoms: C2_2  and  O1_3 
REMARK    2  A    between atoms: O1_3  and  C3_4 
REMARK    3  A    between atoms: C3_4  and  C4_6 
REMARK    4  A    between atoms: C7_11  and  N1_12 
REMARK       I    between atoms: N1_12  and  C8_14 
REMARK       I    between atoms: C8_14  and  N3_18 
ROOT
HETATM    1  C4  UNL     1      -9.368  46.641  -5.150  1.00  0.00     0.110 A 
HETATM    2  S1  UNL     1      -9.697  48.233  -4.649  1.00  0.00    -0.090 SA
HETATM    3  C5  UNL     1     -10.983  47.925  -3.576  1.00  0.00     0.095 A 
HETATM    4  C6  UNL     1     -11.125  46.567  -3.636  1.00  0.00     0.151 A 
HETATM    5  F1  UNL     1     -12.114  45.965  -2.860  1.00  0.00    -0.203 F 
HETATM    6  C7  UNL     1     -10.285  45.895  -4.455  1.00  0.00     0.111 A 
ENDROOT
BRANCH   6   7
HETATM    7  N1  UNL     1     -10.347  44.446  -4.600  1.00  0.00    -0.186 N 
HETATM    8  C8  UNL     1      -9.568  43.595  -3.775  1.00  0.00     0.688 C 
HETATM    9  N2  UNL     1      -9.428  42.349  -4.074  1.00  0.00    -0.131 N 
HETATM   10  N3  UNL     1      -8.930  44.105  -2.613  1.00  0.00    -0.230 N 
HETATM   11 CL1  UNL     1      -8.484  41.261  -3.101  1.00  0.00     0.026 Cl
ATOM     12  H2  UNL     1      -9.886  41.988  -4.911  1.00  0.00     0.199 HD
HETATM   13  C9  UNL     1      -7.487  44.129  -2.549  1.00  0.00     0.165 C 
ATOM     14  H3  UNL     1      -9.485  44.451  -1.831  1.00  0.00     0.177 HD
ATOM     15  H1  UNL     1     -10.961  44.037  -5.304  1.00  0.00     0.184 HD
ENDBRANCH   6   7
BRANCH   1  16
HETATM   16  C3  UNL     1      -8.343  46.147  -6.102  1.00  0.00     0.302 C 
HETATM   17  O2  UNL     1      -7.157  46.136  -5.712  1.00  0.00    -0.259 OA
BRANCH  16  18
HETATM   18  O1  UNL     1      -8.682  45.721  -7.353  1.00  0.00    -0.317 OA
BRANCH  18  19
HETATM   19  C2  UNL     1     -10.005  45.717  -7.859  1.00  0.00     0.174 C 
HETATM   20  C1  UNL     1     -10.497  47.141  -8.104  1.00  0.00     0.034 C 
ENDBRANCH  18  19
ENDBRANCH  16  18
ENDBRANCH   1  16
TORSDOF 4
ENDMDL
MODEL 2
REMARK VINA RESULT: -5.600391131      1.164      2.009
REMARK  4 active torsions:
REMARK  status: ('A' for Active; 'I' for Inactive)
REMARK    1  A    between atoms: C2_2  and  O1_3 
REMARK    2  A    between atoms: O1_3  and  C3_4 
REMARK    3  A    between atoms: C3_4  and  C4_6 
REMARK    4  A    between atoms: C7_11  and  N1_12 
REMARK       I    between atoms: N1_12  and  C8_14 
REMARK       I    between atoms: C8_14  and  N3_18 
ROOT
HETATM    1  C4  UNL     1      -9.176  46.743  -5.326  1.00  0.00     0.110 A 
HETATM    2  S1  UNL     1      -9.413  48.354  -4.835  1.00  0.00    -0.090 SA
HETATM    3  C5  UNL     1     -10.709  48.127  -3.755  1.00  0.00     0.095 A 
HETATM    4  C6  UNL     1     -10.928  46.779  -3.805  1.00  0.00     0.151 A 
HETATM    5  F1  UNL     1     -11.946  46.239  -3.020  1.00  0.00    -0.203 F 
HETATM    6  C7  UNL     1     -10.131  46.055  -4.622  1.00  0.00     0.111 A 
ENDROOT
BRANCH   6   7
HETATM    7  N1  UNL     1     -10.276  44.610  -4.756  1.00  0.00    -0.186 N 
HETATM    8  C8  UNL     1      -9.593  43.724  -3.885  1.00  0.00     0.688 C 
HETATM    9  N2  UNL     1      -9.516  42.468  -4.165  1.00  0.00    -0.131 N 
HETATM   10  N3  UNL     1      -8.984  44.208  -2.697  1.00  0.00    -0.230 N 
HETATM   11 CL1  UNL     1      -8.692  41.336  -3.134  1.00  0.00     0.026 Cl
ATOM     12  H2  UNL     1      -9.953  42.126  -5.020  1.00  0.00     0.199 HD
HETATM   13  C9  UNL     1      -7.548  44.144  -2.559  1.00  0.00     0.165 C 
ATOM     14  H3  UNL     1      -9.556  44.598  -1.947  1.00  0.00     0.177 HD
ATOM     15  H1  UNL     1     -10.877  44.232  -5.487  1.00  0.00     0.184 HD
ENDBRANCH   6   7
BRANCH   1  16
HETATM   16  C3  UNL     1      -8.185  46.185  -6.278  1.00  0.00     0.302 C 
HETATM   17  O2  UNL     1      -8.627  45.638  -7.310  1.00  0.00    -0.259 OA
BRANCH  16  18
HETATM   18  O1  UNL     1      -6.844  46.265  -6.037  1.00  0.00    -0.317 OA
BRANCH  18  19
HETATM   19  C2  UNL     1      -5.872  46.518  -7.036  1.00  0.00     0.174 C 
HETATM   20  C1  UNL     1      -4.565  45.798  -6.718  1.00  0.00     0.034 C 
ENDBRANCH  18  19
ENDBRANCH  16  18
ENDBRANCH   1  16
TORSDOF 4
ENDMDL
MODEL 3
REMARK VINA RESULT: -5.420055146      2.396      3.601
REMARK  4 active torsions:
REMARK  status: ('A' for Active; 'I' for Inactive)
REMARK    1  A    between atoms: C2_2  and  O1_3 
REMARK    2  A    between atoms: O1_3  and  C3_4 
REMARK    3  A    between atoms: C3_4  and  C4_6 
REMARK    4  A    between atoms: C7_11  and  N1_12 
REMARK       I    between atoms: N1_12  and  C8_14 
REMARK       I    between atoms: C8_14  and  N3_18 
ROOT
HETATM    1  C4  UNL     1      -9.533  47.891  -6.017  1.00  0.00     0.110 A 
HETATM    2  S1  UNL     1     -10.717  48.351  -7.148  1.00  0.00    -0.090 SA
HETATM    3  C5  UNL     1     -10.893  46.876  -7.980  1.00  0.00     0.095 A 
HETATM    4  C6  UNL     1     -10.011  46.049  -7.344  1.00  0.00     0.151 A 
HETATM    5  F1  UNL     1      -9.897  44.730  -7.782  1.00  0.00    -0.203 F 
HETATM    6  C7  UNL     1      -9.300  46.575  -6.320  1.00  0.00     0.111 A 
ENDROOT
BRANCH   6   7
HETATM    7  N1  UNL     1      -8.328  45.786  -5.573  1.00  0.00    -0.186 N 
HETATM    8  C8  UNL     1      -8.740  44.914  -4.533  1.00  0.00     0.688 C 
HETATM    9  N2  UNL     1      -7.875  44.424  -3.713  1.00  0.00    -0.131 N 
HETATM   10  N3  UNL     1     -10.110  44.571  -4.381  1.00  0.00    -0.230 N 
HETATM   11 CL1  UNL     1      -8.323  43.351  -2.421  1.00  0.00     0.026 Cl
ATOM     12  H2  UNL     1      -6.893  44.675  -3.826  1.00  0.00     0.199 HD
HETATM   13  C9  UNL     1     -10.819  44.993  -3.195  1.00  0.00     0.165 C 
ATOM     14  H3  UNL     1     -10.590  44.032  -5.103  1.00  0.00     0.177 HD
ATOM     15  H1  UNL     1      -7.338  45.862  -5.801  1.00  0.00     0.184 HD
ENDBRANCH   6   7
BRANCH   1  16
HETATM   16  C3  UNL     1      -8.891  48.694  -4.948  1.00  0.00     0.302 C 
HETATM   17  O2  UNL     1      -7.781  48.305  -4.527  1.00  0.00    -0.259 OA
BRANCH  16  18
HETATM   18  O1  UNL     1      -9.488  49.813  -4.443  1.00  0.00    -0.317 OA
BRANCH  18  19
HETATM   19  C2  UNL     1     -10.509  49.793  -3.461  1.00  0.00     0.174 C 
HETATM   20  C1  UNL     1     -11.175  48.421  -3.397  1.00  0.00     0.034 C 
ENDBRANCH  18  19
ENDBRANCH  16  18
ENDBRANCH   1  16
TORSDOF 4
ENDMDL
MODEL 4
REMARK VINA RESULT: -5.303795640      2.174      2.625
REMARK  4 active torsions:
REMARK  status: ('A' for Active; 'I' for Inactive)
REMARK    1  A    between atoms: C2_2  and  O1_3 
REMARK    2  A    between atoms: O1_3  and  C3_4 
REMARK    3  A    between atoms: C3_4  and  C4_6 
REMARK    4  A    between atoms: C7_11  and  N1_12 
REMARK       I    between atoms: N1_12  and  C8_14 
REMARK       I    between atoms: C8_14  and  N3_18 
ROOT
HETATM    1  C4  UNL     1      -8.882  45.548  -4.815  1.00  0.00     0.110 A 
HETATM    2  S1  UNL     1     -10.558  45.677  -4.555  1.00  0.00    -0.090 SA
HETATM    3  C5  UNL     1     -10.683  44.791  -3.107  1.00  0.00     0.095 A 
HETATM    4  C6  UNL     1      -9.394  44.411  -2.859  1.00  0.00     0.151 A 
HETATM    5  F1  UNL     1      -9.130  43.651  -1.720  1.00  0.00    -0.203 F 
HETATM    6  C7  UNL     1      -8.452  44.804  -3.747  1.00  0.00     0.111 A 
ENDROOT
BRANCH   6   7
HETATM    7  N1  UNL     1      -7.047  44.454  -3.583  1.00  0.00    -0.186 N 
HETATM    8  C8  UNL     1      -6.629  43.099  -3.568  1.00  0.00     0.688 C 
HETATM    9  N2  UNL     1      -5.443  42.789  -3.168  1.00  0.00    -0.131 N 
HETATM   10  N3  UNL     1      -7.510  42.068  -3.990  1.00  0.00    -0.230 N 
HETATM   11 CL1  UNL     1      -4.877  41.146  -3.127  1.00  0.00     0.026 Cl
ATOM     12  H2  UNL     1      -4.815  43.533  -2.864  1.00  0.00     0.199 HD
HETATM   13  C9  UNL     1      -7.961  41.086  -3.032  1.00  0.00     0.165 C 
ATOM     14  H3  UNL     1      -7.821  42.022  -4.960  1.00  0.00     0.177 HD
ATOM     15  H1  UNL     1      -6.354  45.194  -3.479  1.00  0.00     0.184 HD
ENDBRANCH   6   7
BRANCH   1  16
HETATM   16  C3  UNL     1      -8.055  46.098  -5.917  1.00  0.00     0.302 C 
HETATM   17  O2  UNL     1      -6.903  46.485  -5.631  1.00  0.00    -0.259 OA
BRANCH  16  18
HETATM   18  O1  UNL     1      -8.533  46.180  -7.193  1.00  0.00    -0.317 OA
BRANCH  18  19
HETATM   19  C2  UNL     1      -9.877  45.916  -7.555  1.00  0.00     0.174 C 
HETATM   20  C1  UNL     1     -10.603  47.206  -7.930  1.00  0.00     0.034 C 
ENDBRANCH  18  19
ENDBRANCH  16  18
ENDBRANCH   1  16
TORSDOF 4
ENDMDL
MODEL 5
REMARK VINA RESULT: -5.257369043      7.356      8.571
REMARK  4 active torsions:
REMARK  status: ('A' for Active; 'I' for Inactive)
REMARK    1  A    between atoms: C2_2  and  O1_3 
REMARK    2  A    between atoms: O1_3  and  C3_4 
REMARK    3  A    between atoms: C3_4  and  C4_6 
REMARK    4  A    between atoms: C7_11  and  N1_12 
REMARK       I    between atoms: N1_12  and  C8_14 
REMARK       I    between atoms: C8_14  and  N3_18 
ROOT
HETATM    1  C4  UNL     1      -1.604  44.900  -3.833  1.00  0.00     0.110 A 
HETATM    2  S1  UNL     1      -0.452  45.893  -3.073  1.00  0.00    -0.090 SA
HETATM    3  C5  UNL     1      -0.558  47.262  -4.079  1.00  0.00     0.095 A 
HETATM    4  C6  UNL     1      -1.505  46.904  -4.998  1.00  0.00     0.151 A 
HETATM    5  F1  UNL     1      -1.846  47.817  -5.995  1.00  0.00    -0.203 F 
HETATM    6  C7  UNL     1      -2.053  45.674  -4.872  1.00  0.00     0.111 A 
ENDROOT
BRANCH   6   7
HETATM    7  N1  UNL     1      -3.069  45.186  -5.796  1.00  0.00    -0.186 N 
HETATM    8  C8  UNL     1      -2.709  44.609  -7.040  1.00  0.00     0.688 C 
HETATM    9  N2  UNL     1      -3.601  44.421  -7.953  1.00  0.00    -0.131 N 
HETATM   10  N3  UNL     1      -1.364  44.232  -7.297  1.00  0.00    -0.230 N 
HETATM   11 CL1  UNL     1      -3.216  43.718  -9.495  1.00  0.00     0.026 Cl
ATOM     12  H2  UNL     1      -4.564  44.695  -7.764  1.00  0.00     0.199 HD
HETATM   13  C9  UNL     1      -0.621  44.916  -8.330  1.00  0.00     0.165 C 
ATOM     14  H3  UNL     1      -0.926  43.486  -6.757  1.00  0.00     0.177 HD
ATOM     15  H1  UNL     1      -4.054  45.261  -5.544  1.00  0.00     0.184 HD
ENDBRANCH   6   7
BRANCH   1  16
HETATM   16  C3  UNL     1      -2.043  43.527  -3.480  1.00  0.00     0.302 C 
HETATM   17  O2  UNL     1      -1.155  42.699  -3.188  1.00  0.00    -0.259 OA
BRANCH  16  18
HETATM   18  O1  UNL     1      -3.364  43.182  -3.476  1.00  0.00    -0.317 OA
BRANCH  18  19
HETATM   19  C2  UNL     1      -3.886  42.036  -4.123  1.00  0.00     0.174 C 
HETATM   20  C1  UNL     1      -5.313  41.754  -3.663  1.00  0.00     0.034 C 
ENDBRANCH  18  19
ENDBRANCH  16  18
ENDBRANCH   1  16
TORSDOF 4
ENDMDL
