MODEL 1
REMARK VINA RESULT: -6.343173677      0.000      0.000
REMARK  8 active torsions:
REMARK  status: ('A' for Active; 'I' for Inactive)
REMARK    1  A    between atoms: C2_2  and  O1_4 
REMARK    2  A    between atoms: O1_4  and  C4_5 
REMARK    3  A    between atoms: C6_7  and  N1_8 
REMARK    4  A    between atoms: C6_7  and  C7_14 
REMARK    5  A    between atoms: N1_8  and  N2_10 
REMARK    6  A    between atoms: N2_10  and  N3_11 
REMARK    7  A    between atoms: C7_14  and  O2_15 
REMARK    8  A    between atoms: N4_17  and  O3_19 
ROOT
HETATM    1  C4  UNL     1      -8.093  44.552  -3.614  1.00  0.00     0.117 C 
HETATM    2  C5  UNL     1      -8.093  45.445  -4.580  1.00  0.00     0.053 C 
HETATM    3  C6  UNL     1      -9.354  45.940  -5.162  1.00  0.00     0.146 C 
HETATM    4  C8  UNL     1     -10.555  45.090  -4.946  1.00  0.00     0.053 C 
HETATM    5  C9  UNL     1     -10.198  43.743  -4.379  1.00  0.00     0.090 C 
HETATM    6  C10 UNL     1      -9.386  44.033  -3.104  1.00  0.00     0.291 C 
HETATM    7  F1  UNL     1      -9.213  42.880  -2.366  1.00  0.00    -0.199 F 
HETATM    8  F2  UNL     1     -10.086  44.919  -2.349  1.00  0.00    -0.199 F 
ENDROOT
BRANCH   3   9
HETATM    9  N1  UNL     1      -9.187  46.158  -6.607  1.00  0.00    -0.231 N 
ATOM     10  H1  UNL     1      -8.468  45.671  -7.143  1.00  0.00     0.198 HD
BRANCH   9  11
HETATM   11  N2  UNL     1      -9.966  46.965  -7.144  1.00  0.00    -0.247 NA
BRANCH  11  12
HETATM   12  N3  UNL     1     -10.548  47.656  -7.971  1.00  0.00    -0.261 N 
ATOM     13  H32 UNL     1     -11.403  47.101  -7.962  1.00  0.00     0.193 HD
ATOM     14  H31 UNL     1     -10.769  48.386  -8.649  1.00  0.00     0.193 HD
ENDBRANCH  11  12
ENDBRANCH   9  11
ENDBRANCH   3   9
BRANCH   3  15
HETATM   15  C7  UNL     1      -9.558  47.330  -4.611  1.00  0.00     0.171 C 
HETATM   16  N4  UNL     1     -10.608  47.698  -3.993  1.00  0.00    -0.249 N 
ATOM     17  H4  UNL     1     -11.349  47.008  -3.869  1.00  0.00     0.196 HD
BRANCH  15  18
HETATM   18  O2  UNL     1      -8.527  48.229  -4.806  1.00  0.00    -0.346 OA
ATOM     19  H2  UNL     1      -8.217  48.332  -5.698  1.00  0.00     0.219 HD
ENDBRANCH  15  18
BRANCH  16  20
HETATM   20  O3  UNL     1     -10.817  48.943  -3.488  1.00  0.00    -0.288 OA
ATOM     21  H3  UNL     1     -10.437  49.272  -2.682  1.00  0.00     0.244 HD
ENDBRANCH  16  20
ENDBRANCH   3  15
BRANCH   1  22
HETATM   22  O1  UNL     1      -6.895  44.102  -3.080  1.00  0.00    -0.345 OA
BRANCH  22  23
HETATM   23  C2  UNL     1      -6.033  43.201  -3.717  1.00  0.00     0.120 C 
HETATM   24  C1  UNL     1      -6.542  41.782  -3.690  1.00  0.00     0.040 C 
HETATM   25  C3  UNL     1      -4.714  43.225  -2.966  1.00  0.00     0.040 C 
ENDBRANCH  22  23
ENDBRANCH   1  22
TORSDOF 8
ENDMDL
MODEL 2
REMARK VINA RESULT: -6.124864830      3.114      5.291
REMARK  8 active torsions:
REMARK  status: ('A' for Active; 'I' for Inactive)
REMARK    1  A    between atoms: C2_2  and  O1_4 
REMARK    2  A    between atoms: O1_4  and  C4_5 
REMARK    3  A    between atoms: C6_7  and  N1_8 
REMARK    4  A    between atoms: C6_7  and  C7_14 
REMARK    5  A    between atoms: N1_8  and  N2_10 
REMARK    6  A    between atoms: N2_10  and  N3_11 
REMARK    7  A    between atoms: C7_14  and  O2_15 
REMARK    8  A    between atoms: N4_17  and  O3_19 
ROOT
HETATM    1  C4  UNL     1      -9.493  47.399  -5.065  1.00  0.00     0.117 C 
HETATM    2  C5  UNL     1      -9.866  46.646  -4.053  1.00  0.00     0.053 C 
HETATM    3  C6  UNL     1     -10.135  45.207  -4.230  1.00  0.00     0.146 C 
HETATM    4  C8  UNL     1     -10.407  44.757  -5.622  1.00  0.00     0.053 C 
HETATM    5  C9  UNL     1     -10.602  45.915  -6.561  1.00  0.00     0.090 C 
HETATM    6  C10 UNL     1      -9.344  46.789  -6.409  1.00  0.00     0.291 C 
HETATM    7  F1  UNL     1      -9.296  47.749  -7.398  1.00  0.00    -0.199 F 
HETATM    8  F2  UNL     1      -8.254  45.988  -6.542  1.00  0.00    -0.199 F 
ENDROOT
BRANCH   3   9
HETATM    9  N1  UNL     1     -11.263  44.799  -3.377  1.00  0.00    -0.231 N 
ATOM     10  H1  UNL     1     -11.122  44.497  -2.414  1.00  0.00     0.198 HD
BRANCH   9  11
HETATM   11  N2  UNL     1     -12.394  44.842  -3.890  1.00  0.00    -0.247 NA
BRANCH  11  12
HETATM   12  N3  UNL     1     -13.601  44.732  -4.073  1.00  0.00    -0.261 N 
ATOM     13  H32 UNL     1     -13.518  44.519  -5.067  1.00  0.00     0.193 HD
ATOM     14  H31 UNL     1     -14.610  44.706  -3.928  1.00  0.00     0.193 HD
ENDBRANCH  11  12
ENDBRANCH   9  11
ENDBRANCH   3   9
BRANCH   3  15
HETATM   15  C7  UNL     1      -8.955  44.479  -3.637  1.00  0.00     0.171 C 
HETATM   16  N4  UNL     1      -9.041  43.680  -2.650  1.00  0.00    -0.249 N 
ATOM     17  H4  UNL     1      -9.964  43.529  -2.243  1.00  0.00     0.196 HD
BRANCH  15  18
HETATM   18  O2  UNL     1      -7.726  44.716  -4.221  1.00  0.00    -0.346 OA
ATOM     19  H2  UNL     1      -7.072  44.033  -4.128  1.00  0.00     0.219 HD
ENDBRANCH  15  18
BRANCH  16  20
HETATM   20  O3  UNL     1      -7.994  43.012  -2.097  1.00  0.00    -0.288 OA
ATOM     21  H3  UNL     1      -7.809  42.967  -1.166  1.00  0.00     0.244 HD
ENDBRANCH  16  20
ENDBRANCH   3  15
BRANCH   1  22
HETATM   22  O1  UNL     1      -9.243  48.749  -4.874  1.00  0.00    -0.345 OA
BRANCH  22  23
HETATM   23  C2  UNL     1     -10.184  49.670  -4.396  1.00  0.00     0.120 C 
HETATM   24  C1  UNL     1      -9.555  50.818  -3.650  1.00  0.00     0.040 C 
HETATM   25  C3  UNL     1     -11.086  48.934  -3.422  1.00  0.00     0.040 C 
ENDBRANCH  22  23
ENDBRANCH   1  22
TORSDOF 8
ENDMDL
MODEL 3
REMARK VINA RESULT: -6.048955253      3.470      5.555
REMARK  8 active torsions:
REMARK  status: ('A' for Active; 'I' for Inactive)
REMARK    1  A    between atoms: C2_2  and  O1_4 
REMARK    2  A    between atoms: O1_4  and  C4_5 
REMARK    3  A    between atoms: C6_7  and  N1_8 
REMARK    4  A    between atoms: C6_7  and  C7_14 
REMARK    5  A    between atoms: N1_8  and  N2_10 
REMARK    6  A    between atoms: N2_10  and  N3_11 
REMARK    7  A    between atoms: C7_14  and  O2_15 
REMARK    8  A    between atoms: N4_17  and  O3_19 
ROOT
HETATM    1  C4  UNL     1     -10.522  47.987  -5.914  1.00  0.00     0.117 C 
HETATM    2  C5  UNL     1     -10.179  46.969  -5.155  1.00  0.00     0.053 C 
HETATM    3  C6  UNL     1      -9.714  45.700  -5.744  1.00  0.00     0.146 C 
HETATM    4  C8  UNL     1     -10.072  45.467  -7.169  1.00  0.00     0.053 C 
HETATM    5  C9  UNL     1     -11.068  46.476  -7.672  1.00  0.00     0.090 C 
HETATM    6  C10 UNL     1     -10.442  47.853  -7.390  1.00  0.00     0.291 C 
HETATM    7  F1  UNL     1     -11.151  48.850  -8.028  1.00  0.00    -0.199 F 
HETATM    8  F2  UNL     1      -9.176  47.852  -7.883  1.00  0.00    -0.199 F 
ENDROOT
BRANCH   3   9
HETATM    9  N1  UNL     1     -10.207  44.567  -4.946  1.00  0.00    -0.231 N 
ATOM     10  H1  UNL     1     -10.393  43.657  -5.367  1.00  0.00     0.198 HD
BRANCH   9  11
HETATM   11  N2  UNL     1     -10.385  44.773  -3.733  1.00  0.00    -0.247 NA
BRANCH  11  12
HETATM   12  N3  UNL     1     -10.416  44.640  -2.516  1.00  0.00    -0.261 N 
ATOM     13  H32 UNL     1     -11.431  44.565  -2.462  1.00  0.00     0.193 HD
ATOM     14  H31 UNL     1     -10.139  44.553  -1.537  1.00  0.00     0.193 HD
ENDBRANCH  11  12
ENDBRANCH   9  11
ENDBRANCH   3   9
BRANCH   3  15
HETATM   15  C7  UNL     1      -8.220  45.660  -5.539  1.00  0.00     0.171 C 
HETATM   16  N4  UNL     1      -7.387  46.263  -6.290  1.00  0.00    -0.249 N 
ATOM     17  H4  UNL     1      -7.760  46.801  -7.072  1.00  0.00     0.196 HD
BRANCH  15  18
HETATM   18  O2  UNL     1      -7.763  44.918  -4.467  1.00  0.00    -0.346 OA
ATOM     19  H2  UNL     1      -8.153  45.108  -3.622  1.00  0.00     0.219 HD
ENDBRANCH  15  18
BRANCH  16  20
HETATM   20  O3  UNL     1      -6.038  46.243  -6.127  1.00  0.00    -0.288 OA
ATOM     21  H3  UNL     1      -5.540  46.886  -5.635  1.00  0.00     0.244 HD
ENDBRANCH  16  20
ENDBRANCH   3  15
BRANCH   1  22
HETATM   22  O1  UNL     1     -10.955  49.172  -5.339  1.00  0.00    -0.345 OA
BRANCH  22  23
HETATM   23  C2  UNL     1     -10.280  49.848  -4.315  1.00  0.00     0.120 C 
HETATM   24  C1  UNL     1      -8.825  49.466  -4.218  1.00  0.00     0.040 C 
HETATM   25  C3  UNL     1     -10.941  49.465  -3.003  1.00  0.00     0.040 C 
ENDBRANCH  22  23
ENDBRANCH   1  22
TORSDOF 8
ENDMDL
MODEL 4
REMARK VINA RESULT: -5.890756310      3.510      5.453
REMARK  8 active torsions:
REMARK  status: ('A' for Active; 'I' for Inactive)
REMARK    1  A    between atoms: C2_2  and  O1_4 
REMARK    2  A    between atoms: O1_4  and  C4_5 
REMARK    3  A    between atoms: C6_7  and  N1_8 
REMARK    4  A    between atoms: C6_7  and  C7_14 
REMARK    5  A    between atoms: N1_8  and  N2_10 
REMARK    6  A    between atoms: N2_10  and  N3_11 
REMARK    7  A    between atoms: C7_14  and  O2_15 
REMARK    8  A    between atoms: N4_17  and  O3_19 
ROOT
HETATM    1  C4  UNL     1      -9.100  44.944  -4.984  1.00  0.00     0.117 C 
HETATM    2  C5  UNL     1      -8.075  44.487  -4.299  1.00  0.00     0.053 C 
HETATM    3  C6  UNL     1      -8.262  43.831  -2.991  1.00  0.00     0.146 C 
HETATM    4  C8  UNL     1      -9.547  44.107  -2.296  1.00  0.00     0.053 C 
HETATM    5  C9  UNL     1     -10.318  45.218  -2.956  1.00  0.00     0.090 C 
HETATM    6  C10 UNL     1     -10.468  44.799  -4.430  1.00  0.00     0.291 C 
HETATM    7  F1  UNL     1     -11.367  45.619  -5.079  1.00  0.00    -0.199 F 
HETATM    8  F2  UNL     1     -10.953  43.530  -4.461  1.00  0.00    -0.199 F 
ENDROOT
BRANCH   3   9
HETATM    9  N1  UNL     1      -7.155  44.186  -2.089  1.00  0.00    -0.231 N 
ATOM     10  H1  UNL     1      -7.303  44.767  -1.264  1.00  0.00     0.198 HD
BRANCH   9  11
HETATM   11  N2  UNL     1      -6.032  43.742  -2.382  1.00  0.00    -0.247 NA
BRANCH  11  12
HETATM   12  N3  UNL     1      -4.994  43.091  -2.381  1.00  0.00    -0.261 N 
ATOM     13  H32 UNL     1      -5.051  42.835  -3.367  1.00  0.00     0.193 HD
ATOM     14  H31 UNL     1      -4.129  42.636  -2.088  1.00  0.00     0.193 HD
ENDBRANCH  11  12
ENDBRANCH   9  11
ENDBRANCH   3   9
BRANCH   3  15
HETATM   15  C7  UNL     1      -8.072  42.353  -3.228  1.00  0.00     0.171 C 
HETATM   16  N4  UNL     1      -8.730  41.449  -2.619  1.00  0.00    -0.249 N 
ATOM     17  H4  UNL     1      -9.423  41.751  -1.934  1.00  0.00     0.196 HD
BRANCH  15  18
HETATM   18  O2  UNL     1      -7.121  41.994  -4.163  1.00  0.00    -0.346 OA
ATOM     19  H2  UNL     1      -6.212  42.130  -3.919  1.00  0.00     0.219 HD
ENDBRANCH  15  18
BRANCH  16  20
HETATM   20  O3  UNL     1      -8.578  40.112  -2.813  1.00  0.00    -0.288 OA
ATOM     21  H3  UNL     1      -7.934  39.717  -3.389  1.00  0.00     0.244 HD
ENDBRANCH  16  20
ENDBRANCH   3  15
BRANCH   1  22
HETATM   22  O1  UNL     1      -8.900  45.555  -6.212  1.00  0.00    -0.345 OA
BRANCH  22  23
HETATM   23  C2  UNL     1      -8.756  46.936  -6.396  1.00  0.00     0.120 C 
HETATM   24  C1  UNL     1      -8.719  47.701  -5.098  1.00  0.00     0.040 C 
HETATM   25  C3  UNL     1      -9.965  47.420  -7.175  1.00  0.00     0.040 C 
ENDBRANCH  22  23
ENDBRANCH   1  22
TORSDOF 8
ENDMDL
MODEL 5
REMARK VINA RESULT: -5.695461517      6.048      7.376
REMARK  8 active torsions:
REMARK  status: ('A' for Active; 'I' for Inactive)
REMARK    1  A    between atoms: C2_2  and  O1_4 
REMARK    2  A    between atoms: O1_4  and  C4_5 
REMARK    3  A    between atoms: C6_7  and  N1_8 
REMARK    4  A    between atoms: C6_7  and  C7_14 
REMARK    5  A    between atoms: N1_8  and  N2_10 
REMARK    6  A    between atoms: N2_10  and  N3_11 
REMARK    7  A    between atoms: C7_14  and  O2_15 
REMARK    8  A    between atoms: N4_17  and  O3_19 
ROOT
HETATM    1  C4  UNL     1      -2.032  43.665  -3.470  1.00  0.00     0.117 C 
HETATM    2  C5  UNL     1      -3.328  43.638  -3.248  1.00  0.00     0.053 C 
HETATM    3  C6  UNL     1      -4.273  43.206  -4.295  1.00  0.00     0.146 C 
HETATM    4  C8  UNL     1      -3.766  43.243  -5.693  1.00  0.00     0.053 C 
HETATM    5  C9  UNL     1      -2.449  43.962  -5.796  1.00  0.00     0.090 C 
HETATM    6  C10 UNL     1      -1.513  43.256  -4.798  1.00  0.00     0.291 C 
HETATM    7  F1  UNL     1      -0.209  43.668  -4.980  1.00  0.00    -0.199 F 
HETATM    8  F2  UNL     1      -1.572  41.920  -5.035  1.00  0.00    -0.199 F 
ENDROOT
BRANCH   3   9
HETATM    9  N1  UNL     1      -5.504  44.008  -4.221  1.00  0.00    -0.231 N 
ATOM     10  H1  UNL     1      -5.593  44.898  -4.711  1.00  0.00     0.198 HD
BRANCH   9  11
HETATM   11  N2  UNL     1      -6.430  43.546  -3.532  1.00  0.00    -0.247 NA
BRANCH  11  12
HETATM   12  N3  UNL     1      -7.387  43.447  -2.773  1.00  0.00    -0.261 N 
ATOM     13  H32 UNL     1      -8.026  43.971  -3.371  1.00  0.00     0.193 HD
ATOM     14  H31 UNL     1      -7.978  43.210  -1.976  1.00  0.00     0.193 HD
ENDBRANCH  11  12
ENDBRANCH   9  11
ENDBRANCH   3   9
BRANCH   3  15
HETATM   15  C7  UNL     1      -4.725  41.818  -3.911  1.00  0.00     0.171 C 
HETATM   16  N4  UNL     1      -4.495  41.289  -2.776  1.00  0.00    -0.249 N 
ATOM     17  H4  UNL     1      -3.976  41.841  -2.093  1.00  0.00     0.196 HD
BRANCH  15  18
HETATM   18  O2  UNL     1      -5.423  41.109  -4.869  1.00  0.00    -0.346 OA
ATOM     19  H2  UNL     1      -5.774  41.610  -5.596  1.00  0.00     0.219 HD
ENDBRANCH  15  18
BRANCH  16  20
HETATM   20  O3  UNL     1      -4.891  40.042  -2.406  1.00  0.00    -0.288 OA
ATOM     21  H3  UNL     1      -4.462  39.510  -1.745  1.00  0.00     0.244 HD
ENDBRANCH  16  20
ENDBRANCH   3  15
BRANCH   1  22
HETATM   22  O1  UNL     1      -1.162  44.073  -2.471  1.00  0.00    -0.345 OA
BRANCH  22  23
HETATM   23  C2  UNL     1      -1.020  45.397  -2.036  1.00  0.00     0.120 C 
HETATM   24  C1  UNL     1      -0.631  46.341  -3.145  1.00  0.00     0.040 C 
HETATM   25  C3  UNL     1       0.096  45.420  -1.006  1.00  0.00     0.040 C 
ENDBRANCH  22  23
ENDBRANCH   1  22
TORSDOF 8
ENDMDL
