MODEL 1
REMARK VINA RESULT: -6.711995255      0.000      0.000
REMARK  5 active torsions:
REMARK  status: ('A' for Active; 'I' for Inactive)
REMARK    1  A    between atoms: C4_5  and  O1_6 
REMARK    2  A    between atoms: N2_8  and  C5_9 
REMARK    3  A    between atoms: C5_9  and  C6_10 
REMARK    4  A    between atoms: C6_10  and  C7_11 
REMARK    5  A    between atoms: C8_13  and  O2_14 
ROOT
HETATM    1  C1  UNL     1     -11.601  45.630  -3.215  1.00  0.00     0.150 C 
HETATM    2  N1  UNL     1     -10.395  45.740  -4.009  1.00  0.00    -0.374 N 
HETATM    3  C2  UNL     1      -9.133  45.091  -3.866  1.00  0.00     0.094 A 
HETATM    4  C3  UNL     1      -8.194  45.592  -4.723  1.00  0.00     0.049 A 
HETATM    5  C4  UNL     1      -7.028  44.883  -4.485  1.00  0.00     0.155 A 
HETATM    6  N2  UNL     1      -7.252  43.988  -3.521  1.00  0.00    -0.306 N 
HETATM    7  C8  UNL     1      -8.528  44.098  -3.130  1.00  0.00     0.172 A 
HETATM    8  C9  UNL     1      -8.830  46.654  -5.515  1.00  0.00     0.091 C 
HETATM    9 CL1  UNL     1      -8.440  46.491  -7.233  1.00  0.00    -0.111 Cl
HETATM   10  C10 UNL     1      -8.754  48.043  -4.962  1.00  0.00     0.035 C 
HETATM   11  C11 UNL     1     -10.263  48.067  -4.775  1.00  0.00     0.030 C 
HETATM   12  C12 UNL     1     -10.279  46.601  -5.170  1.00  0.00     0.112 C 
ENDROOT
BRANCH   6  13
HETATM   13  C5  UNL     1      -6.309  43.066  -2.977  1.00  0.00     0.135 C 
BRANCH  13  14
HETATM   14  C6  UNL     1      -6.086  41.819  -3.760  1.00  0.00     0.052 C 
BRANCH  14  15
HETATM   15  C7  UNL     1      -4.631  41.447  -3.927  1.00  0.00     0.224 C 
HETATM   16  F1  UNL     1      -4.360  40.469  -2.962  1.00  0.00    -0.255 F 
ENDBRANCH  14  15
ENDBRANCH  13  14
ENDBRANCH   6  13
BRANCH   5  17
HETATM   17  O1  UNL     1      -5.830  45.080  -5.145  1.00  0.00    -0.345 OA
ATOM     18  H1  UNL     1      -5.619  44.742  -6.007  1.00  0.00     0.219 HD
ENDBRANCH   5  17
BRANCH   7  19
HETATM   19  O2  UNL     1      -9.178  43.344  -2.136  1.00  0.00    -0.344 OA
ATOM     20  H2  UNL     1      -9.196  42.395  -2.113  1.00  0.00     0.219 HD
ENDBRANCH   7  19
TORSDOF 5
ENDMDL
MODEL 2
REMARK VINA RESULT: -6.383054516      1.915      3.068
REMARK  5 active torsions:
REMARK  status: ('A' for Active; 'I' for Inactive)
REMARK    1  A    between atoms: C4_5  and  O1_6 
REMARK    2  A    between atoms: N2_8  and  C5_9 
REMARK    3  A    between atoms: C5_9  and  C6_10 
REMARK    4  A    between atoms: C6_10  and  C7_11 
REMARK    5  A    between atoms: C8_13  and  O2_14 
ROOT
HETATM    1  C1  UNL     1      -6.770  46.731  -6.718  1.00  0.00     0.150 C 
HETATM    2  N1  UNL     1      -7.907  46.574  -5.833  1.00  0.00    -0.374 N 
HETATM    3  C2  UNL     1      -8.165  45.596  -4.828  1.00  0.00     0.094 A 
HETATM    4  C3  UNL     1      -9.431  45.694  -4.324  1.00  0.00     0.049 A 
HETATM    5  C4  UNL     1      -9.553  44.700  -3.368  1.00  0.00     0.155 A 
HETATM    6  N2  UNL     1      -8.404  44.025  -3.295  1.00  0.00    -0.306 N 
HETATM    7  C8  UNL     1      -7.545  44.554  -4.176  1.00  0.00     0.172 A 
HETATM    8  C9  UNL     1     -10.103  46.806  -5.014  1.00  0.00     0.091 C 
HETATM    9 CL1  UNL     1     -10.953  47.850  -3.866  1.00  0.00    -0.111 Cl
HETATM   10  C10 UNL     1     -10.857  46.466  -6.261  1.00  0.00     0.035 C 
HETATM   11  C11 UNL     1      -9.886  47.292  -7.090  1.00  0.00     0.030 C 
HETATM   12  C12 UNL     1      -9.050  47.465  -5.835  1.00  0.00     0.112 C 
ENDROOT
BRANCH   6  13
HETATM   13  C5  UNL     1      -8.117  42.920  -2.440  1.00  0.00     0.135 C 
BRANCH  13  14
HETATM   14  C6  UNL     1      -8.543  41.581  -2.935  1.00  0.00     0.052 C 
BRANCH  14  15
HETATM   15  C7  UNL     1      -7.519  40.887  -3.802  1.00  0.00     0.224 C 
HETATM   16  F1  UNL     1      -6.264  41.303  -3.340  1.00  0.00    -0.255 F 
ENDBRANCH  14  15
ENDBRANCH  13  14
ENDBRANCH   6  13
BRANCH   5  17
HETATM   17  O1  UNL     1     -10.686  44.455  -2.616  1.00  0.00    -0.345 OA
ATOM     18  H1  UNL     1     -10.701  44.001  -1.782  1.00  0.00     0.219 HD
ENDBRANCH   5  17
BRANCH   7  19
HETATM   19  O2  UNL     1      -6.223  44.142  -4.424  1.00  0.00    -0.344 OA
ATOM     20  H2  UNL     1      -5.983  43.274  -4.726  1.00  0.00     0.219 HD
ENDBRANCH   7  19
TORSDOF 5
ENDMDL
MODEL 3
REMARK VINA RESULT: -6.168791225      0.925      1.071
REMARK  5 active torsions:
REMARK  status: ('A' for Active; 'I' for Inactive)
REMARK    1  A    between atoms: C4_5  and  O1_6 
REMARK    2  A    between atoms: N2_8  and  C5_9 
REMARK    3  A    between atoms: C5_9  and  C6_10 
REMARK    4  A    between atoms: C6_10  and  C7_11 
REMARK    5  A    between atoms: C8_13  and  O2_14 
ROOT
HETATM    1  C1  UNL     1     -11.568  45.608  -3.271  1.00  0.00     0.150 C 
HETATM    2  N1  UNL     1     -10.346  45.688  -4.044  1.00  0.00    -0.374 N 
HETATM    3  C2  UNL     1      -9.099  45.019  -3.870  1.00  0.00     0.094 A 
HETATM    4  C3  UNL     1      -8.136  45.492  -4.715  1.00  0.00     0.049 A 
HETATM    5  C4  UNL     1      -6.987  44.767  -4.448  1.00  0.00     0.155 A 
HETATM    6  N2  UNL     1      -7.244  43.887  -3.478  1.00  0.00    -0.306 N 
HETATM    7  C8  UNL     1      -8.524  44.024  -3.111  1.00  0.00     0.172 A 
HETATM    8  C9  UNL     1      -8.739  46.556  -5.531  1.00  0.00     0.091 C 
HETATM    9 CL1  UNL     1      -8.321  46.366  -7.240  1.00  0.00    -0.111 Cl
HETATM   10  C10 UNL     1      -8.649  47.950  -4.994  1.00  0.00     0.035 C 
HETATM   11  C11 UNL     1     -10.160  48.002  -4.835  1.00  0.00     0.030 C 
HETATM   12  C12 UNL     1     -10.194  46.532  -5.213  1.00  0.00     0.112 C 
ENDROOT
BRANCH   6  13
HETATM   13  C5  UNL     1      -6.327  42.956  -2.906  1.00  0.00     0.135 C 
BRANCH  13  14
HETATM   14  C6  UNL     1      -6.101  41.702  -3.677  1.00  0.00     0.052 C 
BRANCH  14  15
HETATM   15  C7  UNL     1      -7.355  40.902  -3.939  1.00  0.00     0.224 C 
HETATM   16  F1  UNL     1      -7.908  40.611  -2.686  1.00  0.00    -0.255 F 
ENDBRANCH  14  15
ENDBRANCH  13  14
ENDBRANCH   6  13
BRANCH   5  17
HETATM   17  O1  UNL     1      -5.774  44.935  -5.089  1.00  0.00    -0.345 OA
ATOM     18  H1  UNL     1      -5.363  44.296  -5.659  1.00  0.00     0.219 HD
ENDBRANCH   5  17
BRANCH   7  19
HETATM   19  O2  UNL     1      -9.206  43.293  -2.121  1.00  0.00    -0.344 OA
ATOM     20  H2  UNL     1      -8.790  42.919  -1.354  1.00  0.00     0.219 HD
ENDBRANCH   7  19
TORSDOF 5
ENDMDL
MODEL 4
REMARK VINA RESULT: -5.759593619      6.227      7.622
REMARK  5 active torsions:
REMARK  status: ('A' for Active; 'I' for Inactive)
REMARK    1  A    between atoms: C4_5  and  O1_6 
REMARK    2  A    between atoms: N2_8  and  C5_9 
REMARK    3  A    between atoms: C5_9  and  C6_10 
REMARK    4  A    between atoms: C6_10  and  C7_11 
REMARK    5  A    between atoms: C8_13  and  O2_14 
ROOT
HETATM    1  C1  UNL     1      -2.307  47.739  -6.615  1.00  0.00     0.150 C 
HETATM    2  N1  UNL     1      -2.496  46.493  -5.900  1.00  0.00    -0.374 N 
HETATM    3  C2  UNL     1      -1.757  45.929  -4.818  1.00  0.00     0.094 A 
HETATM    4  C3  UNL     1      -2.151  44.652  -4.534  1.00  0.00     0.049 A 
HETATM    5  C4  UNL     1      -1.366  44.225  -3.476  1.00  0.00     0.155 A 
HETATM    6  N2  UNL     1      -0.528  45.205  -3.134  1.00  0.00    -0.306 N 
HETATM    7  C8  UNL     1      -0.749  46.252  -3.939  1.00  0.00     0.172 A 
HETATM    8  C9  UNL     1      -3.229  44.296  -5.468  1.00  0.00     0.091 C 
HETATM    9 CL1  UNL     1      -4.579  43.526  -4.623  1.00  0.00    -0.111 Cl
HETATM   10  C10 UNL     1      -2.819  43.652  -6.755  1.00  0.00     0.035 C 
HETATM   11  C11 UNL     1      -3.317  44.859  -7.535  1.00  0.00     0.030 C 
HETATM   12  C12 UNL     1      -3.554  45.550  -6.204  1.00  0.00     0.112 C 
ENDROOT
BRANCH   6  13
HETATM   13  C5  UNL     1       0.452  45.167  -2.097  1.00  0.00     0.135 C 
BRANCH  13  14
HETATM   14  C6  UNL     1       0.059  45.788  -0.802  1.00  0.00     0.052 C 
BRANCH  14  15
HETATM   15  C7  UNL     1       0.616  47.176  -0.587  1.00  0.00     0.224 C 
HETATM   16  F1  UNL     1      -0.215  47.793   0.356  1.00  0.00    -0.255 F 
ENDBRANCH  14  15
ENDBRANCH  13  14
ENDBRANCH   6  13
BRANCH   5  17
HETATM   17  O1  UNL     1      -1.445  42.981  -2.879  1.00  0.00    -0.345 OA
ATOM     18  H1  UNL     1      -2.072  42.735  -2.210  1.00  0.00     0.219 HD
ENDBRANCH   5  17
BRANCH   7  19
HETATM   19  O2  UNL     1      -0.084  47.491  -3.921  1.00  0.00    -0.344 OA
ATOM     20  H2  UNL     1       0.719  47.672  -4.394  1.00  0.00     0.219 HD
ENDBRANCH   7  19
TORSDOF 5
ENDMDL
MODEL 5
REMARK VINA RESULT: -5.185219287      5.309      7.023
REMARK  5 active torsions:
REMARK  status: ('A' for Active; 'I' for Inactive)
REMARK    1  A    between atoms: C4_5  and  O1_6 
REMARK    2  A    between atoms: N2_8  and  C5_9 
REMARK    3  A    between atoms: C5_9  and  C6_10 
REMARK    4  A    between atoms: C6_10  and  C7_11 
REMARK    5  A    between atoms: C8_13  and  O2_14 
ROOT
HETATM    1  C1  UNL     1       0.214  46.738  -2.202  1.00  0.00     0.150 C 
HETATM    2  N1  UNL     1      -0.610  46.520  -3.374  1.00  0.00    -0.374 N 
HETATM    3  C2  UNL     1      -1.458  45.425  -3.714  1.00  0.00     0.094 A 
HETATM    4  C3  UNL     1      -1.937  45.520  -4.990  1.00  0.00     0.049 A 
HETATM    5  C4  UNL     1      -2.738  44.408  -5.193  1.00  0.00     0.155 A 
HETATM    6  N2  UNL     1      -2.744  43.669  -4.082  1.00  0.00    -0.306 N 
HETATM    7  C8  UNL     1      -1.970  44.269  -3.169  1.00  0.00     0.172 A 
HETATM    8  C9  UNL     1      -1.395  46.752  -5.582  1.00  0.00     0.091 C 
HETATM    9 CL1  UNL     1      -2.658  47.668  -6.417  1.00  0.00    -0.111 Cl
HETATM   10  C10 UNL     1      -0.093  46.633  -6.310  1.00  0.00     0.035 C 
HETATM   11  C11 UNL     1       0.584  47.513  -5.272  1.00  0.00     0.030 C 
HETATM   12  C12 UNL     1      -0.704  47.463  -4.471  1.00  0.00     0.112 C 
ENDROOT
BRANCH   6  13
HETATM   13  C5  UNL     1      -3.439  42.440  -3.879  1.00  0.00     0.135 C 
BRANCH  13  14
HETATM   14  C6  UNL     1      -4.816  42.551  -3.323  1.00  0.00     0.052 C 
BRANCH  14  15
HETATM   15  C7  UNL     1      -5.817  41.615  -3.959  1.00  0.00     0.224 C 
HETATM   16  F1  UNL     1      -7.060  41.919  -3.391  1.00  0.00    -0.255 F 
ENDBRANCH  14  15
ENDBRANCH  13  14
ENDBRANCH   6  13
BRANCH   5  17
HETATM   17  O1  UNL     1      -3.417  44.121  -6.362  1.00  0.00    -0.345 OA
ATOM     18  H1  UNL     1      -3.750  44.767  -6.973  1.00  0.00     0.219 HD
ENDBRANCH   5  17
BRANCH   7  19
HETATM   19  O2  UNL     1      -1.701  43.826  -1.862  1.00  0.00    -0.344 OA
ATOM     20  H2  UNL     1      -2.256  44.006  -1.113  1.00  0.00     0.219 HD
ENDBRANCH   7  19
TORSDOF 5
ENDMDL
