MODEL 1
REMARK VINA RESULT: -8.412339296      0.000      0.000
REMARK  6 active torsions:
REMARK  status: ('A' for Active; 'I' for Inactive)
REMARK    1  A    between atoms: C2_2  and  C4_4 
REMARK    2  A    between atoms: C4_4  and  C5_5 
REMARK    3  A    between atoms: C5_5  and  N1_6 
REMARK    4  A    between atoms: C5_5  and  C13_19 
REMARK    5  A    between atoms: C6_7  and  O1_8 
REMARK    6  A    between atoms: C9_12  and  O2_13 
ROOT
HETATM    1  N1  UNL     1      -9.259  46.373  -5.438  1.00  0.00    -0.294 N 
HETATM    2  C6  UNL     1      -7.974  46.060  -5.317  1.00  0.00     0.152 A 
HETATM    3  C7  UNL     1      -7.870  45.093  -4.311  1.00  0.00     0.008 A 
HETATM    4  C8  UNL     1      -9.143  44.855  -3.849  1.00  0.00     0.027 A 
HETATM    5  C9  UNL     1     -10.008  45.679  -4.581  1.00  0.00     0.154 A 
HETATM    6  C10 UNL     1      -9.429  43.875  -2.766  1.00  0.00     0.211 C 
HETATM    7  O3  UNL     1      -8.287  43.389  -2.192  1.00  0.00    -0.386 OA
HETATM    8  C11 UNL     1      -7.300  43.077  -3.138  1.00  0.00     0.172 C 
HETATM    9  C12 UNL     1      -6.732  44.355  -3.716  1.00  0.00     0.070 C 
ENDROOT
BRANCH   1  10
HETATM   10  C5  UNL     1      -9.823  47.363  -6.391  1.00  0.00     0.202 C 
BRANCH  10  11
HETATM   11  C4  UNL     1     -10.605  48.371  -5.683  1.00  0.00     0.039 C 
BRANCH  11  12
HETATM   12  C2  UNL     1     -10.013  49.256  -4.667  1.00  0.00    -0.020 C 
HETATM   13  C1  UNL     1      -8.582  49.188  -4.342  1.00  0.00     0.009 C 
HETATM   14  C3  UNL     1     -10.876  49.072  -3.385  1.00  0.00     0.009 C 
ENDBRANCH  11  12
ENDBRANCH  10  11
BRANCH  10  15
HETATM   15  C13 UNL     1     -10.381  46.550  -7.490  1.00  0.00     0.408 C 
HETATM   16  F1  UNL     1      -9.623  45.469  -7.891  1.00  0.00    -0.169 F 
HETATM   17  F2  UNL     1     -10.318  47.377  -8.692  1.00  0.00    -0.169 F 
HETATM   18  F3  UNL     1     -11.720  46.273  -7.433  1.00  0.00    -0.169 F 
ENDBRANCH  10  15
ENDBRANCH   1  10
BRANCH   2  19
HETATM   19  O1  UNL     1      -6.852  46.508  -5.974  1.00  0.00    -0.345 OA
ATOM     20  H1  UNL     1      -6.381  46.172  -6.727  1.00  0.00     0.219 HD
ENDBRANCH   2  19
BRANCH   5  21
HETATM   21  O2  UNL     1     -11.393  45.715  -4.391  1.00  0.00    -0.345 OA
ATOM     22  H2  UNL     1     -11.948  45.114  -3.907  1.00  0.00     0.219 HD
ENDBRANCH   5  21
TORSDOF 6
ENDMDL
MODEL 2
REMARK VINA RESULT: -8.342828793      0.508      2.032
REMARK  6 active torsions:
REMARK  status: ('A' for Active; 'I' for Inactive)
REMARK    1  A    between atoms: C2_2  and  C4_4 
REMARK    2  A    between atoms: C4_4  and  C5_5 
REMARK    3  A    between atoms: C5_5  and  N1_6 
REMARK    4  A    between atoms: C5_5  and  C13_19 
REMARK    5  A    between atoms: C6_7  and  O1_8 
REMARK    6  A    between atoms: C9_12  and  O2_13 
ROOT
HETATM    1  N1  UNL     1      -9.361  46.451  -5.535  1.00  0.00    -0.294 N 
HETATM    2  C6  UNL     1     -10.103  45.657  -4.771  1.00  0.00     0.152 A 
HETATM    3  C7  UNL     1      -9.234  44.797  -4.090  1.00  0.00     0.008 A 
HETATM    4  C8  UNL     1      -7.957  45.120  -4.488  1.00  0.00     0.027 A 
HETATM    5  C9  UNL     1      -8.064  46.173  -5.405  1.00  0.00     0.154 A 
HETATM    6  C10 UNL     1      -6.757  44.410  -3.968  1.00  0.00     0.211 C 
HETATM    7  O3  UNL     1      -7.086  43.323  -3.207  1.00  0.00    -0.386 OA
HETATM    8  C11 UNL     1      -8.147  43.583  -2.328  1.00  0.00     0.172 C 
HETATM    9  C12 UNL     1      -9.435  43.705  -3.111  1.00  0.00     0.070 C 
ENDROOT
BRANCH   1  10
HETATM   10  C5  UNL     1      -9.876  47.518  -6.430  1.00  0.00     0.202 C 
BRANCH  10  11
HETATM   11  C4  UNL     1     -10.671  48.482  -5.677  1.00  0.00     0.039 C 
BRANCH  11  12
HETATM   12  C2  UNL     1     -10.096  49.308  -4.603  1.00  0.00    -0.020 C 
HETATM   13  C1  UNL     1      -8.657  49.273  -4.307  1.00  0.00     0.009 C 
HETATM   14  C3  UNL     1     -10.926  48.987  -3.326  1.00  0.00     0.009 C 
ENDBRANCH  11  12
ENDBRANCH  10  11
BRANCH  10  15
HETATM   15  C13 UNL     1     -10.405  46.798  -7.607  1.00  0.00     0.408 C 
HETATM   16  F1  UNL     1      -9.639  45.747  -8.070  1.00  0.00    -0.169 F 
HETATM   17  F2  UNL     1     -10.302  47.717  -8.737  1.00  0.00    -0.169 F 
HETATM   18  F3  UNL     1     -11.746  46.526  -7.612  1.00  0.00    -0.169 F 
ENDBRANCH  10  15
ENDBRANCH   1  10
BRANCH   2  19
HETATM   19  O1  UNL     1     -11.462  45.574  -4.577  1.00  0.00    -0.345 OA
ATOM     20  H1  UNL     1     -12.195  45.953  -5.048  1.00  0.00     0.219 HD
ENDBRANCH   2  19
BRANCH   5  21
HETATM   21  O2  UNL     1      -6.967  46.774  -6.031  1.00  0.00    -0.345 OA
ATOM     22  H2  UNL     1      -6.765  46.833  -6.958  1.00  0.00     0.219 HD
ENDBRANCH   5  21
TORSDOF 6
ENDMDL
MODEL 3
REMARK VINA RESULT: -7.674284202      2.067      3.629
REMARK  6 active torsions:
REMARK  status: ('A' for Active; 'I' for Inactive)
REMARK    1  A    between atoms: C2_2  and  C4_4 
REMARK    2  A    between atoms: C4_4  and  C5_5 
REMARK    3  A    between atoms: C5_5  and  N1_6 
REMARK    4  A    between atoms: C5_5  and  C13_19 
REMARK    5  A    between atoms: C6_7  and  O1_8 
REMARK    6  A    between atoms: C9_12  and  O2_13 
ROOT
HETATM    1  N1  UNL     1      -9.585  46.588  -4.793  1.00  0.00    -0.294 N 
HETATM    2  C6  UNL     1     -10.187  45.610  -4.125  1.00  0.00     0.152 A 
HETATM    3  C7  UNL     1      -9.206  44.681  -3.764  1.00  0.00     0.008 A 
HETATM    4  C8  UNL     1      -8.009  45.153  -4.247  1.00  0.00     0.027 A 
HETATM    5  C9  UNL     1      -8.275  46.366  -4.896  1.00  0.00     0.154 A 
HETATM    6  C10 UNL     1      -6.726  44.423  -4.053  1.00  0.00     0.211 C 
HETATM    7  O3  UNL     1      -6.912  43.184  -3.506  1.00  0.00    -0.386 OA
HETATM    8  C11 UNL     1      -7.846  43.193  -2.460  1.00  0.00     0.172 C 
HETATM    9  C12 UNL     1      -9.235  43.399  -3.024  1.00  0.00     0.070 C 
ENDROOT
BRANCH   1  10
HETATM   10  C5  UNL     1     -10.253  47.785  -5.364  1.00  0.00     0.202 C 
BRANCH  10  11
HETATM   11  C4  UNL     1      -9.980  47.893  -6.793  1.00  0.00     0.039 C 
BRANCH  11  12
HETATM   12  C2  UNL     1     -10.542  46.951  -7.775  1.00  0.00    -0.020 C 
HETATM   13  C1  UNL     1     -11.883  46.378  -7.596  1.00  0.00     0.009 C 
HETATM   14  C3  UNL     1      -9.481  45.824  -7.940  1.00  0.00     0.009 C 
ENDBRANCH  11  12
ENDBRANCH  10  11
BRANCH  10  15
HETATM   15  C13 UNL     1      -9.951  48.873  -4.412  1.00  0.00     0.408 C 
HETATM   16  F1  UNL     1     -10.523  48.761  -3.161  1.00  0.00    -0.169 F 
HETATM   17  F2  UNL     1     -10.637  50.062  -4.910  1.00  0.00    -0.169 F 
HETATM   18  F3  UNL     1      -8.657  49.316  -4.372  1.00  0.00    -0.169 F 
ENDBRANCH  10  15
ENDBRANCH   1  10
BRANCH   2  19
HETATM   19  O1  UNL     1     -11.503  45.408  -3.778  1.00  0.00    -0.345 OA
ATOM     20  H1  UNL     1     -11.927  45.295  -2.935  1.00  0.00     0.219 HD
ENDBRANCH   2  19
BRANCH   5  21
HETATM   21  O2  UNL     1      -7.295  47.147  -5.518  1.00  0.00    -0.345 OA
ATOM     22  H2  UNL     1      -6.470  46.877  -5.905  1.00  0.00     0.219 HD
ENDBRANCH   5  21
TORSDOF 6
ENDMDL
MODEL 4
REMARK VINA RESULT: -7.619842996      1.973      3.012
REMARK  6 active torsions:
REMARK  status: ('A' for Active; 'I' for Inactive)
REMARK    1  A    between atoms: C2_2  and  C4_4 
REMARK    2  A    between atoms: C4_4  and  C5_5 
REMARK    3  A    between atoms: C5_5  and  N1_6 
REMARK    4  A    between atoms: C5_5  and  C13_19 
REMARK    5  A    between atoms: C6_7  and  O1_8 
REMARK    6  A    between atoms: C9_12  and  O2_13 
ROOT
HETATM    1  N1  UNL     1      -9.464  46.509  -4.755  1.00  0.00    -0.294 N 
HETATM    2  C6  UNL     1      -8.166  46.247  -4.855  1.00  0.00     0.152 A 
HETATM    3  C7  UNL     1      -7.910  45.096  -4.104  1.00  0.00     0.008 A 
HETATM    4  C8  UNL     1      -9.108  44.696  -3.561  1.00  0.00     0.027 A 
HETATM    5  C9  UNL     1     -10.080  45.609  -3.990  1.00  0.00     0.154 A 
HETATM    6  C10 UNL     1      -9.229  43.494  -2.692  1.00  0.00     0.211 C 
HETATM    7  O3  UNL     1      -8.012  42.959  -2.374  1.00  0.00    -0.386 OA
HETATM    8  C11 UNL     1      -7.142  42.910  -3.473  1.00  0.00     0.172 C 
HETATM    9  C12 UNL     1      -6.687  44.310  -3.820  1.00  0.00     0.070 C 
ENDROOT
BRANCH   1  10
HETATM   10  C5  UNL     1     -10.169  47.648  -5.398  1.00  0.00     0.202 C 
BRANCH  10  11
HETATM   11  C4  UNL     1      -9.866  47.701  -6.824  1.00  0.00     0.039 C 
BRANCH  11  12
HETATM   12  C2  UNL     1     -10.532  46.827  -7.803  1.00  0.00    -0.020 C 
HETATM   13  C1  UNL     1     -11.911  46.365  -7.593  1.00  0.00     0.009 C 
HETATM   14  C3  UNL     1      -9.576  45.618  -8.017  1.00  0.00     0.009 C 
ENDBRANCH  11  12
ENDBRANCH  10  11
BRANCH  10  15
HETATM   15  C13 UNL     1      -9.939  48.791  -4.492  1.00  0.00     0.408 C 
HETATM   16  F1  UNL     1     -10.532  48.710  -3.248  1.00  0.00    -0.169 F 
HETATM   17  F2  UNL     1     -10.667  49.923  -5.058  1.00  0.00    -0.169 F 
HETATM   18  F3  UNL     1      -8.667  49.295  -4.446  1.00  0.00    -0.169 F 
ENDBRANCH  10  15
ENDBRANCH   1  10
BRANCH   2  19
HETATM   19  O1  UNL     1      -7.147  46.885  -5.525  1.00  0.00    -0.345 OA
ATOM     20  H1  UNL     1      -7.085  47.751  -5.911  1.00  0.00     0.219 HD
ENDBRANCH   2  19
BRANCH   5  21
HETATM   21  O2  UNL     1     -11.432  45.529  -3.637  1.00  0.00    -0.345 OA
ATOM     22  H2  UNL     1     -11.912  46.031  -2.989  1.00  0.00     0.219 HD
ENDBRANCH   5  21
TORSDOF 6
ENDMDL
MODEL 5
REMARK VINA RESULT: -6.137200916      3.604      6.427
REMARK  6 active torsions:
REMARK  status: ('A' for Active; 'I' for Inactive)
REMARK    1  A    between atoms: C2_2  and  C4_4 
REMARK    2  A    between atoms: C4_4  and  C5_5 
REMARK    3  A    between atoms: C5_5  and  N1_6 
REMARK    4  A    between atoms: C5_5  and  C13_19 
REMARK    5  A    between atoms: C6_7  and  O1_8 
REMARK    6  A    between atoms: C9_12  and  O2_13 
ROOT
HETATM    1  N1  UNL     1      -6.880  43.727  -3.479  1.00  0.00    -0.294 N 
HETATM    2  C6  UNL     1      -8.043  43.597  -2.850  1.00  0.00     0.152 A 
HETATM    3  C7  UNL     1      -8.941  44.493  -3.438  1.00  0.00     0.008 A 
HETATM    4  C8  UNL     1      -8.258  45.152  -4.433  1.00  0.00     0.027 A 
HETATM    5  C9  UNL     1      -6.951  44.647  -4.440  1.00  0.00     0.154 A 
HETATM    6  C10 UNL     1      -8.896  46.192  -5.285  1.00  0.00     0.211 C 
HETATM    7  O3  UNL     1     -10.151  46.519  -4.852  1.00  0.00    -0.386 OA
HETATM    8  C11 UNL     1     -10.904  45.394  -4.487  1.00  0.00     0.172 C 
HETATM    9  C12 UNL     1     -10.364  44.822  -3.194  1.00  0.00     0.070 C 
ENDROOT
BRANCH   1  10
HETATM   10  C5  UNL     1      -5.642  42.964  -3.176  1.00  0.00     0.202 C 
BRANCH  10  11
HETATM   11  C4  UNL     1      -4.460  43.779  -3.432  1.00  0.00     0.039 C 
BRANCH  11  12
HETATM   12  C2  UNL     1      -3.096  43.295  -3.162  1.00  0.00    -0.020 C 
HETATM   13  C1  UNL     1      -2.134  44.116  -2.414  1.00  0.00     0.009 C 
HETATM   14  C3  UNL     1      -2.508  42.883  -4.542  1.00  0.00     0.009 C 
ENDBRANCH  11  12
ENDBRANCH  10  11
BRANCH  10  15
HETATM   15  C13 UNL     1      -5.850  41.645  -3.806  1.00  0.00     0.408 C 
HETATM   16  F1  UNL     1      -7.115  41.105  -3.680  1.00  0.00    -0.169 F 
HETATM   17  F2  UNL     1      -5.074  40.685  -3.026  1.00  0.00    -0.169 F 
HETATM   18  F3  UNL     1      -5.313  41.465  -5.052  1.00  0.00    -0.169 F 
ENDBRANCH  10  15
ENDBRANCH   1  10
BRANCH   2  19
HETATM   19  O1  UNL     1      -8.441  42.788  -1.812  1.00  0.00    -0.345 OA
ATOM     20  H1  UNL     1      -8.314  42.851  -0.872  1.00  0.00     0.219 HD
ENDBRANCH   2  19
BRANCH   5  21
HETATM   21  O2  UNL     1      -5.955  45.079  -5.322  1.00  0.00    -0.345 OA
ATOM     22  H2  UNL     1      -5.038  44.833  -5.357  1.00  0.00     0.219 HD
ENDBRANCH   5  21
TORSDOF 6
ENDMDL
