MODEL 1
REMARK VINA RESULT: -8.318560478      0.000      0.000
REMARK  6 active torsions:
REMARK  status: ('A' for Active; 'I' for Inactive)
REMARK    1  A    between atoms: C2_2  and  C3_3 
REMARK    2  A    between atoms: C10_10  and  O1_11 
REMARK    3  A    between atoms: N1_13  and  O2_14 
REMARK    4  A    between atoms: O2_14  and  C11_15 
REMARK    5  A    between atoms: C11_15  and  C12_16 
REMARK    6  A    between atoms: C13_18  and  O3_19 
ROOT
HETATM    1  C3  UNL     1     -10.278  47.472  -4.845  1.00  0.00     0.017 C 
HETATM    2  C4  UNL     1     -10.919  46.858  -3.638  1.00  0.00     0.018 C 
HETATM    3  C5  UNL     1     -10.868  45.395  -3.867  1.00  0.00     0.025 C 
HETATM    4  C6  UNL     1     -10.859  45.331  -5.414  1.00  0.00     0.019 C 
HETATM    5  C7  UNL     1      -9.666  46.301  -5.553  1.00  0.00     0.032 C 
HETATM    6  C8  UNL     1      -8.748  45.527  -4.653  1.00  0.00     0.011 A 
HETATM    7  C9  UNL     1      -9.457  44.961  -3.646  1.00  0.00     0.010 A 
HETATM    8  C10 UNL     1      -8.598  44.171  -2.870  1.00  0.00     0.177 A 
HETATM    9  N1  UNL     1      -7.417  44.257  -3.422  1.00  0.00    -0.175 N 
HETATM   10  C13 UNL     1      -7.409  45.055  -4.485  1.00  0.00     0.177 A 
ENDROOT
BRANCH   9  11
HETATM   11  O2  UNL     1      -6.424  43.379  -3.151  1.00  0.00    -0.267 OA
BRANCH  11  12
HETATM   12  C11 UNL     1      -6.486  42.009  -3.647  1.00  0.00     0.233 C 
BRANCH  12  13
HETATM   13  C12 UNL     1      -5.029  41.667  -4.061  1.00  0.00     0.250 C 
HETATM   14  F1  UNL     1      -4.577  40.744  -3.040  1.00  0.00    -0.253 F 
ENDBRANCH  12  13
ENDBRANCH  11  12
ENDBRANCH   9  11
BRANCH   8  15
HETATM   15  O1  UNL     1      -9.002  43.463  -1.724  1.00  0.00    -0.344 OA
ATOM     16  H1  UNL     1      -9.787  42.928  -1.678  1.00  0.00     0.219 HD
ENDBRANCH   8  15
BRANCH  10  17
HETATM   17  O3  UNL     1      -6.448  45.479  -5.341  1.00  0.00    -0.344 OA
ATOM     18  H3  UNL     1      -5.544  45.499  -5.049  1.00  0.00     0.219 HD
ENDBRANCH  10  17
BRANCH   1  19
HETATM   19  C2  UNL     1      -9.298  48.537  -4.643  1.00  0.00    -0.032 C 
HETATM   20  C1  UNL     1      -9.709  49.703  -4.095  1.00  0.00     0.007 C 
ENDBRANCH   1  19
TORSDOF 6
ENDMDL
MODEL 2
REMARK VINA RESULT: -7.617276657      1.886      3.271
REMARK  6 active torsions:
REMARK  status: ('A' for Active; 'I' for Inactive)
REMARK    1  A    between atoms: C2_2  and  C3_3 
REMARK    2  A    between atoms: C10_10  and  O1_11 
REMARK    3  A    between atoms: N1_13  and  O2_14 
REMARK    4  A    between atoms: O2_14  and  C11_15 
REMARK    5  A    between atoms: C11_15  and  C12_16 
REMARK    6  A    between atoms: C13_18  and  O3_19 
ROOT
HETATM    1  C3  UNL     1     -10.075  47.483  -6.751  1.00  0.00     0.017 C 
HETATM    2  C4  UNL     1      -8.622  47.146  -6.898  1.00  0.00     0.018 C 
HETATM    3  C5  UNL     1      -8.060  47.225  -5.530  1.00  0.00     0.025 C 
HETATM    4  C6  UNL     1      -9.019  48.244  -4.867  1.00  0.00     0.019 C 
HETATM    5  C7  UNL     1     -10.292  47.467  -5.268  1.00  0.00     0.032 C 
HETATM    6  C8  UNL     1      -9.862  46.165  -4.659  1.00  0.00     0.011 A 
HETATM    7  C9  UNL     1      -8.522  46.013  -4.791  1.00  0.00     0.010 A 
HETATM    8  C10 UNL     1      -8.127  44.837  -4.139  1.00  0.00     0.177 A 
HETATM    9  N1  UNL     1      -9.210  44.322  -3.619  1.00  0.00    -0.175 N 
HETATM   10  C13 UNL     1     -10.296  45.041  -3.890  1.00  0.00     0.177 A 
ENDROOT
BRANCH   9  11
HETATM   11  O2  UNL     1      -9.173  43.379  -2.650  1.00  0.00    -0.267 OA
BRANCH  11  12
HETATM   12  C11 UNL     1      -8.100  42.391  -2.614  1.00  0.00     0.233 C 
BRANCH  12  13
HETATM   13  C12 UNL     1      -8.638  41.187  -3.433  1.00  0.00     0.250 C 
HETATM   14  F1  UNL     1      -7.536  40.828  -4.301  1.00  0.00    -0.253 F 
ENDBRANCH  12  13
ENDBRANCH  11  12
ENDBRANCH   9  11
BRANCH   8  15
HETATM   15  O1  UNL     1      -6.804  44.362  -4.104  1.00  0.00    -0.344 OA
ATOM     16  H1  UNL     1      -6.444  43.747  -4.733  1.00  0.00     0.219 HD
ENDBRANCH   8  15
BRANCH  10  17
HETATM   17  O3  UNL     1     -11.615  44.900  -3.614  1.00  0.00    -0.344 OA
ATOM     18  H3  UNL     1     -11.922  44.090  -3.223  1.00  0.00     0.219 HD
ENDBRANCH  10  17
BRANCH   1  19
HETATM   19  C2  UNL     1     -11.054  46.641  -7.436  1.00  0.00    -0.032 C 
HETATM   20  C1  UNL     1     -10.609  45.613  -8.195  1.00  0.00     0.007 C 
ENDBRANCH   1  19
TORSDOF 6
ENDMDL
MODEL 3
REMARK VINA RESULT: -6.930420349      1.996      2.424
REMARK  6 active torsions:
REMARK  status: ('A' for Active; 'I' for Inactive)
REMARK    1  A    between atoms: C2_2  and  C3_3 
REMARK    2  A    between atoms: C10_10  and  O1_11 
REMARK    3  A    between atoms: N1_13  and  O2_14 
REMARK    4  A    between atoms: O2_14  and  C11_15 
REMARK    5  A    between atoms: C11_15  and  C12_16 
REMARK    6  A    between atoms: C13_18  and  O3_19 
ROOT
HETATM    1  C3  UNL     1      -9.233  48.011  -5.753  1.00  0.00     0.017 C 
HETATM    2  C4  UNL     1     -10.628  47.476  -5.872  1.00  0.00     0.018 C 
HETATM    3  C5  UNL     1     -10.474  46.080  -6.341  1.00  0.00     0.025 C 
HETATM    4  C6  UNL     1      -9.126  46.162  -7.099  1.00  0.00     0.019 C 
HETATM    5  C7  UNL     1      -8.374  46.793  -5.908  1.00  0.00     0.032 C 
HETATM    6  C8  UNL     1      -8.745  45.724  -4.923  1.00  0.00     0.011 A 
HETATM    7  C9  UNL     1      -9.996  45.272  -5.181  1.00  0.00     0.010 A 
HETATM    8  C10 UNL     1     -10.291  44.215  -4.309  1.00  0.00     0.177 A 
HETATM    9  N1  UNL     1      -9.227  44.039  -3.570  1.00  0.00    -0.175 N 
HETATM   10  C13 UNL     1      -8.259  44.903  -3.858  1.00  0.00     0.177 A 
ENDROOT
BRANCH   9  11
HETATM   11  O2  UNL     1      -9.019  42.909  -2.855  1.00  0.00    -0.267 OA
BRANCH  11  12
HETATM   12  C11 UNL     1      -8.005  41.944  -3.264  1.00  0.00     0.233 C 
BRANCH  12  13
HETATM   13  C12 UNL     1      -8.763  40.594  -3.382  1.00  0.00     0.250 C 
HETATM   14  F1  UNL     1      -9.648  40.782  -4.513  1.00  0.00    -0.253 F 
ENDBRANCH  12  13
ENDBRANCH  11  12
ENDBRANCH   9  11
BRANCH   8  15
HETATM   15  O1  UNL     1     -11.520  43.532  -4.287  1.00  0.00    -0.344 OA
ATOM     16  H1  UNL     1     -12.344  43.930  -4.031  1.00  0.00     0.219 HD
ENDBRANCH   8  15
BRANCH  10  17
HETATM   17  O3  UNL     1      -7.023  45.139  -3.355  1.00  0.00    -0.344 OA
ATOM     18  H3  UNL     1      -6.708  46.033  -3.301  1.00  0.00     0.219 HD
ENDBRANCH  10  17
BRANCH   1  19
HETATM   19  C2  UNL     1      -8.877  48.757  -4.548  1.00  0.00    -0.032 C 
HETATM   20  C1  UNL     1      -9.780  49.622  -4.029  1.00  0.00     0.007 C 
ENDBRANCH   1  19
TORSDOF 6
ENDMDL
MODEL 4
REMARK VINA RESULT: -5.762582074      3.783      7.175
REMARK  6 active torsions:
REMARK  status: ('A' for Active; 'I' for Inactive)
REMARK    1  A    between atoms: C2_2  and  C3_3 
REMARK    2  A    between atoms: C10_10  and  O1_11 
REMARK    3  A    between atoms: N1_13  and  O2_14 
REMARK    4  A    between atoms: O2_14  and  C11_15 
REMARK    5  A    between atoms: C11_15  and  C12_16 
REMARK    6  A    between atoms: C13_18  and  O3_19 
ROOT
HETATM    1  C3  UNL     1      -0.869  44.004  -5.892  1.00  0.00     0.017 C 
HETATM    2  C4  UNL     1      -0.710  42.693  -5.183  1.00  0.00     0.018 C 
HETATM    3  C5  UNL     1      -1.361  42.877  -3.866  1.00  0.00     0.025 C 
HETATM    4  C6  UNL     1      -1.208  44.405  -3.663  1.00  0.00     0.019 C 
HETATM    5  C7  UNL     1      -1.836  44.756  -5.030  1.00  0.00     0.032 C 
HETATM    6  C8  UNL     1      -3.101  43.980  -4.808  1.00  0.00     0.011 A 
HETATM    7  C9  UNL     1      -2.836  42.859  -4.094  1.00  0.00     0.010 A 
HETATM    8  C10 UNL     1      -4.040  42.195  -3.821  1.00  0.00     0.177 A 
HETATM    9  N1  UNL     1      -4.990  42.922  -4.346  1.00  0.00    -0.175 N 
HETATM   10  C13 UNL     1      -4.522  44.000  -4.967  1.00  0.00     0.177 A 
ENDROOT
BRANCH   9  11
HETATM   11  O2  UNL     1      -6.291  42.775  -4.003  1.00  0.00    -0.267 OA
BRANCH  11  12
HETATM   12  C11 UNL     1      -6.889  43.619  -2.975  1.00  0.00     0.233 C 
BRANCH  12  13
HETATM   13  C12 UNL     1      -8.355  43.122  -2.853  1.00  0.00     0.250 C 
HETATM   14  F1  UNL     1      -8.998  44.116  -2.019  1.00  0.00    -0.253 F 
ENDBRANCH  12  13
ENDBRANCH  11  12
ENDBRANCH   9  11
BRANCH   8  15
HETATM   15  O1  UNL     1      -4.126  40.978  -3.121  1.00  0.00    -0.344 OA
ATOM     16  H1  UNL     1      -3.421  40.614  -2.599  1.00  0.00     0.219 HD
ENDBRANCH   8  15
BRANCH  10  17
HETATM   17  O3  UNL     1      -5.092  45.006  -5.674  1.00  0.00    -0.344 OA
ATOM     18  H3  UNL     1      -4.599  45.804  -5.823  1.00  0.00     0.219 HD
ENDBRANCH  10  17
BRANCH   1  19
HETATM   19  C2  UNL     1      -1.307  43.988  -7.286  1.00  0.00    -0.032 C 
HETATM   20  C1  UNL     1      -0.765  43.078  -8.128  1.00  0.00     0.007 C 
ENDBRANCH   1  19
TORSDOF 6
ENDMDL
MODEL 5
REMARK VINA RESULT: -5.557023194      3.328      6.577
REMARK  6 active torsions:
REMARK  status: ('A' for Active; 'I' for Inactive)
REMARK    1  A    between atoms: C2_2  and  C3_3 
REMARK    2  A    between atoms: C10_10  and  O1_11 
REMARK    3  A    between atoms: N1_13  and  O2_14 
REMARK    4  A    between atoms: O2_14  and  C11_15 
REMARK    5  A    between atoms: C11_15  and  C12_16 
REMARK    6  A    between atoms: C13_18  and  O3_19 
ROOT
HETATM    1  C3  UNL     1      -1.503  43.895  -4.137  1.00  0.00     0.017 C 
HETATM    2  C4  UNL     1      -2.159  45.085  -4.768  1.00  0.00     0.018 C 
HETATM    3  C5  UNL     1      -3.162  44.529  -5.707  1.00  0.00     0.025 C 
HETATM    4  C6  UNL     1      -2.529  43.157  -6.046  1.00  0.00     0.019 C 
HETATM    5  C7  UNL     1      -2.365  42.747  -4.566  1.00  0.00     0.032 C 
HETATM    6  C8  UNL     1      -3.803  42.967  -4.198  1.00  0.00     0.011 A 
HETATM    7  C9  UNL     1      -4.302  44.021  -4.888  1.00  0.00     0.010 A 
HETATM    8  C10 UNL     1      -5.666  44.154  -4.599  1.00  0.00     0.177 A 
HETATM    9  N1  UNL     1      -5.964  43.187  -3.773  1.00  0.00    -0.175 N 
HETATM   10  C13 UNL     1      -4.911  42.435  -3.467  1.00  0.00     0.177 A 
ENDROOT
BRANCH   9  11
HETATM   11  O2  UNL     1      -7.240  42.799  -3.538  1.00  0.00    -0.267 OA
BRANCH  11  12
HETATM   12  C11 UNL     1      -8.093  43.558  -2.630  1.00  0.00     0.233 C 
BRANCH  12  13
HETATM   13  C12 UNL     1      -9.346  43.923  -3.471  1.00  0.00     0.250 C 
HETATM   14  F1  UNL     1     -10.230  44.573  -2.525  1.00  0.00    -0.253 F 
ENDBRANCH  12  13
ENDBRANCH  11  12
ENDBRANCH   9  11
BRANCH   8  15
HETATM   15  O1  UNL     1      -6.487  45.167  -5.125  1.00  0.00    -0.344 OA
ATOM     16  H1  UNL     1      -7.017  45.070  -5.909  1.00  0.00     0.219 HD
ENDBRANCH   8  15
BRANCH  10  17
HETATM   17  O3  UNL     1      -4.714  41.373  -2.649  1.00  0.00    -0.344 OA
ATOM     18  H3  UNL     1      -5.452  41.011  -2.175  1.00  0.00     0.219 HD
ENDBRANCH  10  17
BRANCH   1  19
HETATM   19  C2  UNL     1      -1.310  43.898  -2.688  1.00  0.00    -0.032 C 
HETATM   20  C1  UNL     1      -1.216  45.085  -2.047  1.00  0.00     0.007 C 
ENDBRANCH   1  19
TORSDOF 6
ENDMDL
