MODEL 1
REMARK VINA RESULT: -8.704071382      0.000      0.000
REMARK  7 active torsions:
REMARK  status: ('A' for Active; 'I' for Inactive)
REMARK    1  A    between atoms: C2_2  and  O1_3 
REMARK    2  A    between atoms: O1_3  and  C3_4 
REMARK       I    between atoms: C3_4  and  N1_6 
REMARK    3  A    between atoms: C6_9  and  O3_10 
REMARK    4  A    between atoms: C7_12  and  C8_13 
REMARK    5  A    between atoms: C8_13  and  O4_14 
REMARK    6  A    between atoms: O4_14  and  C9_15 
REMARK       I    between atoms: C9_15  and  N2_17 
REMARK    7  A    between atoms: N2_17  and  C10_19 
ROOT
HETATM    1  C3  UNL     1      15.326   8.506   7.229  1.00  0.00     0.367 C 
HETATM    2  O2  UNL     1      16.016   8.284   8.257  1.00  0.00    -0.238 OA
HETATM    3  N1  UNL     1      15.895   8.899   5.989  1.00  0.00    -0.320 N 
HETATM    4  C4  UNL     1      17.316   9.081   5.786  1.00  0.00     0.132 C 
HETATM    5  C5  UNL     1      17.481   8.670   4.344  1.00  0.00     0.060 C 
HETATM    6  C6  UNL     1      16.223   9.193   3.714  1.00  0.00     0.085 C 
HETATM    7  C7  UNL     1      16.346  10.633   3.274  1.00  0.00     0.047 C 
HETATM    8  C16 UNL     1      14.923  11.152   3.517  1.00  0.00     0.012 C 
HETATM    9  C17 UNL     1      14.469  10.488   4.785  1.00  0.00     0.029 C 
HETATM   10  C18 UNL     1      15.155   9.166   4.785  1.00  0.00     0.124 C 
ENDROOT
BRANCH   7  11
HETATM   11  C8  UNL     1      16.681  10.659   1.832  1.00  0.00     0.188 C 
BRANCH  11  12
HETATM   12  O4  UNL     1      15.597  10.950   0.982  1.00  0.00    -0.304 OA
BRANCH  12  13
HETATM   13  C9  UNL     1      15.176  10.188  -0.062  1.00  0.00     0.360 C 
HETATM   14  O5  UNL     1      14.973   8.969   0.145  1.00  0.00    -0.239 OA
HETATM   15  N2  UNL     1      14.946  10.666  -1.385  1.00  0.00    -0.332 N 
ATOM     16  H2  UNL     1      15.102  11.653  -1.586  1.00  0.00     0.165 HD
BRANCH  15  17
HETATM   17  C10 UNL     1      14.498   9.798  -2.451  1.00  0.00     0.086 C 
HETATM   18  C11 UNL     1      13.024   9.638  -2.361  1.00  0.00     0.025 C 
HETATM   19  C12 UNL     1      12.323   9.695  -3.704  1.00  0.00     0.002 C 
HETATM   20  C13 UNL     1      13.101   8.817  -4.642  1.00  0.00     0.000 C 
HETATM   21  C14 UNL     1      14.475   9.382  -4.926  1.00  0.00     0.002 C 
HETATM   22  C15 UNL     1      15.006  10.211  -3.794  1.00  0.00     0.025 C 
ENDBRANCH  15  17
ENDBRANCH  12  13
ENDBRANCH  11  12
ENDBRANCH   7  11
BRANCH   6  23
HETATM   23  O3  UNL     1      15.875   8.358   2.660  1.00  0.00    -0.387 OA
ATOM     24  H3  UNL     1      15.172   7.787   2.945  1.00  0.00     0.210 HD
ENDBRANCH   6  23
BRANCH   1  25
HETATM   25  O1  UNL     1      13.939   8.341   7.382  1.00  0.00    -0.275 OA
BRANCH  25  26
HETATM   26  C2  UNL     1      13.208   9.105   8.265  1.00  0.00     0.137 C 
HETATM   27  C1  UNL     1      13.324  10.409   8.264  1.00  0.00     0.038 C 
ENDBRANCH  25  26
ENDBRANCH   1  25
TORSDOF 7
ENDMDL
MODEL 2
REMARK VINA RESULT: -8.355174812      1.854      8.857
REMARK  7 active torsions:
REMARK  status: ('A' for Active; 'I' for Inactive)
REMARK    1  A    between atoms: C2_2  and  O1_3 
REMARK    2  A    between atoms: O1_3  and  C3_4 
REMARK       I    between atoms: C3_4  and  N1_6 
REMARK    3  A    between atoms: C6_9  and  O3_10 
REMARK    4  A    between atoms: C7_12  and  C8_13 
REMARK    5  A    between atoms: C8_13  and  O4_14 
REMARK    6  A    between atoms: O4_14  and  C9_15 
REMARK       I    between atoms: C9_15  and  N2_17 
REMARK    7  A    between atoms: N2_17  and  C10_19 
ROOT
HETATM    1  C3  UNL     1      13.112   9.407  -3.152  1.00  0.00     0.367 C 
HETATM    2  O2  UNL     1      12.030   9.871  -3.595  1.00  0.00    -0.238 OA
HETATM    3  N1  UNL     1      13.595   9.690  -1.846  1.00  0.00    -0.320 N 
HETATM    4  C4  UNL     1      12.895  10.534  -0.904  1.00  0.00     0.132 C 
HETATM    5  C5  UNL     1      13.262   9.901   0.416  1.00  0.00     0.060 C 
HETATM    6  C6  UNL     1      14.687   9.485   0.187  1.00  0.00     0.085 C 
HETATM    7  C7  UNL     1      15.674  10.588   0.488  1.00  0.00     0.047 C 
HETATM    8  C16 UNL     1      16.767  10.316  -0.553  1.00  0.00     0.012 C 
HETATM    9  C17 UNL     1      16.038   9.885  -1.792  1.00  0.00     0.029 C 
HETATM   10  C18 UNL     1      14.822   9.186  -1.290  1.00  0.00     0.124 C 
ENDROOT
BRANCH   7  11
HETATM   11  C8  UNL     1      16.190  10.397   1.863  1.00  0.00     0.188 C 
BRANCH  11  12
HETATM   12  O4  UNL     1      15.311  10.809   2.883  1.00  0.00    -0.304 OA
BRANCH  12  13
HETATM   13  C9  UNL     1      14.870  10.039   3.913  1.00  0.00     0.360 C 
HETATM   14  O5  UNL     1      14.379   8.919   3.641  1.00  0.00    -0.239 OA
HETATM   15  N2  UNL     1      14.922  10.404   5.290  1.00  0.00    -0.332 N 
ATOM     16  H2  UNL     1      15.316  11.309   5.545  1.00  0.00     0.165 HD
BRANCH  15  17
HETATM   17  C10 UNL     1      14.434   9.534   6.337  1.00  0.00     0.086 C 
HETATM   18  C11 UNL     1      15.525   8.617   6.754  1.00  0.00     0.025 C 
HETATM   19  C12 UNL     1      15.615   8.423   8.255  1.00  0.00     0.002 C 
HETATM   20  C13 UNL     1      14.218   8.177   8.750  1.00  0.00     0.000 C 
HETATM   21  C14 UNL     1      13.347   9.402   8.595  1.00  0.00     0.002 C 
HETATM   22  C15 UNL     1      13.773  10.277   7.453  1.00  0.00     0.025 C 
ENDBRANCH  15  17
ENDBRANCH  12  13
ENDBRANCH  11  12
ENDBRANCH   7  11
BRANCH   6  23
HETATM   23  O3  UNL     1      14.941   8.344   0.938  1.00  0.00    -0.387 OA
ATOM     24  H3  UNL     1      15.007   7.602   0.350  1.00  0.00     0.210 HD
ENDBRANCH   6  23
BRANCH   1  25
HETATM   25  O1  UNL     1      13.825   8.580  -4.036  1.00  0.00    -0.275 OA
BRANCH  25  26
HETATM   26  C2  UNL     1      14.406   9.072  -5.184  1.00  0.00     0.137 C 
HETATM   27  C1  UNL     1      15.037  10.218  -5.166  1.00  0.00     0.038 C 
ENDBRANCH  25  26
ENDBRANCH   1  25
TORSDOF 7
ENDMDL
MODEL 3
REMARK VINA RESULT: -8.140062577      2.162      8.202
REMARK  7 active torsions:
REMARK  status: ('A' for Active; 'I' for Inactive)
REMARK    1  A    between atoms: C2_2  and  O1_3 
REMARK    2  A    between atoms: O1_3  and  C3_4 
REMARK       I    between atoms: C3_4  and  N1_6 
REMARK    3  A    between atoms: C6_9  and  O3_10 
REMARK    4  A    between atoms: C7_12  and  C8_13 
REMARK    5  A    between atoms: C8_13  and  O4_14 
REMARK    6  A    between atoms: O4_14  and  C9_15 
REMARK       I    between atoms: C9_15  and  N2_17 
REMARK    7  A    between atoms: N2_17  and  C10_19 
ROOT
HETATM    1  C3  UNL     1      13.203   9.468  -2.642  1.00  0.00     0.367 C 
HETATM    2  O2  UNL     1      12.064   9.940  -2.892  1.00  0.00    -0.238 OA
HETATM    3  N1  UNL     1      14.016   9.939  -1.577  1.00  0.00    -0.320 N 
HETATM    4  C4  UNL     1      13.617  11.001  -0.680  1.00  0.00     0.132 C 
HETATM    5  C5  UNL     1      14.285  10.589   0.609  1.00  0.00     0.060 C 
HETATM    6  C6  UNL     1      15.584  10.010   0.128  1.00  0.00     0.085 C 
HETATM    7  C7  UNL     1      16.660  11.056  -0.047  1.00  0.00     0.047 C 
HETATM    8  C16 UNL     1      17.437  10.501  -1.247  1.00  0.00     0.012 C 
HETATM    9  C17 UNL     1      16.397   9.919  -2.160  1.00  0.00     0.029 C 
HETATM   10  C18 UNL     1      15.323   9.436  -1.247  1.00  0.00     0.124 C 
ENDROOT
BRANCH   7  11
HETATM   11  C8  UNL     1      17.504  11.073   1.170  1.00  0.00     0.188 C 
BRANCH  11  12
HETATM   12  O4  UNL     1      17.085  11.980   2.163  1.00  0.00    -0.304 OA
BRANCH  12  13
HETATM   13  C9  UNL     1      16.443  11.657   3.317  1.00  0.00     0.360 C 
HETATM   14  O5  UNL     1      15.855  12.571   3.939  1.00  0.00    -0.239 OA
HETATM   15  N2  UNL     1      16.384  10.350   3.883  1.00  0.00    -0.332 N 
ATOM     16  H2  UNL     1      16.853   9.583   3.401  1.00  0.00     0.165 HD
BRANCH  15  17
HETATM   17  C10 UNL     1      15.683  10.075   5.117  1.00  0.00     0.086 C 
HETATM   18  C11 UNL     1      14.266   9.752   4.809  1.00  0.00     0.025 C 
HETATM   19  C12 UNL     1      13.719   8.589   5.615  1.00  0.00     0.002 C 
HETATM   20  C13 UNL     1      14.128   8.814   7.042  1.00  0.00     0.000 C 
HETATM   21  C14 UNL     1      15.626   8.704   7.218  1.00  0.00     0.002 C 
HETATM   22  C15 UNL     1      16.384   9.076   5.979  1.00  0.00     0.025 C 
ENDBRANCH  15  17
ENDBRANCH  12  13
ENDBRANCH  11  12
ENDBRANCH   7  11
BRANCH   6  23
HETATM   23  O3  UNL     1      15.975   9.008   1.006  1.00  0.00    -0.387 OA
ATOM     24  H3  UNL     1      16.815   9.244   1.381  1.00  0.00     0.210 HD
ENDBRANCH   6  23
BRANCH   1  25
HETATM   25  O1  UNL     1      13.630   8.433  -3.490  1.00  0.00    -0.275 OA
BRANCH  25  26
HETATM   26  C2  UNL     1      13.880   8.644  -4.829  1.00  0.00     0.137 C 
HETATM   27  C1  UNL     1      14.685   9.604  -5.207  1.00  0.00     0.038 C 
ENDBRANCH  25  26
ENDBRANCH   1  25
TORSDOF 7
ENDMDL
MODEL 4
REMARK VINA RESULT: -8.134368458      1.418      2.110
REMARK  7 active torsions:
REMARK  status: ('A' for Active; 'I' for Inactive)
REMARK    1  A    between atoms: C2_2  and  O1_3 
REMARK    2  A    between atoms: O1_3  and  C3_4 
REMARK       I    between atoms: C3_4  and  N1_6 
REMARK    3  A    between atoms: C6_9  and  O3_10 
REMARK    4  A    between atoms: C7_12  and  C8_13 
REMARK    5  A    between atoms: C8_13  and  O4_14 
REMARK    6  A    between atoms: O4_14  and  C9_15 
REMARK       I    between atoms: C9_15  and  N2_17 
REMARK    7  A    between atoms: N2_17  and  C10_19 
ROOT
HETATM    1  C3  UNL     1      14.848   8.882   5.918  1.00  0.00     0.367 C 
HETATM    2  O2  UNL     1      13.827   8.156   6.028  1.00  0.00    -0.238 OA
HETATM    3  N1  UNL     1      15.242   9.479   4.691  1.00  0.00    -0.320 N 
HETATM    4  C4  UNL     1      14.512   9.312   3.453  1.00  0.00     0.132 C 
HETATM    5  C5  UNL     1      14.747  10.636   2.770  1.00  0.00     0.060 C 
HETATM    6  C6  UNL     1      16.164  10.950   3.156  1.00  0.00     0.085 C 
HETATM    7  C7  UNL     1      17.175  10.334   2.218  1.00  0.00     0.047 C 
HETATM    8  C16 UNL     1      18.331  10.019   3.175  1.00  0.00     0.012 C 
HETATM    9  C17 UNL     1      17.680   9.560   4.448  1.00  0.00     0.029 C 
HETATM   10  C18 UNL     1      16.398  10.316   4.509  1.00  0.00     0.124 C 
ENDROOT
BRANCH   7  11
HETATM   11  C8  UNL     1      17.575  11.352   1.220  1.00  0.00     0.188 C 
BRANCH  11  12
HETATM   12  O4  UNL     1      16.601  11.628   0.241  1.00  0.00    -0.304 OA
BRANCH  12  13
HETATM   13  C9  UNL     1      16.199  10.781  -0.744  1.00  0.00     0.360 C 
HETATM   14  O5  UNL     1      16.987   9.874  -1.096  1.00  0.00    -0.239 OA
HETATM   15  N2  UNL     1      14.942  10.841  -1.413  1.00  0.00    -0.332 N 
ATOM     16  H2  UNL     1      14.277  11.569  -1.149  1.00  0.00     0.165 HD
BRANCH  15  17
HETATM   17  C10 UNL     1      14.577   9.906  -2.454  1.00  0.00     0.086 C 
HETATM   18  C11 UNL     1      13.120   9.632  -2.372  1.00  0.00     0.025 C 
HETATM   19  C12 UNL     1      12.432   9.589  -3.723  1.00  0.00     0.002 C 
HETATM   20  C13 UNL     1      13.289   8.746  -4.624  1.00  0.00     0.000 C 
HETATM   21  C14 UNL     1      14.617   9.410  -4.914  1.00  0.00     0.002 C 
HETATM   22  C15 UNL     1      15.067  10.315  -3.805  1.00  0.00     0.025 C 
ENDBRANCH  15  17
ENDBRANCH  12  13
ENDBRANCH  11  12
ENDBRANCH   7  11
BRANCH   6  23
HETATM   23  O3  UNL     1      16.306  12.330   3.235  1.00  0.00    -0.387 OA
ATOM     24  H3  UNL     1      15.474  12.706   3.497  1.00  0.00     0.210 HD
ENDBRANCH   6  23
BRANCH   1  25
HETATM   25  O1  UNL     1      15.588   9.071   7.097  1.00  0.00    -0.275 OA
BRANCH  25  26
HETATM   26  C2  UNL     1      15.024   8.911   8.344  1.00  0.00     0.137 C 
HETATM   27  C1  UNL     1      14.538   9.942   8.987  1.00  0.00     0.038 C 
ENDBRANCH  25  26
ENDBRANCH   1  25
TORSDOF 7
ENDMDL
MODEL 5
REMARK VINA RESULT: -8.107119195      4.638      6.103
REMARK  7 active torsions:
REMARK  status: ('A' for Active; 'I' for Inactive)
REMARK    1  A    between atoms: C2_2  and  O1_3 
REMARK    2  A    between atoms: O1_3  and  C3_4 
REMARK       I    between atoms: C3_4  and  N1_6 
REMARK    3  A    between atoms: C6_9  and  O3_10 
REMARK    4  A    between atoms: C7_12  and  C8_13 
REMARK    5  A    between atoms: C8_13  and  O4_14 
REMARK    6  A    between atoms: O4_14  and  C9_15 
REMARK       I    between atoms: C9_15  and  N2_17 
REMARK    7  A    between atoms: N2_17  and  C10_19 
ROOT
HETATM    1  C3  UNL     1      22.440   5.943   3.626  1.00  0.00     0.367 C 
HETATM    2  O2  UNL     1      23.507   5.278   3.591  1.00  0.00    -0.238 OA
HETATM    3  N1  UNL     1      22.238   7.118   2.854  1.00  0.00    -0.320 N 
HETATM    4  C4  UNL     1      23.233   7.663   1.957  1.00  0.00     0.132 C 
HETATM    5  C5  UNL     1      22.377   8.268   0.871  1.00  0.00     0.060 C 
HETATM    6  C6  UNL     1      21.208   8.805   1.644  1.00  0.00     0.085 C 
HETATM    7  C7  UNL     1      21.449  10.200   2.173  1.00  0.00     0.047 C 
HETATM    8  C16 UNL     1      20.676  10.164   3.498  1.00  0.00     0.012 C 
HETATM    9  C17 UNL     1      20.904   8.788   4.054  1.00  0.00     0.029 C 
HETATM   10  C18 UNL     1      21.040   7.914   2.855  1.00  0.00     0.124 C 
ENDROOT
BRANCH   7  11
HETATM   11  C8  UNL     1      20.845  11.172   1.233  1.00  0.00     0.188 C 
BRANCH  11  12
HETATM   12  O4  UNL     1      19.597  11.682   1.637  1.00  0.00    -0.304 OA
BRANCH  12  13
HETATM   13  C9  UNL     1      18.484  11.770   0.862  1.00  0.00     0.360 C 
HETATM   14  O5  UNL     1      18.261  12.854   0.275  1.00  0.00    -0.239 OA
HETATM   15  N2  UNL     1      17.541  10.720   0.659  1.00  0.00    -0.332 N 
ATOM     16  H2  UNL     1      17.694   9.825   1.123  1.00  0.00     0.165 HD
BRANCH  15  17
HETATM   17  C10 UNL     1      16.376  10.882  -0.182  1.00  0.00     0.086 C 
HETATM   18  C11 UNL     1      16.636  10.249  -1.499  1.00  0.00     0.025 C 
HETATM   19  C12 UNL     1      15.458   9.459  -2.037  1.00  0.00     0.002 C 
HETATM   20  C13 UNL     1      14.238  10.318  -1.862  1.00  0.00     0.000 C 
HETATM   21  C14 UNL     1      13.902  10.520  -0.402  1.00  0.00     0.002 C 
HETATM   22  C15 UNL     1      15.110  10.452   0.486  1.00  0.00     0.025 C 
ENDBRANCH  15  17
ENDBRANCH  12  13
ENDBRANCH  11  12
ENDBRANCH   7  11
BRANCH   6  23
HETATM   23  O3  UNL     1      20.078   8.746   0.838  1.00  0.00    -0.387 OA
ATOM     24  H3  UNL     1      19.393   8.286   1.309  1.00  0.00     0.210 HD
ENDBRANCH   6  23
BRANCH   1  25
HETATM   25  O1  UNL     1      21.445   5.448   4.485  1.00  0.00    -0.275 OA
BRANCH  25  26
HETATM   26  C2  UNL     1      20.773   4.275   4.222  1.00  0.00     0.137 C 
HETATM   27  C1  UNL     1      19.465   4.241   4.260  1.00  0.00     0.038 C 
ENDBRANCH  25  26
ENDBRANCH   1  25
TORSDOF 7
ENDMDL
