MODEL 1
REMARK VINA RESULT: -8.858948476      0.000      0.000
REMARK  6 active torsions:
REMARK  status: ('A' for Active; 'I' for Inactive)
REMARK    1  A    between atoms: N1_4  and  C4_5 
REMARK    2  A    between atoms: C4_5  and  C5_6 
REMARK    3  A    between atoms: C4_5  and  C6_9 
REMARK    4  A    between atoms: C5_6  and  O1_7 
REMARK    5  A    between atoms: C7_15  and  N4_16 
REMARK       I    between atoms: N4_16  and  C8_18 
REMARK    6  A    between atoms: C8_18  and  C9_20 
ROOT
HETATM    1  C6  UNL     1      17.618  10.620   2.683  1.00  0.00     0.127 A 
HETATM    2  N2  UNL     1      17.440  11.418   3.779  1.00  0.00    -0.236 N 
ATOM      3  H2  UNL     1      16.653  12.051   3.924  1.00  0.00     0.197 HD
HETATM    4  O2  UNL     1      18.415  11.248   4.598  1.00  0.00    -0.155 OA
HETATM    5  N3  UNL     1      19.273  10.377   4.149  1.00  0.00    -0.223 N 
ATOM      6  H3  UNL     1      20.132  10.071   4.606  1.00  0.00     0.198 HD
HETATM    7  C7  UNL     1      18.802   9.964   2.966  1.00  0.00     0.161 A 
ENDROOT
BRANCH   1   8
HETATM    8  C4  UNL     1      16.854  10.560   1.414  1.00  0.00     0.064 C 
BRANCH   8   9
HETATM    9  N1  UNL     1      15.561  10.108   1.396  1.00  0.00    -0.380 N 
HETATM   10  C3  UNL     1      14.486  10.469   2.160  1.00  0.00     0.127 C 
HETATM   11  C2  UNL     1      13.205  10.119   1.381  1.00  0.00     0.005 C 
HETATM   12  C1  UNL     1      12.588   8.818   1.922  1.00  0.00     0.012 C 
HETATM   13  C17 UNL     1      13.641   9.805  -0.025  1.00  0.00     0.005 C 
HETATM   14  C16 UNL     1      15.112   9.701   0.062  1.00  0.00     0.127 C 
HETATM   15  C18 UNL     1      13.281  10.834  -1.038  1.00  0.00     0.012 C 
ENDBRANCH   8   9
BRANCH   8  16
HETATM   16  C5  UNL     1      17.398  11.474   0.341  1.00  0.00     0.223 C 
BRANCH  16  17
HETATM   17  O1  UNL     1      17.825  12.693   0.874  1.00  0.00    -0.395 OA
ATOM     18  H1  UNL     1      18.772  12.765   0.865  1.00  0.00     0.209 HD
ENDBRANCH  16  17
ENDBRANCH   8  16
ENDBRANCH   1   8
BRANCH   7  19
HETATM   19  N4  UNL     1      19.286   9.046   2.237  1.00  0.00    -0.309 N 
HETATM   20  C8  UNL     1      20.324   9.088   1.308  1.00  0.00     0.231 C 
HETATM   21  O3  UNL     1      20.198   9.445   0.098  1.00  0.00    -0.272 OA
ATOM     22  H4  UNL     1      18.846   8.133   2.349  1.00  0.00     0.170 HD
BRANCH  20  23
HETATM   23  C9  UNL     1      21.725   8.680   1.725  1.00  0.00     0.037 C 
HETATM   24  C10 UNL     1      22.333   9.929   2.369  1.00  0.00     0.025 C 
HETATM   25  C11 UNL     1      21.610   7.600   2.738  1.00  0.00     0.019 C 
HETATM   26  C12 UNL     1      22.417   6.373   2.464  1.00  0.00     0.001 C 
HETATM   27  C13 UNL     1      23.820   6.839   2.048  1.00  0.00     0.000 C 
HETATM   28  C14 UNL     1      23.673   7.416   0.687  1.00  0.00     0.001 C 
HETATM   29  C15 UNL     1      22.505   8.349   0.512  1.00  0.00     0.019 C 
ENDBRANCH  20  23
ENDBRANCH   7  19
TORSDOF 6
ENDMDL
MODEL 2
REMARK VINA RESULT: -8.781412457      3.411      5.674
REMARK  6 active torsions:
REMARK  status: ('A' for Active; 'I' for Inactive)
REMARK    1  A    between atoms: N1_4  and  C4_5 
REMARK    2  A    between atoms: C4_5  and  C5_6 
REMARK    3  A    between atoms: C4_5  and  C6_9 
REMARK    4  A    between atoms: C5_6  and  O1_7 
REMARK    5  A    between atoms: C7_15  and  N4_16 
REMARK       I    between atoms: N4_16  and  C8_18 
REMARK    6  A    between atoms: C8_18  and  C9_20 
ROOT
HETATM    1  C6  UNL     1      17.418  11.515   0.974  1.00  0.00     0.127 A 
HETATM    2  N2  UNL     1      17.787  12.829   1.032  1.00  0.00    -0.236 N 
ATOM      3  H2  UNL     1      17.915  13.441   0.225  1.00  0.00     0.197 HD
HETATM    4  O2  UNL     1      17.950  13.177   2.259  1.00  0.00    -0.155 OA
HETATM    5  N3  UNL     1      17.717  12.188   3.073  1.00  0.00    -0.223 N 
ATOM      6  H3  UNL     1      17.780  12.204   4.091  1.00  0.00     0.198 HD
HETATM    7  C7  UNL     1      17.377  11.145   2.306  1.00  0.00     0.161 A 
ENDROOT
BRANCH   1   8
HETATM    8  C4  UNL     1      17.254  10.622  -0.198  1.00  0.00     0.064 C 
BRANCH   8   9
HETATM    9  N1  UNL     1      16.014  10.384  -0.729  1.00  0.00    -0.380 N 
HETATM   10  C3  UNL     1      14.917  11.196  -0.815  1.00  0.00     0.127 C 
HETATM   11  C2  UNL     1      14.034  10.689  -1.970  1.00  0.00     0.005 C 
HETATM   12  C1  UNL     1      12.844   9.886  -1.420  1.00  0.00     0.012 C 
HETATM   13  C17 UNL     1      14.871   9.697  -2.733  1.00  0.00     0.005 C 
HETATM   14  C16 UNL     1      16.042   9.459  -1.865  1.00  0.00     0.127 C 
HETATM   15  C18 UNL     1      15.337  10.166  -4.067  1.00  0.00     0.012 C 
ENDBRANCH   8   9
BRANCH   8  16
HETATM   16  C5  UNL     1      18.518  10.457  -1.009  1.00  0.00     0.223 C 
BRANCH  16  17
HETATM   17  O1  UNL     1      19.585  11.161  -0.446  1.00  0.00    -0.395 OA
ATOM     18  H1  UNL     1      20.371  11.084  -0.973  1.00  0.00     0.209 HD
ENDBRANCH  16  17
ENDBRANCH   8  16
ENDBRANCH   1   8
BRANCH   7  19
HETATM   19  N4  UNL     1      16.979  10.009   2.706  1.00  0.00    -0.309 N 
HETATM   20  C8  UNL     1      16.239   9.662   3.835  1.00  0.00     0.231 C 
HETATM   21  O3  UNL     1      16.728   9.462   4.988  1.00  0.00    -0.272 OA
ATOM     22  H4  UNL     1      17.242   9.227   2.107  1.00  0.00     0.170 HD
BRANCH  20  23
HETATM   23  C9  UNL     1      14.735   9.492   3.727  1.00  0.00     0.037 C 
HETATM   24  C10 UNL     1      14.286   8.991   5.102  1.00  0.00     0.025 C 
HETATM   25  C11 UNL     1      14.137  10.825   3.459  1.00  0.00     0.019 C 
HETATM   26  C12 UNL     1      13.205  10.890   2.293  1.00  0.00     0.001 C 
HETATM   27  C13 UNL     1      12.270   9.676   2.395  1.00  0.00     0.000 C 
HETATM   28  C14 UNL     1      13.099   8.490   2.055  1.00  0.00     0.001 C 
HETATM   29  C15 UNL     1      14.446   8.442   2.726  1.00  0.00     0.019 C 
ENDBRANCH  20  23
ENDBRANCH   7  19
TORSDOF 6
ENDMDL
MODEL 3
REMARK VINA RESULT: -8.609675392      0.570      1.270
REMARK  6 active torsions:
REMARK  status: ('A' for Active; 'I' for Inactive)
REMARK    1  A    between atoms: N1_4  and  C4_5 
REMARK    2  A    between atoms: C4_5  and  C5_6 
REMARK    3  A    between atoms: C4_5  and  C6_9 
REMARK    4  A    between atoms: C5_6  and  O1_7 
REMARK    5  A    between atoms: C7_15  and  N4_16 
REMARK       I    between atoms: N4_16  and  C8_18 
REMARK    6  A    between atoms: C8_18  and  C9_20 
ROOT
HETATM    1  C6  UNL     1      17.704  10.574   2.567  1.00  0.00     0.127 A 
HETATM    2  N2  UNL     1      17.537  11.296   3.716  1.00  0.00    -0.236 N 
ATOM      3  H2  UNL     1      16.731  11.884   3.930  1.00  0.00     0.197 HD
HETATM    4  O2  UNL     1      18.552  11.119   4.486  1.00  0.00    -0.155 OA
HETATM    5  N3  UNL     1      19.426  10.315   3.951  1.00  0.00    -0.223 N 
ATOM      6  H3  UNL     1      20.314  10.019   4.356  1.00  0.00     0.198 HD
HETATM    7  C7  UNL     1      18.924   9.955   2.763  1.00  0.00     0.161 A 
ENDROOT
BRANCH   1   8
HETATM    8  C4  UNL     1      16.892  10.559   1.326  1.00  0.00     0.064 C 
BRANCH   8   9
HETATM    9  N1  UNL     1      15.596  10.117   1.344  1.00  0.00    -0.380 N 
HETATM   10  C3  UNL     1      14.544  10.487   2.136  1.00  0.00     0.127 C 
HETATM   11  C2  UNL     1      13.240  10.146   1.392  1.00  0.00     0.005 C 
HETATM   12  C1  UNL     1      12.628   8.851   1.952  1.00  0.00     0.012 C 
HETATM   13  C17 UNL     1      13.636   9.826  -0.024  1.00  0.00     0.005 C 
HETATM   14  C16 UNL     1      15.108   9.711   0.023  1.00  0.00     0.127 C 
HETATM   15  C18 UNL     1      13.256  10.856  -1.029  1.00  0.00     0.012 C 
ENDBRANCH   8   9
BRANCH   8  16
HETATM   16  C5  UNL     1      17.403  11.500   0.262  1.00  0.00     0.223 C 
BRANCH  16  17
HETATM   17  O1  UNL     1      17.820  12.716   0.810  1.00  0.00    -0.395 OA
ATOM     18  H1  UNL     1      17.743  13.426   0.183  1.00  0.00     0.209 HD
ENDBRANCH  16  17
ENDBRANCH   8  16
ENDBRANCH   1   8
BRANCH   7  19
HETATM   19  N4  UNL     1      19.415   9.105   1.961  1.00  0.00    -0.309 N 
HETATM   20  C8  UNL     1      20.492   9.214   1.083  1.00  0.00     0.231 C 
HETATM   21  O3  UNL     1      20.426   9.698  -0.087  1.00  0.00    -0.272 OA
ATOM     22  H4  UNL     1      18.949   8.198   1.958  1.00  0.00     0.170 HD
BRANCH  20  23
HETATM   23  C9  UNL     1      21.864   8.724   1.508  1.00  0.00     0.037 C 
HETATM   24  C10 UNL     1      22.609   8.431   0.204  1.00  0.00     0.025 C 
HETATM   25  C11 UNL     1      22.544   9.827   2.237  1.00  0.00     0.019 C 
HETATM   26  C12 UNL     1      23.106   9.466   3.572  1.00  0.00     0.001 C 
HETATM   27  C13 UNL     1      23.850   8.133   3.403  1.00  0.00     0.000 C 
HETATM   28  C14 UNL     1      22.800   7.097   3.225  1.00  0.00     0.001 C 
HETATM   29  C15 UNL     1      21.707   7.458   2.256  1.00  0.00     0.019 C 
ENDBRANCH  20  23
ENDBRANCH   7  19
TORSDOF 6
ENDMDL
MODEL 4
REMARK VINA RESULT: -8.363167515      1.121      1.794
REMARK  6 active torsions:
REMARK  status: ('A' for Active; 'I' for Inactive)
REMARK    1  A    between atoms: N1_4  and  C4_5 
REMARK    2  A    between atoms: C4_5  and  C5_6 
REMARK    3  A    between atoms: C4_5  and  C6_9 
REMARK    4  A    between atoms: C5_6  and  O1_7 
REMARK    5  A    between atoms: C7_15  and  N4_16 
REMARK       I    between atoms: N4_16  and  C8_18 
REMARK    6  A    between atoms: C8_18  and  C9_20 
ROOT
HETATM    1  C6  UNL     1      17.694  10.881   2.029  1.00  0.00     0.127 A 
HETATM    2  N2  UNL     1      17.339  11.850   2.926  1.00  0.00    -0.236 N 
ATOM      3  H2  UNL     1      16.685  12.611   2.742  1.00  0.00     0.197 HD
HETATM    4  O2  UNL     1      17.956  11.654   4.037  1.00  0.00    -0.155 OA
HETATM    5  N3  UNL     1      18.725  10.604   3.980  1.00  0.00    -0.223 N 
ATOM      6  H3  UNL     1      19.320  10.240   4.724  1.00  0.00     0.198 HD
HETATM    7  C7  UNL     1      18.578  10.099   2.749  1.00  0.00     0.161 A 
ENDROOT
BRANCH   1   8
HETATM    8  C4  UNL     1      17.370  10.753   0.587  1.00  0.00     0.064 C 
BRANCH   8   9
HETATM    9  N1  UNL     1      16.079  10.556   0.175  1.00  0.00    -0.380 N 
HETATM   10  C3  UNL     1      15.581  10.249  -1.061  1.00  0.00     0.127 C 
HETATM   11  C2  UNL     1      14.207   9.582  -0.872  1.00  0.00     0.005 C 
HETATM   12  C1  UNL     1      13.079  10.588  -1.158  1.00  0.00     0.012 C 
HETATM   13  C17 UNL     1      14.095   9.258   0.594  1.00  0.00     0.005 C 
HETATM   14  C16 UNL     1      15.224   9.979   1.216  1.00  0.00     0.127 C 
HETATM   15  C18 UNL     1      14.195   7.811   0.926  1.00  0.00     0.012 C 
ENDBRANCH   8   9
BRANCH   8  16
HETATM   16  C5  UNL     1      18.418  11.354  -0.319  1.00  0.00     0.223 C 
BRANCH  16  17
HETATM   17  O1  UNL     1      18.722  12.667   0.048  1.00  0.00    -0.395 OA
ATOM     18  H1  UNL     1      18.864  13.218  -0.714  1.00  0.00     0.209 HD
ENDBRANCH  16  17
ENDBRANCH   8  16
ENDBRANCH   1   8
BRANCH   7  19
HETATM   19  N4  UNL     1      19.077   9.020   2.310  1.00  0.00    -0.309 N 
HETATM   20  C8  UNL     1      20.350   8.758   1.805  1.00  0.00     0.231 C 
HETATM   21  O3  UNL     1      20.707   8.955   0.604  1.00  0.00    -0.272 OA
ATOM     22  H4  UNL     1      18.449   8.217   2.329  1.00  0.00     0.170 HD
BRANCH  20  23
HETATM   23  C9  UNL     1      21.420   8.188   2.717  1.00  0.00     0.037 C 
HETATM   24  C10 UNL     1      22.232   9.397   3.189  1.00  0.00     0.025 C 
HETATM   25  C11 UNL     1      20.746   7.553   3.879  1.00  0.00     0.019 C 
HETATM   26  C12 UNL     1      21.163   6.150   4.176  1.00  0.00     0.001 C 
HETATM   27  C13 UNL     1      22.697   6.111   4.109  1.00  0.00     0.000 C 
HETATM   28  C14 UNL     1      23.047   6.233   2.670  1.00  0.00     0.001 C 
HETATM   29  C15 UNL     1      22.304   7.308   1.923  1.00  0.00     0.019 C 
ENDBRANCH  20  23
ENDBRANCH   7  19
TORSDOF 6
ENDMDL
MODEL 5
REMARK VINA RESULT: -8.344259332      1.249      2.102
REMARK  6 active torsions:
REMARK  status: ('A' for Active; 'I' for Inactive)
REMARK    1  A    between atoms: N1_4  and  C4_5 
REMARK    2  A    between atoms: C4_5  and  C5_6 
REMARK    3  A    between atoms: C4_5  and  C6_9 
REMARK    4  A    between atoms: C5_6  and  O1_7 
REMARK    5  A    between atoms: C7_15  and  N4_16 
REMARK       I    between atoms: N4_16  and  C8_18 
REMARK    6  A    between atoms: C8_18  and  C9_20 
ROOT
HETATM    1  C6  UNL     1      17.427  10.996   1.978  1.00  0.00     0.127 A 
HETATM    2  N2  UNL     1      16.996  12.024   2.769  1.00  0.00    -0.236 N 
ATOM      3  H2  UNL     1      16.337  12.749   2.486  1.00  0.00     0.197 HD
HETATM    4  O2  UNL     1      17.549  11.936   3.927  1.00  0.00    -0.155 OA
HETATM    5  N3  UNL     1      18.344  10.907   4.002  1.00  0.00    -0.223 N 
ATOM      6  H3  UNL     1      18.901  10.621   4.807  1.00  0.00     0.198 HD
HETATM    7  C7  UNL     1      18.284  10.301   2.810  1.00  0.00     0.161 A 
ENDROOT
BRANCH   1   8
HETATM    8  C4  UNL     1      17.194  10.744   0.535  1.00  0.00     0.064 C 
BRANCH   8   9
HETATM    9  N1  UNL     1      15.942  10.439   0.071  1.00  0.00    -0.380 N 
HETATM   10  C3  UNL     1      15.528  10.056  -1.175  1.00  0.00     0.127 C 
HETATM   11  C2  UNL     1      14.198   9.295  -1.025  1.00  0.00     0.005 C 
HETATM   12  C1  UNL     1      13.016  10.205  -1.399  1.00  0.00     0.012 C 
HETATM   13  C17 UNL     1      14.040   9.012   0.444  1.00  0.00     0.005 C 
HETATM   14  C16 UNL     1      15.082   9.834   1.091  1.00  0.00     0.127 C 
HETATM   15  C18 UNL     1      14.228   7.587   0.831  1.00  0.00     0.012 C 
ENDBRANCH   8   9
BRANCH   8  16
HETATM   16  C5  UNL     1      18.257  11.340  -0.358  1.00  0.00     0.223 C 
BRANCH  16  17
HETATM   17  O1  UNL     1      18.604  12.631   0.048  1.00  0.00    -0.395 OA
ATOM     18  H1  UNL     1      19.527  12.805  -0.096  1.00  0.00     0.209 HD
ENDBRANCH  16  17
ENDBRANCH   8  16
ENDBRANCH   1   8
BRANCH   7  19
HETATM   19  N4  UNL     1      18.834   9.204   2.490  1.00  0.00    -0.309 N 
HETATM   20  C8  UNL     1      20.101   8.953   1.966  1.00  0.00     0.231 C 
HETATM   21  O3  UNL     1      20.399   9.011   0.734  1.00  0.00    -0.272 OA
ATOM     22  H4  UNL     1      18.259   8.375   2.641  1.00  0.00     0.170 HD
BRANCH  20  23
HETATM   23  C9  UNL     1      21.239   8.570   2.894  1.00  0.00     0.037 C 
HETATM   24  C10 UNL     1      20.575   7.835   4.062  1.00  0.00     0.025 C 
HETATM   25  C11 UNL     1      22.140   7.642   2.164  1.00  0.00     0.019 C 
HETATM   26  C12 UNL     1      23.588   8.009   2.175  1.00  0.00     0.001 C 
HETATM   27  C13 UNL     1      23.945   8.391   3.619  1.00  0.00     0.000 C 
HETATM   28  C14 UNL     1      23.297   9.705   3.868  1.00  0.00     0.001 C 
HETATM   29  C15 UNL     1      21.866   9.806   3.412  1.00  0.00     0.019 C 
ENDBRANCH  20  23
ENDBRANCH   7  19
TORSDOF 6
ENDMDL
