MODEL 1
REMARK VINA RESULT: -8.720936823      0.000      0.000
REMARK  9 active torsions:
REMARK  status: ('A' for Active; 'I' for Inactive)
REMARK    1  A    between atoms: C3_5  and  N2_6 
REMARK    2  A    between atoms: N2_6  and  C4_8 
REMARK    3  A    between atoms: C4_8  and  C5_9 
REMARK    4  A    between atoms: C5_9  and  C6_10 
REMARK    5  A    between atoms: C6_10  and  C7_11 
REMARK    6  A    between atoms: C7_11  and  O1_12 
REMARK    7  A    between atoms: O1_12  and  N3_13 
REMARK    8  A    between atoms: C8_18  and  N5_19 
REMARK    9  A    between atoms: N5_19  and  C9_21 
ROOT
HETATM    1  C1  UNL     1      14.383   9.638   5.077  1.00  0.00     0.070 C 
HETATM    2  C2  UNL     1      15.229   9.939   3.878  1.00  0.00     0.047 A 
HETATM    3  N1  UNL     1      16.531  10.237   4.014  1.00  0.00    -0.194 N 
ATOM      4  H1  UNL     1      16.942  10.258   4.947  1.00  0.00     0.184 HD
HETATM    5  C3  UNL     1      17.305  10.510   2.949  1.00  0.00     0.679 A 
HETATM    6  N4  UNL     1      16.740  10.473   1.753  1.00  0.00    -0.175 N 
ATOM      7  H4  UNL     1      17.328  10.678   0.945  1.00  0.00     0.186 HD
HETATM    8  C8  UNL     1      15.412  10.177   1.522  1.00  0.00     0.144 A 
HETATM    9  C18 UNL     1      14.635   9.902   2.622  1.00  0.00     0.111 A 
HETATM   10  C19 UNL     1      13.220   9.569   2.525  1.00  0.00     0.105 C 
HETATM   11  N7  UNL     1      12.103   9.298   2.476  1.00  0.00    -0.191 NA
ENDROOT
BRANCH   8  12
HETATM   12  N5  UNL     1      14.996  10.166   0.391  1.00  0.00    -0.343 N 
ATOM     13  H5  UNL     1      14.167  10.758   0.452  1.00  0.00     0.167 HD
BRANCH  12  14
HETATM   14  C9  UNL     1      15.009   9.814  -0.896  1.00  0.00     0.032 C 
HETATM   15  C10 UNL     1      14.823   8.543  -1.432  1.00  0.00     0.111 C 
HETATM   16  N6  UNL     1      14.928   8.681  -2.801  1.00  0.00    -0.387 N 
HETATM   17  C11 UNL     1      16.091   9.614  -2.905  1.00  0.00     0.133 C 
HETATM   18  C17 UNL     1      14.258   8.436  -4.021  1.00  0.00     0.131 C 
HETATM   19  C12 UNL     1      15.177  10.658  -2.173  1.00  0.00     0.056 C 
HETATM   20  C13 UNL     1      13.865  10.659  -2.864  1.00  0.00     0.022 C 
HETATM   21  C14 UNL     1      13.663   9.927  -4.159  1.00  0.00    -0.031 C 
HETATM   22  C15 UNL     1      12.190   9.700  -4.356  1.00  0.00     0.016 C 
HETATM   23  C16 UNL     1      14.223  10.578  -5.373  1.00  0.00     0.016 C 
ENDBRANCH  12  14
ENDBRANCH   8  12
BRANCH   5  24
HETATM   24  N2  UNL     1      18.572  10.812   3.108  1.00  0.00    -0.226 N 
ATOM     25  H2  UNL     1      18.863  11.764   3.332  1.00  0.00     0.177 HD
BRANCH  24  26
HETATM   26  C4  UNL     1      19.570   9.721   2.951  1.00  0.00     0.138 C 
BRANCH  26  27
HETATM   27  C5  UNL     1      20.938  10.226   3.214  1.00  0.00     0.022 C 
BRANCH  27  28
HETATM   28  C6  UNL     1      21.447  11.158   2.183  1.00  0.00     0.030 C 
BRANCH  28  29
HETATM   29  C7  UNL     1      21.307  10.789   0.755  1.00  0.00     0.208 C 
BRANCH  29  30
HETATM   30  O1  UNL     1      20.508  11.691   0.043  1.00  0.00    -0.221 OA
BRANCH  30  31
HETATM   31  N3  UNL     1      19.212  11.433  -0.289  1.00  0.00     0.004 N 
HETATM   32  O2  UNL     1      18.787  10.273  -0.577  1.00  0.00    -0.511 OA
HETATM   33  O3  UNL     1      18.272  12.457  -0.329  1.00  0.00    -0.511 OA
ENDBRANCH  30  31
ENDBRANCH  29  30
ENDBRANCH  28  29
ENDBRANCH  27  28
ENDBRANCH  26  27
ENDBRANCH  24  26
ENDBRANCH   5  24
TORSDOF 9
ENDMDL
MODEL 2
REMARK VINA RESULT: -8.484864873      1.232      1.755
REMARK  9 active torsions:
REMARK  status: ('A' for Active; 'I' for Inactive)
REMARK    1  A    between atoms: C3_5  and  N2_6 
REMARK    2  A    between atoms: N2_6  and  C4_8 
REMARK    3  A    between atoms: C4_8  and  C5_9 
REMARK    4  A    between atoms: C5_9  and  C6_10 
REMARK    5  A    between atoms: C6_10  and  C7_11 
REMARK    6  A    between atoms: C7_11  and  O1_12 
REMARK    7  A    between atoms: O1_12  and  N3_13 
REMARK    8  A    between atoms: C8_18  and  N5_19 
REMARK    9  A    between atoms: N5_19  and  C9_21 
ROOT
HETATM    1  C1  UNL     1      15.187  10.133   5.492  1.00  0.00     0.070 C 
HETATM    2  C2  UNL     1      16.066   9.881   4.305  1.00  0.00     0.047 A 
HETATM    3  N1  UNL     1      17.273   9.313   4.454  1.00  0.00    -0.194 N 
ATOM      4  H1  UNL     1      17.590   9.054   5.388  1.00  0.00     0.184 HD
HETATM    5  C3  UNL     1      18.075   9.078   3.400  1.00  0.00     0.679 A 
HETATM    6  N4  UNL     1      17.634   9.426   2.202  1.00  0.00    -0.175 N 
ATOM      7  H4  UNL     1      18.241   9.247   1.402  1.00  0.00     0.186 HD
HETATM    8  C8  UNL     1      16.409  10.014   1.959  1.00  0.00     0.144 A 
HETATM    9  C18 UNL     1      15.602  10.248   3.047  1.00  0.00     0.111 A 
HETATM   10  C19 UNL     1      14.284  10.856   2.936  1.00  0.00     0.105 C 
HETATM   11  N7  UNL     1      13.236  11.329   2.876  1.00  0.00    -0.191 NA
ENDROOT
BRANCH   8  12
HETATM   12  N5  UNL     1      16.099  10.289   0.827  1.00  0.00    -0.343 N 
ATOM     13  H5  UNL     1      16.844  10.922   0.538  1.00  0.00     0.167 HD
BRANCH  12  14
HETATM   14  C9  UNL     1      15.327  10.231  -0.260  1.00  0.00     0.032 C 
HETATM   15  C10 UNL     1      14.855  11.293  -1.026  1.00  0.00     0.111 C 
HETATM   16  N6  UNL     1      14.102  10.736  -2.038  1.00  0.00    -0.387 N 
HETATM   17  C11 UNL     1      13.358   9.678  -1.289  1.00  0.00     0.133 C 
HETATM   18  C17 UNL     1      13.949  10.682  -3.442  1.00  0.00     0.131 C 
HETATM   19  C12 UNL     1      14.763   9.027  -1.035  1.00  0.00     0.056 C 
HETATM   20  C13 UNL     1      15.471   8.981  -2.337  1.00  0.00     0.022 C 
HETATM   21  C14 UNL     1      14.767   9.306  -3.623  1.00  0.00    -0.031 C 
HETATM   22  C15 UNL     1      15.800   9.646  -4.661  1.00  0.00     0.016 C 
HETATM   23  C16 UNL     1      13.863   8.254  -4.158  1.00  0.00     0.016 C 
ENDBRANCH  12  14
ENDBRANCH   8  12
BRANCH   5  24
HETATM   24  N2  UNL     1      19.258   8.535   3.572  1.00  0.00    -0.226 N 
ATOM     25  H2  UNL     1      19.418   7.841   4.303  1.00  0.00     0.177 HD
BRANCH  24  26
HETATM   26  C4  UNL     1      20.355   8.963   2.667  1.00  0.00     0.138 C 
BRANCH  26  27
HETATM   27  C5  UNL     1      21.065  10.136   3.229  1.00  0.00     0.022 C 
BRANCH  27  28
HETATM   28  C6  UNL     1      21.488  11.130   2.216  1.00  0.00     0.030 C 
BRANCH  28  29
HETATM   29  C7  UNL     1      21.351  10.789   0.782  1.00  0.00     0.208 C 
BRANCH  29  30
HETATM   30  O1  UNL     1      20.531  11.690   0.091  1.00  0.00    -0.221 OA
BRANCH  30  31
HETATM   31  N3  UNL     1      19.248  11.402  -0.266  1.00  0.00     0.004 N 
HETATM   32  O2  UNL     1      18.855  10.233  -0.560  1.00  0.00    -0.511 OA
HETATM   33  O3  UNL     1      18.287  12.405  -0.329  1.00  0.00    -0.511 OA
ENDBRANCH  30  31
ENDBRANCH  29  30
ENDBRANCH  28  29
ENDBRANCH  27  28
ENDBRANCH  26  27
ENDBRANCH  24  26
ENDBRANCH   5  24
TORSDOF 9
ENDMDL
MODEL 3
REMARK VINA RESULT: -8.483244751      0.975      1.234
REMARK  9 active torsions:
REMARK  status: ('A' for Active; 'I' for Inactive)
REMARK    1  A    between atoms: C3_5  and  N2_6 
REMARK    2  A    between atoms: N2_6  and  C4_8 
REMARK    3  A    between atoms: C4_8  and  C5_9 
REMARK    4  A    between atoms: C5_9  and  C6_10 
REMARK    5  A    between atoms: C6_10  and  C7_11 
REMARK    6  A    between atoms: C7_11  and  O1_12 
REMARK    7  A    between atoms: O1_12  and  N3_13 
REMARK    8  A    between atoms: C8_18  and  N5_19 
REMARK    9  A    between atoms: N5_19  and  C9_21 
ROOT
HETATM    1  C1  UNL     1      13.659   9.085   5.038  1.00  0.00     0.070 C 
HETATM    2  C2  UNL     1      14.682   9.599   4.071  1.00  0.00     0.047 A 
HETATM    3  N1  UNL     1      15.906   9.953   4.491  1.00  0.00    -0.194 N 
ATOM      4  H1  UNL     1      16.137   9.870   5.481  1.00  0.00     0.184 HD
HETATM    5  C3  UNL     1      16.837  10.415   3.637  1.00  0.00     0.679 A 
HETATM    6  N4  UNL     1      16.506  10.510   2.360  1.00  0.00    -0.175 N 
ATOM      7  H4  UNL     1      17.212  10.859   1.712  1.00  0.00     0.186 HD
HETATM    8  C8  UNL     1      15.273  10.170   1.843  1.00  0.00     0.144 A 
HETATM    9  C18 UNL     1      14.333   9.700   2.729  1.00  0.00     0.111 A 
HETATM   10  C19 UNL     1      12.994   9.299   2.321  1.00  0.00     0.105 C 
HETATM   11  N7  UNL     1      11.931   8.970   2.024  1.00  0.00    -0.191 NA
ENDROOT
BRANCH   8  12
HETATM   12  N5  UNL     1      15.073  10.289   0.660  1.00  0.00    -0.343 N 
ATOM     13  H5  UNL     1      14.658  11.219   0.596  1.00  0.00     0.167 HD
BRANCH  12  14
HETATM   14  C9  UNL     1      15.090   9.889  -0.613  1.00  0.00     0.032 C 
HETATM   15  C10 UNL     1      14.838   8.612  -1.106  1.00  0.00     0.111 C 
HETATM   16  N6  UNL     1      14.976   8.692  -2.476  1.00  0.00    -0.387 N 
HETATM   17  C11 UNL     1      16.196   9.548  -2.589  1.00  0.00     0.133 C 
HETATM   18  C17 UNL     1      14.316   8.441  -3.700  1.00  0.00     0.131 C 
HETATM   19  C12 UNL     1      15.332  10.672  -1.916  1.00  0.00     0.056 C 
HETATM   20  C13 UNL     1      14.037  10.725  -2.634  1.00  0.00     0.022 C 
HETATM   21  C14 UNL     1      13.815   9.958  -3.906  1.00  0.00    -0.031 C 
HETATM   22  C15 UNL     1      12.335   9.812  -4.125  1.00  0.00     0.016 C 
HETATM   23  C16 UNL     1      14.437  10.528  -5.131  1.00  0.00     0.016 C 
ENDBRANCH  12  14
ENDBRANCH   8  12
BRANCH   5  24
HETATM   24  N2  UNL     1      18.023  10.768   4.074  1.00  0.00    -0.226 N 
ATOM     25  H2  UNL     1      18.370  11.719   3.948  1.00  0.00     0.177 HD
BRANCH  24  26
HETATM   26  C4  UNL     1      18.844   9.736   4.759  1.00  0.00     0.138 C 
BRANCH  26  27
HETATM   27  C5  UNL     1      20.195   9.661   4.153  1.00  0.00     0.022 C 
BRANCH  27  28
HETATM   28  C6  UNL     1      20.299   8.711   3.023  1.00  0.00     0.030 C 
BRANCH  28  29
HETATM   29  C7  UNL     1      20.480   9.246   1.654  1.00  0.00     0.208 C 
BRANCH  29  30
HETATM   30  O1  UNL     1      19.400  10.036   1.240  1.00  0.00    -0.221 OA
BRANCH  30  31
HETATM   31  N3  UNL     1      19.510  11.372   0.992  1.00  0.00     0.004 N 
HETATM   32  O2  UNL     1      19.140  12.263   1.816  1.00  0.00    -0.511 OA
HETATM   33  O3  UNL     1      20.045  11.830  -0.206  1.00  0.00    -0.511 OA
ENDBRANCH  30  31
ENDBRANCH  29  30
ENDBRANCH  28  29
ENDBRANCH  27  28
ENDBRANCH  26  27
ENDBRANCH  24  26
ENDBRANCH   5  24
TORSDOF 9
ENDMDL
MODEL 4
REMARK VINA RESULT: -8.374657529      2.347      4.777
REMARK  9 active torsions:
REMARK  status: ('A' for Active; 'I' for Inactive)
REMARK    1  A    between atoms: C3_5  and  N2_6 
REMARK    2  A    between atoms: N2_6  and  C4_8 
REMARK    3  A    between atoms: C4_8  and  C5_9 
REMARK    4  A    between atoms: C5_9  and  C6_10 
REMARK    5  A    between atoms: C6_10  and  C7_11 
REMARK    6  A    between atoms: C7_11  and  O1_12 
REMARK    7  A    between atoms: O1_12  and  N3_13 
REMARK    8  A    between atoms: C8_18  and  N5_19 
REMARK    9  A    between atoms: N5_19  and  C9_21 
ROOT
HETATM    1  C1  UNL     1      21.140  10.379   2.767  1.00  0.00     0.070 C 
HETATM    2  C2  UNL     1      19.685  10.026   2.724  1.00  0.00     0.047 A 
HETATM    3  N1  UNL     1      19.120   9.324   3.719  1.00  0.00    -0.194 N 
ATOM      4  H1  UNL     1      19.692   9.032   4.511  1.00  0.00     0.184 HD
HETATM    5  C3  UNL     1      17.815   8.998   3.698  1.00  0.00     0.679 A 
HETATM    6  N4  UNL     1      17.100   9.394   2.657  1.00  0.00    -0.175 N 
ATOM      7  H4  UNL     1      16.110   9.148   2.641  1.00  0.00     0.186 HD
HETATM    8  C8  UNL     1      17.599  10.116   1.592  1.00  0.00     0.144 A 
HETATM    9  C18 UNL     1      18.935  10.439   1.630  1.00  0.00     0.111 A 
HETATM   10  C19 UNL     1      19.593  11.202   0.577  1.00  0.00     0.105 C 
HETATM   11  N7  UNL     1      20.135  11.807  -0.237  1.00  0.00    -0.191 NA
ENDROOT
BRANCH   8  12
HETATM   12  N5  UNL     1      16.861  10.432   0.693  1.00  0.00    -0.343 N 
ATOM     13  H5  UNL     1      17.128  11.400   0.515  1.00  0.00     0.167 HD
BRANCH  12  14
HETATM   14  C9  UNL     1      15.892  10.226  -0.201  1.00  0.00     0.032 C 
HETATM   15  C10 UNL     1      14.913  11.125  -0.615  1.00  0.00     0.111 C 
HETATM   16  N6  UNL     1      14.143  10.458  -1.544  1.00  0.00    -0.387 N 
HETATM   17  C11 UNL     1      14.013   9.117  -0.896  1.00  0.00     0.133 C 
HETATM   18  C17 UNL     1      13.649  10.523  -2.867  1.00  0.00     0.131 C 
HETATM   19  C12 UNL     1      15.567   9.003  -1.077  1.00  0.00     0.056 C 
HETATM   20  C13 UNL     1      15.879   9.380  -2.477  1.00  0.00     0.022 C 
HETATM   21  C14 UNL     1      14.792   9.578  -3.494  1.00  0.00    -0.031 C 
HETATM   22  C15 UNL     1      15.342  10.398  -4.628  1.00  0.00     0.016 C 
HETATM   23  C16 UNL     1      14.174   8.340  -4.040  1.00  0.00     0.016 C 
ENDBRANCH  12  14
ENDBRANCH   8  12
BRANCH   5  24
HETATM   24  N2  UNL     1      17.288   8.300   4.676  1.00  0.00    -0.226 N 
ATOM     25  H2  UNL     1      16.963   7.345   4.527  1.00  0.00     0.177 HD
BRANCH  24  26
HETATM   26  C4  UNL     1      17.179   8.949   6.009  1.00  0.00     0.138 C 
BRANCH  26  27
HETATM   27  C5  UNL     1      15.821   8.757   6.570  1.00  0.00     0.022 C 
BRANCH  27  28
HETATM   28  C6  UNL     1      14.794   9.648   5.985  1.00  0.00     0.030 C 
BRANCH  28  29
HETATM   29  C7  UNL     1      13.890   9.108   4.943  1.00  0.00     0.208 C 
BRANCH  29  30
HETATM   30  O1  UNL     1      14.301   9.446   3.648  1.00  0.00    -0.221 OA
BRANCH  30  31
HETATM   31  N3  UNL     1      14.028  10.651   3.073  1.00  0.00     0.004 N 
HETATM   32  O2  UNL     1      12.897  10.945   2.581  1.00  0.00    -0.511 OA
HETATM   33  O3  UNL     1      15.004  11.639   2.997  1.00  0.00    -0.511 OA
ENDBRANCH  30  31
ENDBRANCH  29  30
ENDBRANCH  28  29
ENDBRANCH  27  28
ENDBRANCH  26  27
ENDBRANCH  24  26
ENDBRANCH   5  24
TORSDOF 9
ENDMDL
MODEL 5
REMARK VINA RESULT: -8.270193146      2.289      7.075
REMARK  9 active torsions:
REMARK  status: ('A' for Active; 'I' for Inactive)
REMARK    1  A    between atoms: C3_5  and  N2_6 
REMARK    2  A    between atoms: N2_6  and  C4_8 
REMARK    3  A    between atoms: C4_8  and  C5_9 
REMARK    4  A    between atoms: C5_9  and  C6_10 
REMARK    5  A    between atoms: C6_10  and  C7_11 
REMARK    6  A    between atoms: C7_11  and  O1_12 
REMARK    7  A    between atoms: O1_12  and  N3_13 
REMARK    8  A    between atoms: C8_18  and  N5_19 
REMARK    9  A    between atoms: N5_19  and  C9_21 
ROOT
HETATM    1  C1  UNL     1      14.745  10.124  -0.059  1.00  0.00     0.070 C 
HETATM    2  C2  UNL     1      15.394  10.166   1.291  1.00  0.00     0.047 A 
HETATM    3  N1  UNL     1      16.672  10.553   1.427  1.00  0.00    -0.194 N 
ATOM      4  H1  UNL     1      17.202  10.820   0.597  1.00  0.00     0.184 HD
HETATM    5  C3  UNL     1      17.270  10.597   2.630  1.00  0.00     0.679 A 
HETATM    6  N4  UNL     1      16.554  10.245   3.686  1.00  0.00    -0.175 N 
ATOM      7  H4  UNL     1      17.007  10.280   4.599  1.00  0.00     0.186 HD
HETATM    8  C8  UNL     1      15.238   9.834   3.638  1.00  0.00     0.144 A 
HETATM    9  C18 UNL     1      14.642   9.794   2.400  1.00  0.00     0.111 A 
HETATM   10  C19 UNL     1      13.258   9.385   2.202  1.00  0.00     0.105 C 
HETATM   11  N7  UNL     1      12.165   9.072   2.020  1.00  0.00    -0.191 NA
ENDROOT
BRANCH   8  12
HETATM   12  N5  UNL     1      14.672   9.538   4.660  1.00  0.00    -0.343 N 
ATOM     13  H5  UNL     1      13.689   9.577   4.391  1.00  0.00     0.167 HD
BRANCH  12  14
HETATM   14  C9  UNL     1      14.610   9.188   5.946  1.00  0.00     0.032 C 
HETATM   15  C10 UNL     1      15.670   8.975   6.822  1.00  0.00     0.111 C 
HETATM   16  N6  UNL     1      15.108   8.631   8.034  1.00  0.00    -0.387 N 
HETATM   17  C11 UNL     1      14.020   7.708   7.591  1.00  0.00     0.133 C 
HETATM   18  C17 UNL     1      15.073   8.970   9.406  1.00  0.00     0.131 C 
HETATM   19  C12 UNL     1      13.403   8.960   6.874  1.00  0.00     0.056 C 
HETATM   20  C13 UNL     1      13.396  10.072   7.854  1.00  0.00     0.022 C 
HETATM   21  C14 UNL     1      13.722   9.842   9.302  1.00  0.00    -0.031 C 
HETATM   22  C15 UNL     1      14.105  11.157   9.921  1.00  0.00     0.016 C 
HETATM   23  C16 UNL     1      12.654   9.209  10.120  1.00  0.00     0.016 C 
ENDBRANCH  12  14
ENDBRANCH   8  12
BRANCH   5  24
HETATM   24  N2  UNL     1      18.525  10.967   2.736  1.00  0.00    -0.226 N 
ATOM     25  H2  UNL     1      18.885  11.768   2.217  1.00  0.00     0.177 HD
BRANCH  24  26
HETATM   26  C4  UNL     1      19.406  10.178   3.636  1.00  0.00     0.138 C 
BRANCH  26  27
HETATM   27  C5  UNL     1      20.642   9.770   2.928  1.00  0.00     0.022 C 
BRANCH  27  28
HETATM   28  C6  UNL     1      21.331  10.878   2.227  1.00  0.00     0.030 C 
BRANCH  28  29
HETATM   29  C7  UNL     1      21.503  10.797   0.759  1.00  0.00     0.208 C 
BRANCH  29  30
HETATM   30  O1  UNL     1      20.728  11.742   0.074  1.00  0.00    -0.221 OA
BRANCH  30  31
HETATM   31  N3  UNL     1      19.407  11.557  -0.203  1.00  0.00     0.004 N 
HETATM   32  O2  UNL     1      18.563  12.504  -0.225  1.00  0.00    -0.511 OA
HETATM   33  O3  UNL     1      18.910  10.289  -0.480  1.00  0.00    -0.511 OA
ENDBRANCH  30  31
ENDBRANCH  29  30
ENDBRANCH  28  29
ENDBRANCH  27  28
ENDBRANCH  26  27
ENDBRANCH  24  26
ENDBRANCH   5  24
TORSDOF 9
ENDMDL
