MODEL 1
REMARK VINA RESULT: -8.690287516      0.000      0.000
REMARK  8 active torsions:
REMARK  status: ('A' for Active; 'I' for Inactive)
REMARK    1  A    between atoms: N1_1  and  C1_4 
REMARK    2  A    between atoms: C3_7  and  C4_8 
REMARK    3  A    between atoms: C4_8  and  C5_9 
REMARK    4  A    between atoms: C5_9  and  C6_10 
REMARK    5  A    between atoms: C12_18  and  N3_19 
REMARK    6  A    between atoms: N3_19  and  C13_21 
REMARK    7  A    between atoms: C13_21  and  C14_22 
REMARK    8  A    between atoms: C14_22  and  N4_23 
ROOT
HETATM    1  C1  UNL     1      17.852   9.396   3.086  1.00  0.00     0.112 A 
HETATM    2  S1  UNL     1      18.103   9.220   4.783  1.00  0.00    -0.079 SA
HETATM    3  C2  UNL     1      16.612   9.166   5.627  1.00  0.00     0.077 A 
HETATM    4  C3  UNL     1      15.513   9.271   4.809  1.00  0.00     0.017 A 
HETATM    5  N2  UNL     1      15.499   9.402   3.498  1.00  0.00    -0.344 N 
ATOM      6  H2  UNL     1      14.576   9.465   3.069  1.00  0.00     0.167 HD
HETATM    7  C12 UNL     1      16.556   9.465   2.641  1.00  0.00     0.135 A 
ENDROOT
BRANCH   7   8
HETATM    8  N3  UNL     1      16.265   9.572   1.430  1.00  0.00    -0.372 N 
ATOM      9  H3  UNL     1      16.298   8.644   1.008  1.00  0.00     0.161 HD
BRANCH   8  10
HETATM   10  C13 UNL     1      15.917  10.476   0.459  1.00  0.00     0.151 C 
BRANCH  10  11
HETATM   11  C14 UNL     1      14.453  10.158   0.047  1.00  0.00     0.292 C 
BRANCH  11  12
HETATM   12  N4  UNL     1      14.337   9.877  -1.352  1.00  0.00     0.091 N 
HETATM   13  C15 UNL     1      13.010  10.086  -1.869  1.00  0.00     0.287 C 
HETATM   14  C16 UNL     1      12.979  10.152  -3.359  1.00  0.00     0.170 C 
HETATM   15  S2  UNL     1      14.262   9.214  -4.140  1.00  0.00     0.147 S 
HETATM   16  O1  UNL     1      13.992   7.758  -4.176  1.00  0.00    -0.228 OA
HETATM   17  O2  UNL     1      14.421   9.747  -5.538  1.00  0.00    -0.228 OA
HETATM   18  C17 UNL     1      15.769   9.590  -3.243  1.00  0.00     0.170 C 
HETATM   19  C18 UNL     1      15.366  10.537  -2.134  1.00  0.00     0.287 C 
ENDBRANCH  11  12
ENDBRANCH  10  11
ENDBRANCH   8  10
ENDBRANCH   7   8
BRANCH   1  20
HETATM   20  N1  UNL     1      18.810   9.471   2.233  1.00  0.00    -0.390 N 
ATOM     21  H12 UNL     1      19.770   9.544   2.570  1.00  0.00     0.157 HD
ATOM     22  H11 UNL     1      18.666   9.456   1.224  1.00  0.00     0.157 HD
ENDBRANCH   1  20
BRANCH   4  23
HETATM   23  C4  UNL     1      14.166   9.248   5.518  1.00  0.00     0.058 C 
BRANCH  23  24
HETATM   24  C5  UNL     1      14.366   9.619   6.936  1.00  0.00     0.010 C 
BRANCH  24  25
HETATM   25  C6  UNL     1      13.726   8.783   7.983  1.00  0.00    -0.014 C 
HETATM   26  C7  UNL     1      14.776   8.594   9.085  1.00  0.00     0.004 C 
HETATM   27  C8  UNL     1      15.158   9.873   9.747  1.00  0.00     0.000 C 
HETATM   28  C9  UNL     1      14.020  10.744  10.157  1.00  0.00     0.000 C 
HETATM   29  C10 UNL     1      12.948  10.877   9.118  1.00  0.00     0.000 C 
HETATM   30  C11 UNL     1      12.560   9.490   8.655  1.00  0.00     0.004 C 
ENDBRANCH  24  25
ENDBRANCH  23  24
ENDBRANCH   4  23
TORSDOF 8
ENDMDL
MODEL 2
REMARK VINA RESULT: -8.456173828      1.171      1.328
REMARK  8 active torsions:
REMARK  status: ('A' for Active; 'I' for Inactive)
REMARK    1  A    between atoms: N1_1  and  C1_4 
REMARK    2  A    between atoms: C3_7  and  C4_8 
REMARK    3  A    between atoms: C4_8  and  C5_9 
REMARK    4  A    between atoms: C5_9  and  C6_10 
REMARK    5  A    between atoms: C12_18  and  N3_19 
REMARK    6  A    between atoms: N3_19  and  C13_21 
REMARK    7  A    between atoms: C13_21  and  C14_22 
REMARK    8  A    between atoms: C14_22  and  N4_23 
ROOT
HETATM    1  C1  UNL     1      17.168  10.073   1.847  1.00  0.00     0.112 A 
HETATM    2  S1  UNL     1      17.945  10.978   3.092  1.00  0.00    -0.079 SA
HETATM    3  C2  UNL     1      16.965  11.068   4.495  1.00  0.00     0.077 A 
HETATM    4  C3  UNL     1      15.763  10.414   4.370  1.00  0.00     0.017 A 
HETATM    5  N2  UNL     1      15.316   9.755   3.321  1.00  0.00    -0.344 N 
ATOM      6  H2  UNL     1      14.391   9.334   3.423  1.00  0.00     0.167 HD
HETATM    7  C12 UNL     1      15.925   9.560   2.119  1.00  0.00     0.135 A 
ENDROOT
BRANCH   7   8
HETATM    8  N3  UNL     1      15.285   8.873   1.293  1.00  0.00    -0.372 N 
ATOM      9  H3  UNL     1      15.924   8.198   0.873  1.00  0.00     0.161 HD
BRANCH   8  10
HETATM   10  C13 UNL     1      14.041   8.691   0.743  1.00  0.00     0.151 C 
BRANCH  10  11
HETATM   11  C14 UNL     1      13.713   9.973  -0.070  1.00  0.00     0.292 C 
BRANCH  11  12
HETATM   12  N4  UNL     1      13.873   9.772  -1.479  1.00  0.00     0.091 N 
HETATM   13  C15 UNL     1      12.671  10.017  -2.231  1.00  0.00     0.287 C 
HETATM   14  C16 UNL     1      12.931  10.168  -3.692  1.00  0.00     0.170 C 
HETATM   15  S2  UNL     1      14.347   9.271  -4.260  1.00  0.00     0.147 S 
HETATM   16  O1  UNL     1      14.100   7.821  -4.431  1.00  0.00    -0.228 OA
HETATM   17  O2  UNL     1      14.772   9.883  -5.569  1.00  0.00    -0.228 OA
HETATM   18  C17 UNL     1      15.649   9.589  -3.068  1.00  0.00     0.170 C 
HETATM   19  C18 UNL     1      15.030  10.472  -2.006  1.00  0.00     0.287 C 
ENDBRANCH  11  12
ENDBRANCH  10  11
ENDBRANCH   8  10
ENDBRANCH   7   8
BRANCH   1  20
HETATM   20  N1  UNL     1      17.690   9.867   0.691  1.00  0.00    -0.390 N 
ATOM     21  H12 UNL     1      17.078   9.681  -0.104  1.00  0.00     0.157 HD
ATOM     22  H11 UNL     1      18.694   9.884   0.518  1.00  0.00     0.157 HD
ENDBRANCH   1  20
BRANCH   4  23
HETATM   23  C4  UNL     1      14.851  10.485   5.587  1.00  0.00     0.058 C 
BRANCH  23  24
HETATM   24  C5  UNL     1      15.177   9.364   6.495  1.00  0.00     0.010 C 
BRANCH  24  25
HETATM   25  C6  UNL     1      14.117   8.372   6.803  1.00  0.00    -0.014 C 
HETATM   26  C7  UNL     1      14.664   7.494   7.936  1.00  0.00     0.004 C 
HETATM   27  C8  UNL     1      14.904   8.255   9.194  1.00  0.00     0.000 C 
HETATM   28  C9  UNL     1      13.788   9.146   9.623  1.00  0.00     0.000 C 
HETATM   29  C10 UNL     1      13.192   9.955   8.511  1.00  0.00     0.000 C 
HETATM   30  C11 UNL     1      12.863   9.021   7.368  1.00  0.00     0.004 C 
ENDBRANCH  24  25
ENDBRANCH  23  24
ENDBRANCH   4  23
TORSDOF 8
ENDMDL
MODEL 3
REMARK VINA RESULT: -8.443285767      1.056      1.231
REMARK  8 active torsions:
REMARK  status: ('A' for Active; 'I' for Inactive)
REMARK    1  A    between atoms: N1_1  and  C1_4 
REMARK    2  A    between atoms: C3_7  and  C4_8 
REMARK    3  A    between atoms: C4_8  and  C5_9 
REMARK    4  A    between atoms: C5_9  and  C6_10 
REMARK    5  A    between atoms: C12_18  and  N3_19 
REMARK    6  A    between atoms: N3_19  and  C13_21 
REMARK    7  A    between atoms: C13_21  and  C14_22 
REMARK    8  A    between atoms: C14_22  and  N4_23 
ROOT
HETATM    1  C1  UNL     1      18.144  10.241   2.820  1.00  0.00     0.112 A 
HETATM    2  S1  UNL     1      18.124  10.212   4.544  1.00  0.00    -0.079 SA
HETATM    3  C2  UNL     1      16.584   9.752   5.137  1.00  0.00     0.077 A 
HETATM    4  C3  UNL     1      15.666   9.497   4.146  1.00  0.00     0.017 A 
HETATM    5  N2  UNL     1      15.853   9.568   2.844  1.00  0.00    -0.344 N 
ATOM      6  H2  UNL     1      15.043   9.338   2.268  1.00  0.00     0.167 HD
HETATM    7  C12 UNL     1      16.985   9.908   2.167  1.00  0.00     0.135 A 
ENDROOT
BRANCH   7   8
HETATM    8  N3  UNL     1      16.899   9.877   0.920  1.00  0.00    -0.372 N 
ATOM      9  H3  UNL     1      17.381   9.044   0.584  1.00  0.00     0.161 HD
BRANCH   8  10
HETATM   10  C13 UNL     1      16.394  10.550  -0.164  1.00  0.00     0.151 C 
BRANCH  10  11
HETATM   11  C14 UNL     1      16.859   9.782  -1.431  1.00  0.00     0.292 C 
BRANCH  11  12
HETATM   12  N4  UNL     1      15.787   9.573  -2.357  1.00  0.00     0.091 N 
HETATM   13  C15 UNL     1      14.485   9.611  -1.743  1.00  0.00     0.287 C 
HETATM   14  C16 UNL     1      13.386   9.763  -2.739  1.00  0.00     0.170 C 
HETATM   15  S2  UNL     1      13.765   9.080  -4.328  1.00  0.00     0.147 S 
HETATM   16  O1  UNL     1      13.641   7.606  -4.383  1.00  0.00    -0.228 OA
HETATM   17  O2  UNL     1      12.833   9.717  -5.324  1.00  0.00    -0.228 OA
HETATM   18  C17 UNL     1      15.429   9.625  -4.719  1.00  0.00     0.170 C 
HETATM   19  C18 UNL     1      15.893  10.429  -3.524  1.00  0.00     0.287 C 
ENDBRANCH  11  12
ENDBRANCH  10  11
ENDBRANCH   8  10
ENDBRANCH   7   8
BRANCH   1  20
HETATM   20  N1  UNL     1      19.179  10.563   2.129  1.00  0.00    -0.390 N 
ATOM     21  H12 UNL     1      19.928  11.092   2.576  1.00  0.00     0.157 HD
ATOM     22  H11 UNL     1      19.300  10.312   1.149  1.00  0.00     0.157 HD
ENDBRANCH   1  20
BRANCH   4  23
HETATM   23  C4  UNL     1      14.277   9.104   4.628  1.00  0.00     0.058 C 
BRANCH  23  24
HETATM   24  C5  UNL     1      14.160   9.426   6.067  1.00  0.00     0.010 C 
BRANCH  24  25
HETATM   25  C6  UNL     1      13.588   8.403   6.977  1.00  0.00    -0.014 C 
HETATM   26  C7  UNL     1      14.762   7.844   7.791  1.00  0.00     0.004 C 
HETATM   27  C8  UNL     1      15.403   8.868   8.662  1.00  0.00     0.000 C 
HETATM   28  C9  UNL     1      14.463   9.695   9.472  1.00  0.00     0.000 C 
HETATM   29  C10 UNL     1      13.269  10.186   8.709  1.00  0.00     0.000 C 
HETATM   30  C11 UNL     1      12.640   9.006   8.002  1.00  0.00     0.004 C 
ENDBRANCH  24  25
ENDBRANCH  23  24
ENDBRANCH   4  23
TORSDOF 8
ENDMDL
MODEL 4
REMARK VINA RESULT: -8.366014653      1.663      2.043
REMARK  8 active torsions:
REMARK  status: ('A' for Active; 'I' for Inactive)
REMARK    1  A    between atoms: N1_1  and  C1_4 
REMARK    2  A    between atoms: C3_7  and  C4_8 
REMARK    3  A    between atoms: C4_8  and  C5_9 
REMARK    4  A    between atoms: C5_9  and  C6_10 
REMARK    5  A    between atoms: C12_18  and  N3_19 
REMARK    6  A    between atoms: N3_19  and  C13_21 
REMARK    7  A    between atoms: C13_21  and  C14_22 
REMARK    8  A    between atoms: C14_22  and  N4_23 
ROOT
HETATM    1  C1  UNL     1      17.316   9.842   2.428  1.00  0.00     0.112 A 
HETATM    2  S1  UNL     1      18.629   9.098   3.263  1.00  0.00    -0.079 SA
HETATM    3  C2  UNL     1      18.196   8.709   4.875  1.00  0.00     0.077 A 
HETATM    4  C3  UNL     1      16.907   9.056   5.198  1.00  0.00     0.017 A 
HETATM    5  N2  UNL     1      16.013   9.632   4.419  1.00  0.00    -0.344 N 
ATOM      6  H2  UNL     1      15.103   9.810   4.845  1.00  0.00     0.167 HD
HETATM    7  C12 UNL     1      16.145  10.020   3.120  1.00  0.00     0.135 A 
ENDROOT
BRANCH   7   8
HETATM    8  N3  UNL     1      15.128  10.530   2.602  1.00  0.00    -0.372 N 
ATOM      9  H3  UNL     1      15.426  11.282   1.981  1.00  0.00     0.161 HD
BRANCH   8  10
HETATM   10  C13 UNL     1      13.759  10.452   2.560  1.00  0.00     0.151 C 
BRANCH  10  11
HETATM   11  C14 UNL     1      13.399   9.359   1.516  1.00  0.00     0.292 C 
BRANCH  11  12
HETATM   12  N4  UNL     1      14.053   9.579   0.260  1.00  0.00     0.091 N 
HETATM   13  C15 UNL     1      14.678   8.397  -0.273  1.00  0.00     0.287 C 
HETATM   14  C16 UNL     1      15.024   8.535  -1.717  1.00  0.00     0.170 C 
HETATM   15  S2  UNL     1      15.359  10.201  -2.213  1.00  0.00     0.147 S 
HETATM   16  O1  UNL     1      16.705  10.676  -1.822  1.00  0.00    -0.228 OA
HETATM   17  O2  UNL     1      15.200  10.265  -3.709  1.00  0.00    -0.228 OA
HETATM   18  C17 UNL     1      14.061  11.206  -1.490  1.00  0.00     0.170 C 
HETATM   19  C18 UNL     1      13.194  10.253  -0.696  1.00  0.00     0.287 C 
ENDBRANCH  11  12
ENDBRANCH  10  11
ENDBRANCH   8  10
ENDBRANCH   7   8
BRANCH   1  20
HETATM   20  N1  UNL     1      17.387  10.238   1.207  1.00  0.00    -0.390 N 
ATOM     21  H12 UNL     1      17.853   9.646   0.520  1.00  0.00     0.157 HD
ATOM     22  H11 UNL     1      16.993  11.119   0.879  1.00  0.00     0.157 HD
ENDBRANCH   1  20
BRANCH   4  23
HETATM   23  C4  UNL     1      16.485   8.747   6.627  1.00  0.00     0.058 C 
BRANCH  23  24
HETATM   24  C5  UNL     1      15.076   9.157   6.810  1.00  0.00     0.010 C 
BRANCH  24  25
HETATM   25  C6  UNL     1      14.209   8.339   7.694  1.00  0.00    -0.014 C 
HETATM   26  C7  UNL     1      14.935   8.243   9.042  1.00  0.00     0.004 C 
HETATM   27  C8  UNL     1      15.088   9.564   9.713  1.00  0.00     0.000 C 
HETATM   28  C9  UNL     1      13.855  10.400   9.764  1.00  0.00     0.000 C 
HETATM   29  C10 UNL     1      13.092  10.442   8.474  1.00  0.00     0.000 C 
HETATM   30  C11 UNL     1      12.885   9.021   7.998  1.00  0.00     0.004 C 
ENDBRANCH  24  25
ENDBRANCH  23  24
ENDBRANCH   4  23
TORSDOF 8
ENDMDL
MODEL 5
REMARK VINA RESULT: -8.215209616      3.046      4.037
REMARK  8 active torsions:
REMARK  status: ('A' for Active; 'I' for Inactive)
REMARK    1  A    between atoms: N1_1  and  C1_4 
REMARK    2  A    between atoms: C3_7  and  C4_8 
REMARK    3  A    between atoms: C4_8  and  C5_9 
REMARK    4  A    between atoms: C5_9  and  C6_10 
REMARK    5  A    between atoms: C12_18  and  N3_19 
REMARK    6  A    between atoms: N3_19  and  C13_21 
REMARK    7  A    between atoms: C13_21  and  C14_22 
REMARK    8  A    between atoms: C14_22  and  N4_23 
ROOT
HETATM    1  C1  UNL     1      20.059  10.791   1.210  1.00  0.00     0.112 A 
HETATM    2  S1  UNL     1      20.760  10.131   2.641  1.00  0.00    -0.079 SA
HETATM    3  C2  UNL     1      19.585   9.315   3.585  1.00  0.00     0.077 A 
HETATM    4  C3  UNL     1      18.325   9.339   3.037  1.00  0.00     0.017 A 
HETATM    5  N2  UNL     1      17.954   9.902   1.905  1.00  0.00    -0.344 N 
ATOM      6  H2  UNL     1      16.966   9.810   1.667  1.00  0.00     0.167 HD
HETATM    7  C12 UNL     1      18.717  10.591   1.011  1.00  0.00     0.135 A 
ENDROOT
BRANCH   7   8
HETATM    8  N3  UNL     1      18.116  11.010  -0.003  1.00  0.00    -0.372 N 
ATOM      9  H3  UNL     1      18.714  11.689  -0.473  1.00  0.00     0.161 HD
BRANCH   8  10
HETATM   10  C13 UNL     1      16.950  10.894  -0.716  1.00  0.00     0.151 C 
BRANCH  10  11
HETATM   11  C14 UNL     1      17.189   9.811  -1.803  1.00  0.00     0.292 C 
BRANCH  11  12
HETATM   12  N4  UNL     1      16.020   9.578  -2.597  1.00  0.00     0.091 N 
HETATM   13  C15 UNL     1      14.800   9.582  -1.832  1.00  0.00     0.287 C 
HETATM   14  C16 UNL     1      13.587   9.710  -2.690  1.00  0.00     0.170 C 
HETATM   15  S2  UNL     1      13.792   9.041  -4.317  1.00  0.00     0.147 S 
HETATM   16  O1  UNL     1      13.698   7.564  -4.365  1.00  0.00    -0.228 OA
HETATM   17  O2  UNL     1      12.733   9.658  -5.192  1.00  0.00    -0.228 OA
HETATM   18  C17 UNL     1      15.384   9.628  -4.899  1.00  0.00     0.170 C 
HETATM   19  C18 UNL     1      15.967  10.440  -3.763  1.00  0.00     0.287 C 
ENDBRANCH  11  12
ENDBRANCH  10  11
ENDBRANCH   8  10
ENDBRANCH   7   8
BRANCH   1  20
HETATM   20  N1  UNL     1      20.727  11.458   0.338  1.00  0.00    -0.390 N 
ATOM     21  H12 UNL     1      21.457  10.986  -0.196  1.00  0.00     0.157 HD
ATOM     22  H11 UNL     1      20.565  12.446   0.141  1.00  0.00     0.157 HD
ENDBRANCH   1  20
BRANCH   4  23
HETATM   23  C4  UNL     1      17.245   8.643   3.852  1.00  0.00     0.058 C 
BRANCH  23  24
HETATM   24  C5  UNL     1      15.946   8.805   3.164  1.00  0.00     0.010 C 
BRANCH  24  25
HETATM   25  C6  UNL     1      14.871   9.562   3.850  1.00  0.00    -0.014 C 
HETATM   26  C7  UNL     1      14.598  10.802   2.990  1.00  0.00     0.004 C 
HETATM   27  C8  UNL     1      14.074  10.465   1.637  1.00  0.00     0.000 C 
HETATM   28  C9  UNL     1      12.961   9.473   1.613  1.00  0.00     0.000 C 
HETATM   29  C10 UNL     1      13.178   8.291   2.510  1.00  0.00     0.000 C 
HETATM   30  C11 UNL     1      13.556   8.799   3.883  1.00  0.00     0.004 C 
ENDBRANCH  24  25
ENDBRANCH  23  24
ENDBRANCH   4  23
TORSDOF 8
ENDMDL
