MODEL 1
REMARK VINA RESULT: -9.141140145      0.000      0.000
REMARK  7 active torsions:
REMARK  status: ('A' for Active; 'I' for Inactive)
REMARK    1  A    between atoms: C2_2  and  N1_4 
REMARK    2  A    between atoms: C5_6  and  N2_7 
REMARK    3  A    between atoms: C7_11  and  N3_12 
REMARK    4  A    between atoms: N3_12  and  C8_14 
REMARK    5  A    between atoms: C8_14  and  C9_15 
REMARK    6  A    between atoms: C9_15  and  N4_16 
REMARK    7  A    between atoms: N6_25  and  C15_27 
ROOT
HETATM    1  N1  UNL     1      19.072   9.848   3.412  1.00  0.00    -0.336 N 
HETATM    2  C4  UNL     1      19.718  10.156   2.280  1.00  0.00     0.130 A 
HETATM    3  C5  UNL     1      18.756  10.479   1.295  1.00  0.00     0.136 A 
HETATM    4  C6  UNL     1      17.536  10.351   1.877  1.00  0.00     0.087 A 
HETATM    5  C7  UNL     1      16.244  10.520   1.426  1.00  0.00     0.133 A 
HETATM    6  N5  UNL     1      15.258  10.294   2.298  1.00  0.00    -0.176 N 
ATOM      7  H5  UNL     1      14.294  10.414   1.986  1.00  0.00     0.186 HD
HETATM    8  C14 UNL     1      15.485   9.910   3.589  1.00  0.00     0.681 A 
HETATM    9  N6  UNL     1      14.495   9.708   4.367  1.00  0.00    -0.221 N 
ATOM     10  H6  UNL     1      13.549   9.838   4.009  1.00  0.00     0.178 HD
HETATM   11  N7  UNL     1      16.731   9.742   4.033  1.00  0.00    -0.175 N 
ATOM     12  H7  UNL     1      16.900   9.454   4.997  1.00  0.00     0.186 HD
HETATM   13  C20 UNL     1      17.758   9.955   3.200  1.00  0.00     0.140 A 
ENDROOT
BRANCH   5  14
HETATM   14  N3  UNL     1      15.964  10.854   0.253  1.00  0.00    -0.373 N 
ATOM     15  H3  UNL     1      16.256  11.798  -0.000  1.00  0.00     0.161 HD
BRANCH  14  16
HETATM   16  C8  UNL     1      15.310  10.140  -0.783  1.00  0.00     0.140 C 
BRANCH  16  17
HETATM   17  C9  UNL     1      14.250  10.954  -1.481  1.00  0.00     0.136 C 
BRANCH  17  18
HETATM   18  N4  UNL     1      14.056  10.637  -2.854  1.00  0.00    -0.407 N 
HETATM   19  C10 UNL     1      12.787  10.056  -3.157  1.00  0.00     0.143 C 
HETATM   20  C11 UNL     1      12.653   9.767  -4.615  1.00  0.00     0.187 C 
HETATM   21  O3  UNL     1      13.726  10.315  -5.325  1.00  0.00    -0.388 OA
HETATM   22  C12 UNL     1      14.856   9.619  -4.899  1.00  0.00     0.187 C 
HETATM   23  C13 UNL     1      15.189  10.043  -3.486  1.00  0.00     0.143 C 
ENDBRANCH  17  18
ENDBRANCH  16  17
ENDBRANCH  14  16
ENDBRANCH   5  14
BRANCH   3  24
HETATM   24  N2  UNL     1      19.088  10.834  -0.002  1.00  0.00    -0.113 N 
HETATM   25  O1  UNL     1      19.820  11.858  -0.155  1.00  0.00    -0.532 OA
HETATM   26  O2  UNL     1      18.721  10.210  -1.144  1.00  0.00    -0.532 OA
ENDBRANCH   3  24
BRANCH   1  27
HETATM   27  C2  UNL     1      19.759   9.466   4.641  1.00  0.00     0.083 C 
HETATM   28  C1  UNL     1      19.639   7.984   4.879  1.00  0.00     0.032 C 
HETATM   29  C3  UNL     1      21.220   9.883   4.554  1.00  0.00     0.032 C 
ENDBRANCH   1  27
BRANCH   9  30
HETATM   30  C15 UNL     1      14.673   9.304   5.725  1.00  0.00     0.099 C 
HETATM   31  C16 UNL     1      14.505  10.381   6.746  1.00  0.00     0.026 C 
HETATM   32  C17 UNL     1      13.795   9.716   7.911  1.00  0.00     0.002 C 
HETATM   33  C18 UNL     1      13.557   8.287   7.513  1.00  0.00     0.002 C 
HETATM   34  C19 UNL     1      13.472   8.369   6.021  1.00  0.00     0.026 C 
ENDBRANCH   9  30
TORSDOF 7
ENDMDL
MODEL 2
REMARK VINA RESULT: -9.051118580      1.164      1.520
REMARK  7 active torsions:
REMARK  status: ('A' for Active; 'I' for Inactive)
REMARK    1  A    between atoms: C2_2  and  N1_4 
REMARK    2  A    between atoms: C5_6  and  N2_7 
REMARK    3  A    between atoms: C7_11  and  N3_12 
REMARK    4  A    between atoms: N3_12  and  C8_14 
REMARK    5  A    between atoms: C8_14  and  C9_15 
REMARK    6  A    between atoms: C9_15  and  N4_16 
REMARK    7  A    between atoms: N6_25  and  C15_27 
ROOT
HETATM    1  N1  UNL     1      18.238   9.995   3.548  1.00  0.00    -0.336 N 
HETATM    2  C4  UNL     1      18.605  10.199   2.276  1.00  0.00     0.130 A 
HETATM    3  C5  UNL     1      17.438  10.409   1.505  1.00  0.00     0.136 A 
HETATM    4  C6  UNL     1      16.382  10.320   2.356  1.00  0.00     0.087 A 
HETATM    5  C7  UNL     1      15.018  10.424   2.192  1.00  0.00     0.133 A 
HETATM    6  N5  UNL     1      14.258  10.271   3.281  1.00  0.00    -0.176 N 
ATOM      7  H5  UNL     1      13.245  10.344   3.183  1.00  0.00     0.186 HD
HETATM    8  C14 UNL     1      14.780  10.020   4.518  1.00  0.00     0.681 A 
HETATM    9  N6  UNL     1      13.995   9.881   5.513  1.00  0.00    -0.221 N 
ATOM     10  H6  UNL     1      12.989   9.961   5.366  1.00  0.00     0.178 HD
HETATM   11  N7  UNL     1      16.098   9.916   4.685  1.00  0.00    -0.175 N 
ATOM     12  H7  UNL     1      16.488   9.728   5.609  1.00  0.00     0.186 HD
HETATM   13  C20 UNL     1      16.907  10.061   3.626  1.00  0.00     0.140 A 
ENDROOT
BRANCH   5  14
HETATM   14  N3  UNL     1      14.472  10.636   1.086  1.00  0.00    -0.373 N 
ATOM     15  H3  UNL     1      14.391  11.621   0.835  1.00  0.00     0.161 HD
BRANCH  14  16
HETATM   16  C8  UNL     1      13.948   9.735   0.123  1.00  0.00     0.140 C 
BRANCH  16  17
HETATM   17  C9  UNL     1      13.331  10.434  -1.062  1.00  0.00     0.136 C 
BRANCH  17  18
HETATM   18  N4  UNL     1      13.684   9.893  -2.329  1.00  0.00    -0.407 N 
HETATM   19  C10 UNL     1      15.017  10.185  -2.750  1.00  0.00     0.143 C 
HETATM   20  C11 UNL     1      15.316   9.571  -4.077  1.00  0.00     0.187 C 
HETATM   21  O3  UNL     1      14.280   8.716  -4.468  1.00  0.00    -0.388 OA
HETATM   22  C12 UNL     1      13.169   9.535  -4.667  1.00  0.00     0.187 C 
HETATM   23  C13 UNL     1      12.667  10.013  -3.323  1.00  0.00     0.143 C 
ENDBRANCH  17  18
ENDBRANCH  16  17
ENDBRANCH  14  16
ENDBRANCH   5  14
BRANCH   3  24
HETATM   24  N2  UNL     1      17.460  10.638   0.140  1.00  0.00    -0.113 N 
HETATM   25  O1  UNL     1      16.902  11.696  -0.280  1.00  0.00    -0.532 OA
HETATM   26  O2  UNL     1      18.015   9.859  -0.816  1.00  0.00    -0.532 OA
ENDBRANCH   3  24
BRANCH   1  27
HETATM   27  C2  UNL     1      19.194   9.747   4.621  1.00  0.00     0.083 C 
HETATM   28  C1  UNL     1      19.070   8.335   5.128  1.00  0.00     0.032 C 
HETATM   29  C3  UNL     1      20.603  10.019   4.115  1.00  0.00     0.032 C 
ENDBRANCH   1  27
BRANCH   9  30
HETATM   30  C15 UNL     1      14.485   9.617   6.828  1.00  0.00     0.099 C 
HETATM   31  C16 UNL     1      13.791  10.344   7.934  1.00  0.00     0.026 C 
HETATM   32  C17 UNL     1      13.709   9.346   9.074  1.00  0.00     0.002 C 
HETATM   33  C18 UNL     1      14.336   8.072   8.581  1.00  0.00     0.002 C 
HETATM   34  C19 UNL     1      14.102   8.139   7.104  1.00  0.00     0.026 C 
ENDBRANCH   9  30
TORSDOF 7
ENDMDL
MODEL 3
REMARK VINA RESULT: -8.934251602      2.577      5.999
REMARK  7 active torsions:
REMARK  status: ('A' for Active; 'I' for Inactive)
REMARK    1  A    between atoms: C2_2  and  N1_4 
REMARK    2  A    between atoms: C5_6  and  N2_7 
REMARK    3  A    between atoms: C7_11  and  N3_12 
REMARK    4  A    between atoms: N3_12  and  C8_14 
REMARK    5  A    between atoms: C8_14  and  C9_15 
REMARK    6  A    between atoms: C9_15  and  N4_16 
REMARK    7  A    between atoms: N6_25  and  C15_27 
ROOT
HETATM    1  N1  UNL     1      15.307  10.055   1.565  1.00  0.00    -0.336 N 
HETATM    2  C4  UNL     1      16.025  10.486   0.519  1.00  0.00     0.130 A 
HETATM    3  C5  UNL     1      17.348  10.726   0.957  1.00  0.00     0.136 A 
HETATM    4  C6  UNL     1      17.385  10.428   2.282  1.00  0.00     0.087 A 
HETATM    5  C7  UNL     1      18.376  10.470   3.239  1.00  0.00     0.133 A 
HETATM    6  N5  UNL     1      18.045  10.099   4.479  1.00  0.00    -0.176 N 
ATOM      7  H5  UNL     1      18.763  10.122   5.203  1.00  0.00     0.186 HD
HETATM    8  C14 UNL     1      16.786   9.691   4.818  1.00  0.00     0.681 A 
HETATM    9  N6  UNL     1      16.540   9.355   6.023  1.00  0.00    -0.221 N 
ATOM     10  H6  UNL     1      17.290   9.396   6.712  1.00  0.00     0.178 HD
HETATM   11  N7  UNL     1      15.821   9.649   3.899  1.00  0.00    -0.175 N 
ATOM     12  H7  UNL     1      14.881   9.345   4.153  1.00  0.00     0.186 HD
HETATM   13  C20 UNL     1      16.099  10.010   2.639  1.00  0.00     0.140 A 
ENDROOT
BRANCH   5  14
HETATM   14  N3  UNL     1      19.545  10.848   3.001  1.00  0.00    -0.373 N 
ATOM     15  H3  UNL     1      19.620  11.807   2.663  1.00  0.00     0.161 HD
BRANCH  14  16
HETATM   16  C8  UNL     1      20.784  10.166   3.124  1.00  0.00     0.140 C 
BRANCH  16  17
HETATM   17  C9  UNL     1      20.761   8.790   2.509  1.00  0.00     0.136 C 
BRANCH  17  18
HETATM   18  N4  UNL     1      21.797   8.535   1.569  1.00  0.00    -0.407 N 
HETATM   19  C10 UNL     1      22.632   7.421   1.891  1.00  0.00     0.143 C 
HETATM   20  C11 UNL     1      23.682   7.209   0.852  1.00  0.00     0.187 C 
HETATM   21  O3  UNL     1      23.453   8.034  -0.254  1.00  0.00    -0.388 OA
HETATM   22  C12 UNL     1      23.629   9.338   0.205  1.00  0.00     0.187 C 
HETATM   23  C13 UNL     1      22.461   9.704   1.094  1.00  0.00     0.143 C 
ENDBRANCH  17  18
ENDBRANCH  16  17
ENDBRANCH  14  16
ENDBRANCH   5  14
BRANCH   3  24
HETATM   24  N2  UNL     1      18.350  11.195   0.124  1.00  0.00    -0.113 N 
HETATM   25  O1  UNL     1      19.207  10.354  -0.282  1.00  0.00    -0.532 OA
HETATM   26  O2  UNL     1      18.528  12.460  -0.317  1.00  0.00    -0.532 OA
ENDBRANCH   3  24
BRANCH   1  27
HETATM   27  C2  UNL     1      13.894   9.708   1.471  1.00  0.00     0.083 C 
HETATM   28  C1  UNL     1      13.306  10.216   0.182  1.00  0.00     0.032 C 
HETATM   29  C3  UNL     1      13.735   8.198   1.580  1.00  0.00     0.032 C 
ENDBRANCH   1  27
BRANCH   9  30
HETATM   30  C15 UNL     1      15.242   8.922   6.434  1.00  0.00     0.099 C 
HETATM   31  C16 UNL     1      15.213   7.974   7.589  1.00  0.00     0.026 C 
HETATM   32  C17 UNL     1      14.008   8.388   8.411  1.00  0.00     0.002 C 
HETATM   33  C18 UNL     1      13.396   9.573   7.717  1.00  0.00     0.002 C 
HETATM   34  C19 UNL     1      14.569  10.189   7.021  1.00  0.00     0.026 C 
ENDBRANCH   9  30
TORSDOF 7
ENDMDL
MODEL 4
REMARK VINA RESULT: -8.822394461      2.515      6.179
REMARK  7 active torsions:
REMARK  status: ('A' for Active; 'I' for Inactive)
REMARK    1  A    between atoms: C2_2  and  N1_4 
REMARK    2  A    between atoms: C5_6  and  N2_7 
REMARK    3  A    between atoms: C7_11  and  N3_12 
REMARK    4  A    between atoms: N3_12  and  C8_14 
REMARK    5  A    between atoms: C8_14  and  C9_15 
REMARK    6  A    between atoms: C9_15  and  N4_16 
REMARK    7  A    between atoms: N6_25  and  C15_27 
ROOT
HETATM    1  N1  UNL     1      15.593   9.803   1.210  1.00  0.00    -0.336 N 
HETATM    2  C4  UNL     1      16.225  10.264   0.123  1.00  0.00     0.130 A 
HETATM    3  C5  UNL     1      17.505  10.719   0.514  1.00  0.00     0.136 A 
HETATM    4  C6  UNL     1      17.605  10.514   1.853  1.00  0.00     0.087 A 
HETATM    5  C7  UNL     1      18.594  10.758   2.781  1.00  0.00     0.133 A 
HETATM    6  N5  UNL     1      18.338  10.423   4.049  1.00  0.00    -0.176 N 
ATOM      7  H5  UNL     1      19.056  10.595   4.753  1.00  0.00     0.186 HD
HETATM    8  C14 UNL     1      17.156   9.862   4.443  1.00  0.00     0.681 A 
HETATM    9  N6  UNL     1      16.979   9.571   5.671  1.00  0.00    -0.221 N 
ATOM     10  H6  UNL     1      17.725   9.764   6.339  1.00  0.00     0.178 HD
HETATM   11  N7  UNL     1      16.194   9.624   3.551  1.00  0.00    -0.175 N 
ATOM     12  H7  UNL     1      15.311   9.205   3.846  1.00  0.00     0.186 HD
HETATM   13  C20 UNL     1      16.398   9.940   2.266  1.00  0.00     0.140 A 
ENDROOT
BRANCH   5  14
HETATM   14  N3  UNL     1      19.692  11.284   2.494  1.00  0.00    -0.373 N 
ATOM     15  H3  UNL     1      19.640  12.276   2.263  1.00  0.00     0.161 HD
BRANCH  14  16
HETATM   16  C8  UNL     1      20.998  10.731   2.435  1.00  0.00     0.140 C 
BRANCH  16  17
HETATM   17  C9  UNL     1      21.090   9.535   1.522  1.00  0.00     0.136 C 
BRANCH  17  18
HETATM   18  N4  UNL     1      21.546   8.340   2.143  1.00  0.00    -0.407 N 
HETATM   19  C10 UNL     1      21.771   8.448   3.549  1.00  0.00     0.143 C 
HETATM   20  C11 UNL     1      22.231   7.152   4.130  1.00  0.00     0.187 C 
HETATM   21  O3  UNL     1      22.137   6.128   3.182  1.00  0.00    -0.388 OA
HETATM   22  C12 UNL     1      23.058   6.450   2.186  1.00  0.00     0.187 C 
HETATM   23  C13 UNL     1      22.535   7.631   1.399  1.00  0.00     0.143 C 
ENDBRANCH  17  18
ENDBRANCH  16  17
ENDBRANCH  14  16
ENDBRANCH   5  14
BRANCH   3  24
HETATM   24  N2  UNL     1      18.418  11.272  -0.370  1.00  0.00    -0.113 N 
HETATM   25  O1  UNL     1      18.588  12.527  -0.318  1.00  0.00    -0.532 OA
HETATM   26  O2  UNL     1      19.163  10.625  -1.294  1.00  0.00    -0.532 OA
ENDBRANCH   3  24
BRANCH   1  27
HETATM   27  C2  UNL     1      14.243   9.252   1.171  1.00  0.00     0.083 C 
HETATM   28  C1  UNL     1      13.430   9.911   0.089  1.00  0.00     0.032 C 
HETATM   29  C3  UNL     1      14.317   7.748   0.950  1.00  0.00     0.032 C 
ENDBRANCH   1  27
BRANCH   9  30
HETATM   30  C15 UNL     1      15.764   8.984   6.138  1.00  0.00     0.099 C 
HETATM   31  C16 UNL     1      15.850   8.280   7.454  1.00  0.00     0.026 C 
HETATM   32  C17 UNL     1      14.549   8.604   8.163  1.00  0.00     0.002 C 
HETATM   33  C18 UNL     1      13.766   9.500   7.244  1.00  0.00     0.002 C 
HETATM   34  C19 UNL     1      14.840  10.188   6.461  1.00  0.00     0.026 C 
ENDBRANCH   9  30
TORSDOF 7
ENDMDL
MODEL 5
REMARK VINA RESULT: -8.777258050      2.534      6.470
REMARK  7 active torsions:
REMARK  status: ('A' for Active; 'I' for Inactive)
REMARK    1  A    between atoms: C2_2  and  N1_4 
REMARK    2  A    between atoms: C5_6  and  N2_7 
REMARK    3  A    between atoms: C7_11  and  N3_12 
REMARK    4  A    between atoms: N3_12  and  C8_14 
REMARK    5  A    between atoms: C8_14  and  C9_15 
REMARK    6  A    between atoms: C9_15  and  N4_16 
REMARK    7  A    between atoms: N6_25  and  C15_27 
ROOT
HETATM    1  N1  UNL     1      15.483   9.790   1.252  1.00  0.00    -0.336 N 
HETATM    2  C4  UNL     1      16.079  10.254   0.146  1.00  0.00     0.130 A 
HETATM    3  C5  UNL     1      17.365  10.725   0.500  1.00  0.00     0.136 A 
HETATM    4  C6  UNL     1      17.504  10.527   1.836  1.00  0.00     0.087 A 
HETATM    5  C7  UNL     1      18.515  10.787   2.736  1.00  0.00     0.133 A 
HETATM    6  N5  UNL     1      18.298  10.455   4.012  1.00  0.00    -0.176 N 
ATOM      7  H5  UNL     1      19.033  10.638   4.695  1.00  0.00     0.186 HD
HETATM    8  C14 UNL     1      17.134   9.881   4.440  1.00  0.00     0.681 A 
HETATM    9  N6  UNL     1      16.994   9.594   5.674  1.00  0.00    -0.221 N 
ATOM     10  H6  UNL     1      17.756   9.798   6.320  1.00  0.00     0.178 HD
HETATM   11  N7  UNL     1      16.151   9.628   3.577  1.00  0.00    -0.175 N 
ATOM     12  H7  UNL     1      15.281   9.201   3.897  1.00  0.00     0.186 HD
HETATM   13  C20 UNL     1      16.315   9.941   2.285  1.00  0.00     0.140 A 
ENDROOT
BRANCH   5  14
HETATM   14  N3  UNL     1      19.598  11.324   2.416  1.00  0.00    -0.373 N 
ATOM     15  H3  UNL     1      19.636  12.331   2.575  1.00  0.00     0.161 HD
BRANCH  14  16
HETATM   16  C8  UNL     1      20.784  10.768   1.869  1.00  0.00     0.140 C 
BRANCH  16  17
HETATM   17  C9  UNL     1      21.885  10.613   2.887  1.00  0.00     0.136 C 
BRANCH  17  18
HETATM   18  N4  UNL     1      23.022   9.888   2.436  1.00  0.00    -0.407 N 
HETATM   19  C10 UNL     1      22.834   9.193   1.202  1.00  0.00     0.143 C 
HETATM   20  C11 UNL     1      24.073   8.472   0.788  1.00  0.00     0.187 C 
HETATM   21  O3  UNL     1      25.145   8.821   1.617  1.00  0.00    -0.388 OA
HETATM   22  C12 UNL     1      24.821   8.330   2.880  1.00  0.00     0.187 C 
HETATM   23  C13 UNL     1      23.710   9.175   3.463  1.00  0.00     0.143 C 
ENDBRANCH  17  18
ENDBRANCH  16  17
ENDBRANCH  14  16
ENDBRANCH   5  14
BRANCH   3  24
HETATM   24  N2  UNL     1      18.245  11.285  -0.411  1.00  0.00    -0.113 N 
HETATM   25  O1  UNL     1      18.487  12.524  -0.298  1.00  0.00    -0.532 OA
HETATM   26  O2  UNL     1      18.891  10.660  -1.421  1.00  0.00    -0.532 OA
ENDBRANCH   3  24
BRANCH   1  27
HETATM   27  C2  UNL     1      14.139   9.223   1.252  1.00  0.00     0.083 C 
HETATM   28  C1  UNL     1      13.299   9.844   0.168  1.00  0.00     0.032 C 
HETATM   29  C3  UNL     1      14.226   7.715   1.071  1.00  0.00     0.032 C 
ENDBRANCH   1  27
BRANCH   9  30
HETATM   30  C15 UNL     1      15.799   8.995   6.177  1.00  0.00     0.099 C 
HETATM   31  C16 UNL     1      15.925   8.316   7.503  1.00  0.00     0.026 C 
HETATM   32  C17 UNL     1      14.633   8.630   8.233  1.00  0.00     0.002 C 
HETATM   33  C18 UNL     1      13.817   9.497   7.316  1.00  0.00     0.002 C 
HETATM   34  C19 UNL     1      14.862  10.188   6.498  1.00  0.00     0.026 C 
ENDBRANCH   9  30
TORSDOF 7
ENDMDL
