MODEL 1
REMARK VINA RESULT: -9.046044395      0.000      0.000
REMARK  7 active torsions:
REMARK  status: ('A' for Active; 'I' for Inactive)
REMARK    1  A    between atoms: N1_7  and  C7_8 
REMARK    2  A    between atoms: C7_8  and  C8_9 
REMARK    3  A    between atoms: C8_9  and  N2_10 
REMARK    4  A    between atoms: C10_15  and  C11_16 
REMARK    5  A    between atoms: N6_26  and  C17_27 
REMARK    6  A    between atoms: C20_30  and  C21_31 
REMARK    7  A    between atoms: C21_31  and  O1_32 
ROOT
HETATM    1  N2  UNL     1      15.432   9.473   0.694  1.00  0.00    -0.373 N 
ATOM      2  H2  UNL     1      14.417   9.389   0.660  1.00  0.00     0.161 HD
HETATM    3  C9  UNL     1      15.994   9.438   1.851  1.00  0.00     0.133 A 
HETATM    4  N3  UNL     1      17.322   9.537   2.056  1.00  0.00    -0.330 N 
ATOM      5  H3  UNL     1      17.941   9.646   1.252  1.00  0.00     0.168 HD
HETATM    6  C10 UNL     1      17.858   9.497   3.299  1.00  0.00     0.088 A 
HETATM    7  N4  UNL     1      17.076   9.356   4.383  1.00  0.00    -0.330 N 
ATOM      8  H4  UNL     1      17.498   9.329   5.311  1.00  0.00     0.168 HD
HETATM    9  C14 UNL     1      15.741   9.251   4.255  1.00  0.00     0.143 A 
HETATM   10  C15 UNL     1      15.211   9.294   2.977  1.00  0.00     0.122 A 
HETATM   11  N5  UNL     1      13.872   9.167   3.153  1.00  0.00    -0.346 N 
ATOM     12  H5  UNL     1      13.172   9.158   2.412  1.00  0.00     0.167 HD
HETATM   13  C16 UNL     1      13.626   9.056   4.469  1.00  0.00     0.188 A 
HETATM   14  N6  UNL     1      14.767   9.105   5.175  1.00  0.00    -0.300 N 
ENDROOT
BRANCH   1  15
HETATM   15  C8  UNL     1      16.123   9.621  -0.547  1.00  0.00     0.151 C 
BRANCH  15  16
HETATM   16  C7  UNL     1      15.367   8.871  -1.605  1.00  0.00     0.293 C 
BRANCH  16  17
HETATM   17  N1  UNL     1      14.575   9.662  -2.479  1.00  0.00     0.098 N 
HETATM   18  C2  UNL     1      13.260   9.994  -2.026  1.00  0.00     0.219 C 
HETATM   19  C1  UNL     1      13.292  11.427  -1.524  1.00  0.00     0.043 C 
HETATM   20  C3  UNL     1      12.327   9.941  -3.192  1.00  0.00     0.037 C 
HETATM   21  C4  UNL     1      13.205   9.808  -4.396  1.00  0.00     0.037 C 
HETATM   22  C5  UNL     1      14.479   9.212  -3.831  1.00  0.00     0.219 C 
HETATM   23  C6  UNL     1      15.699   9.714  -4.580  1.00  0.00     0.043 C 
ENDBRANCH  16  17
ENDBRANCH  15  16
ENDBRANCH   1  15
BRANCH   6  24
HETATM   24  C11 UNL     1      19.323   9.605   3.529  1.00  0.00     0.053 A 
HETATM   25  C12 UNL     1      20.282   9.141   2.507  1.00  0.00     0.013 A 
HETATM   26  C13 UNL     1      19.995   8.232   3.662  1.00  0.00     0.013 A 
ENDBRANCH   6  24
BRANCH  14  27
HETATM   27  C17 UNL     1      14.911   9.019   6.631  1.00  0.00     0.231 C 
HETATM   28  C18 UNL     1      13.998   8.006   7.218  1.00  0.00     0.057 C 
HETATM   29  C19 UNL     1      12.981   8.817   7.956  1.00  0.00     0.038 C 
HETATM   30  C20 UNL     1      13.423  10.228   7.790  1.00  0.00     0.147 C 
HETATM   31  O2  UNL     1      14.645  10.240   7.183  1.00  0.00    -0.359 OA
BRANCH  30  32
HETATM   32  C21 UNL     1      13.574  10.916   9.151  1.00  0.00     0.196 C 
BRANCH  32  33
HETATM   33  O1  UNL     1      12.596  11.889   9.312  1.00  0.00    -0.398 OA
ATOM     34  H1  UNL     1      12.780  12.419  10.079  1.00  0.00     0.209 HD
ENDBRANCH  32  33
ENDBRANCH  30  32
ENDBRANCH  14  27
TORSDOF 7
ENDMDL
MODEL 2
REMARK VINA RESULT: -8.982518225      3.419      8.577
REMARK  7 active torsions:
REMARK  status: ('A' for Active; 'I' for Inactive)
REMARK    1  A    between atoms: N1_7  and  C7_8 
REMARK    2  A    between atoms: C7_8  and  C8_9 
REMARK    3  A    between atoms: C8_9  and  N2_10 
REMARK    4  A    between atoms: C10_15  and  C11_16 
REMARK    5  A    between atoms: N6_26  and  C17_27 
REMARK    6  A    between atoms: C20_30  and  C21_31 
REMARK    7  A    between atoms: C21_31  and  O1_32 
ROOT
HETATM    1  N2  UNL     1      15.084   9.613   3.705  1.00  0.00    -0.373 N 
ATOM      2  H2  UNL     1      14.126   9.264   3.730  1.00  0.00     0.161 HD
HETATM    3  C9  UNL     1      15.512  10.094   2.591  1.00  0.00     0.133 A 
HETATM    4  N3  UNL     1      16.750  10.590   2.401  1.00  0.00    -0.330 N 
ATOM      5  H3  UNL     1      17.406  10.596   3.183  1.00  0.00     0.168 HD
HETATM    6  C10 UNL     1      17.148  11.081   1.203  1.00  0.00     0.088 A 
HETATM    7  N4  UNL     1      16.313  11.089   0.150  1.00  0.00    -0.330 N 
ATOM      8  H4  UNL     1      16.631  11.462  -0.745  1.00  0.00     0.168 HD
HETATM    9  C14 UNL     1      15.062  10.610   0.265  1.00  0.00     0.143 A 
HETATM   10  C15 UNL     1      14.672  10.112   1.497  1.00  0.00     0.122 A 
HETATM   11  N5  UNL     1      13.391   9.708   1.317  1.00  0.00    -0.346 N 
ATOM     12  H5  UNL     1      12.793   9.288   2.029  1.00  0.00     0.167 HD
HETATM   13  C16 UNL     1      13.042   9.953   0.044  1.00  0.00     0.188 A 
HETATM   14  N6  UNL     1      14.059  10.513  -0.631  1.00  0.00    -0.300 N 
ENDROOT
BRANCH   1  15
HETATM   15  C8  UNL     1      15.847   9.531   4.908  1.00  0.00     0.151 C 
BRANCH  15  16
HETATM   16  C7  UNL     1      15.116  10.275   5.988  1.00  0.00     0.293 C 
BRANCH  16  17
HETATM   17  N1  UNL     1      14.773   9.518   7.139  1.00  0.00     0.098 N 
HETATM   18  C2  UNL     1      15.026   8.112   7.078  1.00  0.00     0.219 C 
HETATM   19  C1  UNL     1      16.300   7.837   7.859  1.00  0.00     0.043 C 
HETATM   20  C3  UNL     1      13.909   7.397   7.765  1.00  0.00     0.037 C 
HETATM   21  C4  UNL     1      13.117   8.465   8.451  1.00  0.00     0.037 C 
HETATM   22  C5  UNL     1      13.456   9.711   7.657  1.00  0.00     0.219 C 
HETATM   23  C6  UNL     1      13.478  10.940   8.545  1.00  0.00     0.043 C 
ENDBRANCH  16  17
ENDBRANCH  15  16
ENDBRANCH   1  15
BRANCH   6  24
HETATM   24  C11 UNL     1      18.513  11.631   0.991  1.00  0.00     0.053 A 
HETATM   25  C12 UNL     1      19.212  11.434  -0.295  1.00  0.00     0.013 A 
HETATM   26  C13 UNL     1      19.569  10.526   0.842  1.00  0.00     0.013 A 
ENDBRANCH   6  24
BRANCH  14  27
HETATM   27  C17 UNL     1      14.069  10.923  -2.038  1.00  0.00     0.231 C 
HETATM   28  C18 UNL     1      12.878  10.418  -2.768  1.00  0.00     0.057 C 
HETATM   29  C19 UNL     1      13.429   9.369  -3.681  1.00  0.00     0.038 C 
HETATM   30  C20 UNL     1      14.899   9.394  -3.451  1.00  0.00     0.147 C 
HETATM   31  O2  UNL     1      15.200  10.448  -2.638  1.00  0.00    -0.359 OA
BRANCH  30  32
HETATM   32  C21 UNL     1      15.653   9.593  -4.770  1.00  0.00     0.196 C 
BRANCH  32  33
HETATM   33  O1  UNL     1      14.824  10.179  -5.717  1.00  0.00    -0.398 OA
ATOM     34  H1  UNL     1      15.216  10.121  -6.581  1.00  0.00     0.209 HD
ENDBRANCH  32  33
ENDBRANCH  30  32
ENDBRANCH  14  27
TORSDOF 7
ENDMDL
MODEL 3
REMARK VINA RESULT: -8.915406678      3.380      8.231
REMARK  7 active torsions:
REMARK  status: ('A' for Active; 'I' for Inactive)
REMARK    1  A    between atoms: N1_7  and  C7_8 
REMARK    2  A    between atoms: C7_8  and  C8_9 
REMARK    3  A    between atoms: C8_9  and  N2_10 
REMARK    4  A    between atoms: C10_15  and  C11_16 
REMARK    5  A    between atoms: N6_26  and  C17_27 
REMARK    6  A    between atoms: C20_30  and  C21_31 
REMARK    7  A    between atoms: C21_31  and  O1_32 
ROOT
HETATM    1  N2  UNL     1      16.121   8.773   3.744  1.00  0.00    -0.373 N 
ATOM      2  H2  UNL     1      15.201   8.342   3.829  1.00  0.00     0.161 HD
HETATM    3  C9  UNL     1      16.350   9.486   2.698  1.00  0.00     0.133 A 
HETATM    4  N3  UNL     1      17.514  10.116   2.446  1.00  0.00    -0.330 N 
ATOM      5  H3  UNL     1      18.277  10.036   3.119  1.00  0.00     0.168 HD
HETATM    6  C10 UNL     1      17.700  10.853   1.324  1.00  0.00     0.088 A 
HETATM    7  N4  UNL     1      16.719  10.981   0.414  1.00  0.00    -0.330 N 
ATOM      8  H4  UNL     1      16.878  11.539  -0.425  1.00  0.00     0.168 HD
HETATM    9  C14 UNL     1      15.530  10.381   0.599  1.00  0.00     0.143 A 
HETATM   10  C15 UNL     1      15.358   9.632   1.751  1.00  0.00     0.122 A 
HETATM   11  N5  UNL     1      14.091   9.156   1.669  1.00  0.00    -0.346 N 
ATOM     12  H5  UNL     1      13.632   8.562   2.359  1.00  0.00     0.167 HD
HETATM   13  C16 UNL     1      13.544   9.601   0.526  1.00  0.00     0.188 A 
HETATM   14  N6  UNL     1      14.414  10.363  -0.157  1.00  0.00    -0.300 N 
ENDROOT
BRANCH   1  15
HETATM   15  C8  UNL     1      17.058   8.538   4.796  1.00  0.00     0.151 C 
BRANCH  15  16
HETATM   16  C7  UNL     1      16.728   9.452   5.941  1.00  0.00     0.293 C 
BRANCH  16  17
HETATM   17  N1  UNL     1      15.542   9.145   6.657  1.00  0.00     0.098 N 
HETATM   18  C2  UNL     1      14.425  10.014   6.447  1.00  0.00     0.219 C 
HETATM   19  C1  UNL     1      13.468   9.316   5.496  1.00  0.00     0.043 C 
HETATM   20  C3  UNL     1      13.716  10.202   7.749  1.00  0.00     0.037 C 
HETATM   21  C4  UNL     1      14.324   9.201   8.679  1.00  0.00     0.037 C 
HETATM   22  C5  UNL     1      15.684   8.936   8.062  1.00  0.00     0.219 C 
HETATM   23  C6  UNL     1      16.116   7.498   8.280  1.00  0.00     0.043 C 
ENDBRANCH  16  17
ENDBRANCH  15  16
ENDBRANCH   1  15
BRANCH   6  24
HETATM   24  C11 UNL     1      18.982  11.550   1.043  1.00  0.00     0.053 A 
HETATM   25  C12 UNL     1      19.719  11.294  -0.211  1.00  0.00     0.013 A 
HETATM   26  C13 UNL     1      20.177  10.587   1.027  1.00  0.00     0.013 A 
ENDBRANCH   6  24
BRANCH  14  27
HETATM   27  C17 UNL     1      14.191  11.024  -1.445  1.00  0.00     0.231 C 
HETATM   28  C18 UNL     1      12.862  10.687  -2.016  1.00  0.00     0.057 C 
HETATM   29  C19 UNL     1      13.179   9.812  -3.187  1.00  0.00     0.038 C 
HETATM   30  C20 UNL     1      14.666   9.765  -3.237  1.00  0.00     0.147 C 
HETATM   31  O2  UNL     1      15.167  10.645  -2.322  1.00  0.00    -0.359 OA
BRANCH  30  32
HETATM   32  C21 UNL     1      15.179  10.188  -4.618  1.00  0.00     0.196 C 
BRANCH  32  33
HETATM   33  O1  UNL     1      14.123  10.290  -5.514  1.00  0.00    -0.398 OA
ATOM     34  H1  UNL     1      14.178  11.107  -5.997  1.00  0.00     0.209 HD
ENDBRANCH  32  33
ENDBRANCH  30  32
ENDBRANCH  14  27
TORSDOF 7
ENDMDL
MODEL 4
REMARK VINA RESULT: -8.786176654      4.045      8.560
REMARK  7 active torsions:
REMARK  status: ('A' for Active; 'I' for Inactive)
REMARK    1  A    between atoms: N1_7  and  C7_8 
REMARK    2  A    between atoms: C7_8  and  C8_9 
REMARK    3  A    between atoms: C8_9  and  N2_10 
REMARK    4  A    between atoms: C10_15  and  C11_16 
REMARK    5  A    between atoms: N6_26  and  C17_27 
REMARK    6  A    between atoms: C20_30  and  C21_31 
REMARK    7  A    between atoms: C21_31  and  O1_32 
ROOT
HETATM    1  N2  UNL     1      17.205  11.318   1.476  1.00  0.00    -0.373 N 
ATOM      2  H2  UNL     1      18.025  11.576   0.928  1.00  0.00     0.161 HD
HETATM    3  C9  UNL     1      16.252  10.704   0.867  1.00  0.00     0.133 A 
HETATM    4  N3  UNL     1      15.108  10.301   1.454  1.00  0.00    -0.330 N 
ATOM      5  H3  UNL     1      14.970  10.484   2.448  1.00  0.00     0.168 HD
HETATM    6  C10 UNL     1      14.136   9.660   0.761  1.00  0.00     0.088 A 
HETATM    7  N4  UNL     1      14.281   9.402  -0.550  1.00  0.00    -0.330 N 
ATOM      8  H4  UNL     1      13.537   8.920  -1.055  1.00  0.00     0.168 HD
HETATM    9  C14 UNL     1      15.396   9.775  -1.203  1.00  0.00     0.143 A 
HETATM   10  C15 UNL     1      16.378  10.429  -0.479  1.00  0.00     0.122 A 
HETATM   11  N5  UNL     1      17.363  10.678  -1.377  1.00  0.00    -0.346 N 
ATOM     12  H5  UNL     1      18.245  11.151  -1.180  1.00  0.00     0.167 HD
HETATM   13  C16 UNL     1      16.980  10.196  -2.571  1.00  0.00     0.188 A 
HETATM   14  N6  UNL     1      15.764   9.631  -2.492  1.00  0.00    -0.300 N 
ENDROOT
BRANCH   1  15
HETATM   15  C8  UNL     1      17.201  11.666   2.860  1.00  0.00     0.151 C 
BRANCH  15  16
HETATM   16  C7  UNL     1      18.456  11.135   3.489  1.00  0.00     0.293 C 
BRANCH  16  17
HETATM   17  N1  UNL     1      18.684   9.742   3.336  1.00  0.00     0.098 N 
HETATM   18  C2  UNL     1      18.100   8.886   4.322  1.00  0.00     0.219 C 
HETATM   19  C1  UNL     1      16.851   8.268   3.718  1.00  0.00     0.043 C 
HETATM   20  C3  UNL     1      19.058   7.778   4.619  1.00  0.00     0.037 C 
HETATM   21  C4  UNL     1      20.124   7.886   3.576  1.00  0.00     0.037 C 
HETATM   22  C5  UNL     1      20.040   9.337   3.143  1.00  0.00     0.219 C 
HETATM   23  C6  UNL     1      20.370   9.492   1.671  1.00  0.00     0.043 C 
ENDBRANCH  16  17
ENDBRANCH  15  16
ENDBRANCH   1  15
BRANCH   6  24
HETATM   24  C11 UNL     1      12.874   9.213   1.406  1.00  0.00     0.053 A 
HETATM   25  C12 UNL     1      12.739   9.212   2.876  1.00  0.00     0.013 A 
HETATM   26  C13 UNL     1      13.055   7.913   2.202  1.00  0.00     0.013 A 
ENDBRANCH   6  24
BRANCH  14  27
HETATM   27  C17 UNL     1      15.008   8.999  -3.576  1.00  0.00     0.231 C 
HETATM   28  C18 UNL     1      15.399   9.535  -4.906  1.00  0.00     0.057 C 
HETATM   29  C19 UNL     1      14.213  10.337  -5.338  1.00  0.00     0.038 C 
HETATM   30  C20 UNL     1      13.209  10.150  -4.255  1.00  0.00     0.147 C 
HETATM   31  O2  UNL     1      13.674   9.212  -3.380  1.00  0.00    -0.359 OA
BRANCH  30  32
HETATM   32  C21 UNL     1      11.882   9.638  -4.824  1.00  0.00     0.196 C 
BRANCH  32  33
HETATM   33  O1  UNL     1      11.908   8.254  -4.939  1.00  0.00    -0.398 OA
ATOM     34  H1  UNL     1      11.584   7.988  -5.792  1.00  0.00     0.209 HD
ENDBRANCH  32  33
ENDBRANCH  30  32
ENDBRANCH  14  27
TORSDOF 7
ENDMDL
MODEL 5
REMARK VINA RESULT: -8.752072619      3.454      8.631
REMARK  7 active torsions:
REMARK  status: ('A' for Active; 'I' for Inactive)
REMARK    1  A    between atoms: N1_7  and  C7_8 
REMARK    2  A    between atoms: C7_8  and  C8_9 
REMARK    3  A    between atoms: C8_9  and  N2_10 
REMARK    4  A    between atoms: C10_15  and  C11_16 
REMARK    5  A    between atoms: N6_26  and  C17_27 
REMARK    6  A    between atoms: C20_30  and  C21_31 
REMARK    7  A    between atoms: C21_31  and  O1_32 
ROOT
HETATM    1  N2  UNL     1      14.985   9.357   3.595  1.00  0.00    -0.373 N 
ATOM      2  H2  UNL     1      14.024   9.016   3.603  1.00  0.00     0.161 HD
HETATM    3  C9  UNL     1      15.422   9.878   2.502  1.00  0.00     0.133 A 
HETATM    4  N3  UNL     1      16.666  10.370   2.337  1.00  0.00    -0.330 N 
ATOM      5  H3  UNL     1      17.319  10.338   3.120  1.00  0.00     0.168 HD
HETATM    6  C10 UNL     1      17.072  10.904   1.161  1.00  0.00     0.088 A 
HETATM    7  N4  UNL     1      16.241  10.963   0.106  1.00  0.00    -0.330 N 
ATOM      8  H4  UNL     1      16.566  11.368  -0.772  1.00  0.00     0.168 HD
HETATM    9  C14 UNL     1      14.985  10.491   0.198  1.00  0.00     0.143 A 
HETATM   10  C15 UNL     1      14.587   9.948   1.407  1.00  0.00     0.122 A 
HETATM   11  N5  UNL     1      13.302   9.563   1.207  1.00  0.00    -0.346 N 
ATOM     12  H5  UNL     1      12.698   9.121   1.900  1.00  0.00     0.167 HD
HETATM   13  C16 UNL     1      12.960   9.863  -0.056  1.00  0.00     0.188 A 
HETATM   14  N6  UNL     1      13.985  10.440  -0.705  1.00  0.00    -0.300 N 
ENDROOT
BRANCH   1  15
HETATM   15  C8  UNL     1      15.744   9.219   4.796  1.00  0.00     0.151 C 
BRANCH  15  16
HETATM   16  C7  UNL     1      15.054   9.988   5.886  1.00  0.00     0.293 C 
BRANCH  16  17
HETATM   17  N1  UNL     1      14.717   9.247   7.049  1.00  0.00     0.098 N 
HETATM   18  C2  UNL     1      13.530   9.645   7.741  1.00  0.00     0.219 C 
HETATM   19  C1  UNL     1      12.429   8.666   7.373  1.00  0.00     0.043 C 
HETATM   20  C3  UNL     1      13.772   9.527   9.210  1.00  0.00     0.037 C 
HETATM   21  C4  UNL     1      15.073   8.800   9.340  1.00  0.00     0.037 C 
HETATM   22  C5  UNL     1      15.756   9.072   8.014  1.00  0.00     0.219 C 
HETATM   23  C6  UNL     1      16.603   7.891   7.580  1.00  0.00     0.043 C 
ENDBRANCH  16  17
ENDBRANCH  15  16
ENDBRANCH   1  15
BRANCH   6  24
HETATM   24  C11 UNL     1      18.443  11.449   0.975  1.00  0.00     0.053 A 
HETATM   25  C12 UNL     1      19.189  11.201  -0.275  1.00  0.00     0.013 A 
HETATM   26  C13 UNL     1      19.506  10.343   0.911  1.00  0.00     0.013 A 
ENDBRANCH   6  24
BRANCH  14  27
HETATM   27  C17 UNL     1      14.004  10.906  -2.094  1.00  0.00     0.231 C 
HETATM   28  C18 UNL     1      12.853  10.376  -2.870  1.00  0.00     0.057 C 
HETATM   29  C19 UNL     1      13.471   9.391  -3.810  1.00  0.00     0.038 C 
HETATM   30  C20 UNL     1      14.933   9.475  -3.547  1.00  0.00     0.147 C 
HETATM   31  O2  UNL     1      15.168  10.509  -2.687  1.00  0.00    -0.359 OA
BRANCH  30  32
HETATM   32  C21 UNL     1      15.704   9.762  -4.840  1.00  0.00     0.196 C 
BRANCH  32  33
HETATM   33  O1  UNL     1      14.837  10.199  -5.833  1.00  0.00    -0.398 OA
ATOM     34  H1  UNL     1      15.306  10.324  -6.650  1.00  0.00     0.209 HD
ENDBRANCH  32  33
ENDBRANCH  30  32
ENDBRANCH  14  27
TORSDOF 7
ENDMDL
