MODEL 1
REMARK VINA RESULT: -8.550081751      0.000      0.000
REMARK  6 active torsions:
REMARK  status: ('A' for Active; 'I' for Inactive)
REMARK    1  A    between atoms: N2_6  and  C3_8 
REMARK    2  A    between atoms: C3_8  and  C4_9 
REMARK    3  A    between atoms: C4_9  and  C5_10 
REMARK    4  A    between atoms: C5_10  and  C6_11 
REMARK    5  A    between atoms: C6_11  and  C7_12 
REMARK    6  A    between atoms: C7_12  and  N3_13 
ROOT
HETATM    1  C4  UNL     1      13.128  10.337   2.314  1.00  0.00     0.044 C 
ENDROOT
BRANCH   1   2
HETATM    2  C3  UNL     1      13.325  10.236   0.810  1.00  0.00     0.062 C 
BRANCH   2   3
HETATM    3  N2  UNL     1      14.679  10.225   0.448  1.00  0.00    -0.355 N 
HETATM    4  C2  UNL     1      15.333  10.200  -0.618  1.00  0.00     0.128 A 
HETATM    5  N1  UNL     1      16.701  10.199  -0.507  1.00  0.00    -0.293 N 
HETATM    6  C16 UNL     1      14.727  10.177  -1.874  1.00  0.00     0.075 A 
HETATM    7  C1  UNL     1      17.363  10.173  -1.673  1.00  0.00     0.326 A 
ATOM      8  H1  UNL     1      17.178  10.216   0.394  1.00  0.00     0.172 HD
HETATM    9  O1  UNL     1      18.639  10.171  -1.560  1.00  0.00    -0.247 OA
HETATM   10  N4  UNL     1      16.819  10.150  -2.871  1.00  0.00    -0.307 N 
HETATM   11  C19 UNL     1      15.451  10.152  -3.037  1.00  0.00     0.057 A 
ATOM     12  H4  UNL     1      17.422  10.131  -3.694  1.00  0.00     0.170 HD
HETATM   13  C18 UNL     1      14.765  10.131  -4.194  1.00  0.00     0.038 A 
HETATM   14  C17 UNL     1      13.400  10.136  -4.116  1.00  0.00     0.053 A 
HETATM   15  S1  UNL     1      13.117  10.172  -2.437  1.00  0.00    -0.096 SA
ATOM     16  H2  UNL     1      15.289  10.242   1.265  1.00  0.00     0.166 HD
ENDBRANCH   2   3
ENDBRANCH   1   2
BRANCH   1  17
HETATM   17  C5  UNL     1      13.890   9.266   3.014  1.00  0.00     0.007 C 
BRANCH  17  18
HETATM   18  C6  UNL     1      13.687   9.217   4.505  1.00  0.00     0.030 C 
BRANCH  18  19
HETATM   19  C7  UNL     1      14.762  10.001   5.176  1.00  0.00     0.272 C 
BRANCH  19  20
HETATM   20  N3  UNL     1      15.975  10.085   4.344  1.00  0.00     0.092 N 
HETATM   21  C8  UNL     1      16.839   8.975   4.780  1.00  0.00     0.298 C 
HETATM   22  C9  UNL     1      17.383   8.215   3.596  1.00  0.00     0.198 C 
HETATM   23  O2  UNL     1      18.673   7.816   3.715  1.00  0.00    -0.387 OA
HETATM   24  C10 UNL     1      19.633   8.768   3.771  1.00  0.00     0.193 C 
HETATM   25  C11 UNL     1      20.047   9.338   2.436  1.00  0.00     0.193 C 
HETATM   26  O3  UNL     1      19.070  10.063   1.811  1.00  0.00    -0.387 OA
HETATM   27  C12 UNL     1      19.163  11.421   1.980  1.00  0.00     0.193 C 
HETATM   28  C13 UNL     1      17.871  12.075   1.499  1.00  0.00     0.193 C 
HETATM   29  O4  UNL     1      16.771  11.609   2.213  1.00  0.00    -0.387 OA
HETATM   30  C14 UNL     1      16.644  12.264   3.407  1.00  0.00     0.198 C 
HETATM   31  C15 UNL     1      16.573  11.356   4.607  1.00  0.00     0.298 C 
ENDBRANCH  19  20
ENDBRANCH  18  19
ENDBRANCH  17  18
ENDBRANCH   1  17
TORSDOF 6
ENDMDL
MODEL 2
REMARK VINA RESULT: -8.221239220      1.067      2.319
REMARK  6 active torsions:
REMARK  status: ('A' for Active; 'I' for Inactive)
REMARK    1  A    between atoms: N2_6  and  C3_8 
REMARK    2  A    between atoms: C3_8  and  C4_9 
REMARK    3  A    between atoms: C4_9  and  C5_10 
REMARK    4  A    between atoms: C5_10  and  C6_11 
REMARK    5  A    between atoms: C6_11  and  C7_12 
REMARK    6  A    between atoms: C7_12  and  N3_13 
ROOT
HETATM    1  C4  UNL     1      12.950   9.077   1.569  1.00  0.00     0.044 C 
ENDROOT
BRANCH   1   2
HETATM    2  C3  UNL     1      13.261  10.206   0.598  1.00  0.00     0.062 C 
BRANCH   2   3
HETATM    3  N2  UNL     1      14.610  10.230   0.221  1.00  0.00    -0.355 N 
HETATM    4  C2  UNL     1      15.253  10.212  -0.851  1.00  0.00     0.128 A 
HETATM    5  N1  UNL     1      16.622  10.252  -0.757  1.00  0.00    -0.293 N 
HETATM    6  C16 UNL     1      14.634  10.156  -2.100  1.00  0.00     0.075 A 
HETATM    7  C1  UNL     1      17.271  10.232  -1.929  1.00  0.00     0.326 A 
ATOM      8  H1  UNL     1      17.108  10.294   0.138  1.00  0.00     0.172 HD
HETATM    9  O1  UNL     1      18.548  10.268  -1.831  1.00  0.00    -0.247 OA
HETATM   10  N4  UNL     1      16.714  10.178  -3.121  1.00  0.00    -0.307 N 
HETATM   11  C19 UNL     1      15.345  10.138  -3.271  1.00  0.00     0.057 A 
ATOM     12  H4  UNL     1      17.308  10.167  -3.950  1.00  0.00     0.170 HD
HETATM   13  C18 UNL     1      14.648  10.083  -4.420  1.00  0.00     0.038 A 
HETATM   14  C17 UNL     1      13.284  10.049  -4.326  1.00  0.00     0.053 A 
HETATM   15  S1  UNL     1      13.019  10.097  -2.644  1.00  0.00    -0.096 SA
ATOM     16  H2  UNL     1      15.228  10.275   1.031  1.00  0.00     0.166 HD
ENDBRANCH   2   3
ENDBRANCH   1   2
BRANCH   1  17
HETATM   17  C5  UNL     1      12.877   9.593   2.964  1.00  0.00     0.007 C 
BRANCH  17  18
HETATM   18  C6  UNL     1      14.107   9.343   3.797  1.00  0.00     0.030 C 
BRANCH  18  19
HETATM   19  C7  UNL     1      14.799  10.637   4.054  1.00  0.00     0.272 C 
BRANCH  19  20
HETATM   20  N3  UNL     1      16.256  10.523   3.868  1.00  0.00     0.092 N 
HETATM   21  C8  UNL     1      16.567  11.287   2.649  1.00  0.00     0.298 C 
HETATM   22  C9  UNL     1      17.752  12.196   2.867  1.00  0.00     0.198 C 
HETATM   23  O2  UNL     1      18.607  12.282   1.820  1.00  0.00    -0.387 OA
HETATM   24  C10 UNL     1      19.297  11.173   1.467  1.00  0.00     0.193 C 
HETATM   25  C11 UNL     1      20.521  10.888   2.303  1.00  0.00     0.193 C 
HETATM   26  O3  UNL     1      20.246  10.558   3.602  1.00  0.00    -0.387 OA
HETATM   27  C12 UNL     1      20.233   9.213   3.864  1.00  0.00     0.193 C 
HETATM   28  C13 UNL     1      19.627   8.977   5.244  1.00  0.00     0.193 C 
HETATM   29  O4  UNL     1      18.324   9.460   5.314  1.00  0.00    -0.387 OA
HETATM   30  C14 UNL     1      17.436   8.563   4.786  1.00  0.00     0.198 C 
HETATM   31  C15 UNL     1      16.548   9.133   3.710  1.00  0.00     0.298 C 
ENDBRANCH  19  20
ENDBRANCH  18  19
ENDBRANCH  17  18
ENDBRANCH   1  17
TORSDOF 6
ENDMDL
MODEL 3
REMARK VINA RESULT: -8.213960944      2.256      4.533
REMARK  6 active torsions:
REMARK  status: ('A' for Active; 'I' for Inactive)
REMARK    1  A    between atoms: N2_6  and  C3_8 
REMARK    2  A    between atoms: C3_8  and  C4_9 
REMARK    3  A    between atoms: C4_9  and  C5_10 
REMARK    4  A    between atoms: C5_10  and  C6_11 
REMARK    5  A    between atoms: C6_11  and  C7_12 
REMARK    6  A    between atoms: C7_12  and  N3_13 
ROOT
HETATM    1  C4  UNL     1      18.736  11.213  -0.709  1.00  0.00     0.044 C 
ENDROOT
BRANCH   1   2
HETATM    2  C3  UNL     1      17.777  10.063  -0.970  1.00  0.00     0.062 C 
BRANCH   2   3
HETATM    3  N2  UNL     1      17.258  10.084  -2.272  1.00  0.00    -0.355 N 
HETATM    4  C2  UNL     1      16.128  10.184  -2.796  1.00  0.00     0.128 A 
HETATM    5  N1  UNL     1      16.074  10.157  -4.168  1.00  0.00    -0.293 N 
HETATM    6  C16 UNL     1      14.959  10.320  -2.047  1.00  0.00     0.075 A 
HETATM    7  C1  UNL     1      14.844  10.268  -4.689  1.00  0.00     0.326 A 
ATOM      8  H1  UNL     1      16.908  10.059  -4.747  1.00  0.00     0.172 HD
HETATM    9  O1  UNL     1      14.804  10.240  -5.969  1.00  0.00    -0.247 OA
HETATM   10  N4  UNL     1      13.725  10.397  -4.008  1.00  0.00    -0.307 N 
HETATM   11  C19 UNL     1      13.724  10.431  -2.630  1.00  0.00     0.057 A 
ATOM     12  H4  UNL     1      12.840  10.473  -4.510  1.00  0.00     0.170 HD
HETATM   13  C18 UNL     1      12.662  10.559  -1.814  1.00  0.00     0.038 A 
HETATM   14  C17 UNL     1      12.902  10.567  -0.468  1.00  0.00     0.053 A 
HETATM   15  S1  UNL     1      14.594  10.399  -0.383  1.00  0.00    -0.096 SA
ATOM     16  H2  UNL     1      17.994   9.995  -2.973  1.00  0.00     0.166 HD
ENDBRANCH   2   3
ENDBRANCH   1   2
BRANCH   1  17
HETATM   17  C5  UNL     1      19.643  10.889   0.427  1.00  0.00     0.007 C 
BRANCH  17  18
HETATM   18  C6  UNL     1      19.006  10.973   1.789  1.00  0.00     0.030 C 
BRANCH  18  19
HETATM   19  C7  UNL     1      19.044   9.630   2.434  1.00  0.00     0.272 C 
BRANCH  19  20
HETATM   20  N3  UNL     1      17.892   9.421   3.328  1.00  0.00     0.092 N 
HETATM   21  C8  UNL     1      16.694   9.636   2.498  1.00  0.00     0.298 C 
HETATM   22  C9  UNL     1      15.684   8.535   2.707  1.00  0.00     0.198 C 
HETATM   23  O2  UNL     1      14.392   8.942   2.738  1.00  0.00    -0.387 OA
HETATM   24  C10 UNL     1      13.999   9.741   3.757  1.00  0.00     0.193 C 
HETATM   25  C11 UNL     1      13.690   9.023   5.049  1.00  0.00     0.193 C 
HETATM   26  O3  UNL     1      14.779   8.448   5.643  1.00  0.00    -0.387 OA
HETATM   27  C12 UNL     1      15.348   9.190   6.646  1.00  0.00     0.193 C 
HETATM   28  C13 UNL     1      16.702   8.590   7.008  1.00  0.00     0.193 C 
HETATM   29  O4  UNL     1      17.562   8.583   5.914  1.00  0.00    -0.387 OA
HETATM   30  C14 UNL     1      18.161   9.801   5.748  1.00  0.00     0.198 C 
HETATM   31  C15 UNL     1      17.993  10.392   4.372  1.00  0.00     0.298 C 
ENDBRANCH  19  20
ENDBRANCH  18  19
ENDBRANCH  17  18
ENDBRANCH   1  17
TORSDOF 6
ENDMDL
MODEL 4
REMARK VINA RESULT: -8.213757253      3.378      5.182
REMARK  6 active torsions:
REMARK  status: ('A' for Active; 'I' for Inactive)
REMARK    1  A    between atoms: N2_6  and  C3_8 
REMARK    2  A    between atoms: C3_8  and  C4_9 
REMARK    3  A    between atoms: C4_9  and  C5_10 
REMARK    4  A    between atoms: C5_10  and  C6_11 
REMARK    5  A    between atoms: C6_11  and  C7_12 
REMARK    6  A    between atoms: C7_12  and  N3_13 
ROOT
HETATM    1  C4  UNL     1      18.474  11.504  -0.521  1.00  0.00     0.044 C 
ENDROOT
BRANCH   1   2
HETATM    2  C3  UNL     1      18.111  10.116  -1.023  1.00  0.00     0.062 C 
BRANCH   2   3
HETATM    3  N2  UNL     1      17.467  10.149  -2.267  1.00  0.00    -0.355 N 
HETATM    4  C2  UNL     1      16.287  10.214  -2.676  1.00  0.00     0.128 A 
HETATM    5  N1  UNL     1      16.100  10.221  -4.036  1.00  0.00    -0.293 N 
HETATM    6  C16 UNL     1      15.192  10.280  -1.813  1.00  0.00     0.075 A 
HETATM    7  C1  UNL     1      14.821  10.293  -4.431  1.00  0.00     0.326 A 
ATOM      8  H1  UNL     1      16.875  10.175  -4.696  1.00  0.00     0.172 HD
HETATM    9  O1  UNL     1      14.656  10.297  -5.702  1.00  0.00    -0.247 OA
HETATM   10  N4  UNL     1      13.769  10.355  -3.641  1.00  0.00    -0.307 N 
HETATM   11  C19 UNL     1      13.903  10.353  -2.270  1.00  0.00     0.057 A 
ATOM     12  H4  UNL     1      12.837  10.406  -4.053  1.00  0.00     0.170 HD
HETATM   13  C18 UNL     1      12.922  10.412  -1.351  1.00  0.00     0.038 A 
HETATM   14  C17 UNL     1      13.292  10.395  -0.035  1.00  0.00     0.053 A 
HETATM   15  S1  UNL     1      14.990  10.298  -0.120  1.00  0.00    -0.096 SA
ATOM     16  H2  UNL     1      18.132  10.111  -3.039  1.00  0.00     0.166 HD
ENDBRANCH   2   3
ENDBRANCH   1   2
BRANCH   1  17
HETATM   17  C5  UNL     1      18.755  11.473   0.941  1.00  0.00     0.007 C 
BRANCH  17  18
HETATM   18  C6  UNL     1      19.134  10.120   1.484  1.00  0.00     0.030 C 
BRANCH  18  19
HETATM   19  C7  UNL     1      19.780  10.288   2.817  1.00  0.00     0.272 C 
BRANCH  19  20
HETATM   20  N3  UNL     1      21.184   9.840   2.803  1.00  0.00     0.092 N 
HETATM   21  C8  UNL     1      21.354   9.088   1.548  1.00  0.00     0.298 C 
HETATM   22  C9  UNL     1      22.609   9.514   0.827  1.00  0.00     0.198 C 
HETATM   23  O2  UNL     1      23.302   8.507   0.242  1.00  0.00    -0.387 OA
HETATM   24  C10 UNL     1      23.865   7.571   1.041  1.00  0.00     0.193 C 
HETATM   25  C11 UNL     1      25.181   7.969   1.663  1.00  0.00     0.193 C 
HETATM   26  O3  UNL     1      25.085   8.988   2.571  1.00  0.00    -0.387 OA
HETATM   27  C12 UNL     1      25.031   8.588   3.882  1.00  0.00     0.193 C 
HETATM   28  C13 UNL     1      24.626   9.774   4.751  1.00  0.00     0.193 C 
HETATM   29  O4  UNL     1      23.379  10.269   4.383  1.00  0.00    -0.387 OA
HETATM   30  C14 UNL     1      22.371   9.532   4.941  1.00  0.00     0.198 C 
HETATM   31  C15 UNL     1      21.366   9.005   3.949  1.00  0.00     0.298 C 
ENDBRANCH  19  20
ENDBRANCH  18  19
ENDBRANCH  17  18
ENDBRANCH   1  17
TORSDOF 6
ENDMDL
MODEL 5
REMARK VINA RESULT: -8.159391788      3.033      4.798
REMARK  6 active torsions:
REMARK  status: ('A' for Active; 'I' for Inactive)
REMARK    1  A    between atoms: N2_6  and  C3_8 
REMARK    2  A    between atoms: C3_8  and  C4_9 
REMARK    3  A    between atoms: C4_9  and  C5_10 
REMARK    4  A    between atoms: C5_10  and  C6_11 
REMARK    5  A    between atoms: C6_11  and  C7_12 
REMARK    6  A    between atoms: C7_12  and  N3_13 
ROOT
HETATM    1  C4  UNL     1      18.483  11.582  -0.665  1.00  0.00     0.044 C 
ENDROOT
BRANCH   1   2
HETATM    2  C3  UNL     1      17.985  10.201  -1.061  1.00  0.00     0.062 C 
BRANCH   2   3
HETATM    3  N2  UNL     1      17.371  10.195  -2.320  1.00  0.00    -0.355 N 
HETATM    4  C2  UNL     1      16.201  10.235  -2.759  1.00  0.00     0.128 A 
HETATM    5  N1  UNL     1      16.047  10.205  -4.123  1.00  0.00    -0.293 N 
HETATM    6  C16 UNL     1      15.085  10.308  -1.925  1.00  0.00     0.075 A 
HETATM    7  C1  UNL     1      14.778  10.250  -4.551  1.00  0.00     0.326 A 
ATOM      8  H1  UNL     1      16.840  10.152  -4.763  1.00  0.00     0.172 HD
HETATM    9  O1  UNL     1      14.644  10.221  -5.825  1.00  0.00    -0.247 OA
HETATM   10  N4  UNL     1      13.707  10.319  -3.788  1.00  0.00    -0.307 N 
HETATM   11  C19 UNL     1      13.806  10.353  -2.414  1.00  0.00     0.057 A 
ATOM     12  H4  UNL     1      12.784  10.348  -4.224  1.00  0.00     0.170 HD
HETATM   13  C18 UNL     1      12.802  10.423  -1.522  1.00  0.00     0.038 A 
HETATM   14  C17 UNL     1      13.140  10.443  -0.197  1.00  0.00     0.053 A 
HETATM   15  S1  UNL     1      14.841  10.366  -0.238  1.00  0.00    -0.096 SA
ATOM     16  H2  UNL     1      18.056  10.146  -3.074  1.00  0.00     0.166 HD
ENDBRANCH   2   3
ENDBRANCH   1   2
BRANCH   1  17
HETATM   17  C5  UNL     1      18.124  11.881   0.749  1.00  0.00     0.007 C 
BRANCH  17  18
HETATM   18  C6  UNL     1      18.649  10.894   1.758  1.00  0.00     0.030 C 
BRANCH  18  19
HETATM   19  C7  UNL     1      20.115  11.098   1.931  1.00  0.00     0.272 C 
BRANCH  19  20
HETATM   20  N3  UNL     1      20.802   9.843   2.283  1.00  0.00     0.092 N 
HETATM   21  C8  UNL     1      20.433   9.560   3.680  1.00  0.00     0.298 C 
HETATM   22  C9  UNL     1      20.018   8.119   3.849  1.00  0.00     0.198 C 
HETATM   23  O2  UNL     1      20.442   7.532   4.994  1.00  0.00    -0.387 OA
HETATM   24  C10 UNL     1      21.773   7.355   5.165  1.00  0.00     0.193 C 
HETATM   25  C11 UNL     1      22.353   6.152   4.462  1.00  0.00     0.193 C 
HETATM   26  O3  UNL     1      22.327   6.237   3.097  1.00  0.00    -0.387 OA
HETATM   27  C12 UNL     1      23.502   6.651   2.523  1.00  0.00     0.193 C 
HETATM   28  C13 UNL     1      23.251   6.989   1.057  1.00  0.00     0.193 C 
HETATM   29  O4  UNL     1      22.306   8.002   0.925  1.00  0.00    -0.387 OA
HETATM   30  C14 UNL     1      22.876   9.234   1.098  1.00  0.00     0.198 C 
HETATM   31  C15 UNL     1      22.205  10.084   2.145  1.00  0.00     0.298 C 
ENDBRANCH  19  20
ENDBRANCH  18  19
ENDBRANCH  17  18
ENDBRANCH   1  17
TORSDOF 6
ENDMDL
