MODEL 1
REMARK VINA RESULT: -9.594131191      0.000      0.000
REMARK  6 active torsions:
REMARK  status: ('A' for Active; 'I' for Inactive)
REMARK    1  A    between atoms: C2_2  and  C3_3 
REMARK    2  A    between atoms: C3_3  and  N1_4 
REMARK    3  A    between atoms: C5_6  and  C6_7 
REMARK    4  A    between atoms: C7_10  and  C8_11 
REMARK    5  A    between atoms: C8_11  and  N3_12 
REMARK    6  A    between atoms: N3_12  and  C9_15 
ROOT
HETATM    1  C6  UNL     1      14.819   9.941   0.160  1.00  0.00     0.091 A 
HETATM    2  N2  UNL     1      14.423   9.555   1.383  1.00  0.00    -0.340 N 
ATOM      3  H2  UNL     1      13.483   9.237   1.618  1.00  0.00     0.167 HD
HETATM    4  C7  UNL     1      15.445   9.650   2.254  1.00  0.00     0.115 A 
HETATM    5  N4  UNL     1      16.508  10.106   1.565  1.00  0.00    -0.294 N 
HETATM    6  C19 UNL     1      17.791  10.392   1.912  1.00  0.00     0.101 A 
HETATM    7  C20 UNL     1      18.729  10.858   1.016  1.00  0.00     0.035 A 
HETATM    8  C21 UNL     1      18.320  11.033  -0.284  1.00  0.00     0.091 A 
HETATM    9  N5  UNL     1      17.054  10.751  -0.631  1.00  0.00    -0.350 N 
ATOM     10  H5  UNL     1      16.767  10.886  -1.600  1.00  0.00     0.166 HD
HETATM   11  C22 UNL     1      16.146  10.295   0.261  1.00  0.00     0.141 A 
ENDROOT
BRANCH   4  12
HETATM   12  C8  UNL     1      15.473   9.333   3.699  1.00  0.00     0.309 C 
BRANCH  12  13
HETATM   13  N3  UNL     1      14.586  10.161   4.455  1.00  0.00    -0.060 N 
ATOM     14  H32 UNL     1      14.965  11.101   4.567  1.00  0.00     0.278 HD
ATOM     15  H31 UNL     1      13.747  10.387   3.920  1.00  0.00     0.278 HD
BRANCH  13  16
HETATM   16  C9  UNL     1      14.253   9.585   5.717  1.00  0.00     0.127 C 
HETATM   17  C10 UNL     1      13.090   8.646   5.685  1.00  0.00     0.043 C 
HETATM   18  C11 UNL     1      12.852   8.084   7.060  1.00  0.00    -0.012 C 
HETATM   19  C12 UNL     1      14.028   7.240   7.448  1.00  0.00     0.009 C 
HETATM   20  C16 UNL     1      12.576   9.187   8.050  1.00  0.00     0.009 C 
HETATM   21  C13 UNL     1      15.249   8.129   7.501  1.00  0.00    -0.012 C 
HETATM   22  C14 UNL     1      14.992   9.182   8.562  1.00  0.00     0.009 C 
HETATM   23  C18 UNL     1      15.490   8.809   6.189  1.00  0.00     0.043 C 
HETATM   24  C15 UNL     1      13.845  10.031   8.124  1.00  0.00    -0.012 C 
HETATM   25  C17 UNL     1      14.018  10.661   6.775  1.00  0.00     0.043 C 
ENDBRANCH  13  16
ENDBRANCH  12  13
ENDBRANCH   4  12
BRANCH   1  26
HETATM   26  C5  UNL     1      14.021   9.995  -1.084  1.00  0.00     0.028 A 
HETATM   27  C4  UNL     1      14.060   9.096  -2.124  1.00  0.00     0.125 A 
HETATM   28  N1  UNL     1      13.192   9.490  -3.062  1.00  0.00    -0.299 N 
HETATM   29  N6  UNL     1      12.625  10.598  -2.629  1.00  0.00    -0.309 N 
HETATM   30  C23 UNL     1      13.092  10.952  -1.428  1.00  0.00     0.122 A 
ATOM     31  H6  UNL     1      11.917  11.120  -3.147  1.00  0.00     0.186 HD
BRANCH  28  32
HETATM   32  C3  UNL     1      12.902   8.832  -4.346  1.00  0.00     0.174 C 
BRANCH  32  33
HETATM   33  C2  UNL     1      11.654   9.392  -4.896  1.00  0.00    -0.015 C 
HETATM   34  C1  UNL     1      10.497   8.791  -4.742  1.00  0.00     0.008 C 
ENDBRANCH  32  33
ENDBRANCH  28  32
ENDBRANCH   1  26
TORSDOF 6
ENDMDL
MODEL 2
REMARK VINA RESULT: -9.579975901      0.109      1.383
REMARK  6 active torsions:
REMARK  status: ('A' for Active; 'I' for Inactive)
REMARK    1  A    between atoms: C2_2  and  C3_3 
REMARK    2  A    between atoms: C3_3  and  N1_4 
REMARK    3  A    between atoms: C5_6  and  C6_7 
REMARK    4  A    between atoms: C7_10  and  C8_11 
REMARK    5  A    between atoms: C8_11  and  N3_12 
REMARK    6  A    between atoms: N3_12  and  C9_15 
ROOT
HETATM    1  C6  UNL     1      14.847   9.965   0.110  1.00  0.00     0.091 A 
HETATM    2  N2  UNL     1      14.478   9.564   1.336  1.00  0.00    -0.340 N 
ATOM      3  H2  UNL     1      13.550   9.217   1.583  1.00  0.00     0.167 HD
HETATM    4  C7  UNL     1      15.507   9.687   2.196  1.00  0.00     0.115 A 
HETATM    5  N4  UNL     1      16.548  10.176   1.495  1.00  0.00    -0.294 N 
HETATM    6  C19 UNL     1      17.826  10.499   1.826  1.00  0.00     0.101 A 
HETATM    7  C20 UNL     1      18.739  10.995   0.920  1.00  0.00     0.035 A 
HETATM    8  C21 UNL     1      18.309  11.161  -0.374  1.00  0.00     0.091 A 
HETATM    9  N5  UNL     1      17.047  10.843  -0.706  1.00  0.00    -0.350 N 
ATOM     10  H5  UNL     1      16.744  10.971  -1.671  1.00  0.00     0.166 HD
HETATM   11  C22 UNL     1      16.165  10.358   0.196  1.00  0.00     0.141 A 
ENDROOT
BRANCH   4  12
HETATM   12  C8  UNL     1      15.563   9.368   3.639  1.00  0.00     0.309 C 
BRANCH  12  13
HETATM   13  N3  UNL     1      14.537  10.030   4.382  1.00  0.00    -0.060 N 
ATOM     14  H32 UNL     1      14.716  11.032   4.444  1.00  0.00     0.278 HD
ATOM     15  H31 UNL     1      13.661  10.053   3.861  1.00  0.00     0.278 HD
BRANCH  13  16
HETATM   16  C9  UNL     1      14.352   9.457   5.677  1.00  0.00     0.127 C 
HETATM   17  C10 UNL     1      15.549   8.743   6.218  1.00  0.00     0.043 C 
HETATM   18  C11 UNL     1      15.244   8.209   7.591  1.00  0.00    -0.012 C 
HETATM   19  C12 UNL     1      15.022   9.363   8.521  1.00  0.00     0.009 C 
HETATM   20  C16 UNL     1      14.073   7.261   7.550  1.00  0.00     0.009 C 
HETATM   21  C13 UNL     1      13.818  10.136   8.032  1.00  0.00    -0.012 C 
HETATM   22  C14 UNL     1      12.630   9.194   8.078  1.00  0.00     0.009 C 
HETATM   23  C18 UNL     1      14.007  10.614   6.625  1.00  0.00     0.043 C 
HETATM   24  C15 UNL     1      12.865   8.084   7.110  1.00  0.00    -0.012 C 
HETATM   25  C17 UNL     1      13.140   8.529   5.707  1.00  0.00     0.043 C 
ENDBRANCH  13  16
ENDBRANCH  12  13
ENDBRANCH   4  12
BRANCH   1  26
HETATM   26  C5  UNL     1      14.032   9.998  -1.123  1.00  0.00     0.028 A 
HETATM   27  C4  UNL     1      14.067   9.088  -2.154  1.00  0.00     0.125 A 
HETATM   28  N1  UNL     1      13.183   9.464  -3.086  1.00  0.00    -0.299 N 
HETATM   29  N6  UNL     1      12.611  10.571  -2.657  1.00  0.00    -0.309 N 
HETATM   30  C23 UNL     1      13.090  10.943  -1.466  1.00  0.00     0.122 A 
ATOM     31  H6  UNL     1      11.891  11.081  -3.170  1.00  0.00     0.186 HD
BRANCH  28  32
HETATM   32  C3  UNL     1      12.882   8.789  -4.358  1.00  0.00     0.174 C 
BRANCH  32  33
HETATM   33  C2  UNL     1      11.663   9.385  -4.936  1.00  0.00    -0.015 C 
HETATM   34  C1  UNL     1      10.483   8.828  -4.790  1.00  0.00     0.008 C 
ENDBRANCH  32  33
ENDBRANCH  28  32
ENDBRANCH   1  26
TORSDOF 6
ENDMDL
MODEL 3
REMARK VINA RESULT: -9.563448532      0.055      1.354
REMARK  6 active torsions:
REMARK  status: ('A' for Active; 'I' for Inactive)
REMARK    1  A    between atoms: C2_2  and  C3_3 
REMARK    2  A    between atoms: C3_3  and  N1_4 
REMARK    3  A    between atoms: C5_6  and  C6_7 
REMARK    4  A    between atoms: C7_10  and  C8_11 
REMARK    5  A    between atoms: C8_11  and  N3_12 
REMARK    6  A    between atoms: N3_12  and  C9_15 
ROOT
HETATM    1  C6  UNL     1      14.840   9.953   0.170  1.00  0.00     0.091 A 
HETATM    2  N2  UNL     1      14.450   9.570   1.396  1.00  0.00    -0.340 N 
ATOM      3  H2  UNL     1      13.512   9.248   1.636  1.00  0.00     0.167 HD
HETATM    4  C7  UNL     1      15.475   9.674   2.263  1.00  0.00     0.115 A 
HETATM    5  N4  UNL     1      16.533  10.132   1.568  1.00  0.00    -0.294 N 
HETATM    6  C19 UNL     1      17.815  10.426   1.909  1.00  0.00     0.101 A 
HETATM    7  C20 UNL     1      18.748  10.893   1.007  1.00  0.00     0.035 A 
HETATM    8  C21 UNL     1      18.333  11.061  -0.292  1.00  0.00     0.091 A 
HETATM    9  N5  UNL     1      17.067  10.771  -0.633  1.00  0.00    -0.350 N 
ATOM     10  H5  UNL     1      16.776  10.900  -1.601  1.00  0.00     0.166 HD
HETATM   11  C22 UNL     1      16.165  10.314   0.265  1.00  0.00     0.141 A 
ENDROOT
BRANCH   4  12
HETATM   12  C8  UNL     1      15.510   9.363   3.709  1.00  0.00     0.309 C 
BRANCH  12  13
HETATM   13  N3  UNL     1      14.583  10.152   4.458  1.00  0.00    -0.060 N 
ATOM     14  H32 UNL     1      14.876  11.129   4.494  1.00  0.00     0.278 HD
ATOM     15  H31 UNL     1      13.704  10.265   3.953  1.00  0.00     0.278 HD
BRANCH  13  16
HETATM   16  C9  UNL     1      14.363   9.630   5.768  1.00  0.00     0.127 C 
HETATM   17  C10 UNL     1      14.006  10.656   6.794  1.00  0.00     0.043 C 
HETATM   18  C11 UNL     1      13.772   9.988   8.122  1.00  0.00    -0.012 C 
HETATM   19  C12 UNL     1      12.567   9.104   8.013  1.00  0.00     0.009 C 
HETATM   20  C16 UNL     1      15.002   9.241   8.569  1.00  0.00     0.009 C 
HETATM   21  C13 UNL     1      12.857   8.035   6.985  1.00  0.00    -0.012 C 
HETATM   22  C14 UNL     1      14.044   7.236   7.491  1.00  0.00     0.009 C 
HETATM   23  C18 UNL     1      13.203   8.631   5.656  1.00  0.00     0.043 C 
HETATM   24  C15 UNL     1      15.234   8.134   7.544  1.00  0.00    -0.012 C 
HETATM   25  C17 UNL     1      15.560   8.813   6.249  1.00  0.00     0.043 C 
ENDBRANCH  13  16
ENDBRANCH  12  13
ENDBRANCH   4  12
BRANCH   1  26
HETATM   26  C5  UNL     1      14.036   9.997  -1.071  1.00  0.00     0.028 A 
HETATM   27  C4  UNL     1      14.078   9.096  -2.108  1.00  0.00     0.125 A 
HETATM   28  N1  UNL     1      13.203   9.481  -3.044  1.00  0.00    -0.299 N 
HETATM   29  N6  UNL     1      12.630  10.586  -2.613  1.00  0.00    -0.309 N 
HETATM   30  C23 UNL     1      13.100  10.948  -1.415  1.00  0.00     0.122 A 
ATOM     31  H6  UNL     1      11.917  11.102  -3.129  1.00  0.00     0.186 HD
BRANCH  28  32
HETATM   32  C3  UNL     1      12.912   8.816  -4.325  1.00  0.00     0.174 C 
BRANCH  32  33
HETATM   33  C2  UNL     1      11.673   9.386  -4.885  1.00  0.00    -0.015 C 
HETATM   34  C1  UNL     1      10.516   8.777  -4.769  1.00  0.00     0.008 C 
ENDBRANCH  32  33
ENDBRANCH  28  32
ENDBRANCH   1  26
TORSDOF 6
ENDMDL
MODEL 4
REMARK VINA RESULT: -9.467925789      1.206      1.989
REMARK  6 active torsions:
REMARK  status: ('A' for Active; 'I' for Inactive)
REMARK    1  A    between atoms: C2_2  and  C3_3 
REMARK    2  A    between atoms: C3_3  and  N1_4 
REMARK    3  A    between atoms: C5_6  and  C6_7 
REMARK    4  A    between atoms: C7_10  and  C8_11 
REMARK    5  A    between atoms: C8_11  and  N3_12 
REMARK    6  A    between atoms: N3_12  and  C9_15 
ROOT
HETATM    1  C6  UNL     1      15.769  10.252   0.688  1.00  0.00     0.091 A 
HETATM    2  N2  UNL     1      14.840  10.553   1.608  1.00  0.00    -0.340 N 
ATOM      3  H2  UNL     1      13.840  10.638   1.423  1.00  0.00     0.167 HD
HETATM    4  C7  UNL     1      15.418  10.727   2.812  1.00  0.00     0.115 A 
HETATM    5  N4  UNL     1      16.739  10.531   2.646  1.00  0.00    -0.294 N 
HETATM    6  C19 UNL     1      17.802  10.572   3.492  1.00  0.00     0.101 A 
HETATM    7  C20 UNL     1      19.098  10.332   3.089  1.00  0.00     0.035 A 
HETATM    8  C21 UNL     1      19.297  10.037   1.762  1.00  0.00     0.091 A 
HETATM    9  N5  UNL     1      18.249   9.995   0.922  1.00  0.00    -0.350 N 
ATOM     10  H5  UNL     1      18.414   9.774  -0.059  1.00  0.00     0.166 HD
HETATM   11  C22 UNL     1      16.984  10.234   1.335  1.00  0.00     0.141 A 
ENDROOT
BRANCH   4  12
HETATM   12  C8  UNL     1      14.792  11.065   4.109  1.00  0.00     0.309 C 
BRANCH  12  13
HETATM   13  N3  UNL     1      13.712  10.188   4.437  1.00  0.00    -0.060 N 
ATOM     14  H32 UNL     1      12.815  10.670   4.379  1.00  0.00     0.278 HD
ATOM     15  H31 UNL     1      13.569   9.491   3.707  1.00  0.00     0.278 HD
BRANCH  13  16
HETATM   16  C9  UNL     1      13.885   9.571   5.712  1.00  0.00     0.127 C 
HETATM   17  C10 UNL     1      15.171   8.828   5.874  1.00  0.00     0.043 C 
HETATM   18  C11 UNL     1      15.252   8.247   7.260  1.00  0.00    -0.012 C 
HETATM   19  C12 UNL     1      15.318   9.369   8.252  1.00  0.00     0.009 C 
HETATM   20  C16 UNL     1      14.099   7.311   7.517  1.00  0.00     0.009 C 
HETATM   21  C13 UNL     1      14.040  10.169   8.144  1.00  0.00    -0.012 C 
HETATM   22  C14 UNL     1      12.895   9.236   8.489  1.00  0.00     0.009 C 
HETATM   23  C18 UNL     1      13.838  10.695   6.756  1.00  0.00     0.043 C 
HETATM   24  C15 UNL     1      12.831   8.159   7.459  1.00  0.00    -0.012 C 
HETATM   25  C17 UNL     1      12.712   8.652   6.049  1.00  0.00     0.043 C 
ENDBRANCH  13  16
ENDBRANCH  12  13
ENDBRANCH   4  12
BRANCH   1  26
HETATM   26  C5  UNL     1      15.572   9.984  -0.753  1.00  0.00     0.028 A 
HETATM   27  C4  UNL     1      14.610   9.178  -1.315  1.00  0.00     0.125 A 
HETATM   28  N1  UNL     1      14.761   9.195  -2.644  1.00  0.00    -0.299 N 
HETATM   29  N6  UNL     1      15.781   9.985  -2.912  1.00  0.00    -0.309 N 
HETATM   30  C23 UNL     1      16.314  10.493  -1.797  1.00  0.00     0.122 A 
ATOM     31  H6  UNL     1      16.122  10.183  -3.853  1.00  0.00     0.186 HD
BRANCH  28  32
HETATM   32  C3  UNL     1      13.955   8.478  -3.646  1.00  0.00     0.174 C 
BRANCH  32  33
HETATM   33  C2  UNL     1      13.149   9.459  -4.397  1.00  0.00    -0.015 C 
HETATM   34  C1  UNL     1      11.872   9.269  -4.634  1.00  0.00     0.008 C 
ENDBRANCH  32  33
ENDBRANCH  28  32
ENDBRANCH   1  26
TORSDOF 6
ENDMDL
MODEL 5
REMARK VINA RESULT: -9.460977948      1.179      2.002
REMARK  6 active torsions:
REMARK  status: ('A' for Active; 'I' for Inactive)
REMARK    1  A    between atoms: C2_2  and  C3_3 
REMARK    2  A    between atoms: C3_3  and  N1_4 
REMARK    3  A    between atoms: C5_6  and  C6_7 
REMARK    4  A    between atoms: C7_10  and  C8_11 
REMARK    5  A    between atoms: C8_11  and  N3_12 
REMARK    6  A    between atoms: N3_12  and  C9_15 
ROOT
HETATM    1  C6  UNL     1      15.669  10.247   0.614  1.00  0.00     0.091 A 
HETATM    2  N2  UNL     1      14.732  10.556   1.523  1.00  0.00    -0.340 N 
ATOM      3  H2  UNL     1      13.734  10.644   1.328  1.00  0.00     0.167 HD
HETATM    4  C7  UNL     1      15.299  10.735   2.732  1.00  0.00     0.115 A 
HETATM    5  N4  UNL     1      16.621  10.534   2.580  1.00  0.00    -0.294 N 
HETATM    6  C19 UNL     1      17.675  10.577   3.436  1.00  0.00     0.101 A 
HETATM    7  C20 UNL     1      18.975  10.329   3.047  1.00  0.00     0.035 A 
HETATM    8  C21 UNL     1      19.185  10.026   1.724  1.00  0.00     0.091 A 
HETATM    9  N5  UNL     1      18.146   9.982   0.874  1.00  0.00    -0.350 N 
ATOM     10  H5  UNL     1      18.319   9.755  -0.105  1.00  0.00     0.166 HD
HETATM   11  C22 UNL     1      16.878  10.229   1.273  1.00  0.00     0.141 A 
ENDROOT
BRANCH   4  12
HETATM   12  C8  UNL     1      14.661  11.084   4.020  1.00  0.00     0.309 C 
BRANCH  12  13
HETATM   13  N3  UNL     1      13.674  10.128   4.414  1.00  0.00    -0.060 N 
ATOM     14  H32 UNL     1      12.732  10.503   4.299  1.00  0.00     0.278 HD
ATOM     15  H31 UNL     1      13.624   9.355   3.751  1.00  0.00     0.278 HD
BRANCH  13  16
HETATM   16  C9  UNL     1      13.881   9.654   5.745  1.00  0.00     0.127 C 
HETATM   17  C10 UNL     1      13.853  10.717   6.795  1.00  0.00     0.043 C 
HETATM   18  C11 UNL     1      14.054  10.097   8.152  1.00  0.00    -0.012 C 
HETATM   19  C12 UNL     1      12.884   9.213   8.457  1.00  0.00     0.009 C 
HETATM   20  C16 UNL     1      15.370   9.365   8.216  1.00  0.00     0.009 C 
HETATM   21  C13 UNL     1      12.848   8.106   7.428  1.00  0.00    -0.012 C 
HETATM   22  C14 UNL     1      14.141   7.325   7.563  1.00  0.00     0.009 C 
HETATM   23  C18 UNL     1      12.754   8.654   6.037  1.00  0.00     0.043 C 
HETATM   24  C15 UNL     1      15.280   8.221   7.210  1.00  0.00    -0.012 C 
HETATM   25  C17 UNL     1      15.177   8.853   5.855  1.00  0.00     0.043 C 
ENDBRANCH  13  16
ENDBRANCH  12  13
ENDBRANCH   4  12
BRANCH   1  26
HETATM   26  C5  UNL     1      15.485   9.972  -0.828  1.00  0.00     0.028 A 
HETATM   27  C4  UNL     1      14.520   9.173  -1.395  1.00  0.00     0.125 A 
HETATM   28  N1  UNL     1      14.686   9.179  -2.722  1.00  0.00    -0.299 N 
HETATM   29  N6  UNL     1      15.719   9.954  -2.983  1.00  0.00    -0.309 N 
HETATM   30  C23 UNL     1      16.245  10.464  -1.866  1.00  0.00     0.122 A 
ATOM     31  H6  UNL     1      16.073  10.142  -3.922  1.00  0.00     0.186 HD
BRANCH  28  32
HETATM   32  C3  UNL     1      13.882   8.466  -3.728  1.00  0.00     0.174 C 
BRANCH  32  33
HETATM   33  C2  UNL     1      13.065   9.446  -4.466  1.00  0.00    -0.015 C 
HETATM   34  C1  UNL     1      11.799   9.229  -4.739  1.00  0.00     0.008 C 
ENDBRANCH  32  33
ENDBRANCH  28  32
ENDBRANCH   1  26
TORSDOF 6
ENDMDL
