MODEL 1
REMARK VINA RESULT: -8.101252074      0.000      0.000
REMARK  7 active torsions:
REMARK  status: ('A' for Active; 'I' for Inactive)
REMARK    1  A    between atoms: C3_6  and  C4_7 
REMARK    2  A    between atoms: C4_7  and  O2_8 
REMARK    3  A    between atoms: C4_7  and  C5_10 
REMARK    4  A    between atoms: C5_10  and  N2_11 
REMARK       I    between atoms: N2_11  and  C6_12 
REMARK    5  A    between atoms: N2_11  and  C15_23 
REMARK    6  A    between atoms: C6_12  and  C7_14 
REMARK    7  A    between atoms: C10_18  and  C11_19 
ROOT
HETATM    1  N2  UNL     1      15.061   9.801   3.438  1.00  0.00    -0.340 N 
HETATM    2  C6  UNL     1      14.889  10.640   2.323  1.00  0.00     0.261 C 
HETATM    3  O3  UNL     1      13.883  11.409   2.318  1.00  0.00    -0.267 OA
ENDROOT
BRANCH   1   4
HETATM    4  C5  UNL     1      16.148   8.855   3.602  1.00  0.00     0.166 C 
BRANCH   4   5
HETATM    5  C4  UNL     1      17.183   9.315   4.570  1.00  0.00     0.213 C 
BRANCH   5   6
HETATM    6  C3  UNL     1      18.265   8.317   4.771  1.00  0.00     0.178 A 
HETATM    7  O1  UNL     1      19.329   8.502   5.531  1.00  0.00    -0.220 OA
HETATM    8  N1  UNL     1      20.092   7.427   5.493  1.00  0.00    -0.247 N 
HETATM    9  C2  UNL     1      19.526   6.510   4.693  1.00  0.00     0.100 A 
ATOM     10  H1  UNL     1      20.973   7.310   5.993  1.00  0.00     0.196 HD
HETATM   11  C1  UNL     1      20.037   5.157   4.361  1.00  0.00     0.091 C 
HETATM   12  N3  UNL     1      18.386   7.086   4.253  1.00  0.00    -0.325 N 
ATOM     13  H3  UNL     1      17.717   6.649   3.620  1.00  0.00     0.169 HD
ENDBRANCH   5   6
BRANCH   5  14
HETATM   14  O2  UNL     1      17.698  10.537   4.115  1.00  0.00    -0.386 OA
ATOM     15  H2  UNL     1      17.951  11.096   4.841  1.00  0.00     0.210 HD
ENDBRANCH   5  14
ENDBRANCH   4   5
ENDBRANCH   1   4
BRANCH   1  16
HETATM   16  C15 UNL     1      14.066   9.913   4.512  1.00  0.00     0.087 C 
HETATM   17  C16 UNL     1      13.517   8.584   4.926  1.00  0.00     0.025 C 
HETATM   18  C17 UNL     1      13.517   8.548   6.425  1.00  0.00     0.002 C 
HETATM   19  C18 UNL     1      13.636   9.977   6.841  1.00  0.00     0.002 C 
HETATM   20  C19 UNL     1      14.540  10.575   5.751  1.00  0.00     0.025 C 
ENDBRANCH   1  16
BRANCH   2  21
HETATM   21  C7  UNL     1      15.766  10.708   1.165  1.00  0.00     0.079 A 
HETATM   22  S1  UNL     1      17.107  11.735   0.877  1.00  0.00    -0.096 SA
HETATM   23  C8  UNL     1      17.580  11.206  -0.653  1.00  0.00     0.051 A 
HETATM   24  C9  UNL     1      16.667  10.221  -0.915  1.00  0.00     0.016 A 
HETATM   25  C10 UNL     1      15.732   9.952   0.005  1.00  0.00    -0.031 A 
BRANCH  25  26
HETATM   26  C11 UNL     1      14.670   8.883  -0.171  1.00  0.00     0.020 C 
HETATM   27  C12 UNL     1      14.722   8.162  -1.510  1.00  0.00     0.009 C 
HETATM   28  C13 UNL     1      13.834   9.262  -2.050  1.00  0.00     0.001 C 
HETATM   29  C14 UNL     1      13.330   9.424  -0.621  1.00  0.00     0.009 C 
ENDBRANCH  25  26
ENDBRANCH   2  21
TORSDOF 7
ENDMDL
MODEL 2
REMARK VINA RESULT: -7.992619673      1.553      1.670
REMARK  7 active torsions:
REMARK  status: ('A' for Active; 'I' for Inactive)
REMARK    1  A    between atoms: C3_6  and  C4_7 
REMARK    2  A    between atoms: C4_7  and  O2_8 
REMARK    3  A    between atoms: C4_7  and  C5_10 
REMARK    4  A    between atoms: C5_10  and  N2_11 
REMARK       I    between atoms: N2_11  and  C6_12 
REMARK    5  A    between atoms: N2_11  and  C15_23 
REMARK    6  A    between atoms: C6_12  and  C7_14 
REMARK    7  A    between atoms: C10_18  and  C11_19 
ROOT
HETATM    1  N2  UNL     1      15.205  10.369   3.585  1.00  0.00    -0.340 N 
HETATM    2  C6  UNL     1      14.821  10.690   2.271  1.00  0.00     0.261 C 
HETATM    3  O3  UNL     1      13.590  10.898   2.055  1.00  0.00    -0.267 OA
ENDROOT
BRANCH   1   4
HETATM    4  C5  UNL     1      16.565  10.093   4.006  1.00  0.00     0.166 C 
BRANCH   4   5
HETATM    5  C4  UNL     1      16.947   8.661   3.851  1.00  0.00     0.213 C 
BRANCH   5   6
HETATM    6  C3  UNL     1      18.325   8.488   3.325  1.00  0.00     0.178 A 
HETATM    7  O1  UNL     1      19.172   7.557   3.723  1.00  0.00    -0.220 OA
HETATM    8  N1  UNL     1      20.307   7.677   3.060  1.00  0.00    -0.247 N 
HETATM    9  C2  UNL     1      20.212   8.707   2.206  1.00  0.00     0.100 A 
ATOM     10  H1  UNL     1      21.125   7.080   3.179  1.00  0.00     0.196 HD
HETATM   11  C1  UNL     1      21.248   9.202   1.265  1.00  0.00     0.091 C 
HETATM   12  N3  UNL     1      18.968   9.199   2.386  1.00  0.00    -0.325 N 
ATOM     13  H3  UNL     1      18.574   9.995   1.883  1.00  0.00     0.169 HD
ENDBRANCH   5   6
BRANCH   5  14
HETATM   14  O2  UNL     1      16.795   8.030   5.093  1.00  0.00    -0.386 OA
ATOM     15  H2  UNL     1      16.520   7.126   4.989  1.00  0.00     0.210 HD
ENDBRANCH   5  14
ENDBRANCH   4   5
ENDBRANCH   1   4
BRANCH   1  16
HETATM   16  C15 UNL     1      14.140  10.327   4.596  1.00  0.00     0.087 C 
HETATM   17  C16 UNL     1      13.445   9.003   4.642  1.00  0.00     0.025 C 
HETATM   18  C17 UNL     1      13.321   8.613   6.084  1.00  0.00     0.002 C 
HETATM   19  C18 UNL     1      13.531   9.883   6.841  1.00  0.00     0.002 C 
HETATM   20  C19 UNL     1      14.569  10.624   5.984  1.00  0.00     0.025 C 
ENDBRANCH   1  16
BRANCH   2  21
HETATM   21  C7  UNL     1      15.713  10.810   1.129  1.00  0.00     0.079 A 
HETATM   22  S1  UNL     1      16.993  11.917   0.862  1.00  0.00    -0.096 SA
HETATM   23  C8  UNL     1      17.525  11.415  -0.659  1.00  0.00     0.051 A 
HETATM   24  C9  UNL     1      16.678  10.375  -0.934  1.00  0.00     0.016 A 
HETATM   25  C10 UNL     1      15.745  10.051  -0.030  1.00  0.00    -0.031 A 
BRANCH  25  26
HETATM   26  C11 UNL     1      14.754   8.919  -0.220  1.00  0.00     0.020 C 
HETATM   27  C12 UNL     1      15.026   8.047  -1.438  1.00  0.00     0.009 C 
HETATM   28  C13 UNL     1      14.194   9.030  -2.232  1.00  0.00     0.001 C 
HETATM   29  C14 UNL     1      13.479   9.337  -0.922  1.00  0.00     0.009 C 
ENDBRANCH  25  26
ENDBRANCH   2  21
TORSDOF 7
ENDMDL
MODEL 3
REMARK VINA RESULT: -7.881633420      2.629      5.787
REMARK  7 active torsions:
REMARK  status: ('A' for Active; 'I' for Inactive)
REMARK    1  A    between atoms: C3_6  and  C4_7 
REMARK    2  A    between atoms: C4_7  and  O2_8 
REMARK    3  A    between atoms: C4_7  and  C5_10 
REMARK    4  A    between atoms: C5_10  and  N2_11 
REMARK       I    between atoms: N2_11  and  C6_12 
REMARK    5  A    between atoms: N2_11  and  C15_23 
REMARK    6  A    between atoms: C6_12  and  C7_14 
REMARK    7  A    between atoms: C10_18  and  C11_19 
ROOT
HETATM    1  N2  UNL     1      14.562  10.495  -0.108  1.00  0.00    -0.340 N 
HETATM    2  C6  UNL     1      15.709  11.184   0.326  1.00  0.00     0.261 C 
HETATM    3  O3  UNL     1      16.407  11.770  -0.553  1.00  0.00    -0.267 OA
ENDROOT
BRANCH   1   4
HETATM    4  C5  UNL     1      13.659   9.764   0.761  1.00  0.00     0.166 C 
BRANCH   4   5
HETATM    5  C4  UNL     1      14.268   8.532   1.336  1.00  0.00     0.213 C 
BRANCH   5   6
HETATM    6  C3  UNL     1      14.339   8.566   2.819  1.00  0.00     0.178 A 
HETATM    7  O1  UNL     1      15.432   8.348   3.526  1.00  0.00    -0.220 OA
HETATM    8  N1  UNL     1      15.157   8.452   4.813  1.00  0.00    -0.247 N 
HETATM    9  C2  UNL     1      13.856   8.745   4.964  1.00  0.00     0.100 A 
ATOM     10  H1  UNL     1      15.827   8.329   5.572  1.00  0.00     0.196 HD
HETATM   11  C1  UNL     1      13.115   8.952   6.233  1.00  0.00     0.091 C 
HETATM   12  N3  UNL     1      13.364   8.812   3.708  1.00  0.00    -0.325 N 
ATOM     13  H3  UNL     1      12.394   9.020   3.470  1.00  0.00     0.169 HD
ENDBRANCH   5   6
BRANCH   5  14
HETATM   14  O2  UNL     1      13.530   7.427   0.889  1.00  0.00    -0.386 OA
ATOM     15  H2  UNL     1      12.603   7.537   1.068  1.00  0.00     0.210 HD
ENDBRANCH   5  14
ENDBRANCH   4   5
ENDBRANCH   1   4
BRANCH   1  16
HETATM   16  C15 UNL     1      14.265  10.539  -1.544  1.00  0.00     0.087 C 
HETATM   17  C16 UNL     1      14.865   9.389  -2.290  1.00  0.00     0.025 C 
HETATM   18  C17 UNL     1      13.807   8.849  -3.205  1.00  0.00     0.002 C 
HETATM   19  C18 UNL     1      12.793   9.940  -3.302  1.00  0.00     0.002 C 
HETATM   20  C19 UNL     1      12.824  10.560  -1.895  1.00  0.00     0.025 C 
ENDBRANCH   1  16
BRANCH   2  21
HETATM   21  C7  UNL     1      16.170  11.288   1.701  1.00  0.00     0.079 A 
HETATM   22  S1  UNL     1      15.399  12.004   3.054  1.00  0.00    -0.096 SA
HETATM   23  C8  UNL     1      16.552  11.720   4.253  1.00  0.00     0.051 A 
HETATM   24  C9  UNL     1      17.534  11.062   3.563  1.00  0.00     0.016 A 
HETATM   25  C10 UNL     1      17.354  10.832   2.256  1.00  0.00    -0.031 A 
BRANCH  25  26
HETATM   26  C11 UNL     1      18.368  10.111   1.387  1.00  0.00     0.020 C 
HETATM   27  C12 UNL     1      19.571   9.570   2.147  1.00  0.00     0.009 C 
HETATM   28  C13 UNL     1      20.216  10.922   1.935  1.00  0.00     0.001 C 
HETATM   29  C14 UNL     1      19.342  11.037   0.692  1.00  0.00     0.009 C 
ENDBRANCH  25  26
ENDBRANCH   2  21
TORSDOF 7
ENDMDL
MODEL 4
REMARK VINA RESULT: -7.672180413      2.443      4.742
REMARK  7 active torsions:
REMARK  status: ('A' for Active; 'I' for Inactive)
REMARK    1  A    between atoms: C3_6  and  C4_7 
REMARK    2  A    between atoms: C4_7  and  O2_8 
REMARK    3  A    between atoms: C4_7  and  C5_10 
REMARK    4  A    between atoms: C5_10  and  N2_11 
REMARK       I    between atoms: N2_11  and  C6_12 
REMARK    5  A    between atoms: N2_11  and  C15_23 
REMARK    6  A    between atoms: C6_12  and  C7_14 
REMARK    7  A    between atoms: C10_18  and  C11_19 
ROOT
HETATM    1  N2  UNL     1      16.098  10.093   4.032  1.00  0.00    -0.340 N 
HETATM    2  C6  UNL     1      16.702  11.157   3.338  1.00  0.00     0.261 C 
HETATM    3  O3  UNL     1      16.904  12.232   3.976  1.00  0.00    -0.267 OA
ENDROOT
BRANCH   1   4
HETATM    4  C5  UNL     1      15.786   8.800   3.454  1.00  0.00     0.166 C 
BRANCH   4   5
HETATM    5  C4  UNL     1      14.435   8.749   2.827  1.00  0.00     0.213 C 
BRANCH   5   6
HETATM    6  C3  UNL     1      14.450   8.116   1.484  1.00  0.00     0.178 A 
HETATM    7  O1  UNL     1      14.309   6.822   1.259  1.00  0.00    -0.220 OA
HETATM    8  N1  UNL     1      14.368   6.588  -0.038  1.00  0.00    -0.247 N 
HETATM    9  C2  UNL     1      14.552   7.748  -0.688  1.00  0.00     0.100 A 
ATOM     10  H1  UNL     1      14.287   5.671  -0.477  1.00  0.00     0.196 HD
HETATM   11  C1  UNL     1      14.676   7.956  -2.152  1.00  0.00     0.091 C 
HETATM   12  N3  UNL     1      14.600   8.688   0.280  1.00  0.00    -0.325 N 
ATOM     13  H3  UNL     1      14.731   9.687   0.120  1.00  0.00     0.169 HD
ENDBRANCH   5   6
BRANCH   5  14
HETATM   14  O2  UNL     1      13.573   8.070   3.699  1.00  0.00    -0.386 OA
ATOM     15  H2  UNL     1      13.901   8.087   4.591  1.00  0.00     0.210 HD
ENDBRANCH   5  14
ENDBRANCH   4   5
ENDBRANCH   1   4
BRANCH   1  16
HETATM   16  C15 UNL     1      15.778  10.321   5.447  1.00  0.00     0.087 C 
HETATM   17  C16 UNL     1      14.343  10.688   5.658  1.00  0.00     0.025 C 
HETATM   18  C17 UNL     1      13.838   9.872   6.810  1.00  0.00     0.002 C 
HETATM   19  C18 UNL     1      15.068   9.398   7.510  1.00  0.00     0.002 C 
HETATM   20  C19 UNL     1      16.056   9.180   6.352  1.00  0.00     0.025 C 
ENDBRANCH   1  16
BRANCH   2  21
HETATM   21  C7  UNL     1      17.121  11.137   1.946  1.00  0.00     0.079 A 
HETATM   22  S1  UNL     1      16.193  11.396   0.528  1.00  0.00    -0.096 SA
HETATM   23  C8  UNL     1      17.379  11.207  -0.657  1.00  0.00     0.051 A 
HETATM   24  C9  UNL     1      18.496  10.940   0.089  1.00  0.00     0.016 A 
HETATM   25  C10 UNL     1      18.381  10.901   1.423  1.00  0.00    -0.031 A 
BRANCH  25  26
HETATM   26  C11 UNL     1      19.546  10.618   2.353  1.00  0.00     0.020 C 
HETATM   27  C12 UNL     1      20.814  10.159   1.648  1.00  0.00     0.009 C 
HETATM   28  C13 UNL     1      20.270   8.751   1.753  1.00  0.00     0.001 C 
HETATM   29  C14 UNL     1      19.505   9.240   2.977  1.00  0.00     0.009 C 
ENDBRANCH  25  26
ENDBRANCH   2  21
TORSDOF 7
ENDMDL
MODEL 5
REMARK VINA RESULT: -7.525702228      2.622      5.276
REMARK  7 active torsions:
REMARK  status: ('A' for Active; 'I' for Inactive)
REMARK    1  A    between atoms: C3_6  and  C4_7 
REMARK    2  A    between atoms: C4_7  and  O2_8 
REMARK    3  A    between atoms: C4_7  and  C5_10 
REMARK    4  A    between atoms: C5_10  and  N2_11 
REMARK       I    between atoms: N2_11  and  C6_12 
REMARK    5  A    between atoms: N2_11  and  C15_23 
REMARK    6  A    between atoms: C6_12  and  C7_14 
REMARK    7  A    between atoms: C10_18  and  C11_19 
ROOT
HETATM    1  N2  UNL     1      14.717   9.824   2.963  1.00  0.00    -0.340 N 
HETATM    2  C6  UNL     1      15.446  10.914   2.457  1.00  0.00     0.261 C 
HETATM    3  O3  UNL     1      15.338  12.022   3.062  1.00  0.00    -0.267 OA
ENDROOT
BRANCH   1   4
HETATM    4  C5  UNL     1      14.717   8.491   2.391  1.00  0.00     0.166 C 
BRANCH   4   5
HETATM    5  C4  UNL     1      13.516   8.213   1.555  1.00  0.00     0.213 C 
BRANCH   5   6
HETATM    6  C3  UNL     1      13.727   8.536   0.121  1.00  0.00     0.178 A 
HETATM    7  O1  UNL     1      14.615   7.950  -0.661  1.00  0.00    -0.220 OA
HETATM    8  N1  UNL     1      14.548   8.466  -1.874  1.00  0.00    -0.247 N 
HETATM    9  C2  UNL     1      13.597   9.413  -1.899  1.00  0.00     0.100 A 
ATOM     10  H1  UNL     1      15.126   8.188  -2.666  1.00  0.00     0.196 HD
HETATM   11  C1  UNL     1      13.182  10.250  -3.052  1.00  0.00     0.091 C 
HETATM   12  N3  UNL     1      13.097   9.440  -0.645  1.00  0.00    -0.325 N 
ATOM     13  H3  UNL     1      12.350  10.057  -0.326  1.00  0.00     0.169 HD
ENDBRANCH   5   6
BRANCH   5  14
HETATM   14  O2  UNL     1      13.166   6.866   1.725  1.00  0.00    -0.386 OA
ATOM     15  H2  UNL     1      12.528   6.761   2.421  1.00  0.00     0.210 HD
ENDBRANCH   5  14
ENDBRANCH   4   5
ENDBRANCH   1   4
BRANCH   1  16
HETATM   16  C15 UNL     1      13.911  10.065   4.167  1.00  0.00     0.087 C 
HETATM   17  C16 UNL     1      13.163   8.847   4.610  1.00  0.00     0.025 C 
HETATM   18  C17 UNL     1      13.349   8.724   6.093  1.00  0.00     0.002 C 
HETATM   19  C18 UNL     1      13.805  10.076   6.533  1.00  0.00     0.002 C 
HETATM   20  C19 UNL     1      14.664  10.548   5.349  1.00  0.00     0.025 C 
ENDBRANCH   1  16
BRANCH   2  21
HETATM   21  C7  UNL     1      16.322  10.888   1.297  1.00  0.00     0.079 A 
HETATM   22  S1  UNL     1      16.046  11.483  -0.286  1.00  0.00    -0.096 SA
HETATM   23  C8  UNL     1      17.507  11.080  -1.028  1.00  0.00     0.051 A 
HETATM   24  C9  UNL     1      18.194  10.478  -0.008  1.00  0.00     0.016 A 
HETATM   25  C10 UNL     1      17.603  10.372   1.188  1.00  0.00    -0.031 A 
BRANCH  25  26
HETATM   26  C11 UNL     1      18.264   9.730   2.393  1.00  0.00     0.020 C 
HETATM   27  C12 UNL     1      18.817  10.721   3.408  1.00  0.00     0.009 C 
HETATM   28  C13 UNL     1      20.093  10.725   2.595  1.00  0.00     0.001 C 
HETATM   29  C14 UNL     1      19.702   9.320   2.152  1.00  0.00     0.009 C 
ENDBRANCH  25  26
ENDBRANCH   2  21
TORSDOF 7
ENDMDL
