MODEL 1
REMARK VINA RESULT: -8.017699952      0.000      0.000
REMARK  7 active torsions:
REMARK  status: ('A' for Active; 'I' for Inactive)
REMARK    1  A    between atoms: C7_8  and  C8_9 
REMARK    2  A    between atoms: C8_9  and  N1_10 
REMARK    3  A    between atoms: C12_14  and  O1_15 
REMARK    4  A    between atoms: O1_15  and  C13_16 
REMARK    5  A    between atoms: C13_16  and  C14_17 
REMARK    6  A    between atoms: C14_17  and  O2_18 
REMARK    7  A    between atoms: N3_23  and  C16_24 
ROOT
HETATM    1  C1  UNL     1      19.486   9.837   1.614  1.00  0.00     0.057 C 
HETATM    2  C2  UNL     1      18.076   9.884   2.184  1.00  0.00    -0.006 A 
HETATM    3  S1  UNL     1      16.667  10.465   1.447  1.00  0.00    -0.097 SA
HETATM    4  C3  UNL     1      15.540  10.166   2.725  1.00  0.00     0.009 A 
HETATM    5  C4  UNL     1      14.064  10.475   2.680  1.00  0.00     0.059 C 
HETATM    6  C5  UNL     1      16.329   9.609   3.705  1.00  0.00     0.082 A 
HETATM    7  C6  UNL     1      17.634   9.467   3.417  1.00  0.00     0.032 A 
HETATM    8  C7  UNL     1      18.258   8.879   4.550  1.00  0.00     0.068 A 
HETATM    9  N2  UNL     1      17.297   8.711   5.428  1.00  0.00    -0.295 N 
ATOM     10  H2  UNL     1      17.441   8.303   6.352  1.00  0.00     0.187 HD
HETATM   11  N3  UNL     1      16.095   9.136   4.974  1.00  0.00    -0.263 N 
ENDROOT
BRANCH   8  12
HETATM   12  C8  UNL     1      19.691   8.566   4.695  1.00  0.00     0.331 C 
BRANCH  12  13
HETATM   13  N1  UNL     1      19.886   7.184   4.995  1.00  0.00     0.096 N 
HETATM   14  C9  UNL     1      19.035   6.317   4.284  1.00  0.00     0.273 C 
HETATM   15  C10 UNL     1      19.456   4.857   4.352  1.00  0.00     0.033 C 
HETATM   16  C11 UNL     1      20.921   4.642   4.202  1.00  0.00     0.035 C 
HETATM   17  C12 UNL     1      21.597   5.979   3.814  1.00  0.00     0.149 C 
HETATM   18  C15 UNL     1      21.285   6.902   4.982  1.00  0.00     0.304 C 
BRANCH  17  19
HETATM   19  O1  UNL     1      22.924   5.813   3.622  1.00  0.00    -0.382 OA
BRANCH  19  20
HETATM   20  C13 UNL     1      23.498   6.561   2.655  1.00  0.00     0.194 C 
BRANCH  20  21
HETATM   21  C14 UNL     1      24.823   7.177   2.975  1.00  0.00     0.190 C 
BRANCH  21  22
HETATM   22  O2  UNL     1      24.838   7.940   4.103  1.00  0.00    -0.399 OA
ATOM     23  H2  UNL     1      25.198   7.509   4.869  1.00  0.00     0.209 HD
ENDBRANCH  21  22
ENDBRANCH  20  21
ENDBRANCH  19  20
ENDBRANCH  17  19
ENDBRANCH  12  13
ENDBRANCH   8  12
BRANCH  11  24
HETATM   24  C16 UNL     1      14.908   9.064   5.736  1.00  0.00     0.012 C 
HETATM   25  C17 UNL     1      14.843   8.081   6.858  1.00  0.00     0.054 C 
HETATM   26  C18 UNL     1      13.528   8.451   7.523  1.00  0.00     0.006 C 
HETATM   27  C19 UNL     1      13.513   9.955   7.401  1.00  0.00     0.006 C 
HETATM   28  C20 UNL     1      14.186  10.309   6.085  1.00  0.00     0.054 C 
ENDBRANCH  11  24
TORSDOF 7
ENDMDL
MODEL 2
REMARK VINA RESULT: -7.997013494      4.802      7.741
REMARK  7 active torsions:
REMARK  status: ('A' for Active; 'I' for Inactive)
REMARK    1  A    between atoms: C7_8  and  C8_9 
REMARK    2  A    between atoms: C8_9  and  N1_10 
REMARK    3  A    between atoms: C12_14  and  O1_15 
REMARK    4  A    between atoms: O1_15  and  C13_16 
REMARK    5  A    between atoms: C13_16  and  C14_17 
REMARK    6  A    between atoms: C14_17  and  O2_18 
REMARK    7  A    between atoms: N3_23  and  C16_24 
ROOT
HETATM    1  C1  UNL     1      19.041  10.688   3.875  1.00  0.00     0.057 C 
HETATM    2  C2  UNL     1      18.258  10.563   2.576  1.00  0.00    -0.006 A 
HETATM    3  S1  UNL     1      18.835  10.688   0.989  1.00  0.00    -0.097 SA
HETATM    4  C3  UNL     1      17.354  10.431   0.132  1.00  0.00     0.009 A 
HETATM    5  C4  UNL     1      17.202  10.420  -1.368  1.00  0.00     0.059 C 
HETATM    6  C5  UNL     1      16.441  10.252   1.147  1.00  0.00     0.082 A 
HETATM    7  C6  UNL     1      16.916  10.322   2.402  1.00  0.00     0.032 A 
HETATM    8  C7  UNL     1      15.822  10.112   3.283  1.00  0.00     0.068 A 
HETATM    9  N2  UNL     1      14.779   9.933   2.506  1.00  0.00    -0.295 N 
ATOM     10  H2  UNL     1      13.837   9.758   2.856  1.00  0.00     0.187 HD
HETATM   11  N3  UNL     1      15.090  10.007   1.191  1.00  0.00    -0.263 N 
ENDROOT
BRANCH   8  12
HETATM   12  C8  UNL     1      15.869  10.130   4.756  1.00  0.00     0.331 C 
BRANCH  12  13
HETATM   13  N1  UNL     1      14.757   9.431   5.314  1.00  0.00     0.096 N 
HETATM   14  C9  UNL     1      15.112   8.296   6.066  1.00  0.00     0.273 C 
HETATM   15  C10 UNL     1      13.978   7.749   6.919  1.00  0.00     0.033 C 
HETATM   16  C11 UNL     1      13.182   8.798   7.612  1.00  0.00     0.035 C 
HETATM   17  C12 UNL     1      13.870  10.172   7.420  1.00  0.00     0.149 C 
HETATM   18  C15 UNL     1      13.871  10.375   5.913  1.00  0.00     0.304 C 
BRANCH  17  19
HETATM   19  O1  UNL     1      13.200  11.144   8.076  1.00  0.00    -0.382 OA
BRANCH  19  20
HETATM   20  C13 UNL     1      13.385  11.218   9.412  1.00  0.00     0.194 C 
BRANCH  20  21
HETATM   21  C14 UNL     1      12.515  12.175  10.162  1.00  0.00     0.190 C 
BRANCH  21  22
HETATM   22  O2  UNL     1      11.506  12.722   9.429  1.00  0.00    -0.399 OA
ATOM     23  H2  UNL     1      11.437  13.667   9.491  1.00  0.00     0.209 HD
ENDBRANCH  21  22
ENDBRANCH  20  21
ENDBRANCH  19  20
ENDBRANCH  17  19
ENDBRANCH  12  13
ENDBRANCH   8  12
BRANCH  11  24
HETATM   24  C16 UNL     1      14.138   9.852   0.159  1.00  0.00     0.012 C 
HETATM   25  C17 UNL     1      13.800  11.041  -0.679  1.00  0.00     0.054 C 
HETATM   26  C18 UNL     1      12.926  10.425  -1.759  1.00  0.00     0.006 C 
HETATM   27  C19 UNL     1      13.590   9.090  -1.994  1.00  0.00     0.006 C 
HETATM   28  C20 UNL     1      14.138   8.616  -0.658  1.00  0.00     0.054 C 
ENDBRANCH  11  24
TORSDOF 7
ENDMDL
MODEL 3
REMARK VINA RESULT: -7.968855896      5.243      7.817
REMARK  7 active torsions:
REMARK  status: ('A' for Active; 'I' for Inactive)
REMARK    1  A    between atoms: C7_8  and  C8_9 
REMARK    2  A    between atoms: C8_9  and  N1_10 
REMARK    3  A    between atoms: C12_14  and  O1_15 
REMARK    4  A    between atoms: O1_15  and  C13_16 
REMARK    5  A    between atoms: C13_16  and  C14_17 
REMARK    6  A    between atoms: C14_17  and  O2_18 
REMARK    7  A    between atoms: N3_23  and  C16_24 
ROOT
HETATM    1  C1  UNL     1      17.214  11.628   3.860  1.00  0.00     0.057 C 
HETATM    2  C2  UNL     1      16.794  11.279   2.440  1.00  0.00    -0.006 A 
HETATM    3  S1  UNL     1      17.709  11.388   1.020  1.00  0.00    -0.097 SA
HETATM    4  C3  UNL     1      16.532  10.821  -0.114  1.00  0.00     0.009 A 
HETATM    5  C4  UNL     1      16.747  10.678  -1.600  1.00  0.00     0.059 C 
HETATM    6  C5  UNL     1      15.439  10.562   0.682  1.00  0.00     0.082 A 
HETATM    7  C6  UNL     1      15.584  10.801   1.996  1.00  0.00     0.032 A 
HETATM    8  C7  UNL     1      14.355  10.471   2.627  1.00  0.00     0.068 A 
HETATM    9  N2  UNL     1      13.567  10.061   1.660  1.00  0.00    -0.295 N 
ATOM     10  H2  UNL     1      12.606   9.752   1.806  1.00  0.00     0.187 HD
HETATM   11  N3  UNL     1      14.169  10.093   0.448  1.00  0.00    -0.263 N 
ENDROOT
BRANCH   8  12
HETATM   12  C8  UNL     1      14.044  10.600   4.062  1.00  0.00     0.331 C 
BRANCH  12  13
HETATM   13  N1  UNL     1      14.398   9.415   4.773  1.00  0.00     0.096 N 
HETATM   14  C9  UNL     1      15.669   9.467   5.377  1.00  0.00     0.273 C 
HETATM   15  C10 UNL     1      15.909   8.359   6.391  1.00  0.00     0.033 C 
HETATM   16  C11 UNL     1      14.746   8.092   7.281  1.00  0.00     0.035 C 
HETATM   17  C12 UNL     1      13.665   9.174   7.048  1.00  0.00     0.149 C 
HETATM   18  C15 UNL     1      13.294   9.014   5.582  1.00  0.00     0.304 C 
BRANCH  17  19
HETATM   19  O1  UNL     1      12.611   8.992   7.874  1.00  0.00    -0.382 OA
BRANCH  19  20
HETATM   20  C13 UNL     1      12.692   9.555   9.099  1.00  0.00     0.194 C 
BRANCH  20  21
HETATM   21  C14 UNL     1      13.088  10.997   9.154  1.00  0.00     0.190 C 
BRANCH  21  22
HETATM   22  O2  UNL     1      12.048  11.874   9.099  1.00  0.00    -0.399 OA
ATOM     23  H2  UNL     1      12.238  12.686   8.644  1.00  0.00     0.209 HD
ENDBRANCH  21  22
ENDBRANCH  20  21
ENDBRANCH  19  20
ENDBRANCH  17  19
ENDBRANCH  12  13
ENDBRANCH   8  12
BRANCH  11  24
HETATM   24  C16 UNL     1      13.527   9.705  -0.749  1.00  0.00     0.012 C 
HETATM   25  C17 UNL     1      12.963  10.771  -1.630  1.00  0.00     0.054 C 
HETATM   26  C18 UNL     1      12.557   9.978  -2.861  1.00  0.00     0.006 C 
HETATM   27  C19 UNL     1      13.663   8.956  -2.970  1.00  0.00     0.006 C 
HETATM   28  C20 UNL     1      14.089   8.598  -1.556  1.00  0.00     0.054 C 
ENDBRANCH  11  24
TORSDOF 7
ENDMDL
MODEL 4
REMARK VINA RESULT: -7.948708913      3.391      5.779
REMARK  7 active torsions:
REMARK  status: ('A' for Active; 'I' for Inactive)
REMARK    1  A    between atoms: C7_8  and  C8_9 
REMARK    2  A    between atoms: C8_9  and  N1_10 
REMARK    3  A    between atoms: C12_14  and  O1_15 
REMARK    4  A    between atoms: O1_15  and  C13_16 
REMARK    5  A    between atoms: C13_16  and  C14_17 
REMARK    6  A    between atoms: C14_17  and  O2_18 
REMARK    7  A    between atoms: N3_23  and  C16_24 
ROOT
HETATM    1  C1  UNL     1      16.487  11.412   4.232  1.00  0.00     0.057 C 
HETATM    2  C2  UNL     1      15.414  10.846   3.315  1.00  0.00    -0.006 A 
HETATM    3  S1  UNL     1      13.923  10.165   3.741  1.00  0.00    -0.097 SA
HETATM    4  C3  UNL     1      13.330   9.783   2.162  1.00  0.00     0.009 A 
HETATM    5  C4  UNL     1      12.001   9.137   1.860  1.00  0.00     0.059 C 
HETATM    6  C5  UNL     1      14.347  10.213   1.340  1.00  0.00     0.082 A 
HETATM    7  C6  UNL     1      15.416  10.759   1.943  1.00  0.00     0.032 A 
HETATM    8  C7  UNL     1      16.335  11.130   0.925  1.00  0.00     0.068 A 
HETATM    9  N2  UNL     1      15.761  10.787  -0.204  1.00  0.00    -0.295 N 
ATOM     10  H2  UNL     1      16.185  10.930  -1.121  1.00  0.00     0.187 HD
HETATM   11  N3  UNL     1      14.545  10.221  -0.020  1.00  0.00    -0.263 N 
ENDROOT
BRANCH   8  12
HETATM   12  C8  UNL     1      17.661  11.742   1.124  1.00  0.00     0.331 C 
BRANCH  12  13
HETATM   13  N1  UNL     1      18.704  10.811   0.838  1.00  0.00     0.096 N 
HETATM   14  C9  UNL     1      19.999  11.357   0.921  1.00  0.00     0.273 C 
HETATM   15  C10 UNL     1      21.103  10.311   0.941  1.00  0.00     0.033 C 
HETATM   16  C11 UNL     1      20.807   9.136   1.804  1.00  0.00     0.035 C 
HETATM   17  C12 UNL     1      19.514   9.406   2.611  1.00  0.00     0.149 C 
HETATM   18  C15 UNL     1      18.447   9.598   1.543  1.00  0.00     0.304 C 
BRANCH  17  19
HETATM   19  O1  UNL     1      19.238   8.378   3.443  1.00  0.00    -0.382 OA
BRANCH  19  20
HETATM   20  C13 UNL     1      20.281   7.612   3.831  1.00  0.00     0.194 C 
BRANCH  20  21
HETATM   21  C14 UNL     1      20.649   7.658   5.280  1.00  0.00     0.190 C 
BRANCH  21  22
HETATM   22  O2  UNL     1      21.985   7.760   5.524  1.00  0.00    -0.399 OA
ATOM     23  H2  UNL     1      22.352   8.623   5.370  1.00  0.00     0.209 HD
ENDBRANCH  21  22
ENDBRANCH  20  21
ENDBRANCH  19  20
ENDBRANCH  17  19
ENDBRANCH  12  13
ENDBRANCH   8  12
BRANCH  11  24
HETATM   24  C16 UNL     1      13.732   9.764  -1.081  1.00  0.00     0.012 C 
HETATM   25  C17 UNL     1      12.817  10.739  -1.745  1.00  0.00     0.054 C 
HETATM   26  C18 UNL     1      12.292   9.928  -2.918  1.00  0.00     0.006 C 
HETATM   27  C19 UNL     1      13.505   9.130  -3.331  1.00  0.00     0.006 C 
HETATM   28  C20 UNL     1      14.285   8.807  -2.067  1.00  0.00     0.054 C 
ENDBRANCH  11  24
TORSDOF 7
ENDMDL
MODEL 5
REMARK VINA RESULT: -7.885895707      2.816      4.977
REMARK  7 active torsions:
REMARK  status: ('A' for Active; 'I' for Inactive)
REMARK    1  A    between atoms: C7_8  and  C8_9 
REMARK    2  A    between atoms: C8_9  and  N1_10 
REMARK    3  A    between atoms: C12_14  and  O1_15 
REMARK    4  A    between atoms: O1_15  and  C13_16 
REMARK    5  A    between atoms: C13_16  and  C14_17 
REMARK    6  A    between atoms: C14_17  and  O2_18 
REMARK    7  A    between atoms: N3_23  and  C16_24 
ROOT
HETATM    1  C1  UNL     1      16.144   9.242   5.972  1.00  0.00     0.057 C 
HETATM    2  C2  UNL     1      15.202   9.174   4.779  1.00  0.00    -0.006 A 
HETATM    3  S1  UNL     1      13.530   8.902   4.779  1.00  0.00    -0.097 SA
HETATM    4  C3  UNL     1      13.237   8.975   3.075  1.00  0.00     0.009 A 
HETATM    5  C4  UNL     1      11.893   8.806   2.412  1.00  0.00     0.059 C 
HETATM    6  C5  UNL     1      14.490   9.215   2.558  1.00  0.00     0.082 A 
HETATM    7  C6  UNL     1      15.495   9.316   3.444  1.00  0.00     0.032 A 
HETATM    8  C7  UNL     1      16.686   9.563   2.710  1.00  0.00     0.068 A 
HETATM    9  N2  UNL     1      16.318   9.593   1.450  1.00  0.00    -0.295 N 
ATOM     10  H2  UNL     1      16.962   9.753   0.676  1.00  0.00     0.187 HD
HETATM   11  N3  UNL     1      14.989   9.388   1.290  1.00  0.00    -0.263 N 
ENDROOT
BRANCH   8  12
HETATM   12  C8  UNL     1      18.042   9.716   3.266  1.00  0.00     0.331 C 
BRANCH  12  13
HETATM   13  N1  UNL     1      18.953   8.801   2.659  1.00  0.00     0.096 N 
HETATM   14  C9  UNL     1      20.131   9.401   2.176  1.00  0.00     0.273 C 
HETATM   15  C10 UNL     1      21.227   8.404   1.833  1.00  0.00     0.033 C 
HETATM   16  C11 UNL     1      21.384   7.310   2.830  1.00  0.00     0.035 C 
HETATM   17  C12 UNL     1      20.499   7.611   4.063  1.00  0.00     0.149 C 
HETATM   18  C15 UNL     1      19.086   7.656   3.499  1.00  0.00     0.304 C 
BRANCH  17  19
HETATM   19  O1  UNL     1      20.651   6.662   5.012  1.00  0.00    -0.382 OA
BRANCH  19  20
HETATM   20  C13 UNL     1      21.081   5.450   4.598  1.00  0.00     0.194 C 
BRANCH  20  21
HETATM   21  C14 UNL     1      20.081   4.338   4.613  1.00  0.00     0.190 C 
BRANCH  21  22
HETATM   22  O2  UNL     1      19.146   4.427   5.598  1.00  0.00    -0.399 OA
ATOM     23  H2  UNL     1      18.247   4.351   5.301  1.00  0.00     0.209 HD
ENDBRANCH  21  22
ENDBRANCH  20  21
ENDBRANCH  19  20
ENDBRANCH  17  19
ENDBRANCH  12  13
ENDBRANCH   8  12
BRANCH  11  24
HETATM   24  C16 UNL     1      14.352   9.370   0.029  1.00  0.00     0.012 C 
HETATM   25  C17 UNL     1      14.085  10.673  -0.649  1.00  0.00     0.054 C 
HETATM   26  C18 UNL     1      13.593  10.220  -2.014  1.00  0.00     0.006 C 
HETATM   27  C19 UNL     1      14.460   9.016  -2.289  1.00  0.00     0.006 C 
HETATM   28  C20 UNL     1      14.713   8.327  -0.958  1.00  0.00     0.054 C 
ENDBRANCH  11  24
TORSDOF 7
ENDMDL
