MODEL 1
REMARK VINA RESULT: -8.810960869      0.000      0.000
REMARK  7 active torsions:
REMARK  status: ('A' for Active; 'I' for Inactive)
REMARK    1  A    between atoms: C2_2  and  C4_4 
REMARK    2  A    between atoms: C4_4  and  O1_5 
REMARK    3  A    between atoms: C4_4  and  C5_7 
REMARK    4  A    between atoms: C7_12  and  N3_13 
REMARK    5  A    between atoms: N3_13  and  C8_14 
REMARK    6  A    between atoms: N3_13  and  C14_23 
REMARK    7  A    between atoms: C8_14  and  C9_15 
ROOT
HETATM    1  C5  UNL     1      13.992  10.464  -0.698  1.00  0.00     0.060 A 
HETATM    2  C6  UNL     1      15.245  11.057  -0.406  1.00  0.00     0.126 A 
HETATM    3  N1  UNL     1      15.546  10.787   0.851  1.00  0.00    -0.301 N 
ATOM      4  H1  UNL     1      16.399  11.096   1.320  1.00  0.00     0.186 HD
HETATM    5  N2  UNL     1      14.598  10.064   1.424  1.00  0.00    -0.223 N 
HETATM    6  C7  UNL     1      14.497   9.591   2.692  1.00  0.00     0.129 A 
HETATM    7  C20 UNL     1      13.384   8.880   3.048  1.00  0.00     0.067 A 
HETATM    8  C21 UNL     1      12.396   8.661   2.117  1.00  0.00     0.093 A 
HETATM    9  N5  UNL     1      12.570   9.156   0.891  1.00  0.00    -0.350 N 
ATOM     10  H5  UNL     1      11.830   8.987   0.209  1.00  0.00     0.166 HD
HETATM   11  C22 UNL     1      13.639   9.862   0.478  1.00  0.00     0.143 A 
ENDROOT
BRANCH   6  12
HETATM   12  N3  UNL     1      15.552   9.871   3.613  1.00  0.00    -0.359 N 
BRANCH  12  13
HETATM   13  C8  UNL     1      15.276  10.500   4.853  1.00  0.00     0.158 C 
BRANCH  13  14
HETATM   14  C9  UNL     1      14.623   9.655   5.911  1.00  0.00     0.203 C 
HETATM   15  C10 UNL     1      15.721   9.218   6.896  1.00  0.00     0.035 C 
HETATM   16  C11 UNL     1      15.055   8.429   7.992  1.00  0.00     0.004 C 
HETATM   17  C12 UNL     1      14.033   9.255   8.747  1.00  0.00     0.027 C 
HETATM   18  C13 UNL     1      13.064   9.872   7.747  1.00  0.00     0.233 C 
HETATM   19  N4  UNL     1      13.783  10.539   6.711  1.00  0.00    -0.069 N 
ATOM     20  H42 UNL     1      14.334  11.308   7.094  1.00  0.00     0.277 HD
ATOM     21  H41 UNL     1      13.145  11.065   6.114  1.00  0.00     0.277 HD
ENDBRANCH  13  14
ENDBRANCH  12  13
BRANCH  12  22
HETATM   22  C14 UNL     1      16.916   9.466   3.222  1.00  0.00     0.086 C 
HETATM   23  C15 UNL     1      17.222   8.129   3.753  1.00  0.00     0.025 C 
HETATM   24  C16 UNL     1      18.671   7.884   4.086  1.00  0.00     0.002 C 
HETATM   25  C17 UNL     1      19.590   8.837   3.349  1.00  0.00     0.000 C 
HETATM   26  C18 UNL     1      19.240  10.218   3.872  1.00  0.00     0.002 C 
HETATM   27  C19 UNL     1      17.824  10.590   3.619  1.00  0.00     0.025 C 
ENDBRANCH  12  22
ENDBRANCH   6  12
BRANCH   1  28
HETATM   28  C4  UNL     1      13.351  10.506  -1.992  1.00  0.00     0.086 C 
BRANCH  28  29
HETATM   29  C2  UNL     1      13.642   9.780  -3.184  1.00  0.00    -0.037 C 
HETATM   30  C1  UNL     1      14.770   9.312  -3.635  1.00  0.00     0.021 C 
HETATM   31  C3  UNL     1      12.433   9.464  -4.080  1.00  0.00     0.050 C 
ENDBRANCH  28  29
BRANCH  28  32
HETATM   32  O1  UNL     1      12.347  11.348  -2.079  1.00  0.00    -0.359 OA
ATOM     33  H1  UNL     1      11.816  11.428  -1.296  1.00  0.00     0.217 HD
ENDBRANCH  28  32
ENDBRANCH   1  28
TORSDOF 7
ENDMDL
MODEL 2
REMARK VINA RESULT: -8.701640626      1.762      4.499
REMARK  7 active torsions:
REMARK  status: ('A' for Active; 'I' for Inactive)
REMARK    1  A    between atoms: C2_2  and  C4_4 
REMARK    2  A    between atoms: C4_4  and  O1_5 
REMARK    3  A    between atoms: C4_4  and  C5_7 
REMARK    4  A    between atoms: C7_12  and  N3_13 
REMARK    5  A    between atoms: N3_13  and  C8_14 
REMARK    6  A    between atoms: N3_13  and  C14_23 
REMARK    7  A    between atoms: C8_14  and  C9_15 
ROOT
HETATM    1  C5  UNL     1      14.959   9.438  -0.824  1.00  0.00     0.060 A 
HETATM    2  C6  UNL     1      14.547   8.296  -0.093  1.00  0.00     0.126 A 
HETATM    3  N1  UNL     1      14.963   8.430   1.152  1.00  0.00    -0.301 N 
ATOM      4  H1  UNL     1      14.799   7.747   1.893  1.00  0.00     0.186 HD
HETATM    5  N2  UNL     1      15.621   9.566   1.316  1.00  0.00    -0.223 N 
HETATM    6  C7  UNL     1      16.226  10.082   2.415  1.00  0.00     0.129 A 
HETATM    7  C20 UNL     1      16.873  11.283   2.314  1.00  0.00     0.067 A 
HETATM    8  C21 UNL     1      16.896  11.938   1.105  1.00  0.00     0.093 A 
HETATM    9  N5  UNL     1      16.277  11.367   0.071  1.00  0.00    -0.350 N 
ATOM     10  H5  UNL     1      16.300  11.863  -0.820  1.00  0.00     0.166 HD
HETATM   11  C22 UNL     1      15.623  10.191   0.106  1.00  0.00     0.143 A 
ENDROOT
BRANCH   6  12
HETATM   12  N3  UNL     1      16.179   9.340   3.634  1.00  0.00    -0.359 N 
BRANCH  12  13
HETATM   13  C8  UNL     1      16.999   8.197   3.812  1.00  0.00     0.158 C 
BRANCH  13  14
HETATM   14  C9  UNL     1      18.471   8.439   3.991  1.00  0.00     0.203 C 
HETATM   15  C10 UNL     1      18.975   7.456   5.060  1.00  0.00     0.035 C 
HETATM   16  C11 UNL     1      20.462   7.653   5.190  1.00  0.00     0.004 C 
HETATM   17  C12 UNL     1      21.189   7.366   3.891  1.00  0.00     0.027 C 
HETATM   18  C13 UNL     1      20.547   8.181   2.777  1.00  0.00     0.233 C 
HETATM   19  N4  UNL     1      19.134   7.985   2.774  1.00  0.00    -0.069 N 
ATOM     20  H42 UNL     1      18.907   7.008   2.586  1.00  0.00     0.277 HD
ATOM     21  H41 UNL     1      18.713   8.421   1.953  1.00  0.00     0.277 HD
ENDBRANCH  13  14
ENDBRANCH  12  13
BRANCH  12  22
HETATM   22  C14 UNL     1      15.263   9.823   4.685  1.00  0.00     0.086 C 
HETATM   23  C15 UNL     1      15.944   9.833   5.989  1.00  0.00     0.025 C 
HETATM   24  C16 UNL     1      15.056   9.584   7.181  1.00  0.00     0.002 C 
HETATM   25  C17 UNL     1      13.602   9.882   6.876  1.00  0.00     0.000 C 
HETATM   26  C18 UNL     1      13.203   8.881   5.807  1.00  0.00     0.002 C 
HETATM   27  C19 UNL     1      14.011   9.008   4.567  1.00  0.00     0.025 C 
ENDBRANCH  12  22
ENDBRANCH   6  12
BRANCH   1  28
HETATM   28  C4  UNL     1      14.649   9.673  -2.215  1.00  0.00     0.086 C 
BRANCH  28  29
HETATM   29  C2  UNL     1      13.464   9.384  -2.953  1.00  0.00    -0.037 C 
HETATM   30  C1  UNL     1      12.258   9.857  -2.833  1.00  0.00     0.021 C 
HETATM   31  C3  UNL     1      13.627   8.374  -4.100  1.00  0.00     0.050 C 
ENDBRANCH  28  29
BRANCH  28  32
HETATM   32  O1  UNL     1      15.615  10.238  -2.903  1.00  0.00    -0.359 OA
ATOM     33  H1  UNL     1      15.546  11.180  -3.000  1.00  0.00     0.217 HD
ENDBRANCH  28  32
ENDBRANCH   1  28
TORSDOF 7
ENDMDL
MODEL 3
REMARK VINA RESULT: -8.511222646      3.144      5.890
REMARK  7 active torsions:
REMARK  status: ('A' for Active; 'I' for Inactive)
REMARK    1  A    between atoms: C2_2  and  C4_4 
REMARK    2  A    between atoms: C4_4  and  O1_5 
REMARK    3  A    between atoms: C4_4  and  C5_7 
REMARK    4  A    between atoms: C7_12  and  N3_13 
REMARK    5  A    between atoms: N3_13  and  C8_14 
REMARK    6  A    between atoms: N3_13  and  C14_23 
REMARK    7  A    between atoms: C8_14  and  C9_15 
ROOT
HETATM    1  C5  UNL     1      20.058   9.553   1.632  1.00  0.00     0.060 A 
HETATM    2  C6  UNL     1      19.420   8.794   2.645  1.00  0.00     0.126 A 
HETATM    3  N1  UNL     1      18.186   9.243   2.781  1.00  0.00    -0.301 N 
ATOM      4  H1  UNL     1      17.506   8.870   3.445  1.00  0.00     0.186 HD
HETATM    5  N2  UNL     1      17.945  10.239   1.944  1.00  0.00    -0.223 N 
HETATM    6  C7  UNL     1      16.828  10.990   1.769  1.00  0.00     0.129 A 
HETATM    7  C20 UNL     1      16.844  11.995   0.841  1.00  0.00     0.067 A 
HETATM    8  C21 UNL     1      17.987  12.221   0.110  1.00  0.00     0.093 A 
HETATM    9  N5  UNL     1      19.043  11.439   0.340  1.00  0.00    -0.350 N 
ATOM     10  H5  UNL     1      19.884  11.616  -0.209  1.00  0.00     0.166 HD
HETATM   11  C22 UNL     1      19.091  10.436   1.235  1.00  0.00     0.143 A 
ENDROOT
BRANCH   6  12
HETATM   12  N3  UNL     1      15.683  10.712   2.574  1.00  0.00    -0.359 N 
BRANCH  12  13
HETATM   13  C8  UNL     1      15.680  11.032   3.956  1.00  0.00     0.158 C 
BRANCH  13  14
HETATM   14  C9  UNL     1      15.153   9.984   4.894  1.00  0.00     0.203 C 
HETATM   15  C10 UNL     1      16.293   9.609   5.856  1.00  0.00     0.035 C 
HETATM   16  C11 UNL     1      15.744   8.608   6.838  1.00  0.00     0.004 C 
HETATM   17  C12 UNL     1      14.598   9.178   7.649  1.00  0.00     0.027 C 
HETATM   18  C13 UNL     1      13.557   9.751   6.696  1.00  0.00     0.233 C 
HETATM   19  N4  UNL     1      14.177  10.633   5.762  1.00  0.00    -0.069 N 
ATOM     20  H42 UNL     1      14.598  11.427   6.243  1.00  0.00     0.277 HD
ATOM     21  H41 UNL     1      13.473  11.120   5.208  1.00  0.00     0.277 HD
ENDBRANCH  13  14
ENDBRANCH  12  13
BRANCH  12  22
HETATM   22  C14 UNL     1      14.518  10.100   1.906  1.00  0.00     0.086 C 
HETATM   23  C15 UNL     1      13.274  10.728   2.376  1.00  0.00     0.025 C 
HETATM   24  C16 UNL     1      12.065   9.829   2.394  1.00  0.00     0.002 C 
HETATM   25  C17 UNL     1      12.228   8.642   1.466  1.00  0.00     0.000 C 
HETATM   26  C18 UNL     1      13.387   7.844   2.036  1.00  0.00     0.002 C 
HETATM   27  C19 UNL     1      14.653   8.619   2.086  1.00  0.00     0.025 C 
ENDBRANCH  12  22
ENDBRANCH   6  12
BRANCH   1  28
HETATM   28  C4  UNL     1      21.407   9.326   1.169  1.00  0.00     0.086 C 
BRANCH  28  29
HETATM   29  C2  UNL     1      22.204   8.145   1.210  1.00  0.00    -0.037 C 
HETATM   30  C1  UNL     1      22.270   7.200   2.102  1.00  0.00     0.021 C 
HETATM   31  C3  UNL     1      23.120   7.921  -0.005  1.00  0.00     0.050 C 
ENDBRANCH  28  29
BRANCH  28  32
HETATM   32  O1  UNL     1      21.986  10.375   0.631  1.00  0.00    -0.359 OA
ATOM     33  H1  UNL     1      21.650  10.632  -0.219  1.00  0.00     0.217 HD
ENDBRANCH  28  32
ENDBRANCH   1  28
TORSDOF 7
ENDMDL
MODEL 4
REMARK VINA RESULT: -8.449473672      3.368      6.680
REMARK  7 active torsions:
REMARK  status: ('A' for Active; 'I' for Inactive)
REMARK    1  A    between atoms: C2_2  and  C4_4 
REMARK    2  A    between atoms: C4_4  and  O1_5 
REMARK    3  A    between atoms: C4_4  and  C5_7 
REMARK    4  A    between atoms: C7_12  and  N3_13 
REMARK    5  A    between atoms: N3_13  and  C8_14 
REMARK    6  A    between atoms: N3_13  and  C14_23 
REMARK    7  A    between atoms: C8_14  and  C9_15 
ROOT
HETATM    1  C5  UNL     1      20.043   7.621   4.241  1.00  0.00     0.060 A 
HETATM    2  C6  UNL     1      18.918   7.247   5.017  1.00  0.00     0.126 A 
HETATM    3  N1  UNL     1      17.900   8.011   4.664  1.00  0.00    -0.301 N 
ATOM      4  H1  UNL     1      16.965   7.950   5.069  1.00  0.00     0.186 HD
HETATM    5  N2  UNL     1      18.251   8.866   3.718  1.00  0.00    -0.223 N 
HETATM    6  C7  UNL     1      17.530   9.831   3.093  1.00  0.00     0.129 A 
HETATM    7  C20 UNL     1      18.144  10.613   2.153  1.00  0.00     0.067 A 
HETATM    8  C21 UNL     1      19.473  10.405   1.864  1.00  0.00     0.093 A 
HETATM    9  N5  UNL     1      20.112   9.436   2.520  1.00  0.00    -0.350 N 
ATOM     10  H5  UNL     1      21.097   9.291   2.297  1.00  0.00     0.166 HD
HETATM   11  C22 UNL     1      19.567   8.633   3.453  1.00  0.00     0.143 A 
ENDROOT
BRANCH   6  12
HETATM   12  N3  UNL     1      16.160  10.004   3.454  1.00  0.00    -0.359 N 
BRANCH  12  13
HETATM   13  C8  UNL     1      15.805  10.354   4.782  1.00  0.00     0.158 C 
BRANCH  13  14
HETATM   14  C9  UNL     1      15.090   9.308   5.590  1.00  0.00     0.203 C 
HETATM   15  C10 UNL     1      15.701   9.316   7.001  1.00  0.00     0.035 C 
HETATM   16  C11 UNL     1      14.938   8.316   7.828  1.00  0.00     0.004 C 
HETATM   17  C12 UNL     1      13.469   8.671   7.939  1.00  0.00     0.027 C 
HETATM   18  C13 UNL     1      12.907   8.880   6.539  1.00  0.00     0.233 C 
HETATM   19  N4  UNL     1      13.730   9.787   5.807  1.00  0.00    -0.069 N 
ATOM     20  H42 UNL     1      13.740  10.704   6.255  1.00  0.00     0.277 HD
ATOM     21  H41 UNL     1      13.290  10.034   4.920  1.00  0.00     0.277 HD
ENDBRANCH  13  14
ENDBRANCH  12  13
BRANCH  12  22
HETATM   22  C14 UNL     1      15.152   9.821   2.392  1.00  0.00     0.086 C 
HETATM   23  C15 UNL     1      14.091  10.832   2.517  1.00  0.00     0.025 C 
HETATM   24  C16 UNL     1      12.725  10.392   2.058  1.00  0.00     0.002 C 
HETATM   25  C17 UNL     1      12.800   9.219   1.101  1.00  0.00     0.000 C 
HETATM   26  C18 UNL     1      13.386   8.077   1.911  1.00  0.00     0.002 C 
HETATM   27  C19 UNL     1      14.741   8.380   2.440  1.00  0.00     0.025 C 
ENDBRANCH  12  22
ENDBRANCH   6  12
BRANCH   1  28
HETATM   28  C4  UNL     1      21.334   6.979   4.312  1.00  0.00     0.086 C 
BRANCH  28  29
HETATM   29  C2  UNL     1      21.822   5.822   3.637  1.00  0.00    -0.037 C 
HETATM   30  C1  UNL     1      21.452   4.577   3.717  1.00  0.00     0.021 C 
HETATM   31  C3  UNL     1      22.950   6.073   2.622  1.00  0.00     0.050 C 
ENDBRANCH  28  29
BRANCH  28  32
HETATM   32  O1  UNL     1      22.187   7.551   5.131  1.00  0.00    -0.359 OA
ATOM     33  H1  UNL     1      22.633   8.314   4.784  1.00  0.00     0.217 HD
ENDBRANCH  28  32
ENDBRANCH   1  28
TORSDOF 7
ENDMDL
MODEL 5
REMARK VINA RESULT: -8.448037322      1.691      4.628
REMARK  7 active torsions:
REMARK  status: ('A' for Active; 'I' for Inactive)
REMARK    1  A    between atoms: C2_2  and  C4_4 
REMARK    2  A    between atoms: C4_4  and  O1_5 
REMARK    3  A    between atoms: C4_4  and  C5_7 
REMARK    4  A    between atoms: C7_12  and  N3_13 
REMARK    5  A    between atoms: N3_13  and  C8_14 
REMARK    6  A    between atoms: N3_13  and  C14_23 
REMARK    7  A    between atoms: C8_14  and  C9_15 
ROOT
HETATM    1  C5  UNL     1      14.461   9.137   0.629  1.00  0.00     0.060 A 
HETATM    2  C6  UNL     1      14.239   7.992   1.433  1.00  0.00     0.126 A 
HETATM    3  N1  UNL     1      14.762   8.217   2.624  1.00  0.00    -0.301 N 
ATOM      4  H1  UNL     1      14.741   7.552   3.398  1.00  0.00     0.186 HD
HETATM    5  N2  UNL     1      15.315   9.417   2.683  1.00  0.00    -0.223 N 
HETATM    6  C7  UNL     1      15.972  10.034   3.698  1.00  0.00     0.129 A 
HETATM    7  C20 UNL     1      16.483  11.286   3.493  1.00  0.00     0.067 A 
HETATM    8  C21 UNL     1      16.319  11.890   2.268  1.00  0.00     0.093 A 
HETATM    9  N5  UNL     1      15.661  11.220   1.322  1.00  0.00    -0.350 N 
ATOM     10  H5  UNL     1      15.546  11.678   0.419  1.00  0.00     0.166 HD
HETATM   11  C22 UNL     1      15.135   9.988   1.460  1.00  0.00     0.143 A 
ENDROOT
BRANCH   6  12
HETATM   12  N3  UNL     1      16.121   9.341   4.938  1.00  0.00    -0.359 N 
BRANCH  12  13
HETATM   13  C8  UNL     1      17.403   8.936   5.386  1.00  0.00     0.158 C 
BRANCH  13  14
HETATM   14  C9  UNL     1      18.220   8.102   4.440  1.00  0.00     0.203 C 
HETATM   15  C10 UNL     1      19.389   8.972   3.948  1.00  0.00     0.035 C 
HETATM   16  C11 UNL     1      20.244   8.115   3.053  1.00  0.00     0.004 C 
HETATM   17  C12 UNL     1      20.812   6.917   3.787  1.00  0.00     0.027 C 
HETATM   18  C13 UNL     1      19.672   6.168   4.463  1.00  0.00     0.233 C 
HETATM   19  N4  UNL     1      18.877   7.069   5.232  1.00  0.00    -0.069 N 
ATOM     20  H42 UNL     1      19.432   7.489   5.979  1.00  0.00     0.277 HD
ATOM     21  H41 UNL     1      18.195   6.558   5.791  1.00  0.00     0.277 HD
ENDBRANCH  13  14
ENDBRANCH  12  13
BRANCH  12  22
HETATM   22  C14 UNL     1      14.896   9.088   5.722  1.00  0.00     0.086 C 
HETATM   23  C15 UNL     1      14.232  10.358   6.053  1.00  0.00     0.025 C 
HETATM   24  C16 UNL     1      13.475  10.369   7.356  1.00  0.00     0.002 C 
HETATM   25  C17 UNL     1      13.111   8.970   7.810  1.00  0.00     0.000 C 
HETATM   26  C18 UNL     1      14.435   8.276   8.070  1.00  0.00     0.002 C 
HETATM   27  C19 UNL     1      15.296   8.202   6.862  1.00  0.00     0.025 C 
ENDBRANCH  12  22
ENDBRANCH   6  12
BRANCH   1  28
HETATM   28  C4  UNL     1      13.992   9.284  -0.730  1.00  0.00     0.086 C 
BRANCH  28  29
HETATM   29  C2  UNL     1      14.727   9.376  -1.949  1.00  0.00    -0.037 C 
HETATM   30  C1  UNL     1      15.893   9.898  -2.195  1.00  0.00     0.021 C 
HETATM   31  C3  UNL     1      14.060   8.732  -3.175  1.00  0.00     0.050 C 
ENDBRANCH  28  29
BRANCH  28  32
HETATM   32  O1  UNL     1      12.687   9.345  -0.856  1.00  0.00    -0.359 OA
ATOM     33  H1  UNL     1      12.244   8.507  -0.899  1.00  0.00     0.217 HD
ENDBRANCH  28  32
ENDBRANCH   1  28
TORSDOF 7
ENDMDL
