MODEL 1
REMARK VINA RESULT: -7.793862484      0.000      0.000
REMARK  8 active torsions:
REMARK  status: ('A' for Active; 'I' for Inactive)
REMARK    1  A    between atoms: C2_2  and  C3_3 
REMARK    2  A    between atoms: C3_3  and  C10_15 
REMARK    3  A    between atoms: C4_4  and  C5_5 
REMARK    4  A    between atoms: C5_5  and  C6_6 
REMARK    5  A    between atoms: C6_6  and  C7_7 
REMARK    6  A    between atoms: C10_15  and  O1_16 
REMARK    7  A    between atoms: C13_22  and  C14_23 
REMARK    8  A    between atoms: C13_22  and  C16_25 
ROOT
HETATM    1  C10 UNL     1      15.046   9.717   2.236  1.00  0.00     0.152 C 
HETATM    2  C11 UNL     1      15.634  10.859   1.451  1.00  0.00     0.234 C 
HETATM    3  O2  UNL     1      16.257  11.820   1.923  1.00  0.00    -0.285 OA
HETATM    4  C12 UNL     1      15.416  10.764  -0.008  1.00  0.00     0.207 C 
HETATM    5  O3  UNL     1      16.078  11.576  -0.697  1.00  0.00    -0.288 OA
HETATM    6  C13 UNL     1      14.510   9.816  -0.647  1.00  0.00     0.031 C 
HETATM    7  C19 UNL     1      13.610   9.084   0.287  1.00  0.00     0.026 C 
HETATM    8  C20 UNL     1      13.681   9.500   1.756  1.00  0.00     0.030 C 
HETATM    9  C21 UNL     1      12.705  10.595   2.028  1.00  0.00     0.014 C 
ENDROOT
BRANCH   1  10
HETATM   10  C3  UNL     1      15.216   9.926   3.681  1.00  0.00    -0.042 C 
HETATM   11  C4  UNL     1      16.210   9.427   4.408  1.00  0.00    -0.020 C 
BRANCH  10  12
HETATM   12  C2  UNL     1      14.248  10.810   4.445  1.00  0.00     0.033 C 
HETATM   13  C1  UNL     1      14.166  10.471   5.916  1.00  0.00     0.010 C 
ENDBRANCH  10  12
BRANCH  11  14
HETATM   14  C5  UNL     1      17.332   8.555   4.079  1.00  0.00     0.035 C 
BRANCH  14  15
HETATM   15  C6  UNL     1      18.678   9.201   4.425  1.00  0.00     0.082 C 
BRANCH  15  16
HETATM   16  C7  UNL     1      19.153   9.938   3.236  1.00  0.00     0.098 A 
HETATM   17  N1  UNL     1      18.807  11.175   2.883  1.00  0.00    -0.288 N 
HETATM   18  N2  UNL     1      19.437  11.476   1.768  1.00  0.00    -0.295 N 
ATOM     19  H1  UNL     1      18.164  11.783   3.390  1.00  0.00     0.188 HD
HETATM   20  C8  UNL     1      20.195  10.433   1.395  1.00  0.00     0.200 A 
ATOM     21  H2  UNL     1      19.362  12.361   1.267  1.00  0.00     0.187 HD
HETATM   22  N3  UNL     1      20.022   9.463   2.309  1.00  0.00    -0.335 N 
HETATM   23  C9  UNL     1      20.615   8.142   2.364  1.00  0.00     0.158 C 
ENDBRANCH  15  16
ENDBRANCH  14  15
ENDBRANCH  11  14
ENDBRANCH   1  10
BRANCH   1  24
HETATM   24  O1  UNL     1      15.857   8.601   1.896  1.00  0.00    -0.377 OA
ATOM     25  H1  UNL     1      15.855   8.550   0.948  1.00  0.00     0.211 HD
ENDBRANCH   1  24
BRANCH   6  26
HETATM   26  C14 UNL     1      15.248   8.759  -1.461  1.00  0.00     0.013 C 
HETATM   27  C15 UNL     1      14.881   7.354  -1.234  1.00  0.00     0.006 C 
ENDBRANCH   6  26
BRANCH   6  28
HETATM   28  C16 UNL     1      13.768  10.622  -1.725  1.00  0.00    -0.006 C 
HETATM   29  C17 UNL     1      14.137  10.256  -3.118  1.00  0.00     0.011 C 
HETATM   30  C18 UNL     1      12.295  10.692  -1.530  1.00  0.00     0.011 C 
ENDBRANCH   6  28
TORSDOF 8
ENDMDL
MODEL 2
REMARK VINA RESULT: -7.645514348      0.772      1.292
REMARK  8 active torsions:
REMARK  status: ('A' for Active; 'I' for Inactive)
REMARK    1  A    between atoms: C2_2  and  C3_3 
REMARK    2  A    between atoms: C3_3  and  C10_15 
REMARK    3  A    between atoms: C4_4  and  C5_5 
REMARK    4  A    between atoms: C5_5  and  C6_6 
REMARK    5  A    between atoms: C6_6  and  C7_7 
REMARK    6  A    between atoms: C10_15  and  O1_16 
REMARK    7  A    between atoms: C13_22  and  C14_23 
REMARK    8  A    between atoms: C13_22  and  C16_25 
ROOT
HETATM    1  C10 UNL     1      15.186   9.910   2.327  1.00  0.00     0.152 C 
HETATM    2  C11 UNL     1      15.718  11.051   1.501  1.00  0.00     0.234 C 
HETATM    3  O2  UNL     1      16.315  12.045   1.936  1.00  0.00    -0.285 OA
HETATM    4  C12 UNL     1      15.476  10.909   0.050  1.00  0.00     0.207 C 
HETATM    5  O3  UNL     1      16.096  11.724  -0.673  1.00  0.00    -0.288 OA
HETATM    6  C13 UNL     1      14.594   9.912  -0.546  1.00  0.00     0.031 C 
HETATM    7  C19 UNL     1      13.738   9.174   0.425  1.00  0.00     0.026 C 
HETATM    8  C20 UNL     1      13.822   9.632   1.880  1.00  0.00     0.030 C 
HETATM    9  C21 UNL     1      12.812  10.699   2.143  1.00  0.00     0.014 C 
ENDROOT
BRANCH   1  10
HETATM   10  C3  UNL     1      15.376  10.164   3.763  1.00  0.00    -0.042 C 
HETATM   11  C4  UNL     1      16.471   9.859   4.450  1.00  0.00    -0.020 C 
BRANCH  10  12
HETATM   12  C2  UNL     1      14.299  10.872   4.563  1.00  0.00     0.033 C 
HETATM   13  C1  UNL     1      14.145  10.330   5.966  1.00  0.00     0.010 C 
ENDBRANCH  10  12
BRANCH  11  14
HETATM   14  C5  UNL     1      17.715   9.195   4.078  1.00  0.00     0.035 C 
BRANCH  14  15
HETATM   15  C6  UNL     1      18.760  10.189   3.560  1.00  0.00     0.082 C 
BRANCH  15  16
HETATM   16  C7  UNL     1      19.704   9.454   2.694  1.00  0.00     0.098 A 
HETATM   17  N1  UNL     1      19.931   8.141   2.709  1.00  0.00    -0.288 N 
HETATM   18  N2  UNL     1      20.837   7.870   1.794  1.00  0.00    -0.295 N 
ATOM     19  H1  UNL     1      19.480   7.464   3.322  1.00  0.00     0.188 HD
HETATM   20  C8  UNL     1      21.201   9.008   1.184  1.00  0.00     0.200 A 
ATOM     21  H2  UNL     1      21.205   6.943   1.583  1.00  0.00     0.187 HD
HETATM   22  N3  UNL     1      20.497  10.007   1.742  1.00  0.00    -0.335 N 
HETATM   23  C9  UNL     1      20.521  11.424   1.440  1.00  0.00     0.158 C 
ENDBRANCH  15  16
ENDBRANCH  14  15
ENDBRANCH  11  14
ENDBRANCH   1  10
BRANCH   1  24
HETATM   24  O1  UNL     1      16.030   8.815   2.002  1.00  0.00    -0.377 OA
ATOM     25  H1  UNL     1      16.645   8.730   2.721  1.00  0.00     0.211 HD
ENDBRANCH   1  24
BRANCH   6  26
HETATM   26  C14 UNL     1      15.353   8.860  -1.345  1.00  0.00     0.013 C 
HETATM   27  C15 UNL     1      14.945   7.458  -1.179  1.00  0.00     0.006 C 
ENDBRANCH   6  26
BRANCH   6  28
HETATM   28  C16 UNL     1      13.803  10.662  -1.630  1.00  0.00    -0.006 C 
HETATM   29  C17 UNL     1      14.180  10.292  -3.021  1.00  0.00     0.011 C 
HETATM   30  C18 UNL     1      12.330  10.659  -1.424  1.00  0.00     0.011 C 
ENDBRANCH   6  28
TORSDOF 8
ENDMDL
MODEL 3
REMARK VINA RESULT: -7.530585880      1.079      1.502
REMARK  8 active torsions:
REMARK  status: ('A' for Active; 'I' for Inactive)
REMARK    1  A    between atoms: C2_2  and  C3_3 
REMARK    2  A    between atoms: C3_3  and  C10_15 
REMARK    3  A    between atoms: C4_4  and  C5_5 
REMARK    4  A    between atoms: C5_5  and  C6_6 
REMARK    5  A    between atoms: C6_6  and  C7_7 
REMARK    6  A    between atoms: C10_15  and  O1_16 
REMARK    7  A    between atoms: C13_22  and  C14_23 
REMARK    8  A    between atoms: C13_22  and  C16_25 
ROOT
HETATM    1  C10 UNL     1      15.050   9.677   2.297  1.00  0.00     0.152 C 
HETATM    2  C11 UNL     1      15.716  10.779   1.516  1.00  0.00     0.234 C 
HETATM    3  O2  UNL     1      16.389  11.702   1.993  1.00  0.00    -0.285 OA
HETATM    4  C12 UNL     1      15.510  10.692   0.055  1.00  0.00     0.207 C 
HETATM    5  O3  UNL     1      16.228  11.459  -0.628  1.00  0.00    -0.288 OA
HETATM    6  C13 UNL     1      14.557   9.798  -0.593  1.00  0.00     0.031 C 
HETATM    7  C19 UNL     1      13.602   9.125   0.332  1.00  0.00     0.026 C 
HETATM    8  C20 UNL     1      13.681   9.541   1.801  1.00  0.00     0.030 C 
HETATM    9  C21 UNL     1      12.769  10.694   2.057  1.00  0.00     0.014 C 
ENDROOT
BRANCH   1  10
HETATM   10  C3  UNL     1      15.215   9.881   3.744  1.00  0.00    -0.042 C 
HETATM   11  C4  UNL     1      16.229   9.417   4.465  1.00  0.00    -0.020 C 
BRANCH  10  12
HETATM   12  C2  UNL     1      14.214  10.719   4.516  1.00  0.00     0.033 C 
HETATM   13  C1  UNL     1      14.162  10.377   5.989  1.00  0.00     0.010 C 
ENDBRANCH  10  12
BRANCH  11  14
HETATM   14  C5  UNL     1      17.384   8.593   4.127  1.00  0.00     0.035 C 
BRANCH  14  15
HETATM   15  C6  UNL     1      18.644   9.439   3.909  1.00  0.00     0.082 C 
BRANCH  15  16
HETATM   16  C7  UNL     1      19.684   8.570   3.323  1.00  0.00     0.098 A 
HETATM   17  N1  UNL     1      19.949   8.419   2.026  1.00  0.00    -0.288 N 
HETATM   18  N2  UNL     1      20.941   7.563   1.905  1.00  0.00    -0.295 N 
ATOM     19  H1  UNL     1      19.467   8.888   1.259  1.00  0.00     0.188 HD
HETATM   20  C8  UNL     1      21.322   7.155   3.125  1.00  0.00     0.200 A 
ATOM     21  H2  UNL     1      21.354   7.257   1.024  1.00  0.00     0.187 HD
HETATM   22  N3  UNL     1      20.539   7.780   4.021  1.00  0.00    -0.335 N 
HETATM   23  C9  UNL     1      20.546   7.684   5.467  1.00  0.00     0.158 C 
ENDBRANCH  15  16
ENDBRANCH  14  15
ENDBRANCH  11  14
ENDBRANCH   1  10
BRANCH   1  24
HETATM   24  O1  UNL     1      15.796   8.513   1.971  1.00  0.00    -0.377 OA
ATOM     25  H1  UNL     1      15.823   8.471   1.022  1.00  0.00     0.211 HD
ENDBRANCH   1  24
BRANCH   6  26
HETATM   26  C14 UNL     1      15.239   8.695  -1.394  1.00  0.00     0.013 C 
HETATM   27  C15 UNL     1      14.809   7.311  -1.143  1.00  0.00     0.006 C 
ENDBRANCH   6  26
BRANCH   6  28
HETATM   28  C16 UNL     1      13.878  10.643  -1.682  1.00  0.00    -0.006 C 
HETATM   29  C17 UNL     1      14.282  10.284  -3.068  1.00  0.00     0.011 C 
HETATM   30  C18 UNL     1      12.402  10.758  -1.536  1.00  0.00     0.011 C 
ENDBRANCH   6  28
TORSDOF 8
ENDMDL
MODEL 4
REMARK VINA RESULT: -7.304954447      3.134      6.391
REMARK  8 active torsions:
REMARK  status: ('A' for Active; 'I' for Inactive)
REMARK    1  A    between atoms: C2_2  and  C3_3 
REMARK    2  A    between atoms: C3_3  and  C10_15 
REMARK    3  A    between atoms: C4_4  and  C5_5 
REMARK    4  A    between atoms: C5_5  and  C6_6 
REMARK    5  A    between atoms: C6_6  and  C7_7 
REMARK    6  A    between atoms: C10_15  and  O1_16 
REMARK    7  A    between atoms: C13_22  and  C14_23 
REMARK    8  A    between atoms: C13_22  and  C16_25 
ROOT
HETATM    1  C10 UNL     1      16.516  10.179   1.581  1.00  0.00     0.152 C 
HETATM    2  C11 UNL     1      16.154  11.478   2.250  1.00  0.00     0.234 C 
HETATM    3  O2  UNL     1      16.515  12.606   1.887  1.00  0.00    -0.285 OA
HETATM    4  C12 UNL     1      15.288  11.325   3.437  1.00  0.00     0.207 C 
HETATM    5  O3  UNL     1      14.796  12.392   3.876  1.00  0.00    -0.288 OA
HETATM    6  C13 UNL     1      14.996  10.052   4.087  1.00  0.00     0.031 C 
HETATM    7  C19 UNL     1      15.828   8.907   3.623  1.00  0.00     0.026 C 
HETATM    8  C20 UNL     1      16.934   9.241   2.623  1.00  0.00     0.030 C 
HETATM    9  C21 UNL     1      18.196   9.577   3.344  1.00  0.00     0.014 C 
ENDROOT
BRANCH   1  10
HETATM   10  C3  UNL     1      17.454  10.399   0.470  1.00  0.00    -0.042 C 
HETATM   11  C4  UNL     1      17.099  10.610  -0.792  1.00  0.00    -0.020 C 
BRANCH  10  12
HETATM   12  C2  UNL     1      18.948  10.453   0.731  1.00  0.00     0.033 C 
HETATM   13  C1  UNL     1      19.517  11.852   0.642  1.00  0.00     0.010 C 
ENDBRANCH  10  12
BRANCH  11  14
HETATM   14  C5  UNL     1      15.803  10.646  -1.459  1.00  0.00     0.035 C 
BRANCH  14  15
HETATM   15  C6  UNL     1      15.452   9.299  -2.100  1.00  0.00     0.082 C 
BRANCH  15  16
HETATM   16  C7  UNL     1      14.807   9.564  -3.402  1.00  0.00     0.098 A 
HETATM   17  N1  UNL     1      15.405   9.571  -4.592  1.00  0.00    -0.288 N 
HETATM   18  N2  UNL     1      14.499   9.847  -5.506  1.00  0.00    -0.295 N 
ATOM     19  H1  UNL     1      16.394   9.393  -4.766  1.00  0.00     0.188 HD
HETATM   20  C8  UNL     1      13.310  10.020  -4.909  1.00  0.00     0.200 A 
ATOM     21  H2  UNL     1      14.673   9.919  -6.508  1.00  0.00     0.187 HD
HETATM   22  N3  UNL     1      13.493   9.845  -3.589  1.00  0.00    -0.335 N 
HETATM   23  C9  UNL     1      12.526   9.923  -2.512  1.00  0.00     0.158 C 
ENDBRANCH  15  16
ENDBRANCH  14  15
ENDBRANCH  11  14
ENDBRANCH   1  10
BRANCH   1  24
HETATM   24  O1  UNL     1      15.302   9.733   0.994  1.00  0.00    -0.377 OA
ATOM     25  H1  UNL     1      14.742   9.463   1.713  1.00  0.00     0.211 HD
ENDBRANCH   1  24
BRANCH   6  26
HETATM   26  C14 UNL     1      13.541   9.629   3.919  1.00  0.00     0.013 C 
HETATM   27  C15 UNL     1      13.275   8.416   3.133  1.00  0.00     0.006 C 
ENDBRANCH   6  26
BRANCH   6  28
HETATM   28  C16 UNL     1      15.100  10.329   5.595  1.00  0.00    -0.006 C 
HETATM   29  C17 UNL     1      13.799  10.277   6.313  1.00  0.00     0.011 C 
HETATM   30  C18 UNL     1      16.159   9.547   6.288  1.00  0.00     0.011 C 
ENDBRANCH   6  28
TORSDOF 8
ENDMDL
MODEL 5
REMARK VINA RESULT: -7.301491883      2.783      6.149
REMARK  8 active torsions:
REMARK  status: ('A' for Active; 'I' for Inactive)
REMARK    1  A    between atoms: C2_2  and  C3_3 
REMARK    2  A    between atoms: C3_3  and  C10_15 
REMARK    3  A    between atoms: C4_4  and  C5_5 
REMARK    4  A    between atoms: C5_5  and  C6_6 
REMARK    5  A    between atoms: C6_6  and  C7_7 
REMARK    6  A    between atoms: C10_15  and  O1_16 
REMARK    7  A    between atoms: C13_22  and  C14_23 
REMARK    8  A    between atoms: C13_22  and  C16_25 
ROOT
HETATM    1  C10 UNL     1      16.935  10.083   1.938  1.00  0.00     0.152 C 
HETATM    2  C11 UNL     1      16.284  11.321   2.495  1.00  0.00     0.234 C 
HETATM    3  O2  UNL     1      16.514  12.485   2.137  1.00  0.00    -0.285 OA
HETATM    4  C12 UNL     1      15.293  11.056   3.558  1.00  0.00     0.207 C 
HETATM    5  O3  UNL     1      14.584  12.040   3.878  1.00  0.00    -0.288 OA
HETATM    6  C13 UNL     1      15.112   9.767   4.215  1.00  0.00     0.031 C 
HETATM    7  C19 UNL     1      16.169   8.760   3.920  1.00  0.00     0.026 C 
HETATM    8  C20 UNL     1      17.341   9.245   3.067  1.00  0.00     0.030 C 
HETATM    9  C21 UNL     1      18.420   9.794   3.939  1.00  0.00     0.014 C 
ENDROOT
BRANCH   1  10
HETATM   10  C3  UNL     1      17.975  10.426   0.958  1.00  0.00    -0.042 C 
HETATM   11  C4  UNL     1      17.745  10.942  -0.245  1.00  0.00    -0.020 C 
BRANCH  10  12
HETATM   12  C2  UNL     1      19.441  10.253   1.307  1.00  0.00     0.033 C 
HETATM   13  C1  UNL     1      20.225  11.545   1.246  1.00  0.00     0.010 C 
ENDBRANCH  10  12
BRANCH  11  14
HETATM   14  C5  UNL     1      16.516  11.268  -0.958  1.00  0.00     0.035 C 
BRANCH  14  15
HETATM   15  C6  UNL     1      16.190  10.231  -2.038  1.00  0.00     0.082 C 
BRANCH  15  16
HETATM   16  C7  UNL     1      14.721  10.101  -2.122  1.00  0.00     0.098 A 
HETATM   17  N1  UNL     1      13.877  10.008  -1.096  1.00  0.00    -0.288 N 
HETATM   18  N2  UNL     1      12.656   9.906  -1.576  1.00  0.00    -0.295 N 
ATOM     19  H1  UNL     1      14.132  10.015  -0.109  1.00  0.00     0.188 HD
HETATM   20  C8  UNL     1      12.706   9.933  -2.917  1.00  0.00     0.200 A 
ATOM     21  H2  UNL     1      11.806   9.820  -1.018  1.00  0.00     0.187 HD
HETATM   22  N3  UNL     1      13.997  10.054  -3.268  1.00  0.00    -0.335 N 
HETATM   23  C9  UNL     1      14.581  10.128  -4.592  1.00  0.00     0.158 C 
ENDBRANCH  15  16
ENDBRANCH  14  15
ENDBRANCH  11  14
ENDBRANCH   1  10
BRANCH   1  24
HETATM   24  O1  UNL     1      15.900   9.437   1.210  1.00  0.00    -0.377 OA
ATOM     25  H1  UNL     1      15.095   9.889   1.435  1.00  0.00     0.211 HD
ENDBRANCH   1  24
BRANCH   6  26
HETATM   26  C14 UNL     1      13.779   9.114   3.868  1.00  0.00     0.013 C 
HETATM   27  C15 UNL     1      13.126   9.531   2.619  1.00  0.00     0.006 C 
ENDBRANCH   6  26
BRANCH   6  28
HETATM   28  C16 UNL     1      14.957  10.088   5.710  1.00  0.00    -0.006 C 
HETATM   29  C17 UNL     1      13.610   9.779   6.261  1.00  0.00     0.011 C 
HETATM   30  C18 UNL     1      16.052   9.558   6.566  1.00  0.00     0.011 C 
ENDBRANCH   6  28
TORSDOF 8
ENDMDL
