MODEL 1
REMARK VINA RESULT: -8.998915130      0.000      0.000
REMARK  10 active torsions:
REMARK  status: ('A' for Active; 'I' for Inactive)
REMARK    1  A    between atoms: C2_2  and  C3_4 
REMARK    2  A    between atoms: C3_4  and  C19_24 
REMARK    3  A    between atoms: C4_5  and  C5_6 
REMARK    4  A    between atoms: C6_7  and  C7_8 
REMARK    5  A    between atoms: C8_9  and  C9_10 
REMARK    6  A    between atoms: C9_10  and  C11_12 
REMARK    7  A    between atoms: C12_13  and  C13_14 
REMARK    8  A    between atoms: C16_18  and  O3_19 
REMARK    9  A    between atoms: C19_24  and  O6_26 
REMARK   10  A    between atoms: O6_26  and  C20_27 
ROOT
HETATM    1  C5  UNL     1       1.435 -12.515  36.108  1.00  0.00     0.001 C 
HETATM    2  C6  UNL     1       1.461 -12.106  34.827  1.00  0.00    -0.000 C 
ENDROOT
BRANCH   2   3
HETATM    3  C7  UNL     1       1.056 -10.792  34.370  1.00  0.00    -0.003 C 
HETATM    4  C8  UNL     1       1.927  -9.801  34.365  1.00  0.00    -0.019 C 
BRANCH   4   5
HETATM    5  C9  UNL     1       1.556  -8.450  33.907  1.00  0.00     0.026 C 
HETATM    6  C10 UNL     1       0.461  -7.919  34.793  1.00  0.00     0.018 C 
BRANCH   5   7
HETATM    7  C11 UNL     1       1.105  -8.539  32.488  1.00  0.00    -0.020 C 
HETATM    8  C12 UNL     1       1.860  -9.061  31.535  1.00  0.00     0.004 C 
BRANCH   8   9
HETATM    9  C13 UNL     1       1.349  -9.116  30.148  1.00  0.00     0.176 C 
HETATM   10  O2  UNL     1       2.210  -8.430  29.319  1.00  0.00    -0.350 OA
HETATM   11  C14 UNL     1       3.019  -9.376  28.695  1.00  0.00     0.263 C 
HETATM   12  C15 UNL     1       2.649  -9.484  27.242  1.00  0.00     0.092 C 
HETATM   13  O4  UNL     1       2.812 -10.590  29.306  1.00  0.00    -0.353 OA
HETATM   14  C16 UNL     1       1.545 -10.486  27.089  1.00  0.00     0.125 C 
HETATM   15  C17 UNL     1       0.636 -10.548  28.294  1.00  0.00     0.067 C 
HETATM   16  C18 UNL     1       1.426 -10.516  29.576  1.00  0.00     0.160 C 
BRANCH  14  17
HETATM   17  O3  UNL     1       2.085 -11.772  26.891  1.00  0.00    -0.395 OA
ATOM     18  H3  UNL     1       1.653 -12.197  26.160  1.00  0.00     0.210 HD
ENDBRANCH  14  17
ENDBRANCH   8   9
ENDBRANCH   5   7
ENDBRANCH   4   5
ENDBRANCH   2   3
BRANCH   1  19
HETATM   19  C4  UNL     1       0.998 -11.684  37.190  1.00  0.00     0.021 C 
HETATM   20  C3  UNL     1       1.218 -11.867  38.472  1.00  0.00     0.085 C 
BRANCH  20  21
HETATM   21  C2  UNL     1       1.947 -12.941  39.081  1.00  0.00     0.161 C 
HETATM   22  C1  UNL     1       3.369 -12.814  39.461  1.00  0.00     0.097 C 
HETATM   23  O1  UNL     1       1.409 -14.037  39.318  1.00  0.00    -0.293 OA
ENDBRANCH  20  21
BRANCH  20  24
HETATM   24  C19 UNL     1       0.620 -10.809  39.333  1.00  0.00     0.303 C 
HETATM   25  O5  UNL     1       0.399 -11.057  40.520  1.00  0.00    -0.259 OA
BRANCH  24  26
HETATM   26  O6  UNL     1       0.296  -9.554  38.865  1.00  0.00    -0.257 OA
BRANCH  26  27
HETATM   27  C20 UNL     1      -0.561  -8.688  39.525  1.00  0.00     0.151 A 
HETATM   28  C21 UNL     1      -1.628  -7.971  39.054  1.00  0.00     0.058 A 
HETATM   29  C22 UNL     1      -2.195  -7.231  40.096  1.00  0.00     0.021 A 
HETATM   30  C23 UNL     1      -1.429  -7.535  41.194  1.00  0.00     0.090 A 
HETATM   31  N1  UNL     1      -0.464  -8.402  40.834  1.00  0.00    -0.347 N 
ATOM     32  H1  UNL     1       0.240  -8.787  41.464  1.00  0.00     0.167 HD
ENDBRANCH  26  27
ENDBRANCH  24  26
ENDBRANCH  20  24
ENDBRANCH   1  19
TORSDOF 10
ENDMDL
MODEL 2
REMARK VINA RESULT: -8.825172678      0.963      1.174
REMARK  10 active torsions:
REMARK  status: ('A' for Active; 'I' for Inactive)
REMARK    1  A    between atoms: C2_2  and  C3_4 
REMARK    2  A    between atoms: C3_4  and  C19_24 
REMARK    3  A    between atoms: C4_5  and  C5_6 
REMARK    4  A    between atoms: C6_7  and  C7_8 
REMARK    5  A    between atoms: C8_9  and  C9_10 
REMARK    6  A    between atoms: C9_10  and  C11_12 
REMARK    7  A    between atoms: C12_13  and  C13_14 
REMARK    8  A    between atoms: C16_18  and  O3_19 
REMARK    9  A    between atoms: C19_24  and  O6_26 
REMARK   10  A    between atoms: O6_26  and  C20_27 
ROOT
HETATM    1  C5  UNL     1       1.319 -13.922  35.979  1.00  0.00     0.001 C 
HETATM    2  C6  UNL     1       1.375 -13.561  34.685  1.00  0.00    -0.000 C 
ENDROOT
BRANCH   2   3
HETATM    3  C7  UNL     1       1.240 -12.203  34.199  1.00  0.00    -0.003 C 
HETATM    4  C8  UNL     1       2.196 -11.324  34.430  1.00  0.00    -0.019 C 
BRANCH   4   5
HETATM    5  C9  UNL     1       2.097  -9.933  33.952  1.00  0.00     0.026 C 
HETATM    6  C10 UNL     1       1.201  -9.160  34.882  1.00  0.00     0.018 C 
BRANCH   5   7
HETATM    7  C11 UNL     1       1.550  -9.948  32.565  1.00  0.00    -0.020 C 
HETATM    8  C12 UNL     1       1.973  -9.117  31.626  1.00  0.00     0.004 C 
BRANCH   8   9
HETATM    9  C13 UNL     1       1.384  -9.187  30.270  1.00  0.00     0.176 C 
HETATM   10  O2  UNL     1       2.152  -8.441  29.403  1.00  0.00    -0.350 OA
HETATM   11  C14 UNL     1       2.978  -9.330  28.719  1.00  0.00     0.263 C 
HETATM   12  C15 UNL     1       2.529  -9.444  27.289  1.00  0.00     0.092 C 
HETATM   13  O4  UNL     1       2.880 -10.561  29.323  1.00  0.00    -0.353 OA
HETATM   14  C16 UNL     1       1.480 -10.508  27.186  1.00  0.00     0.125 C 
HETATM   15  C17 UNL     1       0.650 -10.638  28.441  1.00  0.00     0.067 C 
HETATM   16  C18 UNL     1       1.511 -10.573  29.675  1.00  0.00     0.160 C 
BRANCH  14  17
HETATM   17  O3  UNL     1       2.083 -11.757  26.938  1.00  0.00    -0.395 OA
ATOM     18  H3  UNL     1       2.607 -12.019  27.685  1.00  0.00     0.210 HD
ENDBRANCH  14  17
ENDBRANCH   8   9
ENDBRANCH   5   7
ENDBRANCH   4   5
ENDBRANCH   2   3
BRANCH   1  19
HETATM   19  C4  UNL     1       1.117 -12.990  37.048  1.00  0.00     0.021 C 
HETATM   20  C3  UNL     1       1.754 -12.945  38.196  1.00  0.00     0.085 C 
BRANCH  20  21
HETATM   21  C2  UNL     1       2.798 -13.821  38.642  1.00  0.00     0.161 C 
HETATM   22  C1  UNL     1       4.136 -13.324  39.023  1.00  0.00     0.097 C 
HETATM   23  O1  UNL     1       2.622 -15.049  38.727  1.00  0.00    -0.293 OA
ENDBRANCH  20  21
BRANCH  20  24
HETATM   24  C19 UNL     1       1.296 -11.843  39.086  1.00  0.00     0.303 C 
HETATM   25  O5  UNL     1       0.906 -12.114  40.224  1.00  0.00    -0.259 OA
BRANCH  24  26
HETATM   26  O6  UNL     1       1.283 -10.520  38.699  1.00  0.00    -0.257 OA
BRANCH  26  27
HETATM   27  C20 UNL     1       0.216  -9.665  38.924  1.00  0.00     0.151 A 
HETATM   28  C21 UNL     1      -0.626  -9.050  38.037  1.00  0.00     0.058 A 
HETATM   29  C22 UNL     1      -1.560  -8.276  38.734  1.00  0.00     0.021 A 
HETATM   30  C23 UNL     1      -1.241  -8.456  40.057  1.00  0.00     0.090 A 
HETATM   31  N1  UNL     1      -0.183  -9.285  40.149  1.00  0.00    -0.347 N 
ATOM     32  H1  UNL     1       0.253  -9.580  41.023  1.00  0.00     0.167 HD
ENDBRANCH  26  27
ENDBRANCH  24  26
ENDBRANCH  20  24
ENDBRANCH   1  19
TORSDOF 10
ENDMDL
MODEL 3
REMARK VINA RESULT: -8.736358006      1.673      2.551
REMARK  10 active torsions:
REMARK  status: ('A' for Active; 'I' for Inactive)
REMARK    1  A    between atoms: C2_2  and  C3_4 
REMARK    2  A    between atoms: C3_4  and  C19_24 
REMARK    3  A    between atoms: C4_5  and  C5_6 
REMARK    4  A    between atoms: C6_7  and  C7_8 
REMARK    5  A    between atoms: C8_9  and  C9_10 
REMARK    6  A    between atoms: C9_10  and  C11_12 
REMARK    7  A    between atoms: C12_13  and  C13_14 
REMARK    8  A    between atoms: C16_18  and  O3_19 
REMARK    9  A    between atoms: C19_24  and  O6_26 
REMARK   10  A    between atoms: O6_26  and  C20_27 
ROOT
HETATM    1  C5  UNL     1       4.338 -12.801  35.763  1.00  0.00     0.001 C 
HETATM    2  C6  UNL     1       4.036 -11.981  34.742  1.00  0.00    -0.000 C 
ENDROOT
BRANCH   2   3
HETATM    3  C7  UNL     1       2.826 -11.190  34.647  1.00  0.00    -0.003 C 
HETATM    4  C8  UNL     1       2.888  -9.940  34.227  1.00  0.00    -0.019 C 
BRANCH   4   5
HETATM    5  C9  UNL     1       1.681  -9.103  34.116  1.00  0.00     0.026 C 
HETATM    6  C10 UNL     1       0.652  -9.598  35.096  1.00  0.00     0.018 C 
BRANCH   5   7
HETATM    7  C11 UNL     1       1.175  -9.185  32.715  1.00  0.00    -0.020 C 
HETATM    8  C12 UNL     1       1.971  -9.072  31.665  1.00  0.00     0.004 C 
BRANCH   8   9
HETATM    9  C13 UNL     1       1.400  -9.164  30.303  1.00  0.00     0.176 C 
HETATM   10  O2  UNL     1       2.176  -8.427  29.435  1.00  0.00    -0.350 OA
HETATM   11  C14 UNL     1       3.014  -9.321  28.774  1.00  0.00     0.263 C 
HETATM   12  C15 UNL     1       2.584  -9.457  27.340  1.00  0.00     0.092 C 
HETATM   13  O4  UNL     1       2.913 -10.544  29.394  1.00  0.00    -0.353 OA
HETATM   14  C16 UNL     1       1.540 -10.527  27.238  1.00  0.00     0.125 C 
HETATM   15  C17 UNL     1       0.694 -10.643  28.485  1.00  0.00     0.067 C 
HETATM   16  C18 UNL     1       1.540 -10.557  29.728  1.00  0.00     0.160 C 
BRANCH  14  17
HETATM   17  O3  UNL     1       2.150 -11.777  27.015  1.00  0.00    -0.395 OA
ATOM     18  H3  UNL     1       1.624 -12.468  27.398  1.00  0.00     0.210 HD
ENDBRANCH  14  17
ENDBRANCH   8   9
ENDBRANCH   5   7
ENDBRANCH   4   5
ENDBRANCH   2   3
BRANCH   1  19
HETATM   19  C4  UNL     1       3.486 -12.992  36.898  1.00  0.00     0.021 C 
HETATM   20  C3  UNL     1       2.527 -13.880  37.032  1.00  0.00     0.085 C 
BRANCH  20  21
HETATM   21  C2  UNL     1       2.114 -14.861  36.072  1.00  0.00     0.161 C 
HETATM   22  C1  UNL     1       1.090 -14.579  35.046  1.00  0.00     0.097 C 
HETATM   23  O1  UNL     1       2.604 -16.004  36.062  1.00  0.00    -0.293 OA
ENDBRANCH  20  21
BRANCH  20  24
HETATM   24  C19 UNL     1       1.832 -13.807  38.348  1.00  0.00     0.303 C 
HETATM   25  O5  UNL     1       1.063 -14.715  38.670  1.00  0.00    -0.259 OA
BRANCH  24  26
HETATM   26  O6  UNL     1       2.005 -12.765  39.233  1.00  0.00    -0.257 OA
BRANCH  26  27
HETATM   27  C20 UNL     1       1.122 -11.703  39.349  1.00  0.00     0.151 A 
HETATM   28  C21 UNL     1       0.506 -10.957  38.382  1.00  0.00     0.058 A 
HETATM   29  C22 UNL     1      -0.304  -9.987  38.981  1.00  0.00     0.021 A 
HETATM   30  C23 UNL     1      -0.145 -10.187  40.330  1.00  0.00     0.090 A 
HETATM   31  N1  UNL     1       0.706 -11.211  40.528  1.00  0.00    -0.347 N 
ATOM     32  H1  UNL     1       0.994 -11.562  41.442  1.00  0.00     0.167 HD
ENDBRANCH  26  27
ENDBRANCH  24  26
ENDBRANCH  20  24
ENDBRANCH   1  19
TORSDOF 10
ENDMDL
MODEL 4
REMARK VINA RESULT: -8.732667978      1.484      2.230
REMARK  10 active torsions:
REMARK  status: ('A' for Active; 'I' for Inactive)
REMARK    1  A    between atoms: C2_2  and  C3_4 
REMARK    2  A    between atoms: C3_4  and  C19_24 
REMARK    3  A    between atoms: C4_5  and  C5_6 
REMARK    4  A    between atoms: C6_7  and  C7_8 
REMARK    5  A    between atoms: C8_9  and  C9_10 
REMARK    6  A    between atoms: C9_10  and  C11_12 
REMARK    7  A    between atoms: C12_13  and  C13_14 
REMARK    8  A    between atoms: C16_18  and  O3_19 
REMARK    9  A    between atoms: C19_24  and  O6_26 
REMARK   10  A    between atoms: O6_26  and  C20_27 
ROOT
HETATM    1  C5  UNL     1       4.046 -12.785  35.783  1.00  0.00     0.001 C 
HETATM    2  C6  UNL     1       3.852 -11.912  34.779  1.00  0.00    -0.000 C 
ENDROOT
BRANCH   2   3
HETATM    3  C7  UNL     1       2.672 -11.087  34.618  1.00  0.00    -0.003 C 
HETATM    4  C8  UNL     1       2.799  -9.815  34.290  1.00  0.00    -0.019 C 
BRANCH   4   5
HETATM    5  C9  UNL     1       1.624  -8.942  34.116  1.00  0.00     0.026 C 
HETATM    6  C10 UNL     1       0.562  -9.351  35.102  1.00  0.00     0.018 C 
BRANCH   5   7
HETATM    7  C11 UNL     1       1.137  -9.078  32.713  1.00  0.00    -0.020 C 
HETATM    8  C12 UNL     1       1.936  -8.938  31.668  1.00  0.00     0.004 C 
BRANCH   8   9
HETATM    9  C13 UNL     1       1.385  -9.086  30.303  1.00  0.00     0.176 C 
HETATM   10  O2  UNL     1       2.172  -8.383  29.417  1.00  0.00    -0.350 OA
HETATM   11  C14 UNL     1       3.020  -9.302  28.804  1.00  0.00     0.263 C 
HETATM   12  C15 UNL     1       2.611  -9.496  27.371  1.00  0.00     0.092 C 
HETATM   13  O4  UNL     1       2.913 -10.499  29.471  1.00  0.00    -0.353 OA
HETATM   14  C16 UNL     1       1.570 -10.571  27.298  1.00  0.00     0.125 C 
HETATM   15  C17 UNL     1       0.707 -10.639  28.536  1.00  0.00     0.067 C 
HETATM   16  C18 UNL     1       1.535 -10.501  29.787  1.00  0.00     0.160 C 
BRANCH  14  17
HETATM   17  O3  UNL     1       2.185 -11.828  27.134  1.00  0.00    -0.395 OA
ATOM     18  H3  UNL     1       1.911 -12.219  26.313  1.00  0.00     0.210 HD
ENDBRANCH  14  17
ENDBRANCH   8   9
ENDBRANCH   5   7
ENDBRANCH   4   5
ENDBRANCH   2   3
BRANCH   1  19
HETATM   19  C4  UNL     1       3.095 -13.004  36.831  1.00  0.00     0.021 C 
HETATM   20  C3  UNL     1       3.347 -13.239  38.098  1.00  0.00     0.085 C 
BRANCH  20  21
HETATM   21  C2  UNL     1       4.634 -13.329  38.723  1.00  0.00     0.161 C 
HETATM   22  C1  UNL     1       5.484 -14.533  38.608  1.00  0.00     0.097 C 
HETATM   23  O1  UNL     1       5.096 -12.392  39.396  1.00  0.00    -0.293 OA
ENDBRANCH  20  21
BRANCH  20  24
HETATM   24  C19 UNL     1       2.121 -13.421  38.923  1.00  0.00     0.303 C 
HETATM   25  O5  UNL     1       1.406 -14.405  38.724  1.00  0.00    -0.259 OA
BRANCH  24  26
HETATM   26  O6  UNL     1       1.739 -12.536  39.909  1.00  0.00    -0.257 OA
BRANCH  26  27
HETATM   27  C20 UNL     1       0.936 -11.430  39.677  1.00  0.00     0.151 A 
HETATM   28  C21 UNL     1       0.615 -10.802  38.504  1.00  0.00     0.058 A 
HETATM   29  C22 UNL     1      -0.234  -9.722  38.766  1.00  0.00     0.021 A 
HETATM   30  C23 UNL     1      -0.402  -9.735  40.128  1.00  0.00     0.090 A 
HETATM   31  N1  UNL     1       0.302 -10.758  40.651  1.00  0.00    -0.347 N 
ATOM     32  H1  UNL     1       0.346 -10.988  41.644  1.00  0.00     0.167 HD
ENDBRANCH  26  27
ENDBRANCH  24  26
ENDBRANCH  20  24
ENDBRANCH   1  19
TORSDOF 10
ENDMDL
MODEL 5
REMARK VINA RESULT: -8.731374620      2.714      4.676
REMARK  10 active torsions:
REMARK  status: ('A' for Active; 'I' for Inactive)
REMARK    1  A    between atoms: C2_2  and  C3_4 
REMARK    2  A    between atoms: C3_4  and  C19_24 
REMARK    3  A    between atoms: C4_5  and  C5_6 
REMARK    4  A    between atoms: C6_7  and  C7_8 
REMARK    5  A    between atoms: C8_9  and  C9_10 
REMARK    6  A    between atoms: C9_10  and  C11_12 
REMARK    7  A    between atoms: C12_13  and  C13_14 
REMARK    8  A    between atoms: C16_18  and  O3_19 
REMARK    9  A    between atoms: C19_24  and  O6_26 
REMARK   10  A    between atoms: O6_26  and  C20_27 
ROOT
HETATM    1  C5  UNL     1       0.343 -11.526  37.976  1.00  0.00     0.001 C 
HETATM    2  C6  UNL     1      -0.148 -10.462  37.317  1.00  0.00    -0.000 C 
ENDROOT
BRANCH   2   3
HETATM    3  C7  UNL     1       0.642  -9.549  36.517  1.00  0.00    -0.003 C 
HETATM    4  C8  UNL     1       0.829  -9.792  35.233  1.00  0.00    -0.019 C 
BRANCH   4   5
HETATM    5  C9  UNL     1       1.625  -8.887  34.385  1.00  0.00     0.026 C 
HETATM    6  C10 UNL     1       1.475  -7.479  34.897  1.00  0.00     0.018 C 
BRANCH   5   7
HETATM    7  C11 UNL     1       1.138  -9.004  32.980  1.00  0.00    -0.020 C 
HETATM    8  C12 UNL     1       1.961  -9.079  31.947  1.00  0.00     0.004 C 
BRANCH   8   9
HETATM    9  C13 UNL     1       1.407  -9.193  30.580  1.00  0.00     0.176 C 
HETATM   10  O2  UNL     1       2.177  -8.448  29.714  1.00  0.00    -0.350 OA
HETATM   11  C14 UNL     1       3.041  -9.330  29.070  1.00  0.00     0.263 C 
HETATM   12  C15 UNL     1       2.630  -9.486  27.632  1.00  0.00     0.092 C 
HETATM   13  O4  UNL     1       2.959 -10.550  29.699  1.00  0.00    -0.353 OA
HETATM   14  C16 UNL     1       1.610 -10.579  27.529  1.00  0.00     0.125 C 
HETATM   15  C17 UNL     1       0.752 -10.702  28.766  1.00  0.00     0.067 C 
HETATM   16  C18 UNL     1       1.582 -10.589  30.019  1.00  0.00     0.160 C 
BRANCH  14  17
HETATM   17  O3  UNL     1       2.249 -11.817  27.323  1.00  0.00    -0.395 OA
ATOM     18  H3  UNL     1       1.893 -12.469  27.916  1.00  0.00     0.210 HD
ENDBRANCH  14  17
ENDBRANCH   8   9
ENDBRANCH   5   7
ENDBRANCH   4   5
ENDBRANCH   2   3
BRANCH   1  19
HETATM   19  C4  UNL     1       1.729 -11.889  37.963  1.00  0.00     0.021 C 
HETATM   20  C3  UNL     1       2.237 -13.081  37.749  1.00  0.00     0.085 C 
BRANCH  20  21
HETATM   21  C2  UNL     1       1.520 -14.293  37.479  1.00  0.00     0.161 C 
HETATM   22  C1  UNL     1       1.172 -14.715  36.106  1.00  0.00     0.097 C 
HETATM   23  O1  UNL     1       1.155 -15.048  38.396  1.00  0.00    -0.293 OA
ENDBRANCH  20  21
BRANCH  20  24
HETATM   24  C19 UNL     1       3.725 -13.110  37.806  1.00  0.00     0.303 C 
HETATM   25  O5  UNL     1       4.361 -13.279  36.764  1.00  0.00    -0.259 OA
BRANCH  24  26
HETATM   26  O6  UNL     1       4.435 -12.956  38.977  1.00  0.00    -0.257 OA
BRANCH  26  27
HETATM   27  C20 UNL     1       5.778 -13.273  39.106  1.00  0.00     0.151 A 
HETATM   28  C21 UNL     1       6.404 -14.134  39.966  1.00  0.00     0.058 A 
HETATM   29  C22 UNL     1       7.782 -14.124  39.722  1.00  0.00     0.021 A 
HETATM   30  C23 UNL     1       7.945 -13.231  38.693  1.00  0.00     0.090 A 
HETATM   31  N1  UNL     1       6.743 -12.736  38.341  1.00  0.00    -0.347 N 
ATOM     32  H1  UNL     1       6.588 -12.052  37.600  1.00  0.00     0.167 HD
ENDBRANCH  26  27
ENDBRANCH  24  26
ENDBRANCH  20  24
ENDBRANCH   1  19
TORSDOF 10
ENDMDL
