MODEL 1
REMARK VINA RESULT: -9.201733597      0.000      0.000
REMARK  7 active torsions:
REMARK  status: ('A' for Active; 'I' for Inactive)
REMARK    1  A    between atoms: C2_2  and  C4_4 
REMARK    2  A    between atoms: C4_4  and  C5_5 
REMARK    3  A    between atoms: C6_6  and  C7_7 
REMARK    4  A    between atoms: N5_21  and  C12_22 
REMARK    5  A    between atoms: N6_24  and  C14_25 
REMARK    6  A    between atoms: N7_28  and  C17_29 
REMARK    7  A    between atoms: C17_29  and  C18_30 
ROOT
HETATM    1  C5  UNL     1       0.898 -10.508  36.987  1.00  0.00     0.044 A 
HETATM    2  C6  UNL     1       0.779  -9.438  37.840  1.00  0.00     0.049 A 
HETATM    3  C11 UNL     1       1.422  -8.357  37.215  1.00  0.00     0.124 A 
HETATM    4  N4  UNL     1       1.874  -8.814  36.051  1.00  0.00    -0.308 N 
ATOM      5  H4  UNL     1       2.385  -8.250  35.372  1.00  0.00     0.186 HD
HETATM    6  N5  UNL     1       1.583 -10.073  35.885  1.00  0.00    -0.287 N 
ENDROOT
BRANCH   6   7
HETATM    7  C12 UNL     1       1.944 -10.804  34.673  1.00  0.00     0.164 C 
HETATM    8  C13 UNL     1       1.151 -10.275  33.475  1.00  0.00     0.302 C 
HETATM    9  N6  UNL     1       2.313  -9.618  32.922  1.00  0.00     0.097 N 
HETATM   10  C23 UNL     1       3.126 -10.254  33.924  1.00  0.00     0.302 C 
BRANCH   9  11
HETATM   11  C14 UNL     1       2.541 -10.076  31.565  1.00  0.00     0.226 C 
HETATM   12  C15 UNL     1       1.195 -10.432  30.976  1.00  0.00     0.066 C 
HETATM   13  C16 UNL     1       1.057  -9.675  29.669  1.00  0.00     0.274 C 
HETATM   14  N7  UNL     1       2.154 -10.060  28.845  1.00  0.00     0.088 N 
HETATM   15  C21 UNL     1       3.350  -9.379  29.327  1.00  0.00     0.274 C 
HETATM   16  C22 UNL     1       3.236  -8.985  30.776  1.00  0.00     0.066 C 
BRANCH  14  17
HETATM   17  C17 UNL     1       2.020  -9.784  27.462  1.00  0.00     0.276 C 
BRANCH  17  18
HETATM   18  C18 UNL     1       1.521 -10.903  26.612  1.00  0.00     0.006 C 
HETATM   19  C19 UNL     1       2.143 -12.193  27.166  1.00  0.00     0.011 C 
HETATM   20  C20 UNL     1       0.016 -11.095  26.729  1.00  0.00     0.011 C 
ENDBRANCH  17  18
ENDBRANCH  14  17
ENDBRANCH   9  11
ENDBRANCH   6   7
BRANCH   1  21
HETATM   21  C4  UNL     1       0.505 -11.896  37.157  1.00  0.00     0.064 C 
BRANCH  21  22
HETATM   22  C2  UNL     1       1.524 -12.902  37.501  1.00  0.00    -0.017 C 
HETATM   23  C1  UNL     1       1.996 -12.879  38.945  1.00  0.00     0.010 C 
HETATM   24  C3  UNL     1       1.150 -14.302  37.141  1.00  0.00     0.010 C 
ENDBRANCH  21  22
ENDBRANCH   1  21
BRANCH   2  25
HETATM   25  C7  UNL     1       0.030  -9.295  39.104  1.00  0.00     0.120 A 
HETATM   26  N1  UNL     1      -0.872  -8.331  39.302  1.00  0.00    -0.328 N 
HETATM   27  C8  UNL     1      -1.505  -8.152  40.460  1.00  0.00     0.101 A 
ATOM     28  H1  UNL     1      -1.088  -7.702  38.530  1.00  0.00     0.169 HD
HETATM   29  N2  UNL     1      -2.388  -7.196  40.627  1.00  0.00    -0.385 N 
HETATM   30  C9  UNL     1      -1.209  -9.006  41.497  1.00  0.00     0.065 A 
ATOM     31  H22 UNL     1      -2.608  -6.562  39.859  1.00  0.00     0.157 HD
ATOM     32  H21 UNL     1      -2.873  -7.058  41.514  1.00  0.00     0.157 HD
HETATM   33  C10 UNL     1      -0.279  -9.994  41.280  1.00  0.00     0.093 A 
HETATM   34  N3  UNL     1       0.336 -10.140  40.098  1.00  0.00    -0.351 N 
ATOM     35  H3  UNL     1       1.024 -10.880  39.958  1.00  0.00     0.166 HD
ENDBRANCH   2  25
TORSDOF 7
ENDMDL
MODEL 2
REMARK VINA RESULT: -9.018810342      0.534      1.174
REMARK  7 active torsions:
REMARK  status: ('A' for Active; 'I' for Inactive)
REMARK    1  A    between atoms: C2_2  and  C4_4 
REMARK    2  A    between atoms: C4_4  and  C5_5 
REMARK    3  A    between atoms: C6_6  and  C7_7 
REMARK    4  A    between atoms: N5_21  and  C12_22 
REMARK    5  A    between atoms: N6_24  and  C14_25 
REMARK    6  A    between atoms: N7_28  and  C17_29 
REMARK    7  A    between atoms: C17_29  and  C18_30 
ROOT
HETATM    1  C5  UNL     1       0.873 -10.259  36.827  1.00  0.00     0.044 A 
HETATM    2  C6  UNL     1       0.799  -9.165  37.654  1.00  0.00     0.049 A 
HETATM    3  C11 UNL     1       1.473  -8.123  36.996  1.00  0.00     0.124 A 
HETATM    4  N4  UNL     1       1.898  -8.625  35.840  1.00  0.00    -0.308 N 
ATOM      5  H4  UNL     1       2.422  -8.096  35.143  1.00  0.00     0.186 HD
HETATM    6  N5  UNL     1       1.562  -9.877  35.708  1.00  0.00    -0.287 N 
ENDROOT
BRANCH   6   7
HETATM    7  C12 UNL     1       1.887 -10.650  34.512  1.00  0.00     0.164 C 
HETATM    8  C13 UNL     1       1.146 -10.087  33.297  1.00  0.00     0.302 C 
HETATM    9  N6  UNL     1       2.356  -9.521  32.749  1.00  0.00     0.097 N 
HETATM   10  C23 UNL     1       3.112 -10.194  33.771  1.00  0.00     0.302 C 
BRANCH   9  11
HETATM   11  C14 UNL     1       2.569 -10.015  31.402  1.00  0.00     0.226 C 
HETATM   12  C15 UNL     1       1.217 -10.398  30.843  1.00  0.00     0.066 C 
HETATM   13  C16 UNL     1       1.053  -9.680  29.518  1.00  0.00     0.274 C 
HETATM   14  N7  UNL     1       2.141 -10.078  28.688  1.00  0.00     0.088 N 
HETATM   15  C21 UNL     1       3.338  -9.374  29.133  1.00  0.00     0.274 C 
HETATM   16  C22 UNL     1       3.241  -8.941  30.572  1.00  0.00     0.066 C 
BRANCH  14  17
HETATM   17  C17 UNL     1       1.985  -9.843  27.301  1.00  0.00     0.276 C 
BRANCH  17  18
HETATM   18  C18 UNL     1       1.527 -11.004  26.482  1.00  0.00     0.006 C 
HETATM   19  C19 UNL     1       2.092 -12.266  27.148  1.00  0.00     0.011 C 
HETATM   20  C20 UNL     1       0.015 -11.172  26.508  1.00  0.00     0.011 C 
ENDBRANCH  17  18
ENDBRANCH  14  17
ENDBRANCH   9  11
ENDBRANCH   6   7
BRANCH   1  21
HETATM   21  C4  UNL     1       0.433 -11.628  37.035  1.00  0.00     0.064 C 
BRANCH  21  22
HETATM   22  C2  UNL     1       1.407 -12.648  37.460  1.00  0.00    -0.017 C 
HETATM   23  C1  UNL     1       1.770 -12.621  38.935  1.00  0.00     0.010 C 
HETATM   24  C3  UNL     1       1.040 -14.044  37.081  1.00  0.00     0.010 C 
ENDBRANCH  21  22
ENDBRANCH   1  21
BRANCH   2  25
HETATM   25  C7  UNL     1       0.066  -8.964  38.919  1.00  0.00     0.120 A 
HETATM   26  N1  UNL     1       0.336  -9.655  40.028  1.00  0.00    -0.328 N 
HETATM   27  C8  UNL     1      -0.362  -9.530  41.155  1.00  0.00     0.101 A 
ATOM     28  H1  UNL     1       1.117 -10.312  40.012  1.00  0.00     0.169 HD
HETATM   29  N2  UNL     1      -0.073 -10.223  42.231  1.00  0.00    -0.385 N 
HETATM   30  C9  UNL     1      -1.412  -8.641  41.168  1.00  0.00     0.065 A 
ATOM     31  H22 UNL     1       0.705 -10.882  42.221  1.00  0.00     0.157 HD
ATOM     32  H21 UNL     1      -0.608 -10.127  43.094  1.00  0.00     0.157 HD
HETATM   33  C10 UNL     1      -1.681  -7.935  40.020  1.00  0.00     0.093 A 
HETATM   34  N3  UNL     1      -0.952  -8.092  38.906  1.00  0.00    -0.351 N 
ATOM     35  H3  UNL     1      -1.168  -7.557  38.064  1.00  0.00     0.166 HD
ENDBRANCH   2  25
TORSDOF 7
ENDMDL
MODEL 3
REMARK VINA RESULT: -8.204693066      1.288      2.544
REMARK  7 active torsions:
REMARK  status: ('A' for Active; 'I' for Inactive)
REMARK    1  A    between atoms: C2_2  and  C4_4 
REMARK    2  A    between atoms: C4_4  and  C5_5 
REMARK    3  A    between atoms: C6_6  and  C7_7 
REMARK    4  A    between atoms: N5_21  and  C12_22 
REMARK    5  A    between atoms: N6_24  and  C14_25 
REMARK    6  A    between atoms: N7_28  and  C17_29 
REMARK    7  A    between atoms: C17_29  and  C18_30 
ROOT
HETATM    1  C5  UNL     1       0.976 -10.551  36.351  1.00  0.00     0.044 A 
HETATM    2  C6  UNL     1       0.857 -10.570  37.719  1.00  0.00     0.049 A 
HETATM    3  C11 UNL     1       1.764 -11.536  38.184  1.00  0.00     0.124 A 
HETATM    4  N4  UNL     1       2.369 -12.029  37.107  1.00  0.00    -0.308 N 
ATOM      5  H4  UNL     1       3.087 -12.752  37.133  1.00  0.00     0.186 HD
HETATM    6  N5  UNL     1       1.931 -11.471  36.014  1.00  0.00    -0.287 N 
ENDROOT
BRANCH   6   7
HETATM    7  C12 UNL     1       2.458 -11.818  34.696  1.00  0.00     0.164 C 
HETATM    8  C13 UNL     1       1.482 -11.382  33.601  1.00  0.00     0.302 C 
HETATM    9  N6  UNL     1       2.337 -10.292  33.193  1.00  0.00     0.097 N 
HETATM   10  C23 UNL     1       3.358 -10.786  34.077  1.00  0.00     0.302 C 
BRANCH   9  11
HETATM   11  C14 UNL     1       2.642 -10.405  31.779  1.00  0.00     0.226 C 
HETATM   12  C15 UNL     1       1.448 -11.045  31.109  1.00  0.00     0.066 C 
HETATM   13  C16 UNL     1       1.034 -10.145  29.961  1.00  0.00     0.274 C 
HETATM   14  N7  UNL     1       2.164 -10.018  29.101  1.00  0.00     0.088 N 
HETATM   15  C21 UNL     1       3.111  -9.100  29.723  1.00  0.00     0.274 C 
HETATM   16  C22 UNL     1       2.938  -9.029  31.216  1.00  0.00     0.066 C 
BRANCH  14  17
HETATM   17  C17 UNL     1       1.899  -9.552  27.790  1.00  0.00     0.276 C 
BRANCH  17  18
HETATM   18  C18 UNL     1       1.505 -10.587  26.790  1.00  0.00     0.006 C 
HETATM   19  C19 UNL     1       2.174 -11.899  27.221  1.00  0.00     0.011 C 
HETATM   20  C20 UNL     1       0.009 -10.869  26.805  1.00  0.00     0.011 C 
ENDBRANCH  17  18
ENDBRANCH  14  17
ENDBRANCH   9  11
ENDBRANCH   6   7
BRANCH   1  21
HETATM   21  C4  UNL     1       0.222  -9.816  35.350  1.00  0.00     0.064 C 
BRANCH  21  22
HETATM   22  C2  UNL     1       0.376  -8.355  35.252  1.00  0.00    -0.017 C 
HETATM   23  C1  UNL     1       1.767  -7.829  35.565  1.00  0.00     0.010 C 
HETATM   24  C3  UNL     1      -0.074  -7.775  33.952  1.00  0.00     0.010 C 
ENDBRANCH  21  22
ENDBRANCH   1  21
BRANCH   2  25
HETATM   25  C7  UNL     1       0.084  -9.702  38.629  1.00  0.00     0.120 A 
HETATM   26  N1  UNL     1       0.164  -9.796  39.958  1.00  0.00    -0.328 N 
HETATM   27  C8  UNL     1      -0.578  -9.065  40.787  1.00  0.00     0.101 A 
ATOM     28  H1  UNL     1       0.827 -10.460  40.358  1.00  0.00     0.169 HD
HETATM   29  N2  UNL     1      -0.478  -9.178  42.091  1.00  0.00    -0.385 N 
HETATM   30  C9  UNL     1      -1.469  -8.171  40.239  1.00  0.00     0.065 A 
ATOM     31  H22 UNL     1       0.182  -9.841  42.497  1.00  0.00     0.157 HD
ATOM     32  H21 UNL     1      -1.046  -8.618  42.726  1.00  0.00     0.157 HD
HETATM   33  C10 UNL     1      -1.542  -8.083  38.869  1.00  0.00     0.093 A 
HETATM   34  N3  UNL     1      -0.776  -8.838  38.070  1.00  0.00    -0.351 N 
ATOM     35  H3  UNL     1      -0.846  -8.758  37.055  1.00  0.00     0.166 HD
ENDBRANCH   2  25
TORSDOF 7
ENDMDL
MODEL 4
REMARK VINA RESULT: -8.132965858      1.449      2.610
REMARK  7 active torsions:
REMARK  status: ('A' for Active; 'I' for Inactive)
REMARK    1  A    between atoms: C2_2  and  C4_4 
REMARK    2  A    between atoms: C4_4  and  C5_5 
REMARK    3  A    between atoms: C6_6  and  C7_7 
REMARK    4  A    between atoms: N5_21  and  C12_22 
REMARK    5  A    between atoms: N6_24  and  C14_25 
REMARK    6  A    between atoms: N7_28  and  C17_29 
REMARK    7  A    between atoms: C17_29  and  C18_30 
ROOT
HETATM    1  C5  UNL     1       0.479 -11.025  37.635  1.00  0.00     0.044 A 
HETATM    2  C6  UNL     1       0.444 -11.068  39.008  1.00  0.00     0.049 A 
HETATM    3  C11 UNL     1       1.247 -12.155  39.391  1.00  0.00     0.124 A 
HETATM    4  N4  UNL     1       1.714 -12.689  38.267  1.00  0.00    -0.308 N 
ATOM      5  H4  UNL     1       2.334 -13.499  38.230  1.00  0.00     0.186 HD
HETATM    6  N5  UNL     1       1.284 -12.049  37.217  1.00  0.00    -0.287 N 
ENDROOT
BRANCH   6   7
HETATM    7  C12 UNL     1       1.678 -12.422  35.860  1.00  0.00     0.164 C 
HETATM    8  C13 UNL     1       0.832 -11.664  34.833  1.00  0.00     0.302 C 
HETATM    9  N6  UNL     1       1.937 -10.809  34.469  1.00  0.00     0.097 N 
HETATM   10  C23 UNL     1       2.807 -11.618  35.280  1.00  0.00     0.302 C 
BRANCH   9  11
HETATM   11  C14 UNL     1       2.178 -10.891  33.041  1.00  0.00     0.226 C 
HETATM   12  C15 UNL     1       1.054 -10.151  32.351  1.00  0.00     0.066 C 
HETATM   13  C16 UNL     1       1.683  -9.132  31.422  1.00  0.00     0.274 C 
HETATM   14  N7  UNL     1       2.523  -9.850  30.522  1.00  0.00     0.088 N 
HETATM   15  C21 UNL     1       3.739 -10.227  31.233  1.00  0.00     0.274 C 
HETATM   16  C22 UNL     1       3.531 -10.289  32.722  1.00  0.00     0.066 C 
BRANCH  14  17
HETATM   17  C17 UNL     1       2.901  -9.163  29.342  1.00  0.00     0.276 C 
BRANCH  17  18
HETATM   18  C18 UNL     1       2.530  -9.816  28.052  1.00  0.00     0.006 C 
HETATM   19  C19 UNL     1       1.548 -10.946  28.392  1.00  0.00     0.011 C 
HETATM   20  C20 UNL     1       1.766  -8.879  27.127  1.00  0.00     0.011 C 
ENDBRANCH  17  18
ENDBRANCH  14  17
ENDBRANCH   9  11
ENDBRANCH   6   7
BRANCH   1  21
HETATM   21  C4  UNL     1      -0.237 -10.171  36.702  1.00  0.00     0.064 C 
BRANCH  21  22
HETATM   22  C2  UNL     1       0.108  -8.742  36.614  1.00  0.00    -0.017 C 
HETATM   23  C1  UNL     1       1.506  -8.384  37.090  1.00  0.00     0.010 C 
HETATM   24  C3  UNL     1      -0.109  -8.140  35.266  1.00  0.00     0.010 C 
ENDBRANCH  21  22
ENDBRANCH   1  21
BRANCH   2  25
HETATM   25  C7  UNL     1      -0.152 -10.136  39.985  1.00  0.00     0.120 A 
HETATM   26  N1  UNL     1      -0.952  -9.130  39.627  1.00  0.00    -0.328 N 
HETATM   27  C8  UNL     1      -1.441  -8.243  40.492  1.00  0.00     0.101 A 
ATOM     28  H1  UNL     1      -1.202  -9.035  38.643  1.00  0.00     0.169 HD
HETATM   29  N2  UNL     1      -2.226  -7.263  40.112  1.00  0.00    -0.385 N 
HETATM   30  C9  UNL     1      -1.100  -8.379  41.818  1.00  0.00     0.065 A 
ATOM     31  H22 UNL     1      -2.479  -7.162  39.129  1.00  0.00     0.157 HD
ATOM     32  H21 UNL     1      -2.601  -6.584  40.775  1.00  0.00     0.157 HD
HETATM   33  C10 UNL     1      -0.276  -9.420  42.174  1.00  0.00     0.093 A 
HETATM   34  N3  UNL     1       0.195 -10.291  41.270  1.00  0.00    -0.351 N 
ATOM     35  H3  UNL     1       0.806 -11.056  41.556  1.00  0.00     0.166 HD
ENDBRANCH   2  25
TORSDOF 7
ENDMDL
MODEL 5
REMARK VINA RESULT: -7.929457936      4.407      6.070
REMARK  7 active torsions:
REMARK  status: ('A' for Active; 'I' for Inactive)
REMARK    1  A    between atoms: C2_2  and  C4_4 
REMARK    2  A    between atoms: C4_4  and  C5_5 
REMARK    3  A    between atoms: C6_6  and  C7_7 
REMARK    4  A    between atoms: N5_21  and  C12_22 
REMARK    5  A    between atoms: N6_24  and  C14_25 
REMARK    6  A    between atoms: N7_28  and  C17_29 
REMARK    7  A    between atoms: C17_29  and  C18_30 
ROOT
HETATM    1  C5  UNL     1       0.814 -11.322  37.837  1.00  0.00     0.044 A 
HETATM    2  C6  UNL     1       0.701 -11.244  39.204  1.00  0.00     0.049 A 
HETATM    3  C11 UNL     1       1.540 -12.240  39.730  1.00  0.00     0.124 A 
HETATM    4  N4  UNL     1       2.103 -12.843  38.686  1.00  0.00    -0.308 N 
ATOM      5  H4  UNL     1       2.768 -13.612  38.759  1.00  0.00     0.186 HD
HETATM    6  N5  UNL     1       1.700 -12.327  37.560  1.00  0.00    -0.287 N 
ENDROOT
BRANCH   6   7
HETATM    7  C12 UNL     1       2.193 -12.795  36.267  1.00  0.00     0.164 C 
HETATM    8  C13 UNL     1       3.214 -13.920  36.462  1.00  0.00     0.302 C 
HETATM    9  N6  UNL     1       2.284 -14.922  35.997  1.00  0.00     0.097 N 
HETATM   10  C23 UNL     1       1.371 -13.875  35.622  1.00  0.00     0.302 C 
BRANCH   9  11
HETATM   11  C14 UNL     1       2.862 -15.658  34.889  1.00  0.00     0.226 C 
HETATM   12  C15 UNL     1       4.119 -16.326  35.398  1.00  0.00     0.066 C 
HETATM   13  C16 UNL     1       4.017 -17.801  35.065  1.00  0.00     0.274 C 
HETATM   14  N7  UNL     1       3.855 -17.902  33.653  1.00  0.00     0.088 N 
HETATM   15  C21 UNL     1       2.481 -17.542  33.323  1.00  0.00     0.274 C 
HETATM   16  C22 UNL     1       1.854 -16.665  34.373  1.00  0.00     0.066 C 
BRANCH  14  17
HETATM   17  C17 UNL     1       4.125 -19.171  33.085  1.00  0.00     0.276 C 
BRANCH  17  18
HETATM   18  C18 UNL     1       5.118 -19.198  31.971  1.00  0.00     0.006 C 
HETATM   19  C19 UNL     1       4.319 -19.337  30.668  1.00  0.00     0.011 C 
HETATM   20  C20 UNL     1       5.880 -17.887  31.843  1.00  0.00     0.011 C 
ENDBRANCH  17  18
ENDBRANCH  14  17
ENDBRANCH   9  11
ENDBRANCH   6   7
BRANCH   1  21
HETATM   21  C4  UNL     1       0.108 -10.601  36.791  1.00  0.00     0.064 C 
BRANCH  21  22
HETATM   22  C2  UNL     1       0.792  -9.516  36.068  1.00  0.00    -0.017 C 
HETATM   23  C1  UNL     1      -0.024  -8.858  34.967  1.00  0.00     0.010 C 
HETATM   24  C3  UNL     1       1.358  -8.452  36.948  1.00  0.00     0.010 C 
ENDBRANCH  21  22
ENDBRANCH   1  21
BRANCH   2  25
HETATM   25  C7  UNL     1      -0.004 -10.266  40.056  1.00  0.00     0.120 A 
HETATM   26  N1  UNL     1      -0.772  -9.296  39.558  1.00  0.00    -0.328 N 
HETATM   27  C8  UNL     1      -1.358  -8.369  40.313  1.00  0.00     0.101 A 
ATOM     28  H1  UNL     1      -0.919  -9.263  38.549  1.00  0.00     0.169 HD
HETATM   29  N2  UNL     1      -2.110  -7.425  39.795  1.00  0.00    -0.385 N 
HETATM   30  C9  UNL     1      -1.157  -8.422  41.673  1.00  0.00     0.065 A 
ATOM     31  H22 UNL     1      -2.259  -7.386  38.787  1.00  0.00     0.157 HD
ATOM     32  H21 UNL     1      -2.559  -6.715  40.374  1.00  0.00     0.157 HD
HETATM   33  C10 UNL     1      -0.364  -9.426  42.174  1.00  0.00     0.093 A 
HETATM   34  N3  UNL     1       0.208 -10.340  41.378  1.00  0.00    -0.351 N 
ATOM     35  H3  UNL     1       0.794 -11.077  41.770  1.00  0.00     0.166 HD
ENDBRANCH   2  25
TORSDOF 7
ENDMDL
