MODEL 1
REMARK VINA RESULT: -7.635736316      0.000      0.000
REMARK  10 active torsions:
REMARK  status: ('A' for Active; 'I' for Inactive)
REMARK    1  A    between atoms: C2_2  and  C3_3 
REMARK    2  A    between atoms: C3_3  and  C5_5 
REMARK    3  A    between atoms: C5_5  and  C6_6 
REMARK    4  A    between atoms: C5_5  and  O4_29 
REMARK    5  A    between atoms: C6_6  and  C7_7 
REMARK    6  A    between atoms: C7_7  and  C8_8 
REMARK    7  A    between atoms: C8_8  and  C9_9 
REMARK    8  A    between atoms: C9_9  and  O1_10 
REMARK    9  A    between atoms: C12_14  and  O2_15 
REMARK   10  A    between atoms: O4_29  and  C23_30 
ROOT
HETATM    1  C9  UNL     1       1.588 -12.728  37.023  1.00  0.00     0.091 C 
HETATM    2  C10 UNL     1       1.958 -14.148  37.064  1.00  0.00     0.048 C 
HETATM    3  C11 UNL     1       0.890 -14.987  37.721  1.00  0.00     0.016 C 
HETATM    4  C12 UNL     1       3.255 -14.518  37.698  1.00  0.00     0.134 C 
HETATM    5  C13 UNL     1       4.209 -14.945  36.591  1.00  0.00     0.057 A 
HETATM    6  C14 UNL     1       4.957 -13.684  36.169  1.00  0.00    -0.060 A 
HETATM    7  C15 UNL     1       4.519 -12.551  35.661  1.00  0.00     0.056 C 
HETATM    8  C16 UNL     1       3.255 -11.965  35.279  1.00  0.00     0.174 C 
HETATM    9  O3  UNL     1       3.445 -11.204  34.258  1.00  0.00    -0.291 OA
HETATM   10  C17 UNL     1       1.870 -12.011  35.737  1.00  0.00     0.141 C 
HETATM   11  C18 UNL     1       1.218 -10.629  35.712  1.00  0.00     0.043 C 
HETATM   12  C19 UNL     1       1.118 -12.774  34.699  1.00  0.00     0.080 C 
HETATM   13  N1  UNL     1       0.545 -13.385  33.889  1.00  0.00    -0.196 NA
HETATM   14  C20 UNL     1       5.652 -14.881  36.732  1.00  0.00    -0.014 A 
HETATM   15  C21 UNL     1       6.489 -15.626  35.731  1.00  0.00     0.020 C 
HETATM   16  C22 UNL     1       6.312 -14.707  38.090  1.00  0.00     0.020 C 
ENDROOT
BRANCH   1  17
HETATM   17  C8  UNL     1       2.009 -11.856  38.157  1.00  0.00     0.041 C 
BRANCH  17  18
HETATM   18  C7  UNL     1       1.097 -11.933  39.364  1.00  0.00     0.006 C 
BRANCH  18  19
HETATM   19  C6  UNL     1       1.068 -10.627  40.123  1.00  0.00     0.033 C 
BRANCH  19  20
HETATM   20  C5  UNL     1      -0.263  -9.934  39.903  1.00  0.00     0.135 C 
BRANCH  20  21
HETATM   21  C3  UNL     1      -0.856  -9.354  41.146  1.00  0.00     0.011 C 
HETATM   22  C4  UNL     1      -0.064  -9.806  42.385  1.00  0.00     0.012 C 
BRANCH  21  23
HETATM   23  C2  UNL     1      -0.809  -7.843  41.167  1.00  0.00     0.002 C 
HETATM   24  C1  UNL     1      -2.141  -7.181  41.048  1.00  0.00     0.005 C 
ENDBRANCH  21  23
ENDBRANCH  20  21
BRANCH  20  25
HETATM   25  O4  UNL     1      -0.052  -8.885  38.965  1.00  0.00    -0.316 OA
BRANCH  25  26
HETATM   26  C23 UNL     1      -0.723  -8.767  37.777  1.00  0.00     0.255 C 
HETATM   27  C24 UNL     1      -1.877  -9.658  37.480  1.00  0.00     0.126 C 
HETATM   28  O5  UNL     1      -0.381  -7.915  36.927  1.00  0.00    -0.266 OA
ENDBRANCH  25  26
ENDBRANCH  20  25
ENDBRANCH  19  20
ENDBRANCH  18  19
ENDBRANCH  17  18
ENDBRANCH   1  17
BRANCH   1  29
HETATM   29  O1  UNL     1       0.151 -12.708  37.106  1.00  0.00    -0.387 OA
ATOM     30  H1  UNL     1      -0.029 -13.202  37.897  1.00  0.00     0.210 HD
ENDBRANCH   1  29
BRANCH   4  31
HETATM   31  O2  UNL     1       3.167 -15.651  38.532  1.00  0.00    -0.394 OA
ATOM     32  H2  UNL     1       3.178 -16.473  38.055  1.00  0.00     0.210 HD
ENDBRANCH   4  31
TORSDOF 10
ENDMDL
MODEL 2
REMARK VINA RESULT: -7.401155283      4.207      7.962
REMARK  10 active torsions:
REMARK  status: ('A' for Active; 'I' for Inactive)
REMARK    1  A    between atoms: C2_2  and  C3_3 
REMARK    2  A    between atoms: C3_3  and  C5_5 
REMARK    3  A    between atoms: C5_5  and  C6_6 
REMARK    4  A    between atoms: C5_5  and  O4_29 
REMARK    5  A    between atoms: C6_6  and  C7_7 
REMARK    6  A    between atoms: C7_7  and  C8_8 
REMARK    7  A    between atoms: C8_8  and  C9_9 
REMARK    8  A    between atoms: C9_9  and  O1_10 
REMARK    9  A    between atoms: C12_14  and  O2_15 
REMARK   10  A    between atoms: O4_29  and  C23_30 
ROOT
HETATM    1  C9  UNL     1       1.689  -9.790  34.124  1.00  0.00     0.091 C 
HETATM    2  C10 UNL     1       2.717 -10.515  34.882  1.00  0.00     0.048 C 
HETATM    3  C11 UNL     1       3.995 -10.662  34.094  1.00  0.00     0.016 C 
HETATM    4  C12 UNL     1       2.375 -11.866  35.414  1.00  0.00     0.134 C 
HETATM    5  C13 UNL     1       2.234 -11.748  36.926  1.00  0.00     0.057 A 
HETATM    6  C14 UNL     1       0.762 -11.446  37.190  1.00  0.00    -0.060 A 
HETATM    7  C15 UNL     1       0.009 -10.433  36.817  1.00  0.00     0.056 C 
HETATM    8  C16 UNL     1       0.152  -9.216  36.051  1.00  0.00     0.174 C 
HETATM    9  O3  UNL     1      -0.614  -8.315  36.562  1.00  0.00    -0.291 OA
HETATM   10  C17 UNL     1       0.910  -8.762  34.890  1.00  0.00     0.141 C 
HETATM   11  C18 UNL     1       0.060  -7.897  33.959  1.00  0.00     0.043 C 
HETATM   12  C19 UNL     1       1.936  -7.815  35.413  1.00  0.00     0.080 C 
HETATM   13  N1  UNL     1       2.743  -7.087  35.835  1.00  0.00    -0.196 NA
HETATM   14  C20 UNL     1       1.439 -12.671  37.713  1.00  0.00    -0.014 A 
HETATM   15  C21 UNL     1       1.632 -12.671  39.203  1.00  0.00     0.020 C 
HETATM   16  C22 UNL     1       0.970 -14.002  37.146  1.00  0.00     0.020 C 
ENDROOT
BRANCH   1  17
HETATM   17  C8  UNL     1       0.741 -10.580  33.287  1.00  0.00     0.041 C 
BRANCH  17  18
HETATM   18  C7  UNL     1       1.335 -11.072  31.983  1.00  0.00     0.006 C 
BRANCH  18  19
HETATM   19  C6  UNL     1       1.192 -10.044  30.885  1.00  0.00     0.033 C 
BRANCH  19  20
HETATM   20  C5  UNL     1       1.640 -10.639  29.563  1.00  0.00     0.135 C 
BRANCH  20  21
HETATM   21  C3  UNL     1       0.862 -10.150  28.384  1.00  0.00     0.011 C 
HETATM   22  C4  UNL     1       1.723  -9.213  27.519  1.00  0.00     0.012 C 
BRANCH  21  23
HETATM   23  C2  UNL     1       0.431 -11.268  27.463  1.00  0.00     0.002 C 
HETATM   24  C1  UNL     1       1.143 -11.299  26.153  1.00  0.00     0.005 C 
ENDBRANCH  21  23
ENDBRANCH  20  21
BRANCH  20  25
HETATM   25  O4  UNL     1       3.009 -10.296  29.380  1.00  0.00    -0.316 OA
BRANCH  25  26
HETATM   26  C23 UNL     1       3.704  -9.439  30.191  1.00  0.00     0.255 C 
HETATM   27  C24 UNL     1       3.490  -7.971  30.082  1.00  0.00     0.126 C 
HETATM   28  O5  UNL     1       4.525  -9.871  31.031  1.00  0.00    -0.266 OA
ENDBRANCH  25  26
ENDBRANCH  20  25
ENDBRANCH  19  20
ENDBRANCH  18  19
ENDBRANCH  17  18
ENDBRANCH   1  17
BRANCH   1  29
HETATM   29  O1  UNL     1       2.413  -9.008  33.158  1.00  0.00    -0.387 OA
ATOM     30  H1  UNL     1       3.319  -9.234  33.327  1.00  0.00     0.210 HD
ENDBRANCH   1  29
BRANCH   4  31
HETATM   31  O2  UNL     1       3.405 -12.813  35.237  1.00  0.00    -0.394 OA
ATOM     32  H2  UNL     1       4.050 -12.551  34.592  1.00  0.00     0.210 HD
ENDBRANCH   4  31
TORSDOF 10
ENDMDL
MODEL 3
REMARK VINA RESULT: -7.288739101      4.510      7.915
REMARK  10 active torsions:
REMARK  status: ('A' for Active; 'I' for Inactive)
REMARK    1  A    between atoms: C2_2  and  C3_3 
REMARK    2  A    between atoms: C3_3  and  C5_5 
REMARK    3  A    between atoms: C5_5  and  C6_6 
REMARK    4  A    between atoms: C5_5  and  O4_29 
REMARK    5  A    between atoms: C6_6  and  C7_7 
REMARK    6  A    between atoms: C7_7  and  C8_8 
REMARK    7  A    between atoms: C8_8  and  C9_9 
REMARK    8  A    between atoms: C9_9  and  O1_10 
REMARK    9  A    between atoms: C12_14  and  O2_15 
REMARK   10  A    between atoms: O4_29  and  C23_30 
ROOT
HETATM    1  C9  UNL     1       1.749  -9.712  34.129  1.00  0.00     0.091 C 
HETATM    2  C10 UNL     1       2.776 -10.467  34.857  1.00  0.00     0.048 C 
HETATM    3  C11 UNL     1       4.060 -10.571  34.070  1.00  0.00     0.016 C 
HETATM    4  C12 UNL     1       2.439 -11.843  35.324  1.00  0.00     0.134 C 
HETATM    5  C13 UNL     1       2.289 -11.796  36.838  1.00  0.00     0.057 A 
HETATM    6  C14 UNL     1       0.815 -11.514  37.109  1.00  0.00    -0.060 A 
HETATM    7  C15 UNL     1       0.058 -10.488  36.779  1.00  0.00     0.056 C 
HETATM    8  C16 UNL     1       0.200  -9.236  36.072  1.00  0.00     0.174 C 
HETATM    9  O3  UNL     1      -0.573  -8.363  36.620  1.00  0.00    -0.291 OA
HETATM   10  C17 UNL     1       0.961  -8.725  34.937  1.00  0.00     0.141 C 
HETATM   11  C18 UNL     1       0.112  -7.821  34.043  1.00  0.00     0.043 C 
HETATM   12  C19 UNL     1       1.980  -7.798  35.509  1.00  0.00     0.080 C 
HETATM   13  N1  UNL     1       2.782  -7.088  35.969  1.00  0.00    -0.196 NA
HETATM   14  C20 UNL     1       1.495 -12.759  37.578  1.00  0.00    -0.014 A 
HETATM   15  C21 UNL     1       1.680 -12.827  39.067  1.00  0.00     0.020 C 
HETATM   16  C22 UNL     1       1.035 -14.063  36.946  1.00  0.00     0.020 C 
ENDROOT
BRANCH   1  17
HETATM   17  C8  UNL     1       0.809 -10.466  33.250  1.00  0.00     0.041 C 
BRANCH  17  18
HETATM   18  C7  UNL     1       0.716  -9.922  31.840  1.00  0.00     0.006 C 
BRANCH  18  19
HETATM   19  C6  UNL     1       1.410 -10.826  30.848  1.00  0.00     0.033 C 
BRANCH  19  20
HETATM   20  C5  UNL     1       1.283 -10.250  29.450  1.00  0.00     0.135 C 
BRANCH  20  21
HETATM   21  C3  UNL     1       2.549  -9.656  28.923  1.00  0.00     0.011 C 
HETATM   22  C4  UNL     1       2.253  -8.380  28.116  1.00  0.00     0.012 C 
BRANCH  21  23
HETATM   23  C2  UNL     1       3.496  -9.229  30.021  1.00  0.00     0.002 C 
HETATM   24  C1  UNL     1       3.641  -7.752  30.173  1.00  0.00     0.005 C 
ENDBRANCH  21  23
ENDBRANCH  20  21
BRANCH  20  25
HETATM   25  O4  UNL     1       0.878 -11.305  28.586  1.00  0.00    -0.316 OA
BRANCH  25  26
HETATM   26  C23 UNL     1       0.336 -11.117  27.342  1.00  0.00     0.255 C 
HETATM   27  C24 UNL     1       1.162 -11.344  26.126  1.00  0.00     0.126 C 
HETATM   28  O5  UNL     1      -0.853 -10.753  27.207  1.00  0.00    -0.266 OA
ENDBRANCH  25  26
ENDBRANCH  20  25
ENDBRANCH  19  20
ENDBRANCH  18  19
ENDBRANCH  17  18
ENDBRANCH   1  17
BRANCH   1  29
HETATM   29  O1  UNL     1       2.474  -8.882  33.204  1.00  0.00    -0.387 OA
ATOM     30  H1  UNL     1       2.585  -8.068  33.681  1.00  0.00     0.210 HD
ENDBRANCH   1  29
BRANCH   4  31
HETATM   31  O2  UNL     1       3.474 -12.776  35.109  1.00  0.00    -0.394 OA
ATOM     32  H2  UNL     1       4.336 -12.380  35.071  1.00  0.00     0.210 HD
ENDBRANCH   4  31
TORSDOF 10
ENDMDL
MODEL 4
REMARK VINA RESULT: -7.147875453      2.287      3.569
REMARK  10 active torsions:
REMARK  status: ('A' for Active; 'I' for Inactive)
REMARK    1  A    between atoms: C2_2  and  C3_3 
REMARK    2  A    between atoms: C3_3  and  C5_5 
REMARK    3  A    between atoms: C5_5  and  C6_6 
REMARK    4  A    between atoms: C5_5  and  O4_29 
REMARK    5  A    between atoms: C6_6  and  C7_7 
REMARK    6  A    between atoms: C7_7  and  C8_8 
REMARK    7  A    between atoms: C8_8  and  C9_9 
REMARK    8  A    between atoms: C9_9  and  O1_10 
REMARK    9  A    between atoms: C12_14  and  O2_15 
REMARK   10  A    between atoms: O4_29  and  C23_30 
ROOT
HETATM    1  C9  UNL     1       2.578 -12.909  36.404  1.00  0.00     0.091 C 
HETATM    2  C10 UNL     1       2.076 -13.247  35.066  1.00  0.00     0.048 C 
HETATM    3  C11 UNL     1       1.328 -12.095  34.440  1.00  0.00     0.016 C 
HETATM    4  C12 UNL     1       1.214 -14.455  34.923  1.00  0.00     0.134 C 
HETATM    5  C13 UNL     1       2.027 -15.523  34.205  1.00  0.00     0.057 A 
HETATM    6  C14 UNL     1       2.714 -16.338  35.296  1.00  0.00    -0.060 A 
HETATM    7  C15 UNL     1       3.582 -15.982  36.220  1.00  0.00     0.056 C 
HETATM    8  C16 UNL     1       4.264 -14.780  36.645  1.00  0.00     0.174 C 
HETATM    9  O3  UNL     1       5.435 -15.102  37.073  1.00  0.00    -0.291 OA
HETATM   10  C17 UNL     1       3.977 -13.352  36.713  1.00  0.00     0.141 C 
HETATM   11  C18 UNL     1       4.485 -12.731  38.014  1.00  0.00     0.043 C 
HETATM   12  C19 UNL     1       4.822 -12.712  35.663  1.00  0.00     0.080 C 
HETATM   13  N1  UNL     1       5.476 -12.226  34.830  1.00  0.00    -0.196 NA
HETATM   14  C20 UNL     1       1.745 -16.941  34.332  1.00  0.00    -0.014 A 
HETATM   15  C21 UNL     1       2.376 -17.875  33.339  1.00  0.00     0.020 C 
HETATM   16  C22 UNL     1       0.432 -17.442  34.912  1.00  0.00     0.020 C 
ENDROOT
BRANCH   1  17
HETATM   17  C8  UNL     1       1.712 -13.212  37.580  1.00  0.00     0.041 C 
BRANCH  17  18
HETATM   18  C7  UNL     1       0.593 -12.213  37.792  1.00  0.00     0.006 C 
BRANCH  18  19
HETATM   19  C6  UNL     1       0.870 -11.310  38.971  1.00  0.00     0.033 C 
BRANCH  19  20
HETATM   20  C5  UNL     1       0.314  -9.925  38.700  1.00  0.00     0.135 C 
BRANCH  20  21
HETATM   21  C3  UNL     1      -0.108  -9.191  39.931  1.00  0.00     0.011 C 
HETATM   22  C4  UNL     1      -1.365  -8.348  39.654  1.00  0.00     0.012 C 
BRANCH  21  23
HETATM   23  C2  UNL     1      -0.485 -10.117  41.064  1.00  0.00     0.002 C 
HETATM   24  C1  UNL     1      -0.446  -9.489  42.417  1.00  0.00     0.005 C 
ENDBRANCH  21  23
ENDBRANCH  20  21
BRANCH  20  25
HETATM   25  O4  UNL     1       1.330  -9.174  38.046  1.00  0.00    -0.316 OA
BRANCH  25  26
HETATM   26  C23 UNL     1       1.152  -8.499  36.868  1.00  0.00     0.255 C 
HETATM   27  C24 UNL     1       0.012  -8.842  35.976  1.00  0.00     0.126 C 
HETATM   28  O5  UNL     1       1.938  -7.589  36.522  1.00  0.00    -0.266 OA
ENDBRANCH  25  26
ENDBRANCH  20  25
ENDBRANCH  19  20
ENDBRANCH  18  19
ENDBRANCH  17  18
ENDBRANCH   1  17
BRANCH   1  29
HETATM   29  O1  UNL     1       2.672 -11.473  36.422  1.00  0.00    -0.387 OA
ATOM     30  H1  UNL     1       3.296 -11.303  37.118  1.00  0.00     0.210 HD
ENDBRANCH   1  29
BRANCH   4  31
HETATM   31  O2  UNL     1       0.099 -14.250  34.086  1.00  0.00    -0.394 OA
ATOM     32  H2  UNL     1      -0.600 -14.878  34.228  1.00  0.00     0.210 HD
ENDBRANCH   4  31
TORSDOF 10
ENDMDL
MODEL 5
REMARK VINA RESULT: -7.116509053      2.743      4.816
REMARK  10 active torsions:
REMARK  status: ('A' for Active; 'I' for Inactive)
REMARK    1  A    between atoms: C2_2  and  C3_3 
REMARK    2  A    between atoms: C3_3  and  C5_5 
REMARK    3  A    between atoms: C5_5  and  C6_6 
REMARK    4  A    between atoms: C5_5  and  O4_29 
REMARK    5  A    between atoms: C6_6  and  C7_7 
REMARK    6  A    between atoms: C7_7  and  C8_8 
REMARK    7  A    between atoms: C8_8  and  C9_9 
REMARK    8  A    between atoms: C9_9  and  O1_10 
REMARK    9  A    between atoms: C12_14  and  O2_15 
REMARK   10  A    between atoms: O4_29  and  C23_30 
ROOT
HETATM    1  C9  UNL     1       2.263 -13.132  36.569  1.00  0.00     0.091 C 
HETATM    2  C10 UNL     1       2.655 -12.866  37.959  1.00  0.00     0.048 C 
HETATM    3  C11 UNL     1       1.841 -11.750  38.567  1.00  0.00     0.016 C 
HETATM    4  C12 UNL     1       4.088 -12.563  38.240  1.00  0.00     0.134 C 
HETATM    5  C13 UNL     1       4.684 -13.765  38.959  1.00  0.00     0.057 A 
HETATM    6  C14 UNL     1       5.253 -14.670  37.871  1.00  0.00    -0.060 A 
HETATM    7  C15 UNL     1       4.665 -15.283  36.865  1.00  0.00     0.056 C 
HETATM    8  C16 UNL     1       3.334 -15.411  36.318  1.00  0.00     0.174 C 
HETATM    9  O3  UNL     1       3.204 -16.593  35.824  1.00  0.00    -0.291 OA
HETATM   10  C17 UNL     1       2.145 -14.577  36.184  1.00  0.00     0.141 C 
HETATM   11  C18 UNL     1       1.488 -14.737  34.813  1.00  0.00     0.043 C 
HETATM   12  C19 UNL     1       1.136 -15.143  37.126  1.00  0.00     0.080 C 
HETATM   13  N1  UNL     1       0.362 -15.586  37.877  1.00  0.00    -0.196 NA
HETATM   14  C20 UNL     1       6.104 -14.065  38.940  1.00  0.00    -0.014 A 
HETATM   15  C21 UNL     1       6.625 -15.060  39.939  1.00  0.00     0.020 C 
HETATM   16  C22 UNL     1       7.129 -13.036  38.492  1.00  0.00     0.020 C 
ENDROOT
BRANCH   1  17
HETATM   17  C8  UNL     1       2.982 -12.407  35.482  1.00  0.00     0.041 C 
BRANCH  17  18
HETATM   18  C7  UNL     1       2.089 -11.516  34.643  1.00  0.00     0.006 C 
BRANCH  18  19
HETATM   19  C6  UNL     1       2.737 -10.179  34.370  1.00  0.00     0.033 C 
BRANCH  19  20
HETATM   20  C5  UNL     1       1.744  -9.255  33.689  1.00  0.00     0.135 C 
BRANCH  20  21
HETATM   21  C3  UNL     1       1.394  -8.046  34.494  1.00  0.00     0.011 C 
HETATM   22  C4  UNL     1      -0.058  -7.617  34.220  1.00  0.00     0.012 C 
BRANCH  21  23
HETATM   23  C2  UNL     1       1.467  -8.293  35.983  1.00  0.00     0.002 C 
HETATM   24  C1  UNL     1       0.179  -8.719  36.604  1.00  0.00     0.005 C 
ENDBRANCH  21  23
ENDBRANCH  20  21
BRANCH  20  25
HETATM   25  O4  UNL     1       2.322  -8.834  32.459  1.00  0.00    -0.316 OA
BRANCH  25  26
HETATM   26  C23 UNL     1       2.560  -9.663  31.396  1.00  0.00     0.255 C 
HETATM   27  C24 UNL     1       1.435 -10.396  30.754  1.00  0.00     0.126 C 
HETATM   28  O5  UNL     1       3.718  -9.819  30.947  1.00  0.00    -0.266 OA
ENDBRANCH  25  26
ENDBRANCH  20  25
ENDBRANCH  19  20
ENDBRANCH  18  19
ENDBRANCH  17  18
ENDBRANCH   1  17
BRANCH   1  29
HETATM   29  O1  UNL     1       0.914 -12.646  36.457  1.00  0.00    -0.387 OA
ATOM     30  H1  UNL     1       0.772 -12.199  37.283  1.00  0.00     0.210 HD
ENDBRANCH   1  29
BRANCH   4  31
HETATM   31  O2  UNL     1       4.267 -11.496  39.144  1.00  0.00    -0.394 OA
ATOM     32  H2  UNL     1       4.979 -10.915  38.904  1.00  0.00     0.210 HD
ENDBRANCH   4  31
TORSDOF 10
ENDMDL
