MODEL 1
REMARK VINA RESULT: -7.602812908      0.000      0.000
REMARK  12 active torsions:
REMARK  status: ('A' for Active; 'I' for Inactive)
REMARK    1  A    between atoms: C3_3  and  C4_4 
REMARK    2  A    between atoms: C4_4  and  O2_6 
REMARK    3  A    between atoms: O2_6  and  C5_7 
REMARK    4  A    between atoms: C7_9  and  O3_10 
REMARK    5  A    between atoms: C10_14  and  C11_15 
REMARK    6  A    between atoms: C11_15  and  C12_16 
REMARK    7  A    between atoms: C12_16  and  O4_17 
REMARK    8  A    between atoms: C14_22  and  C23_31 
REMARK    9  A    between atoms: C15_23  and  C17_25 
REMARK   10  A    between atoms: C18_26  and  C19_27 
REMARK   11  A    between atoms: C19_27  and  C20_28 
REMARK   12  A    between atoms: C20_28  and  C21_29 
ROOT
HETATM    1  C11 UNL     1       1.421 -11.195  34.985  1.00  0.00     0.109 C 
HETATM    2  O5  UNL     1       0.189 -10.460  34.762  1.00  0.00    -0.306 OA
HETATM    3  C13 UNL     1       0.505  -9.094  34.588  1.00  0.00     0.266 C 
HETATM    4  O6  UNL     1      -0.364  -8.254  34.288  1.00  0.00    -0.265 OA
HETATM    5  C14 UNL     1       1.970  -8.984  34.834  1.00  0.00     0.113 C 
HETATM    6  C15 UNL     1       2.338 -10.327  34.248  1.00  0.00     0.021 C 
HETATM    7  C16 UNL     1       3.735 -10.641  34.054  1.00  0.00     0.024 C 
ENDROOT
BRANCH   6   8
HETATM    8  C17 UNL     1       1.749 -10.182  32.843  1.00  0.00    -0.018 C 
HETATM    9  C18 UNL     1       2.505  -9.629  31.883  1.00  0.00    -0.030 C 
BRANCH   9  10
HETATM   10  C19 UNL     1       1.986  -9.463  30.500  1.00  0.00     0.027 C 
BRANCH  10  11
HETATM   11  C20 UNL     1       1.265 -10.693  29.996  1.00  0.00     0.003 C 
BRANCH  11  12
HETATM   12  C21 UNL     1       1.225 -10.683  28.497  1.00  0.00    -0.004 C 
HETATM   13  C22 UNL     1       2.002  -9.513  27.957  1.00  0.00     0.005 C 
ENDBRANCH  11  12
ENDBRANCH  10  11
ENDBRANCH   9  10
ENDBRANCH   6   8
BRANCH   1  14
HETATM   14  C10 UNL     1       1.479 -11.349  36.445  1.00  0.00     0.054 C 
HETATM   15  C5  UNL     1       0.506 -12.219  37.153  1.00  0.00     0.142 C 
HETATM   16  C6  UNL     1       0.915 -13.654  37.280  1.00  0.00     0.072 C 
HETATM   17  C7  UNL     1       2.166 -14.067  36.684  1.00  0.00     0.078 A 
HETATM   18  C8  UNL     1       3.290 -13.036  36.868  1.00  0.00     0.004 A 
HETATM   19  C23 UNL     1       2.999 -13.589  35.608  1.00  0.00     0.017 A 
HETATM   20  C9  UNL     1       2.838 -11.647  37.051  1.00  0.00     0.024 C 
HETATM   21  C24 UNL     1       4.464 -13.498  36.126  1.00  0.00     0.028 A 
BRANCH  15  22
HETATM   22  O2  UNL     1       0.417 -11.722  38.488  1.00  0.00    -0.312 OA
BRANCH  22  23
HETATM   23  C4  UNL     1      -0.351 -10.633  38.857  1.00  0.00     0.282 C 
HETATM   24  O1  UNL     1      -1.308 -10.364  38.096  1.00  0.00    -0.260 OA
BRANCH  23  25
HETATM   25  C3  UNL     1      -0.041  -9.871  40.056  1.00  0.00     0.077 C 
HETATM   26  C2  UNL     1      -0.545 -10.225  41.222  1.00  0.00    -0.025 C 
HETATM   27  C1  UNL     1      -0.228  -9.443  42.453  1.00  0.00     0.036 C 
ENDBRANCH  23  25
ENDBRANCH  22  23
ENDBRANCH  15  22
BRANCH  17  28
HETATM   28  O3  UNL     1       2.605 -15.349  37.136  1.00  0.00    -0.388 OA
ATOM     29  H3  UNL     1       2.994 -15.874  36.447  1.00  0.00     0.210 HD
ENDBRANCH  17  28
ENDBRANCH   1  14
BRANCH   1  30
HETATM   30  C12 UNL     1       1.232 -12.512  34.265  1.00  0.00     0.204 C 
BRANCH  30  31
HETATM   31  O4  UNL     1      -0.008 -12.590  33.640  1.00  0.00    -0.398 OA
ATOM     32  H4  UNL     1      -0.722 -12.462  34.252  1.00  0.00     0.209 HD
ENDBRANCH  30  31
ENDBRANCH   1  30
TORSDOF 12
ENDMDL
MODEL 2
REMARK VINA RESULT: -7.043525747      1.289      1.511
REMARK  12 active torsions:
REMARK  status: ('A' for Active; 'I' for Inactive)
REMARK    1  A    between atoms: C3_3  and  C4_4 
REMARK    2  A    between atoms: C4_4  and  O2_6 
REMARK    3  A    between atoms: O2_6  and  C5_7 
REMARK    4  A    between atoms: C7_9  and  O3_10 
REMARK    5  A    between atoms: C10_14  and  C11_15 
REMARK    6  A    between atoms: C11_15  and  C12_16 
REMARK    7  A    between atoms: C12_16  and  O4_17 
REMARK    8  A    between atoms: C14_22  and  C23_31 
REMARK    9  A    between atoms: C15_23  and  C17_25 
REMARK   10  A    between atoms: C18_26  and  C19_27 
REMARK   11  A    between atoms: C19_27  and  C20_28 
REMARK   12  A    between atoms: C20_28  and  C21_29 
ROOT
HETATM    1  C11 UNL     1       1.577 -11.877  35.104  1.00  0.00     0.109 C 
HETATM    2  O5  UNL     1       0.257 -11.278  35.042  1.00  0.00    -0.306 OA
HETATM    3  C13 UNL     1       0.403  -9.875  34.978  1.00  0.00     0.266 C 
HETATM    4  O6  UNL     1      -0.577  -9.121  34.824  1.00  0.00    -0.265 OA
HETATM    5  C14 UNL     1       1.862  -9.612  35.127  1.00  0.00     0.113 C 
HETATM    6  C15 UNL     1       2.328 -10.846  34.389  1.00  0.00     0.021 C 
HETATM    7  C16 UNL     1       3.730 -10.972  34.065  1.00  0.00     0.024 C 
ENDROOT
BRANCH   6   8
HETATM    8  C17 UNL     1       1.611 -10.651  33.051  1.00  0.00    -0.018 C 
HETATM    9  C18 UNL     1       2.346 -10.605  31.930  1.00  0.00    -0.030 C 
BRANCH   9  10
HETATM   10  C19 UNL     1       1.704 -10.419  30.601  1.00  0.00     0.027 C 
BRANCH  10  11
HETATM   11  C20 UNL     1       1.538  -8.962  30.233  1.00  0.00     0.003 C 
BRANCH  11  12
HETATM   12  C21 UNL     1       2.319  -8.657  28.989  1.00  0.00    -0.004 C 
HETATM   13  C22 UNL     1       1.999  -9.656  27.909  1.00  0.00     0.005 C 
ENDBRANCH  11  12
ENDBRANCH  10  11
ENDBRANCH   9  10
ENDBRANCH   6   8
BRANCH   1  14
HETATM   14  C10 UNL     1       1.774 -12.150  36.534  1.00  0.00     0.054 C 
HETATM   15  C5  UNL     1       0.955 -13.177  37.228  1.00  0.00     0.142 C 
HETATM   16  C6  UNL     1       1.513 -14.565  37.187  1.00  0.00     0.072 C 
HETATM   17  C7  UNL     1       2.745 -14.791  36.463  1.00  0.00     0.078 A 
HETATM   18  C8  UNL     1       3.772 -13.666  36.658  1.00  0.00     0.004 A 
HETATM   19  C23 UNL     1       3.432 -14.135  35.377  1.00  0.00     0.017 A 
HETATM   20  C9  UNL     1       3.202 -12.354  37.005  1.00  0.00     0.024 C 
HETATM   21  C24 UNL     1       4.920 -13.934  35.790  1.00  0.00     0.028 A 
BRANCH  15  22
HETATM   22  O2  UNL     1       0.930 -12.809  38.606  1.00  0.00    -0.312 OA
BRANCH  22  23
HETATM   23  C4  UNL     1       0.746 -11.516  39.058  1.00  0.00     0.282 C 
HETATM   24  O1  UNL     1       1.514 -11.150  39.977  1.00  0.00    -0.260 OA
BRANCH  23  25
HETATM   25  C3  UNL     1      -0.281 -10.661  38.484  1.00  0.00     0.077 C 
HETATM   26  C2  UNL     1      -0.388  -9.401  38.857  1.00  0.00    -0.025 C 
HETATM   27  C1  UNL     1      -1.442  -8.523  38.269  1.00  0.00     0.036 C 
ENDBRANCH  23  25
ENDBRANCH  22  23
ENDBRANCH  15  22
BRANCH  17  28
HETATM   28  O3  UNL     1       3.344 -16.053  36.757  1.00  0.00    -0.388 OA
ATOM     29  H3  UNL     1       3.105 -16.733  36.138  1.00  0.00     0.210 HD
ENDBRANCH  17  28
ENDBRANCH   1  14
BRANCH   1  30
HETATM   30  C12 UNL     1       1.479 -13.140  34.276  1.00  0.00     0.204 C 
BRANCH  30  31
HETATM   31  O4  UNL     1       0.175 -13.386  33.856  1.00  0.00    -0.398 OA
ATOM     32  H4  UNL     1       0.009 -14.314  33.742  1.00  0.00     0.209 HD
ENDBRANCH  30  31
ENDBRANCH   1  30
TORSDOF 12
ENDMDL
MODEL 3
REMARK VINA RESULT: -6.771602448      1.805      7.620
REMARK  12 active torsions:
REMARK  status: ('A' for Active; 'I' for Inactive)
REMARK    1  A    between atoms: C3_3  and  C4_4 
REMARK    2  A    between atoms: C4_4  and  O2_6 
REMARK    3  A    between atoms: O2_6  and  C5_7 
REMARK    4  A    between atoms: C7_9  and  O3_10 
REMARK    5  A    between atoms: C10_14  and  C11_15 
REMARK    6  A    between atoms: C11_15  and  C12_16 
REMARK    7  A    between atoms: C12_16  and  O4_17 
REMARK    8  A    between atoms: C14_22  and  C23_31 
REMARK    9  A    between atoms: C15_23  and  C17_25 
REMARK   10  A    between atoms: C18_26  and  C19_27 
REMARK   11  A    between atoms: C19_27  and  C20_28 
REMARK   12  A    between atoms: C20_28  and  C21_29 
ROOT
HETATM    1  C11 UNL     1       0.529 -10.535  36.798  1.00  0.00     0.109 C 
HETATM    2  O5  UNL     1       0.184 -11.911  37.102  1.00  0.00    -0.306 OA
HETATM    3  C13 UNL     1       1.132 -12.420  38.017  1.00  0.00     0.266 C 
HETATM    4  O6  UNL     1       1.016 -13.555  38.516  1.00  0.00    -0.265 OA
HETATM    5  C14 UNL     1       2.155 -11.349  38.178  1.00  0.00     0.113 C 
HETATM    6  C15 UNL     1       1.198 -10.186  38.051  1.00  0.00     0.021 C 
HETATM    7  C16 UNL     1       1.680  -8.857  38.344  1.00  0.00     0.024 C 
ENDROOT
BRANCH   6   8
HETATM    8  C17 UNL     1       0.209 -10.524  39.168  1.00  0.00    -0.018 C 
HETATM    9  C18 UNL     1       0.251  -9.806  40.301  1.00  0.00    -0.030 C 
BRANCH   9  10
HETATM   10  C19 UNL     1      -0.687 -10.088  41.420  1.00  0.00     0.027 C 
BRANCH  10  11
HETATM   11  C20 UNL     1      -1.183  -8.829  42.095  1.00  0.00     0.003 C 
BRANCH  11  12
HETATM   12  C21 UNL     1      -1.003  -7.654  41.181  1.00  0.00    -0.004 C 
HETATM   13  C22 UNL     1      -2.329  -7.000  40.897  1.00  0.00     0.005 C 
ENDBRANCH  11  12
ENDBRANCH  10  11
ENDBRANCH   9  10
ENDBRANCH   6   8
BRANCH   1  14
HETATM   14  C10 UNL     1       1.244 -10.626  35.518  1.00  0.00     0.054 C 
HETATM   15  C5  UNL     1       0.515 -10.947  34.265  1.00  0.00     0.142 C 
HETATM   16  C6  UNL     1      -0.040  -9.764  33.534  1.00  0.00     0.072 C 
HETATM   17  C7  UNL     1       0.141  -8.451  34.114  1.00  0.00     0.078 A 
HETATM   18  C8  UNL     1       1.530  -8.255  34.740  1.00  0.00     0.004 A 
HETATM   19  C23 UNL     1       0.356  -7.936  35.444  1.00  0.00     0.017 A 
HETATM   20  C9  UNL     1       2.196  -9.493  35.179  1.00  0.00     0.024 C 
HETATM   21  C24 UNL     1       1.559  -6.949  35.399  1.00  0.00     0.028 A 
BRANCH  15  22
HETATM   22  O2  UNL     1       1.469 -11.536  33.382  1.00  0.00    -0.312 OA
BRANCH  22  23
HETATM   23  C4  UNL     1       1.661 -11.134  32.073  1.00  0.00     0.282 C 
HETATM   24  O1  UNL     1       0.948 -11.712  31.221  1.00  0.00    -0.260 OA
BRANCH  23  25
HETATM   25  C3  UNL     1       2.635 -10.108  31.740  1.00  0.00     0.077 C 
HETATM   26  C2  UNL     1       2.483  -9.366  30.661  1.00  0.00    -0.025 C 
HETATM   27  C1  UNL     1       3.483  -8.312  30.318  1.00  0.00     0.036 C 
ENDBRANCH  23  25
ENDBRANCH  22  23
ENDBRANCH  15  22
BRANCH  17  28
HETATM   28  O3  UNL     1      -0.131  -7.391  33.196  1.00  0.00    -0.388 OA
ATOM     29  H3  UNL     1       0.410  -7.426  32.416  1.00  0.00     0.210 HD
ENDBRANCH  17  28
ENDBRANCH   1  14
BRANCH   1  30
HETATM   30  C12 UNL     1      -0.795  -9.811  36.678  1.00  0.00     0.204 C 
BRANCH  30  31
HETATM   31  O4  UNL     1      -1.775 -10.385  37.481  1.00  0.00    -0.398 OA
ATOM     32  H4  UNL     1      -2.240 -11.080  37.031  1.00  0.00     0.209 HD
ENDBRANCH  30  31
ENDBRANCH   1  30
TORSDOF 12
ENDMDL
MODEL 4
REMARK VINA RESULT: -6.757497163      3.989      7.306
REMARK  12 active torsions:
REMARK  status: ('A' for Active; 'I' for Inactive)
REMARK    1  A    between atoms: C3_3  and  C4_4 
REMARK    2  A    between atoms: C4_4  and  O2_6 
REMARK    3  A    between atoms: O2_6  and  C5_7 
REMARK    4  A    between atoms: C7_9  and  O3_10 
REMARK    5  A    between atoms: C10_14  and  C11_15 
REMARK    6  A    between atoms: C11_15  and  C12_16 
REMARK    7  A    between atoms: C12_16  and  O4_17 
REMARK    8  A    between atoms: C14_22  and  C23_31 
REMARK    9  A    between atoms: C15_23  and  C17_25 
REMARK   10  A    between atoms: C18_26  and  C19_27 
REMARK   11  A    between atoms: C19_27  and  C20_28 
REMARK   12  A    between atoms: C20_28  and  C21_29 
ROOT
HETATM    1  C11 UNL     1       3.266 -13.900  36.522  1.00  0.00     0.109 C 
HETATM    2  O5  UNL     1       2.533 -13.832  35.271  1.00  0.00    -0.306 OA
HETATM    3  C13 UNL     1       1.236 -14.351  35.482  1.00  0.00     0.266 C 
HETATM    4  O6  UNL     1       0.368 -14.323  34.590  1.00  0.00    -0.265 OA
HETATM    5  C14 UNL     1       1.226 -14.859  36.882  1.00  0.00     0.113 C 
HETATM    6  C15 UNL     1       2.140 -13.799  37.450  1.00  0.00     0.021 C 
HETATM    7  C16 UNL     1       2.305 -13.719  38.883  1.00  0.00     0.024 C 
ENDROOT
BRANCH   6   8
HETATM    8  C17 UNL     1       1.374 -12.536  37.051  1.00  0.00    -0.018 C 
HETATM    9  C18 UNL     1       0.761 -11.826  38.010  1.00  0.00    -0.030 C 
BRANCH   9  10
HETATM   10  C19 UNL     1       0.003 -10.590  37.682  1.00  0.00     0.027 C 
BRANCH  10  11
HETATM   11  C20 UNL     1      -0.604  -9.937  38.903  1.00  0.00     0.003 C 
BRANCH  11  12
HETATM   12  C21 UNL     1       0.136 -10.368  40.134  1.00  0.00    -0.004 C 
HETATM   13  C22 UNL     1      -0.494  -9.771  41.364  1.00  0.00     0.005 C 
ENDBRANCH  11  12
ENDBRANCH  10  11
ENDBRANCH   9  10
ENDBRANCH   6   8
BRANCH   1  14
HETATM   14  C10 UNL     1       4.076 -15.119  36.391  1.00  0.00     0.054 C 
HETATM   15  C5  UNL     1       5.135 -15.215  35.355  1.00  0.00     0.142 C 
HETATM   16  C6  UNL     1       6.483 -14.719  35.779  1.00  0.00     0.072 C 
HETATM   17  C7  UNL     1       6.625 -14.168  37.109  1.00  0.00     0.078 A 
HETATM   18  C8  UNL     1       5.837 -14.948  38.172  1.00  0.00     0.004 A 
HETATM   19  C23 UNL     1       5.738 -13.550  38.064  1.00  0.00     0.017 A 
HETATM   20  C9  UNL     1       4.671 -15.690  37.664  1.00  0.00     0.024 C 
HETATM   21  C24 UNL     1       5.952 -14.236  39.446  1.00  0.00     0.028 A 
BRANCH  15  22
HETATM   22  O2  UNL     1       5.303 -16.605  35.077  1.00  0.00    -0.312 OA
BRANCH  22  23
HETATM   23  C4  UNL     1       4.706 -17.259  34.016  1.00  0.00     0.282 C 
HETATM   24  O1  UNL     1       5.373 -17.286  32.955  1.00  0.00    -0.260 OA
BRANCH  23  25
HETATM   25  C3  UNL     1       3.392 -17.864  34.152  1.00  0.00     0.077 C 
HETATM   26  C2  UNL     1       2.322 -17.254  33.678  1.00  0.00    -0.025 C 
HETATM   27  C1  UNL     1       0.972 -17.875  33.818  1.00  0.00     0.036 C 
ENDBRANCH  23  25
ENDBRANCH  22  23
ENDBRANCH  15  22
BRANCH  17  28
HETATM   28  O3  UNL     1       7.987 -14.032  37.516  1.00  0.00    -0.388 OA
ATOM     29  H3  UNL     1       8.080 -13.726  38.411  1.00  0.00     0.210 HD
ENDBRANCH  17  28
ENDBRANCH   1  14
BRANCH   1  30
HETATM   30  C12 UNL     1       4.106 -12.641  36.558  1.00  0.00     0.204 C 
BRANCH  30  31
HETATM   31  O4  UNL     1       4.132 -11.999  35.324  1.00  0.00    -0.398 OA
ATOM     32  H4  UNL     1       4.049 -11.057  35.413  1.00  0.00     0.209 HD
ENDBRANCH  30  31
ENDBRANCH   1  30
TORSDOF 12
ENDMDL
MODEL 5
REMARK VINA RESULT: -6.696350335      2.497      7.090
REMARK  12 active torsions:
REMARK  status: ('A' for Active; 'I' for Inactive)
REMARK    1  A    between atoms: C3_3  and  C4_4 
REMARK    2  A    between atoms: C4_4  and  O2_6 
REMARK    3  A    between atoms: O2_6  and  C5_7 
REMARK    4  A    between atoms: C7_9  and  O3_10 
REMARK    5  A    between atoms: C10_14  and  C11_15 
REMARK    6  A    between atoms: C11_15  and  C12_16 
REMARK    7  A    between atoms: C12_16  and  O4_17 
REMARK    8  A    between atoms: C14_22  and  C23_31 
REMARK    9  A    between atoms: C15_23  and  C17_25 
REMARK   10  A    between atoms: C18_26  and  C19_27 
REMARK   11  A    between atoms: C19_27  and  C20_28 
REMARK   12  A    between atoms: C20_28  and  C21_29 
ROOT
HETATM    1  C11 UNL     1       0.305 -10.455  37.278  1.00  0.00     0.109 C 
HETATM    2  O5  UNL     1       0.018 -11.736  37.896  1.00  0.00    -0.306 OA
HETATM    3  C13 UNL     1       1.074 -12.057  38.778  1.00  0.00     0.266 C 
HETATM    4  O6  UNL     1       1.034 -13.064  39.509  1.00  0.00    -0.265 OA
HETATM    5  C14 UNL     1       2.094 -10.985  38.595  1.00  0.00     0.113 C 
HETATM    6  C15 UNL     1       1.111  -9.864  38.345  1.00  0.00     0.021 C 
HETATM    7  C16 UNL     1       1.605  -8.507  38.302  1.00  0.00     0.024 C 
ENDROOT
BRANCH   6   8
HETATM    8  C17 UNL     1       0.265  -9.955  39.616  1.00  0.00    -0.018 C 
HETATM    9  C18 UNL     1       0.225  -8.896  40.439  1.00  0.00    -0.030 C 
BRANCH   9  10
HETATM   10  C19 UNL     1      -0.581  -8.926  41.688  1.00  0.00     0.027 C 
BRANCH  10  11
HETATM   11  C20 UNL     1      -1.844  -8.100  41.587  1.00  0.00     0.003 C 
BRANCH  11  12
HETATM   12  C21 UNL     1      -1.545  -6.789  40.923  1.00  0.00    -0.004 C 
HETATM   13  C22 UNL     1      -2.786  -6.228  40.283  1.00  0.00     0.005 C 
ENDBRANCH  11  12
ENDBRANCH  10  11
ENDBRANCH   9  10
ENDBRANCH   6   8
BRANCH   1  14
HETATM   14  C10 UNL     1       0.866 -10.813  35.969  1.00  0.00     0.054 C 
HETATM   15  C5  UNL     1      -0.024 -11.196  34.843  1.00  0.00     0.142 C 
HETATM   16  C6  UNL     1      -0.500 -10.056  33.998  1.00  0.00     0.072 C 
HETATM   17  C7  UNL     1      -0.099  -8.715  34.362  1.00  0.00     0.078 A 
HETATM   18  C8  UNL     1       1.361  -8.630  34.831  1.00  0.00     0.004 A 
HETATM   19  C23 UNL     1       0.316  -8.062  35.579  1.00  0.00     0.017 A 
HETATM   20  C9  UNL     1       1.910  -9.878  35.388  1.00  0.00     0.024 C 
HETATM   21  C24 UNL     1       1.620  -7.264  35.288  1.00  0.00     0.028 A 
BRANCH  15  22
HETATM   22  O2  UNL     1       0.753 -12.023  33.978  1.00  0.00    -0.312 OA
BRANCH  22  23
HETATM   23  C4  UNL     1       1.015 -13.359  34.215  1.00  0.00     0.282 C 
HETATM   24  O1  UNL     1       0.207 -14.167  33.702  1.00  0.00    -0.260 OA
BRANCH  23  25
HETATM   25  C3  UNL     1       2.161 -13.768  35.011  1.00  0.00     0.077 C 
HETATM   26  C2  UNL     1       1.990 -14.432  36.137  1.00  0.00    -0.025 C 
HETATM   27  C1  UNL     1       3.166 -14.851  36.955  1.00  0.00     0.036 C 
ENDBRANCH  23  25
ENDBRANCH  22  23
ENDBRANCH  15  22
BRANCH  17  28
HETATM   28  O3  UNL     1      -0.331  -7.760  33.325  1.00  0.00    -0.388 OA
ATOM     29  H3  UNL     1       0.463  -7.333  33.026  1.00  0.00     0.210 HD
ENDBRANCH  17  28
ENDBRANCH   1  14
BRANCH   1  30
HETATM   30  C12 UNL     1      -1.034  -9.758  37.169  1.00  0.00     0.204 C 
BRANCH  30  31
HETATM   31  O4  UNL     1      -2.039 -10.459  37.828  1.00  0.00    -0.398 OA
ATOM     32  H4  UNL     1      -2.685  -9.877  38.210  1.00  0.00     0.209 HD
ENDBRANCH  30  31
ENDBRANCH   1  30
TORSDOF 12
ENDMDL
