MODEL 1
REMARK VINA RESULT: -7.223557221      0.000      0.000
REMARK  9 active torsions:
REMARK  status: ('A' for Active; 'I' for Inactive)
REMARK    1  A    between atoms: C2_2  and  O1_3 
REMARK    2  A    between atoms: O1_3  and  C3_4 
REMARK    3  A    between atoms: C9_10  and  C10_11 
REMARK    4  A    between atoms: C10_11  and  O2_12 
REMARK    5  A    between atoms: C12_16  and  O4_17 
REMARK    6  A    between atoms: O4_17  and  C13_18 
REMARK    7  A    between atoms: C15_21  and  C16_22 
REMARK    8  A    between atoms: C16_22  and  C17_23 
REMARK    9  A    between atoms: C19_26  and  O7_28 
ROOT
HETATM    1  C3  UNL     1      19.769   8.798   2.858  1.00  0.00     0.169 C 
HETATM    2  C4  UNL     1      18.349   9.332   2.898  1.00  0.00     0.073 C 
HETATM    3  C5  UNL     1      18.585  10.674   3.619  1.00  0.00    -0.013 C 
HETATM    4  C6  UNL     1      17.317  11.303   4.066  1.00  0.00     0.010 C 
HETATM    5  C7  UNL     1      19.362  10.046   4.800  1.00  0.00     0.015 C 
HETATM    6  C8  UNL     1      20.505   9.520   3.978  1.00  0.00     0.062 C 
HETATM    7  C9  UNL     1      21.385   8.526   4.671  1.00  0.00     0.028 C 
HETATM    8  C11 UNL     1      21.013   7.278   3.993  1.00  0.00     0.167 C 
HETATM    9  O3  UNL     1      19.888   7.503   3.209  1.00  0.00    -0.346 OA
HETATM   10  C12 UNL     1      22.029   6.557   3.143  1.00  0.00     0.169 C 
HETATM   11  C15 UNL     1      23.343   7.206   3.082  1.00  0.00     0.059 C 
HETATM   12  C19 UNL     1      23.812   7.881   4.357  1.00  0.00     0.068 C 
HETATM   13  C20 UNL     1      24.240   6.849   5.328  1.00  0.00     0.047 C 
HETATM   14  C21 UNL     1      22.828   8.904   4.775  1.00  0.00    -0.004 C 
HETATM   15  C22 UNL     1      23.083  10.123   3.846  1.00  0.00     0.019 C 
HETATM   16  C23 UNL     1      23.255   9.503   6.091  1.00  0.00     0.019 C 
ENDROOT
BRANCH  10  17
HETATM   17  O4  UNL     1      22.157   5.213   3.608  1.00  0.00    -0.313 OA
BRANCH  17  18
HETATM   18  C13 UNL     1      21.114   4.372   3.903  1.00  0.00     0.255 C 
HETATM   19  C14 UNL     1      20.646   3.318   2.945  1.00  0.00     0.126 C 
HETATM   20  O5  UNL     1      20.521   4.471   5.000  1.00  0.00    -0.266 OA
ENDBRANCH  17  18
ENDBRANCH  10  17
BRANCH  11  21
HETATM   21  C16 UNL     1      24.470   6.358   2.580  1.00  0.00     0.088 C 
BRANCH  21  22
HETATM   22  C17 UNL     1      24.886   6.607   1.189  1.00  0.00     0.123 C 
HETATM   23  C18 UNL     1      24.083   7.487   0.337  1.00  0.00     0.091 C 
HETATM   24  O6  UNL     1      25.885   6.085   0.755  1.00  0.00    -0.298 OA
ENDBRANCH  21  22
ENDBRANCH  11  21
BRANCH   7  25
HETATM   25  C10 UNL     1      20.843   8.417   6.108  1.00  0.00     0.177 C 
BRANCH  25  26
HETATM   26  O2  UNL     1      20.210   7.198   6.337  1.00  0.00    -0.400 OA
ATOM     27  H2  UNL     1      19.264   7.283   6.343  1.00  0.00     0.209 HD
ENDBRANCH  25  26
ENDBRANCH   7  25
BRANCH  12  28
HETATM   28  O7  UNL     1      25.013   8.522   3.941  1.00  0.00    -0.389 OA
ATOM     29  H7  UNL     1      25.534   8.517   4.735  1.00  0.00     0.210 HD
ENDBRANCH  12  28
BRANCH   1  30
HETATM   30  O1  UNL     1      20.302   9.157   1.652  1.00  0.00    -0.355 OA
BRANCH  30  31
HETATM   31  C2  UNL     1      19.461   9.655   0.707  1.00  0.00     0.167 C 
HETATM   32  C1  UNL     1      19.894  11.010   0.172  1.00  0.00     0.033 C 
ENDBRANCH  30  31
ENDBRANCH   1  30
TORSDOF 9
ENDMDL
MODEL 2
REMARK VINA RESULT: -7.156291064      1.994      5.254
REMARK  9 active torsions:
REMARK  status: ('A' for Active; 'I' for Inactive)
REMARK    1  A    between atoms: C2_2  and  O1_3 
REMARK    2  A    between atoms: O1_3  and  C3_4 
REMARK    3  A    between atoms: C9_10  and  C10_11 
REMARK    4  A    between atoms: C10_11  and  O2_12 
REMARK    5  A    between atoms: C12_16  and  O4_17 
REMARK    6  A    between atoms: O4_17  and  C13_18 
REMARK    7  A    between atoms: C15_21  and  C16_22 
REMARK    8  A    between atoms: C16_22  and  C17_23 
REMARK    9  A    between atoms: C19_26  and  O7_28 
ROOT
HETATM    1  C3  UNL     1      22.538   5.332   4.249  1.00  0.00     0.169 C 
HETATM    2  C4  UNL     1      22.216   3.858   4.405  1.00  0.00     0.073 C 
HETATM    3  C5  UNL     1      21.234   3.670   3.231  1.00  0.00    -0.013 C 
HETATM    4  C6  UNL     1      20.514   2.374   3.302  1.00  0.00     0.010 C 
HETATM    5  C7  UNL     1      20.326   4.854   3.637  1.00  0.00     0.015 C 
HETATM    6  C8  UNL     1      21.371   5.922   3.470  1.00  0.00     0.062 C 
HETATM    7  C9  UNL     1      21.031   7.248   4.076  1.00  0.00     0.028 C 
HETATM    8  C11 UNL     1      21.934   7.286   5.233  1.00  0.00     0.167 C 
HETATM    9  O3  UNL     1      22.513   6.034   5.400  1.00  0.00    -0.346 OA
HETATM   10  C12 UNL     1      23.036   8.312   5.289  1.00  0.00     0.169 C 
HETATM   11  C15 UNL     1      23.092   9.210   4.130  1.00  0.00     0.059 C 
HETATM   12  C19 UNL     1      21.757   9.612   3.533  1.00  0.00     0.068 C 
HETATM   13  C20 UNL     1      21.106  10.606   4.416  1.00  0.00     0.047 C 
HETATM   14  C21 UNL     1      21.006   8.404   3.127  1.00  0.00    -0.004 C 
HETATM   15  C22 UNL     1      21.649   7.952   1.787  1.00  0.00     0.019 C 
HETATM   16  C23 UNL     1      19.643   8.807   2.622  1.00  0.00     0.019 C 
ENDROOT
BRANCH  10  17
HETATM   17  O4  UNL     1      22.914   9.065   6.497  1.00  0.00    -0.313 OA
BRANCH  17  18
HETATM   18  C13 UNL     1      23.356   8.661   7.731  1.00  0.00     0.255 C 
HETATM   19  C14 UNL     1      24.720   8.071   7.934  1.00  0.00     0.126 C 
HETATM   20  O5  UNL     1      22.614   8.778   8.732  1.00  0.00    -0.266 OA
ENDBRANCH  17  18
ENDBRANCH  10  17
BRANCH  11  21
HETATM   21  C16 UNL     1      23.901  10.458   4.305  1.00  0.00     0.088 C 
BRANCH  21  22
HETATM   22  C17 UNL     1      25.229  10.278   4.916  1.00  0.00     0.123 C 
HETATM   23  C18 UNL     1      25.665  11.179   5.987  1.00  0.00     0.091 C 
HETATM   24  O6  UNL     1      25.954   9.391   4.536  1.00  0.00    -0.298 OA
ENDBRANCH  21  22
ENDBRANCH  11  21
BRANCH   7  25
HETATM   25  C10 UNL     1      19.607   7.098   4.642  1.00  0.00     0.177 C 
BRANCH  25  26
HETATM   26  O2  UNL     1      19.584   7.190   6.031  1.00  0.00    -0.400 OA
ATOM     27  H2  UNL     1      19.239   6.403   6.435  1.00  0.00     0.209 HD
ENDBRANCH  25  26
ENDBRANCH   7  25
BRANCH  12  28
HETATM   28  O7  UNL     1      22.146  10.340   2.374  1.00  0.00    -0.389 OA
ATOM     29  H7  UNL     1      22.956  10.749   2.652  1.00  0.00     0.210 HD
ENDBRANCH  12  28
BRANCH   1  30
HETATM   30  O1  UNL     1      23.680   5.420   3.504  1.00  0.00    -0.355 OA
BRANCH  30  31
HETATM   31  C2  UNL     1      24.871   5.405   4.159  1.00  0.00     0.167 C 
HETATM   32  C1  UNL     1      25.934   6.263   3.493  1.00  0.00     0.033 C 
ENDBRANCH  30  31
ENDBRANCH   1  30
TORSDOF 9
ENDMDL
MODEL 3
REMARK VINA RESULT: -7.117782930      1.778      4.753
REMARK  9 active torsions:
REMARK  status: ('A' for Active; 'I' for Inactive)
REMARK    1  A    between atoms: C2_2  and  O1_3 
REMARK    2  A    between atoms: O1_3  and  C3_4 
REMARK    3  A    between atoms: C9_10  and  C10_11 
REMARK    4  A    between atoms: C10_11  and  O2_12 
REMARK    5  A    between atoms: C12_16  and  O4_17 
REMARK    6  A    between atoms: O4_17  and  C13_18 
REMARK    7  A    between atoms: C15_21  and  C16_22 
REMARK    8  A    between atoms: C16_22  and  C17_23 
REMARK    9  A    between atoms: C19_26  and  O7_28 
ROOT
HETATM    1  C3  UNL     1      23.769   7.251   1.410  1.00  0.00     0.169 C 
HETATM    2  C4  UNL     1      23.920   7.000  -0.079  1.00  0.00     0.073 C 
HETATM    3  C5  UNL     1      23.843   8.447  -0.606  1.00  0.00    -0.013 C 
HETATM    4  C6  UNL     1      23.670   8.501  -2.080  1.00  0.00     0.010 C 
HETATM    5  C7  UNL     1      22.529   8.781   0.139  1.00  0.00     0.015 C 
HETATM    6  C8  UNL     1      23.081   8.603   1.525  1.00  0.00     0.062 C 
HETATM    7  C9  UNL     1      22.056   8.511   2.613  1.00  0.00     0.028 C 
HETATM    8  C11 UNL     1      22.130   7.090   2.971  1.00  0.00     0.167 C 
HETATM    9  O3  UNL     1      22.904   6.423   2.030  1.00  0.00    -0.346 OA
HETATM   10  C12 UNL     1      22.622   6.687   4.339  1.00  0.00     0.169 C 
HETATM   11  C15 UNL     1      22.988   7.810   5.210  1.00  0.00     0.059 C 
HETATM   12  C19 UNL     1      22.133   9.057   5.084  1.00  0.00     0.068 C 
HETATM   13  C20 UNL     1      20.828   8.823   5.742  1.00  0.00     0.047 C 
HETATM   14  C21 UNL     1      22.162   9.546   3.688  1.00  0.00    -0.004 C 
HETATM   15  C22 UNL     1      23.527  10.273   3.536  1.00  0.00     0.019 C 
HETATM   16  C23 UNL     1      21.237  10.729   3.552  1.00  0.00     0.019 C 
ENDROOT
BRANCH  10  17
HETATM   17  O4  UNL     1      21.635   5.869   4.968  1.00  0.00    -0.313 OA
BRANCH  17  18
HETATM   18  C13 UNL     1      21.285   4.603   4.573  1.00  0.00     0.255 C 
HETATM   19  C14 UNL     1      19.882   4.253   4.174  1.00  0.00     0.126 C 
HETATM   20  O5  UNL     1      22.146   3.696   4.539  1.00  0.00    -0.266 OA
ENDBRANCH  17  18
ENDBRANCH  10  17
BRANCH  11  21
HETATM   21  C16 UNL     1      23.114   7.494   6.668  1.00  0.00     0.088 C 
BRANCH  21  22
HETATM   22  C17 UNL     1      24.479   7.548   7.217  1.00  0.00     0.123 C 
HETATM   23  C18 UNL     1      25.221   6.305   7.446  1.00  0.00     0.091 C 
HETATM   24  O6  UNL     1      24.984   8.614   7.478  1.00  0.00    -0.298 OA
ENDBRANCH  21  22
ENDBRANCH  11  21
BRANCH   7  25
HETATM   25  C10 UNL     1      20.694   8.715   1.924  1.00  0.00     0.177 C 
BRANCH  25  26
HETATM   26  O2  UNL     1      19.651   8.148   2.652  1.00  0.00    -0.400 OA
ATOM     27  H2  UNL     1      19.626   7.203   2.561  1.00  0.00     0.209 HD
ENDBRANCH  25  26
ENDBRANCH   7  25
BRANCH  12  28
HETATM   28  O7  UNL     1      22.815   9.981   5.925  1.00  0.00    -0.389 OA
ATOM     29  H7  UNL     1      22.920  10.735   5.357  1.00  0.00     0.210 HD
ENDBRANCH  12  28
BRANCH   1  30
HETATM   30  O1  UNL     1      25.027   7.328   1.937  1.00  0.00    -0.355 OA
BRANCH  30  31
HETATM   31  C2  UNL     1      25.646   6.168   2.281  1.00  0.00     0.167 C 
HETATM   32  C1  UNL     1      25.954   6.069   3.766  1.00  0.00     0.033 C 
ENDBRANCH  30  31
ENDBRANCH   1  30
TORSDOF 9
ENDMDL
MODEL 4
REMARK VINA RESULT: -7.113839567      4.129      7.720
REMARK  9 active torsions:
REMARK  status: ('A' for Active; 'I' for Inactive)
REMARK    1  A    between atoms: C2_2  and  O1_3 
REMARK    2  A    between atoms: O1_3  and  C3_4 
REMARK    3  A    between atoms: C9_10  and  C10_11 
REMARK    4  A    between atoms: C10_11  and  O2_12 
REMARK    5  A    between atoms: C12_16  and  O4_17 
REMARK    6  A    between atoms: O4_17  and  C13_18 
REMARK    7  A    between atoms: C15_21  and  C16_22 
REMARK    8  A    between atoms: C16_22  and  C17_23 
REMARK    9  A    between atoms: C19_26  and  O7_28 
ROOT
HETATM    1  C3  UNL     1      16.006   9.363   4.436  1.00  0.00     0.169 C 
HETATM    2  C4  UNL     1      15.588   9.263   5.892  1.00  0.00     0.073 C 
HETATM    3  C5  UNL     1      14.367   8.331   5.759  1.00  0.00    -0.013 C 
HETATM    4  C6  UNL     1      13.560   8.279   7.004  1.00  0.00     0.010 C 
HETATM    5  C7  UNL     1      13.680   9.180   4.664  1.00  0.00     0.015 C 
HETATM    6  C8  UNL     1      14.761   9.017   3.633  1.00  0.00     0.062 C 
HETATM    7  C9  UNL     1      14.682   9.958   2.471  1.00  0.00     0.028 C 
HETATM    8  C11 UNL     1      15.808  10.860   2.742  1.00  0.00     0.167 C 
HETATM    9  O3  UNL     1      16.289  10.614   4.022  1.00  0.00    -0.346 OA
HETATM   10  C12 UNL     1      16.988  10.886   1.805  1.00  0.00     0.169 C 
HETATM   11  C15 UNL     1      16.882   9.968   0.665  1.00  0.00     0.059 C 
HETATM   12  C19 UNL     1      15.494   9.792   0.079  1.00  0.00     0.068 C 
HETATM   13  C20 UNL     1      15.140  10.994  -0.709  1.00  0.00     0.047 C 
HETATM   14  C21 UNL     1      14.564   9.314   1.126  1.00  0.00    -0.004 C 
HETATM   15  C22 UNL     1      14.865   7.798   1.280  1.00  0.00     0.019 C 
HETATM   16  C23 UNL     1      13.170   9.232   0.559  1.00  0.00     0.019 C 
ENDROOT
BRANCH  10  17
HETATM   17  O4  UNL     1      17.195  12.224   1.350  1.00  0.00    -0.313 OA
BRANCH  17  18
HETATM   18  C13 UNL     1      18.240  13.033   1.715  1.00  0.00     0.255 C 
HETATM   19  C14 UNL     1      18.102  14.524   1.795  1.00  0.00     0.126 C 
HETATM   20  O5  UNL     1      19.353  12.533   1.994  1.00  0.00    -0.266 OA
ENDBRANCH  17  18
ENDBRANCH  10  17
BRANCH  11  21
HETATM   21  C16 UNL     1      17.822  10.222  -0.472  1.00  0.00     0.088 C 
BRANCH  21  22
HETATM   22  C17 UNL     1      19.216   9.798  -0.256  1.00  0.00     0.123 C 
HETATM   23  C18 UNL     1      19.643   9.356   1.075  1.00  0.00     0.091 C 
HETATM   24  O6  UNL     1      20.002   9.816  -1.172  1.00  0.00    -0.298 OA
ENDBRANCH  21  22
ENDBRANCH  11  21
BRANCH   7  25
HETATM   25  C10 UNL     1      13.402  10.786   2.688  1.00  0.00     0.177 C 
BRANCH  25  26
HETATM   26  O2  UNL     1      13.670  12.019   3.276  1.00  0.00    -0.400 OA
ATOM     27  H2  UNL     1      12.955  12.313   3.829  1.00  0.00     0.209 HD
ENDBRANCH  25  26
ENDBRANCH   7  25
BRANCH  12  28
HETATM   28  O7  UNL     1      15.695   8.762  -0.883  1.00  0.00    -0.389 OA
ATOM     29  H7  UNL     1      16.594   8.907  -1.152  1.00  0.00     0.210 HD
ENDBRANCH  12  28
BRANCH   1  30
HETATM   30  O1  UNL     1      16.968   8.415   4.226  1.00  0.00    -0.355 OA
BRANCH  30  31
HETATM   31  C2  UNL     1      18.224   8.674   4.674  1.00  0.00     0.167 C 
HETATM   32  C1  UNL     1      19.219   7.575   4.339  1.00  0.00     0.033 C 
ENDBRANCH  30  31
ENDBRANCH   1  30
TORSDOF 9
ENDMDL
MODEL 5
REMARK VINA RESULT: -6.898573846      1.624      2.331
REMARK  9 active torsions:
REMARK  status: ('A' for Active; 'I' for Inactive)
REMARK    1  A    between atoms: C2_2  and  O1_3 
REMARK    2  A    between atoms: O1_3  and  C3_4 
REMARK    3  A    between atoms: C9_10  and  C10_11 
REMARK    4  A    between atoms: C10_11  and  O2_12 
REMARK    5  A    between atoms: C12_16  and  O4_17 
REMARK    6  A    between atoms: O4_17  and  C13_18 
REMARK    7  A    between atoms: C15_21  and  C16_22 
REMARK    8  A    between atoms: C16_22  and  C17_23 
REMARK    9  A    between atoms: C19_26  and  O7_28 
ROOT
HETATM    1  C3  UNL     1      21.371   8.828   2.014  1.00  0.00     0.169 C 
HETATM    2  C4  UNL     1      20.282   9.332   1.085  1.00  0.00     0.073 C 
HETATM    3  C5  UNL     1      20.329  10.839   1.407  1.00  0.00    -0.013 C 
HETATM    4  C6  UNL     1      19.161  11.569   0.854  1.00  0.00     0.010 C 
HETATM    5  C7  UNL     1      20.211  10.643   2.937  1.00  0.00     0.015 C 
HETATM    6  C8  UNL     1      21.498   9.885   3.101  1.00  0.00     0.062 C 
HETATM    7  C9  UNL     1      21.663   9.183   4.414  1.00  0.00     0.028 C 
HETATM    8  C11 UNL     1      21.499   7.778   4.022  1.00  0.00     0.167 C 
HETATM    9  O3  UNL     1      21.042   7.722   2.711  1.00  0.00    -0.346 OA
HETATM   10  C12 UNL     1      22.661   6.827   4.145  1.00  0.00     0.169 C 
HETATM   11  C15 UNL     1      23.891   7.431   4.671  1.00  0.00     0.059 C 
HETATM   12  C19 UNL     1      23.707   8.493   5.738  1.00  0.00     0.068 C 
HETATM   13  C20 UNL     1      23.343   7.843   7.017  1.00  0.00     0.047 C 
HETATM   14  C21 UNL     1      22.859   9.587   5.215  1.00  0.00    -0.004 C 
HETATM   15  C22 UNL     1      23.795  10.433   4.308  1.00  0.00     0.019 C 
HETATM   16  C23 UNL     1      22.605  10.592   6.311  1.00  0.00     0.019 C 
ENDROOT
BRANCH  10  17
HETATM   17  O4  UNL     1      22.270   5.712   4.948  1.00  0.00    -0.313 OA
BRANCH  17  18
HETATM   18  C13 UNL     1      22.120   4.424   4.499  1.00  0.00     0.255 C 
HETATM   19  C14 UNL     1      21.202   4.079   3.365  1.00  0.00     0.126 C 
HETATM   20  O5  UNL     1      22.760   3.494   5.039  1.00  0.00    -0.266 OA
ENDBRANCH  17  18
ENDBRANCH  10  17
BRANCH  11  21
HETATM   21  C16 UNL     1      24.933   6.475   5.161  1.00  0.00     0.088 C 
BRANCH  21  22
HETATM   22  C17 UNL     1      25.638   5.709   4.120  1.00  0.00     0.123 C 
HETATM   23  C18 UNL     1      25.954   6.345   2.838  1.00  0.00     0.091 C 
HETATM   24  O6  UNL     1      25.954   4.561   4.323  1.00  0.00    -0.298 OA
ENDBRANCH  21  22
ENDBRANCH  11  21
BRANCH   7  25
HETATM   25  C10 UNL     1      20.419   9.551   5.244  1.00  0.00     0.177 C 
BRANCH  25  26
HETATM   26  O2  UNL     1      19.698   8.424   5.631  1.00  0.00    -0.400 OA
ATOM     27  H2  UNL     1      18.778   8.619   5.767  1.00  0.00     0.209 HD
ENDBRANCH  25  26
ENDBRANCH   7  25
BRANCH  12  28
HETATM   28  O7  UNL     1      25.035   8.971   5.927  1.00  0.00    -0.389 OA
ATOM     29  H7  UNL     1      24.944   9.531   6.688  1.00  0.00     0.210 HD
ENDBRANCH  12  28
BRANCH   1  30
HETATM   30  O1  UNL     1      22.528   8.773   1.288  1.00  0.00    -0.355 OA
BRANCH  30  31
HETATM   31  C2  UNL     1      22.721   7.697   0.479  1.00  0.00     0.167 C 
HETATM   32  C1  UNL     1      23.824   7.907  -0.545  1.00  0.00     0.033 C 
ENDBRANCH  30  31
ENDBRANCH   1  30
TORSDOF 9
ENDMDL
