MODEL 1
REMARK VINA RESULT: -9.595732166      0.000      0.000
REMARK  6 active torsions:
REMARK  status: ('A' for Active; 'I' for Inactive)
REMARK    1  A    between atoms: C4_4  and  S1_5 
REMARK    2  A    between atoms: S1_5  and  C5_6 
REMARK    3  A    between atoms: C5_6  and  C6_7 
REMARK    4  A    between atoms: C6_7  and  N1_8 
REMARK    5  A    between atoms: N4_17  and  C10_18 
REMARK    6  A    between atoms: N5_21  and  C13_22 
ROOT
HETATM    1  N1  UNL     1      16.721   9.363   5.463  1.00  0.00    -0.370 N 
ATOM      2  H1  UNL     1      16.534   9.294   6.462  1.00  0.00     0.161 HD
HETATM    3  C7  UNL     1      15.689   9.258   4.745  1.00  0.00     0.185 A 
HETATM    4  N2  UNL     1      14.515   9.072   5.427  1.00  0.00    -0.280 N 
ATOM      5  H2  UNL     1      14.508   9.022   6.446  1.00  0.00     0.188 HD
HETATM    6  N3  UNL     1      13.402   8.958   4.747  1.00  0.00    -0.287 N 
ATOM      7  H3  UNL     1      12.534   8.819   5.263  1.00  0.00     0.188 HD
HETATM    8  C8  UNL     1      13.341   9.015   3.379  1.00  0.00     0.097 A 
HETATM    9  C9  UNL     1      12.082   8.889   2.658  1.00  0.00     0.091 C 
HETATM   10  N4  UNL     1      14.451   9.194   2.665  1.00  0.00    -0.294 N 
HETATM   11  C21 UNL     1      15.608   9.312   3.380  1.00  0.00     0.294 A 
HETATM   12  O1  UNL     1      16.709   9.486   2.751  1.00  0.00    -0.264 OA
ENDROOT
BRANCH   1  13
HETATM   13  C6  UNL     1      18.085   9.557   5.155  1.00  0.00     0.132 C 
BRANCH  13  14
HETATM   14  C5  UNL     1      18.905   8.270   5.252  1.00  0.00     0.100 C 
BRANCH  14  15
HETATM   15  S1  UNL     1      20.601   8.589   4.740  1.00  0.00    -0.109 SA
BRANCH  15  16
HETATM   16  C4  UNL     1      20.774   8.649   2.973  1.00  0.00     0.086 A 
HETATM   17  C3  UNL     1      21.922   8.589   2.210  1.00  0.00     0.064 A 
HETATM   18  C2  UNL     1      21.594   8.682   0.852  1.00  0.00     0.024 A 
HETATM   19  C1  UNL     1      22.569   8.653  -0.268  1.00  0.00     0.070 C 
HETATM   20  N7  UNL     1      20.266   8.793   0.837  1.00  0.00    -0.304 N 
HETATM   21  N6  UNL     1      19.773   8.777   2.058  1.00  0.00    -0.294 N 
ATOM     22  H7  UNL     1      19.705   8.880  -0.010  1.00  0.00     0.186 HD
ATOM     23  H6  UNL     1      18.781   8.849   2.286  1.00  0.00     0.187 HD
ENDBRANCH  15  16
ENDBRANCH  14  15
ENDBRANCH  13  14
ENDBRANCH   1  13
BRANCH  10  24
HETATM   24  C10 UNL     1      14.543   9.275   1.293  1.00  0.00     0.104 C 
HETATM   25  C11 UNL     1      14.297   8.214   0.334  1.00  0.00     0.071 C 
HETATM   26  C12 UNL     1      14.919   8.646  -1.012  1.00  0.00     0.065 C 
HETATM   27  N5  UNL     1      14.765   9.981  -1.332  1.00  0.00    -0.369 N 
HETATM   28  C19 UNL     1      14.125  10.885  -0.487  1.00  0.00     0.065 C 
HETATM   29  C20 UNL     1      13.627  10.431   0.827  1.00  0.00     0.071 C 
BRANCH  27  30
HETATM   30  C13 UNL     1      14.566  10.279  -2.730  1.00  0.00     0.088 C 
HETATM   31  C14 UNL     1      15.667   9.722  -3.567  1.00  0.00     0.026 C 
HETATM   32  C15 UNL     1      15.447   9.840  -5.031  1.00  0.00     0.002 C 
HETATM   33  C16 UNL     1      13.997   9.937  -5.425  1.00  0.00     0.000 C 
HETATM   34  C17 UNL     1      13.089   9.217  -4.455  1.00  0.00     0.002 C 
HETATM   35  C18 UNL     1      13.184   9.901  -3.129  1.00  0.00     0.026 C 
ENDBRANCH  27  30
ENDBRANCH  10  24
TORSDOF 6
ENDMDL
MODEL 2
REMARK VINA RESULT: -9.544408303      1.655      2.507
REMARK  6 active torsions:
REMARK  status: ('A' for Active; 'I' for Inactive)
REMARK    1  A    between atoms: C4_4  and  S1_5 
REMARK    2  A    between atoms: S1_5  and  C5_6 
REMARK    3  A    between atoms: C5_6  and  C6_7 
REMARK    4  A    between atoms: C6_7  and  N1_8 
REMARK    5  A    between atoms: N4_17  and  C10_18 
REMARK    6  A    between atoms: N5_21  and  C13_22 
ROOT
HETATM    1  N1  UNL     1      19.138   7.539   5.837  1.00  0.00    -0.370 N 
ATOM      2  H1  UNL     1      19.217   7.286   6.822  1.00  0.00     0.161 HD
HETATM    3  C7  UNL     1      18.129   8.251   5.577  1.00  0.00     0.185 A 
HETATM    4  N2  UNL     1      17.330   8.552   6.649  1.00  0.00    -0.280 N 
ATOM      5  H2  UNL     1      17.559   8.208   7.581  1.00  0.00     0.188 HD
HETATM    6  N3  UNL     1      16.267   9.290   6.454  1.00  0.00    -0.287 N 
ATOM      7  H3  UNL     1      15.678   9.509   7.257  1.00  0.00     0.188 HD
HETATM    8  C8  UNL     1      15.901   9.784   5.229  1.00  0.00     0.097 A 
HETATM    9  C9  UNL     1      14.712  10.607   5.053  1.00  0.00     0.091 C 
HETATM   10  N4  UNL     1      16.640   9.523   4.152  1.00  0.00    -0.294 N 
HETATM   11  C21 UNL     1      17.748   8.752   4.363  1.00  0.00     0.294 A 
HETATM   12  O1  UNL     1      18.499   8.465   3.367  1.00  0.00    -0.264 OA
ENDROOT
BRANCH   1  13
HETATM   13  C6  UNL     1      20.178   7.024   5.034  1.00  0.00     0.132 C 
BRANCH  13  14
HETATM   14  C5  UNL     1      21.548   7.597   5.398  1.00  0.00     0.100 C 
BRANCH  14  15
HETATM   15  S1  UNL     1      21.894   9.041   4.381  1.00  0.00    -0.109 SA
BRANCH  15  16
HETATM   16  C4  UNL     1      21.972   8.647   2.650  1.00  0.00     0.086 A 
HETATM   17  C3  UNL     1      23.078   8.534   1.834  1.00  0.00     0.064 A 
HETATM   18  C2  UNL     1      22.675   8.216   0.531  1.00  0.00     0.024 A 
HETATM   19  C1  UNL     1      23.589   8.014  -0.622  1.00  0.00     0.070 C 
HETATM   20  N7  UNL     1      21.346   8.147   0.601  1.00  0.00    -0.304 N 
HETATM   21  N6  UNL     1      20.920   8.394   1.822  1.00  0.00    -0.294 N 
ATOM     22  H7  UNL     1      20.739   7.930  -0.189  1.00  0.00     0.186 HD
ATOM     23  H6  UNL     1      19.940   8.396   2.107  1.00  0.00     0.187 HD
ENDBRANCH  15  16
ENDBRANCH  14  15
ENDBRANCH  13  14
ENDBRANCH   1  13
BRANCH  10  24
HETATM   24  C10 UNL     1      16.401   9.951   2.865  1.00  0.00     0.104 C 
HETATM   25  C11 UNL     1      17.389  10.304   1.862  1.00  0.00     0.071 C 
HETATM   26  C12 UNL     1      16.666  11.103   0.755  1.00  0.00     0.065 C 
HETATM   27  N5  UNL     1      15.406  10.644   0.422  1.00  0.00    -0.369 N 
HETATM   28  C19 UNL     1      14.811   9.558   1.061  1.00  0.00     0.065 C 
HETATM   29  C20 UNL     1      15.516   8.887   2.173  1.00  0.00     0.071 C 
BRANCH  27  30
HETATM   30  C13 UNL     1      15.041  10.746  -0.970  1.00  0.00     0.088 C 
HETATM   31  C14 UNL     1      15.613   9.621  -1.766  1.00  0.00     0.026 C 
HETATM   32  C15 UNL     1      15.143   9.562  -3.173  1.00  0.00     0.002 C 
HETATM   33  C16 UNL     1      13.806  10.217  -3.399  1.00  0.00     0.000 C 
HETATM   34  C17 UNL     1      12.922  10.157  -2.174  1.00  0.00     0.002 C 
HETATM   35  C18 UNL     1      13.573  10.952  -1.088  1.00  0.00     0.026 C 
ENDBRANCH  27  30
ENDBRANCH  10  24
TORSDOF 6
ENDMDL
MODEL 3
REMARK VINA RESULT: -9.530837080      2.598      3.118
REMARK  6 active torsions:
REMARK  status: ('A' for Active; 'I' for Inactive)
REMARK    1  A    between atoms: C4_4  and  S1_5 
REMARK    2  A    between atoms: S1_5  and  C5_6 
REMARK    3  A    between atoms: C5_6  and  C6_7 
REMARK    4  A    between atoms: C6_7  and  N1_8 
REMARK    5  A    between atoms: N4_17  and  C10_18 
REMARK    6  A    between atoms: N5_21  and  C13_22 
ROOT
HETATM    1  N1  UNL     1      19.270   8.657   5.741  1.00  0.00    -0.370 N 
ATOM      2  H1  UNL     1      19.420   8.573   6.746  1.00  0.00     0.161 HD
HETATM    3  C7  UNL     1      18.057   8.792   5.420  1.00  0.00     0.185 A 
HETATM    4  N2  UNL     1      17.169   8.800   6.464  1.00  0.00    -0.280 N 
ATOM      5  H2  UNL     1      17.496   8.698   7.425  1.00  0.00     0.188 HD
HETATM    6  N3  UNL     1      15.894   8.939   6.205  1.00  0.00    -0.287 N 
ATOM      7  H3  UNL     1      15.241   8.944   6.988  1.00  0.00     0.188 HD
HETATM    8  C8  UNL     1      15.388   9.079   4.939  1.00  0.00     0.097 A 
HETATM    9  C9  UNL     1      13.961   9.238   4.692  1.00  0.00     0.091 C 
HETATM   10  N4  UNL     1      16.204   9.079   3.887  1.00  0.00    -0.294 N 
HETATM   11  C21 UNL     1      17.534   8.933   4.164  1.00  0.00     0.294 A 
HETATM   12  O1  UNL     1      18.369   8.924   3.194  1.00  0.00    -0.264 OA
ENDROOT
BRANCH   1  13
HETATM   13  C6  UNL     1      20.460   8.601   4.984  1.00  0.00     0.132 C 
BRANCH  13  14
HETATM   14  C5  UNL     1      21.589   7.867   5.707  1.00  0.00     0.100 C 
BRANCH  14  15
HETATM   15  S1  UNL     1      22.290   6.611   4.625  1.00  0.00    -0.109 SA
BRANCH  15  16
HETATM   16  C4  UNL     1      21.112   5.352   4.198  1.00  0.00     0.086 A 
HETATM   17  C3  UNL     1      21.304   4.190   3.478  1.00  0.00     0.064 A 
HETATM   18  C2  UNL     1      20.095   3.492   3.373  1.00  0.00     0.024 A 
HETATM   19  C1  UNL     1      19.912   2.197   2.670  1.00  0.00     0.070 C 
HETATM   20  N7  UNL     1      19.216   4.249   4.029  1.00  0.00    -0.304 N 
HETATM   21  N6  UNL     1      19.787   5.331   4.514  1.00  0.00    -0.294 N 
ATOM     22  H7  UNL     1      18.229   4.019   4.141  1.00  0.00     0.186 HD
ATOM     23  H6  UNL     1      19.306   6.052   5.051  1.00  0.00     0.187 HD
ENDBRANCH  15  16
ENDBRANCH  14  15
ENDBRANCH  13  14
ENDBRANCH   1  13
BRANCH  10  24
HETATM   24  C10 UNL     1      15.843   9.213   2.564  1.00  0.00     0.104 C 
HETATM   25  C11 UNL     1      14.596   8.798   1.950  1.00  0.00     0.071 C 
HETATM   26  C12 UNL     1      14.813   8.769   0.421  1.00  0.00     0.065 C 
HETATM   27  N5  UNL     1      15.580   9.801  -0.086  1.00  0.00    -0.369 N 
HETATM   28  C19 UNL     1      16.146  10.782   0.725  1.00  0.00     0.065 C 
HETATM   29  C20 UNL     1      15.975  10.709   2.191  1.00  0.00     0.071 C 
BRANCH  27  30
HETATM   30  C13 UNL     1      15.194  10.299  -1.384  1.00  0.00     0.088 C 
HETATM   31  C14 UNL     1      15.901   9.572  -2.478  1.00  0.00     0.026 C 
HETATM   32  C15 UNL     1      15.432   9.910  -3.845  1.00  0.00     0.002 C 
HETATM   33  C16 UNL     1      14.019  10.428  -3.895  1.00  0.00     0.000 C 
HETATM   34  C17 UNL     1      13.161   9.865  -2.786  1.00  0.00     0.002 C 
HETATM   35  C18 UNL     1      13.711  10.345  -1.481  1.00  0.00     0.026 C 
ENDBRANCH  27  30
ENDBRANCH  10  24
TORSDOF 6
ENDMDL
MODEL 4
REMARK VINA RESULT: -9.492818444      1.796      2.379
REMARK  6 active torsions:
REMARK  status: ('A' for Active; 'I' for Inactive)
REMARK    1  A    between atoms: C4_4  and  S1_5 
REMARK    2  A    between atoms: S1_5  and  C5_6 
REMARK    3  A    between atoms: C5_6  and  C6_7 
REMARK    4  A    between atoms: C6_7  and  N1_8 
REMARK    5  A    between atoms: N4_17  and  C10_18 
REMARK    6  A    between atoms: N5_21  and  C13_22 
ROOT
HETATM    1  N1  UNL     1      19.323   8.530   5.770  1.00  0.00    -0.370 N 
ATOM      2  H1  UNL     1      19.495   8.444   6.771  1.00  0.00     0.161 HD
HETATM    3  C7  UNL     1      18.108   8.700   5.478  1.00  0.00     0.185 A 
HETATM    4  N2  UNL     1      17.246   8.737   6.543  1.00  0.00    -0.280 N 
ATOM      5  H2  UNL     1      17.593   8.629   7.496  1.00  0.00     0.188 HD
HETATM    6  N3  UNL     1      15.970   8.914   6.315  1.00  0.00    -0.287 N 
ATOM      7  H3  UNL     1      15.336   8.940   7.113  1.00  0.00     0.188 HD
HETATM    8  C8  UNL     1      15.438   9.065   5.061  1.00  0.00     0.097 A 
HETATM    9  C9  UNL     1      14.011   9.265   4.848  1.00  0.00     0.091 C 
HETATM   10  N4  UNL     1      16.227   9.037   3.989  1.00  0.00    -0.294 N 
HETATM   11  C21 UNL     1      17.558   8.852   4.234  1.00  0.00     0.294 A 
HETATM   12  O1  UNL     1      18.369   8.815   3.244  1.00  0.00    -0.264 OA
ENDROOT
BRANCH   1  13
HETATM   13  C6  UNL     1      20.492   8.435   4.984  1.00  0.00     0.132 C 
BRANCH  13  14
HETATM   14  C5  UNL     1      21.377   9.678   5.084  1.00  0.00     0.100 C 
BRANCH  14  15
HETATM   15  S1  UNL     1      22.235   9.942   3.524  1.00  0.00    -0.109 SA
BRANCH  15  16
HETATM   16  C4  UNL     1      21.137  10.462   2.228  1.00  0.00     0.086 A 
HETATM   17  C3  UNL     1      20.745   9.780   1.095  1.00  0.00     0.064 A 
HETATM   18  C2  UNL     1      19.873  10.574   0.341  1.00  0.00     0.024 A 
HETATM   19  C1  UNL     1      19.245  10.174  -0.944  1.00  0.00     0.070 C 
HETATM   20  N7  UNL     1      19.765  11.705   1.038  1.00  0.00    -0.304 N 
HETATM   21  N6  UNL     1      20.491  11.658   2.135  1.00  0.00    -0.294 N 
ATOM     22  H7  UNL     1      19.194  12.502   0.758  1.00  0.00     0.186 HD
ATOM     23  H6  UNL     1      20.560  12.412   2.820  1.00  0.00     0.187 HD
ENDBRANCH  15  16
ENDBRANCH  14  15
ENDBRANCH  13  14
ENDBRANCH   1  13
BRANCH  10  24
HETATM   24  C10 UNL     1      15.838   9.177   2.675  1.00  0.00     0.104 C 
HETATM   25  C11 UNL     1      14.582   8.756   2.083  1.00  0.00     0.071 C 
HETATM   26  C12 UNL     1      14.769   8.740   0.550  1.00  0.00     0.065 C 
HETATM   27  N5  UNL     1      15.516   9.783   0.035  1.00  0.00    -0.369 N 
HETATM   28  C19 UNL     1      16.090  10.763   0.842  1.00  0.00     0.065 C 
HETATM   29  C20 UNL     1      15.950  10.677   2.310  1.00  0.00     0.071 C 
BRANCH  27  30
HETATM   30  C13 UNL     1      15.099  10.286  -1.252  1.00  0.00     0.088 C 
HETATM   31  C14 UNL     1      15.822   9.603  -2.363  1.00  0.00     0.026 C 
HETATM   32  C15 UNL     1      15.327   9.945  -3.720  1.00  0.00     0.002 C 
HETATM   33  C16 UNL     1      13.895  10.412  -3.749  1.00  0.00     0.000 C 
HETATM   34  C17 UNL     1      13.069   9.801  -2.641  1.00  0.00     0.002 C 
HETATM   35  C18 UNL     1      13.615  10.279  -1.333  1.00  0.00     0.026 C 
ENDBRANCH  27  30
ENDBRANCH  10  24
TORSDOF 6
ENDMDL
MODEL 5
REMARK VINA RESULT: -9.476133766      3.323      5.019
REMARK  6 active torsions:
REMARK  status: ('A' for Active; 'I' for Inactive)
REMARK    1  A    between atoms: C4_4  and  S1_5 
REMARK    2  A    between atoms: S1_5  and  C5_6 
REMARK    3  A    between atoms: C5_6  and  C6_7 
REMARK    4  A    between atoms: C6_7  and  N1_8 
REMARK    5  A    between atoms: N4_17  and  C10_18 
REMARK    6  A    between atoms: N5_21  and  C13_22 
ROOT
HETATM    1  N1  UNL     1      22.305   9.568   0.938  1.00  0.00    -0.370 N 
ATOM      2  H1  UNL     1      23.085   9.965   1.461  1.00  0.00     0.161 HD
HETATM    3  C7  UNL     1      21.223  10.200   1.086  1.00  0.00     0.185 A 
HETATM    4  N2  UNL     1      21.287  11.292   1.912  1.00  0.00    -0.280 N 
ATOM      5  H2  UNL     1      22.164  11.550   2.365  1.00  0.00     0.188 HD
HETATM    6  N3  UNL     1      20.203  11.997   2.110  1.00  0.00    -0.287 N 
ATOM      7  H3  UNL     1      20.260  12.807   2.726  1.00  0.00     0.188 HD
HETATM    8  C8  UNL     1      18.994  11.705   1.533  1.00  0.00     0.097 A 
HETATM    9  C9  UNL     1      17.809  12.518   1.773  1.00  0.00     0.091 C 
HETATM   10  N4  UNL     1      18.873  10.656   0.722  1.00  0.00    -0.294 N 
HETATM   11  C21 UNL     1      20.008   9.925   0.520  1.00  0.00     0.294 A 
HETATM   12  O1  UNL     1      19.956   8.903  -0.250  1.00  0.00    -0.264 OA
ENDROOT
BRANCH   1  13
HETATM   13  C6  UNL     1      22.649   8.421   0.192  1.00  0.00     0.132 C 
BRANCH  13  14
HETATM   14  C5  UNL     1      23.840   7.664   0.781  1.00  0.00     0.100 C 
BRANCH  14  15
HETATM   15  S1  UNL     1      23.721   7.643   2.576  1.00  0.00    -0.109 SA
BRANCH  15  16
HETATM   16  C4  UNL     1      23.166   6.075   3.199  1.00  0.00     0.086 A 
HETATM   17  C3  UNL     1      21.923   5.485   3.086  1.00  0.00     0.064 A 
HETATM   18  C2  UNL     1      21.926   4.246   3.738  1.00  0.00     0.024 A 
HETATM   19  C1  UNL     1      20.765   3.323   3.826  1.00  0.00     0.070 C 
HETATM   20  N7  UNL     1      23.161   4.126   4.222  1.00  0.00    -0.304 N 
HETATM   21  N6  UNL     1      23.895   5.177   3.920  1.00  0.00    -0.294 N 
ATOM     22  H7  UNL     1      23.496   3.325   4.756  1.00  0.00     0.186 HD
ATOM     23  H6  UNL     1      24.872   5.301   4.187  1.00  0.00     0.187 HD
ENDBRANCH  15  16
ENDBRANCH  14  15
ENDBRANCH  13  14
ENDBRANCH   1  13
BRANCH  10  24
HETATM   24  C10 UNL     1      17.730  10.245   0.072  1.00  0.00     0.104 C 
HETATM   25  C11 UNL     1      16.357  10.490   0.473  1.00  0.00     0.071 C 
HETATM   26  C12 UNL     1      15.458   9.506  -0.308  1.00  0.00     0.065 C 
HETATM   27  N5  UNL     1      15.817   9.298  -1.626  1.00  0.00    -0.369 N 
HETATM   28  C19 UNL     1      16.930   9.904  -2.204  1.00  0.00     0.065 C 
HETATM   29  C20 UNL     1      17.803  10.767  -1.383  1.00  0.00     0.071 C 
BRANCH  27  30
HETATM   30  C13 UNL     1      14.730   9.112  -2.557  1.00  0.00     0.088 C 
HETATM   31  C14 UNL     1      13.528   9.897  -2.152  1.00  0.00     0.026 C 
HETATM   32  C15 UNL     1      12.427   9.892  -3.148  1.00  0.00     0.002 C 
HETATM   33  C16 UNL     1      12.881   9.633  -4.560  1.00  0.00     0.000 C 
HETATM   34  C17 UNL     1      14.290  10.121  -4.809  1.00  0.00     0.002 C 
HETATM   35  C18 UNL     1      15.218   9.330  -3.944  1.00  0.00     0.026 C 
ENDBRANCH  27  30
ENDBRANCH  10  24
TORSDOF 6
ENDMDL
