MODEL 1
REMARK VINA RESULT: -8.659658208      0.000      0.000
REMARK  9 active torsions:
REMARK  status: ('A' for Active; 'I' for Inactive)
REMARK    1  A    between atoms: O1_2  and  C2_3 
REMARK       I    between atoms: C2_3  and  N1_5 
REMARK    2  A    between atoms: N1_5  and  C3_7 
REMARK    3  A    between atoms: C3_7  and  C4_8 
REMARK    4  A    between atoms: C4_8  and  O3_9 
REMARK    5  A    between atoms: O3_9  and  N2_10 
REMARK    6  A    between atoms: C9_16  and  O4_17 
REMARK    7  A    between atoms: O4_17  and  C10_18 
REMARK    8  A    between atoms: C10_18  and  C11_20 
REMARK    9  A    between atoms: C11_20  and  O6_21 
ROOT
HETATM    1  N2  UNL     1      13.432   8.835   2.782  1.00  0.00    -0.275 N 
ATOM      2  H2  UNL     1      12.465   8.886   2.461  1.00  0.00     0.193 HD
HETATM    3  C5  UNL     1      14.212   9.370   1.988  1.00  0.00     0.011 C 
HETATM    4  C6  UNL     1      15.680   9.461   2.163  1.00  0.00     0.059 C 
HETATM    5  C7  UNL     1      16.148  10.773   1.645  1.00  0.00    -0.002 C 
HETATM    6  C8  UNL     1      17.236  11.266   2.565  1.00  0.00     0.038 C 
HETATM    7  C9  UNL     1      18.406  10.327   2.381  1.00  0.00     0.132 C 
HETATM    8  C12 UNL     1      18.849  10.392   0.986  1.00  0.00     0.037 C 
HETATM    9  C13 UNL     1      17.845  10.167  -0.085  1.00  0.00    -0.011 C 
HETATM   10  C14 UNL     1      18.510  10.737  -1.351  1.00  0.00     0.010 C 
HETATM   11  C15 UNL     1      16.519  10.836   0.196  1.00  0.00    -0.001 C 
HETATM   12  C16 UNL     1      15.428  10.575  -0.728  1.00  0.00    -0.001 C 
HETATM   13  C17 UNL     1      15.782  10.111  -2.106  1.00  0.00     0.006 C 
HETATM   14  C18 UNL     1      14.408   9.909  -2.733  1.00  0.00     0.001 C 
HETATM   15  C19 UNL     1      13.415   9.884  -1.608  1.00  0.00     0.010 C 
HETATM   16  C20 UNL     1      14.339   9.614  -0.396  1.00  0.00    -0.035 C 
HETATM   17  C21 UNL     1      14.668   8.177  -0.439  1.00  0.00     0.016 C 
HETATM   18  C22 UNL     1      13.502   9.954   0.780  1.00  0.00     0.064 C 
ENDROOT
BRANCH   1  19
HETATM   19  O3  UNL     1      13.536   8.205   3.961  1.00  0.00    -0.279 OA
BRANCH  19  20
HETATM   20  C4  UNL     1      13.573   8.857   5.189  1.00  0.00     0.220 C 
BRANCH  20  21
HETATM   21  C3  UNL     1      14.894   9.074   5.812  1.00  0.00     0.153 C 
BRANCH  21  22
HETATM   22  N1  UNL     1      14.913   9.627   7.123  1.00  0.00    -0.335 N 
HETATM   23  C2  UNL     1      15.365   9.022   8.310  1.00  0.00     0.360 C 
HETATM   24  O2  UNL     1      15.827   7.860   8.323  1.00  0.00    -0.239 OA
ATOM     25  H1  UNL     1      14.556  10.579   7.213  1.00  0.00     0.164 HD
BRANCH  23  26
HETATM   26  O1  UNL     1      15.298   9.742   9.526  1.00  0.00    -0.309 OA
HETATM   27  C1  UNL     1      14.231  10.640   9.687  1.00  0.00     0.215 C 
ENDBRANCH  23  26
ENDBRANCH  21  22
ENDBRANCH  20  21
ENDBRANCH  19  20
ENDBRANCH   1  19
BRANCH   7  28
HETATM   28  O4  UNL     1      19.456  10.907   3.179  1.00  0.00    -0.314 OA
BRANCH  28  29
HETATM   29  C10 UNL     1      20.550  10.159   3.571  1.00  0.00     0.282 C 
HETATM   30  O5  UNL     1      20.272   9.170   4.328  1.00  0.00    -0.263 OA
BRANCH  29  31
HETATM   31  C11 UNL     1      21.950  10.452   3.164  1.00  0.00     0.275 C 
BRANCH  31  32
HETATM   32  O6  UNL     1      21.954  11.645   2.415  1.00  0.00    -0.391 OA
ATOM     33  H6  UNL     1      21.844  12.375   3.013  1.00  0.00     0.210 HD
ENDBRANCH  31  32
ENDBRANCH  29  31
ENDBRANCH  28  29
ENDBRANCH   7  28
TORSDOF 9
ENDMDL
MODEL 2
REMARK VINA RESULT: -8.538734278      0.795      1.264
REMARK  9 active torsions:
REMARK  status: ('A' for Active; 'I' for Inactive)
REMARK    1  A    between atoms: O1_2  and  C2_3 
REMARK       I    between atoms: C2_3  and  N1_5 
REMARK    2  A    between atoms: N1_5  and  C3_7 
REMARK    3  A    between atoms: C3_7  and  C4_8 
REMARK    4  A    between atoms: C4_8  and  O3_9 
REMARK    5  A    between atoms: O3_9  and  N2_10 
REMARK    6  A    between atoms: C9_16  and  O4_17 
REMARK    7  A    between atoms: O4_17  and  C10_18 
REMARK    8  A    between atoms: C10_18  and  C11_20 
REMARK    9  A    between atoms: C11_20  and  O6_21 
ROOT
HETATM    1  N2  UNL     1      13.441   9.110   2.988  1.00  0.00    -0.275 N 
ATOM      2  H2  UNL     1      12.471   9.234   2.696  1.00  0.00     0.193 HD
HETATM    3  C5  UNL     1      14.234   9.575   2.165  1.00  0.00     0.011 C 
HETATM    4  C6  UNL     1      15.710   9.553   2.294  1.00  0.00     0.059 C 
HETATM    5  C7  UNL     1      16.263  10.820   1.749  1.00  0.00    -0.002 C 
HETATM    6  C8  UNL     1      17.414  11.234   2.630  1.00  0.00     0.038 C 
HETATM    7  C9  UNL     1      18.501  10.205   2.421  1.00  0.00     0.132 C 
HETATM    8  C12 UNL     1      18.905  10.223   1.012  1.00  0.00     0.037 C 
HETATM    9  C13 UNL     1      17.853  10.069  -0.026  1.00  0.00    -0.011 C 
HETATM   10  C14 UNL     1      18.520  10.575  -1.317  1.00  0.00     0.010 C 
HETATM   11  C15 UNL     1      16.592  10.841   0.289  1.00  0.00    -0.001 C 
HETATM   12  C16 UNL     1      15.456  10.659  -0.600  1.00  0.00    -0.001 C 
HETATM   13  C17 UNL     1      15.730  10.157  -1.982  1.00  0.00     0.006 C 
HETATM   14  C18 UNL     1      14.325  10.058  -2.566  1.00  0.00     0.001 C 
HETATM   15  C19 UNL     1      13.369  10.120  -1.410  1.00  0.00     0.010 C 
HETATM   16  C20 UNL     1      14.306   9.789  -0.225  1.00  0.00    -0.035 C 
HETATM   17  C21 UNL     1      14.521   8.330  -0.262  1.00  0.00     0.016 C 
HETATM   18  C22 UNL     1      13.535  10.203   0.973  1.00  0.00     0.064 C 
ENDROOT
BRANCH   1  19
HETATM   19  O3  UNL     1      13.532   8.483   4.169  1.00  0.00    -0.279 OA
BRANCH  19  20
HETATM   20  C4  UNL     1      13.989   9.088   5.335  1.00  0.00     0.220 C 
BRANCH  20  21
HETATM   21  C3  UNL     1      13.489   8.566   6.623  1.00  0.00     0.153 C 
BRANCH  21  22
HETATM   22  N1  UNL     1      13.865   9.268   7.802  1.00  0.00    -0.335 N 
HETATM   23  C2  UNL     1      15.020   9.088   8.583  1.00  0.00     0.360 C 
HETATM   24  O2  UNL     1      15.887   8.236   8.291  1.00  0.00    -0.239 OA
ATOM     25  H1  UNL     1      13.217   9.990   8.119  1.00  0.00     0.164 HD
BRANCH  23  26
HETATM   26  O1  UNL     1      15.214   9.890   9.733  1.00  0.00    -0.309 OA
HETATM   27  C1  UNL     1      14.307  10.940   9.947  1.00  0.00     0.215 C 
ENDBRANCH  23  26
ENDBRANCH  21  22
ENDBRANCH  20  21
ENDBRANCH  19  20
ENDBRANCH   1  19
BRANCH   7  28
HETATM   28  O4  UNL     1      19.617  10.707   3.180  1.00  0.00    -0.314 OA
BRANCH  28  29
HETATM   29  C10 UNL     1      20.135   9.993   4.244  1.00  0.00     0.282 C 
HETATM   30  O5  UNL     1      21.358  10.245   4.505  1.00  0.00    -0.263 OA
BRANCH  29  31
HETATM   31  C11 UNL     1      19.361   9.006   5.041  1.00  0.00     0.275 C 
BRANCH  31  32
HETATM   32  O6  UNL     1      20.213   8.463   6.024  1.00  0.00    -0.391 OA
ATOM     33  H6  UNL     1      21.111   8.650   5.779  1.00  0.00     0.210 HD
ENDBRANCH  31  32
ENDBRANCH  29  31
ENDBRANCH  28  29
ENDBRANCH   7  28
TORSDOF 9
ENDMDL
MODEL 3
REMARK VINA RESULT: -8.352168373      3.528      7.419
REMARK  9 active torsions:
REMARK  status: ('A' for Active; 'I' for Inactive)
REMARK    1  A    between atoms: O1_2  and  C2_3 
REMARK       I    between atoms: C2_3  and  N1_5 
REMARK    2  A    between atoms: N1_5  and  C3_7 
REMARK    3  A    between atoms: C3_7  and  C4_8 
REMARK    4  A    between atoms: C4_8  and  O3_9 
REMARK    5  A    between atoms: O3_9  and  N2_10 
REMARK    6  A    between atoms: C9_16  and  O4_17 
REMARK    7  A    between atoms: O4_17  and  C10_18 
REMARK    8  A    between atoms: C10_18  and  C11_20 
REMARK    9  A    between atoms: C11_20  and  O6_21 
ROOT
HETATM    1  N2  UNL     1      17.705  12.322   2.760  1.00  0.00    -0.275 N 
ATOM      2  H2  UNL     1      17.719  12.873   3.618  1.00  0.00     0.193 HD
HETATM    3  C5  UNL     1      16.714  11.587   2.700  1.00  0.00     0.011 C 
HETATM    4  C6  UNL     1      16.403  10.662   1.585  1.00  0.00     0.059 C 
HETATM    5  C7  UNL     1      14.934  10.650   1.363  1.00  0.00    -0.002 C 
HETATM    6  C8  UNL     1      14.696  10.572  -0.125  1.00  0.00     0.038 C 
HETATM    7  C9  UNL     1      15.175   9.206  -0.560  1.00  0.00     0.132 C 
HETATM    8  C12 UNL     1      14.388   8.185   0.136  1.00  0.00     0.037 C 
HETATM    9  C13 UNL     1      14.306   8.245   1.618  1.00  0.00    -0.011 C 
HETATM   10  C14 UNL     1      13.094   7.362   1.965  1.00  0.00     0.010 C 
HETATM   11  C15 UNL     1      14.139   9.652   2.146  1.00  0.00    -0.001 C 
HETATM   12  C16 UNL     1      14.174   9.835   3.588  1.00  0.00    -0.001 C 
HETATM   13  C17 UNL     1      13.871   8.647   4.445  1.00  0.00     0.006 C 
HETATM   14  C18 UNL     1      14.051   9.216   5.847  1.00  0.00     0.001 C 
HETATM   15  C19 UNL     1      14.798  10.510   5.699  1.00  0.00     0.010 C 
HETATM   16  C20 UNL     1      15.387  10.357   4.277  1.00  0.00    -0.035 C 
HETATM   17  C21 UNL     1      16.539   9.444   4.403  1.00  0.00     0.016 C 
HETATM   18  C22 UNL     1      15.809  11.731   3.909  1.00  0.00     0.064 C 
ENDROOT
BRANCH   1  19
HETATM   19  O3  UNL     1      18.765  12.578   1.981  1.00  0.00    -0.279 OA
BRANCH  19  20
HETATM   20  C4  UNL     1      19.215  11.724   0.978  1.00  0.00     0.220 C 
BRANCH  20  21
HETATM   21  C3  UNL     1      20.313  10.795   1.308  1.00  0.00     0.153 C 
BRANCH  21  22
HETATM   22  N1  UNL     1      21.096  10.300   0.228  1.00  0.00    -0.335 N 
HETATM   23  C2  UNL     1      21.787   9.077   0.151  1.00  0.00     0.360 C 
HETATM   24  O2  UNL     1      21.773   8.252   1.089  1.00  0.00    -0.239 OA
ATOM     25  H1  UNL     1      21.165  10.907  -0.589  1.00  0.00     0.164 HD
BRANCH  23  26
HETATM   26  O1  UNL     1      22.520   8.766  -1.020  1.00  0.00    -0.309 OA
HETATM   27  C1  UNL     1      23.674   7.982  -0.869  1.00  0.00     0.215 C 
ENDBRANCH  23  26
ENDBRANCH  21  22
ENDBRANCH  20  21
ENDBRANCH  19  20
ENDBRANCH   1  19
BRANCH   7  28
HETATM   28  O4  UNL     1      14.815   9.131  -1.953  1.00  0.00    -0.314 OA
BRANCH  28  29
HETATM   29  C10 UNL     1      15.561   9.780  -2.918  1.00  0.00     0.282 C 
HETATM   30  O5  UNL     1      16.765  10.031  -2.578  1.00  0.00    -0.263 OA
BRANCH  29  31
HETATM   31  C11 UNL     1      15.038  10.169  -4.254  1.00  0.00     0.275 C 
BRANCH  31  32
HETATM   32  O6  UNL     1      15.988   9.801  -5.228  1.00  0.00    -0.391 OA
ATOM     33  H6  UNL     1      16.670  10.462  -5.246  1.00  0.00     0.210 HD
ENDBRANCH  31  32
ENDBRANCH  29  31
ENDBRANCH  28  29
ENDBRANCH   7  28
TORSDOF 9
ENDMDL
MODEL 4
REMARK VINA RESULT: -8.284943367      1.644      2.289
REMARK  9 active torsions:
REMARK  status: ('A' for Active; 'I' for Inactive)
REMARK    1  A    between atoms: O1_2  and  C2_3 
REMARK       I    between atoms: C2_3  and  N1_5 
REMARK    2  A    between atoms: N1_5  and  C3_7 
REMARK    3  A    between atoms: C3_7  and  C4_8 
REMARK    4  A    between atoms: C4_8  and  O3_9 
REMARK    5  A    between atoms: O3_9  and  N2_10 
REMARK    6  A    between atoms: C9_16  and  O4_17 
REMARK    7  A    between atoms: O4_17  and  C10_18 
REMARK    8  A    between atoms: C10_18  and  C11_20 
REMARK    9  A    between atoms: C11_20  and  O6_21 
ROOT
HETATM    1  N2  UNL     1      13.846   9.277   3.387  1.00  0.00    -0.275 N 
ATOM      2  H2  UNL     1      12.838   9.361   3.248  1.00  0.00     0.193 HD
HETATM    3  C5  UNL     1      14.483   9.712   2.423  1.00  0.00     0.011 C 
HETATM    4  C6  UNL     1      15.960   9.732   2.314  1.00  0.00     0.059 C 
HETATM    5  C7  UNL     1      16.377  10.978   1.619  1.00  0.00    -0.002 C 
HETATM    6  C8  UNL     1      17.640  11.470   2.281  1.00  0.00     0.038 C 
HETATM    7  C9  UNL     1      18.713  10.457   1.955  1.00  0.00     0.132 C 
HETATM    8  C12 UNL     1      18.886  10.402   0.501  1.00  0.00     0.037 C 
HETATM    9  C13 UNL     1      17.688  10.163  -0.345  1.00  0.00    -0.011 C 
HETATM   10  C14 UNL     1      18.124  10.608  -1.752  1.00  0.00     0.010 C 
HETATM   11  C15 UNL     1      16.469  10.922   0.127  1.00  0.00    -0.001 C 
HETATM   12  C16 UNL     1      15.212  10.662  -0.556  1.00  0.00    -0.001 C 
HETATM   13  C17 UNL     1      15.278  10.087  -1.936  1.00  0.00     0.006 C 
HETATM   14  C18 UNL     1      13.803   9.920  -2.280  1.00  0.00     0.001 C 
HETATM   15  C19 UNL     1      13.041  10.027  -0.990  1.00  0.00     0.010 C 
HETATM   16  C20 UNL     1      14.166   9.788   0.045  1.00  0.00    -0.035 C 
HETATM   17  C21 UNL     1      14.419   8.335   0.052  1.00  0.00     0.016 C 
HETATM   18  C22 UNL     1      13.582  10.253   1.327  1.00  0.00     0.064 C 
ENDROOT
BRANCH   1  19
HETATM   19  O3  UNL     1      14.145   8.722   4.570  1.00  0.00    -0.279 OA
BRANCH  19  20
HETATM   20  C4  UNL     1      14.378   9.451   5.732  1.00  0.00     0.220 C 
BRANCH  20  21
HETATM   21  C3  UNL     1      15.471   9.003   6.617  1.00  0.00     0.153 C 
BRANCH  21  22
HETATM   22  N1  UNL     1      16.576   8.346   6.008  1.00  0.00    -0.335 N 
HETATM   23  C2  UNL     1      17.696   8.932   5.390  1.00  0.00     0.360 C 
HETATM   24  O2  UNL     1      17.836  10.172   5.318  1.00  0.00    -0.239 OA
ATOM     25  H1  UNL     1      16.552   7.326   6.020  1.00  0.00     0.164 HD
BRANCH  23  26
HETATM   26  O1  UNL     1      18.697   8.100   4.834  1.00  0.00    -0.309 OA
HETATM   27  C1  UNL     1      19.613   7.512   5.720  1.00  0.00     0.215 C 
ENDBRANCH  23  26
ENDBRANCH  21  22
ENDBRANCH  20  21
ENDBRANCH  19  20
ENDBRANCH   1  19
BRANCH   7  28
HETATM   28  O4  UNL     1      19.918  11.029   2.496  1.00  0.00    -0.314 OA
BRANCH  28  29
HETATM   29  C10 UNL     1      20.827  10.253   3.191  1.00  0.00     0.282 C 
HETATM   30  O5  UNL     1      20.945  10.552   4.425  1.00  0.00    -0.263 OA
BRANCH  29  31
HETATM   31  C11 UNL     1      21.618   9.151   2.583  1.00  0.00     0.275 C 
BRANCH  31  32
HETATM   32  O6  UNL     1      20.810   7.998   2.532  1.00  0.00    -0.391 OA
ATOM     33  H6  UNL     1      20.034   8.153   3.058  1.00  0.00     0.210 HD
ENDBRANCH  31  32
ENDBRANCH  29  31
ENDBRANCH  28  29
ENDBRANCH   7  28
TORSDOF 9
ENDMDL
MODEL 5
REMARK VINA RESULT: -8.272100244      3.570      6.964
REMARK  9 active torsions:
REMARK  status: ('A' for Active; 'I' for Inactive)
REMARK    1  A    between atoms: O1_2  and  C2_3 
REMARK       I    between atoms: C2_3  and  N1_5 
REMARK    2  A    between atoms: N1_5  and  C3_7 
REMARK    3  A    between atoms: C3_7  and  C4_8 
REMARK    4  A    between atoms: C4_8  and  O3_9 
REMARK    5  A    between atoms: O3_9  and  N2_10 
REMARK    6  A    between atoms: C9_16  and  O4_17 
REMARK    7  A    between atoms: O4_17  and  C10_18 
REMARK    8  A    between atoms: C10_18  and  C11_20 
REMARK    9  A    between atoms: C11_20  and  O6_21 
ROOT
HETATM    1  N2  UNL     1      19.011  11.123   0.909  1.00  0.00    -0.275 N 
ATOM      2  H2  UNL     1      19.501  11.622   1.652  1.00  0.00     0.193 HD
HETATM    3  C5  UNL     1      17.816  10.959   1.174  1.00  0.00     0.011 C 
HETATM    4  C6  UNL     1      16.835  10.271   0.302  1.00  0.00     0.059 C 
HETATM    5  C7  UNL     1      15.525  10.966   0.405  1.00  0.00    -0.002 C 
HETATM    6  C8  UNL     1      14.902  10.972  -0.968  1.00  0.00     0.038 C 
HETATM    7  C9  UNL     1      14.563   9.534  -1.287  1.00  0.00     0.132 C 
HETATM    8  C12 UNL     1      13.605   9.042  -0.294  1.00  0.00     0.037 C 
HETATM    9  C13 UNL     1      13.949   9.175   1.145  1.00  0.00    -0.011 C 
HETATM   10  C14 UNL     1      12.604   9.000   1.873  1.00  0.00     0.010 C 
HETATM   11  C15 UNL     1      14.594  10.500   1.480  1.00  0.00    -0.001 C 
HETATM   12  C16 UNL     1      15.083  10.683   2.837  1.00  0.00    -0.001 C 
HETATM   13  C17 UNL     1      14.500   9.815   3.908  1.00  0.00     0.006 C 
HETATM   14  C18 UNL     1      15.281  10.264   5.137  1.00  0.00     0.001 C 
HETATM   15  C19 UNL     1      16.473  11.029   4.641  1.00  0.00     0.010 C 
HETATM   16  C20 UNL     1      16.532  10.570   3.164  1.00  0.00    -0.035 C 
HETATM   17  C21 UNL     1      17.121   9.218   3.175  1.00  0.00     0.016 C 
HETATM   18  C22 UNL     1      17.429  11.557   2.514  1.00  0.00     0.064 C 
ENDROOT
BRANCH   1  19
HETATM   19  O3  UNL     1      19.826  10.812  -0.108  1.00  0.00    -0.279 OA
BRANCH  19  20
HETATM   20  C4  UNL     1      20.351   9.541  -0.320  1.00  0.00     0.220 C 
BRANCH  20  21
HETATM   21  C3  UNL     1      21.440   9.090   0.568  1.00  0.00     0.153 C 
BRANCH  21  22
HETATM   22  N1  UNL     1      21.091   8.215   1.635  1.00  0.00    -0.335 N 
HETATM   23  C2  UNL     1      20.685   8.558   2.937  1.00  0.00     0.360 C 
HETATM   24  O2  UNL     1      20.581   9.749   3.302  1.00  0.00    -0.239 OA
ATOM     25  H1  UNL     1      21.143   7.217   1.430  1.00  0.00     0.164 HD
BRANCH  23  26
HETATM   26  O1  UNL     1      20.382   7.532   3.864  1.00  0.00    -0.309 OA
HETATM   27  C1  UNL     1      21.004   7.595   5.121  1.00  0.00     0.215 C 
ENDBRANCH  23  26
ENDBRANCH  21  22
ENDBRANCH  20  21
ENDBRANCH  19  20
ENDBRANCH   1  19
BRANCH   7  28
HETATM   28  O4  UNL     1      13.861   9.605  -2.542  1.00  0.00    -0.314 OA
BRANCH  28  29
HETATM   29  C10 UNL     1      14.413   9.085  -3.699  1.00  0.00     0.282 C 
HETATM   30  O5  UNL     1      14.015   7.909  -3.993  1.00  0.00    -0.263 OA
BRANCH  29  31
HETATM   31  C11 UNL     1      15.392   9.808  -4.553  1.00  0.00     0.275 C 
BRANCH  31  32
HETATM   32  O6  UNL     1      14.762  10.134  -5.771  1.00  0.00    -0.391 OA
ATOM     33  H6  UNL     1      15.016   9.490  -6.421  1.00  0.00     0.210 HD
ENDBRANCH  31  32
ENDBRANCH  29  31
ENDBRANCH  28  29
ENDBRANCH   7  28
TORSDOF 9
ENDMDL
