MODEL 1
REMARK VINA RESULT: -10.510256966      0.000      0.000
REMARK  8 active torsions:
REMARK  status: ('A' for Active; 'I' for Inactive)
REMARK    1  A    between atoms: O1_1  and  C1_3 
REMARK    2  A    between atoms: C5_10  and  C6_11 
REMARK    3  A    between atoms: C6_11  and  N2_12 
REMARK    4  A    between atoms: C9_15  and  C10_16 
REMARK    5  A    between atoms: C9_15  and  C17_25 
REMARK    6  A    between atoms: C17_25  and  C18_26 
REMARK    7  A    between atoms: N3_29  and  C21_30 
REMARK    8  A    between atoms: C21_30  and  C22_31 
ROOT
HETATM    1  N2  UNL     1      21.935  -0.339 -20.318  1.00  0.00    -0.388 N 
HETATM    2  C7  UNL     1      22.356  -0.090 -21.573  1.00  0.00     0.123 C 
HETATM    3  C8  UNL     1      21.296   0.659 -22.400  1.00  0.00     0.033 C 
HETATM    4  C9  UNL     1      20.594   1.782 -21.680  1.00  0.00    -0.019 C 
HETATM    5  C27 UNL     1      20.319   1.466 -20.283  1.00  0.00     0.033 C 
HETATM    6  C28 UNL     1      21.556   0.901 -19.610  1.00  0.00     0.123 C 
ENDROOT
BRANCH   4   7
HETATM    7  C10 UNL     1      21.537   3.012 -21.773  1.00  0.00    -0.006 C 
HETATM    8  C11 UNL     1      21.738   3.700 -22.996  1.00  0.00    -0.037 A 
HETATM    9  C12 UNL     1      22.453   3.381 -24.092  1.00  0.00     0.013 A 
HETATM   10  C16 UNL     1      21.147   4.977 -23.094  1.00  0.00     0.036 A 
HETATM   11  C13 UNL     1      22.602   4.211 -25.218  1.00  0.00     0.026 A 
HETATM   12  C14 UNL     1      21.998   5.435 -25.235  1.00  0.00     0.055 A 
HETATM   13 CL2  UNL     1      22.104   6.535 -26.597  1.00  0.00    -0.083 Cl
HETATM   14  C15 UNL     1      21.252   5.822 -24.140  1.00  0.00     0.056 A 
HETATM   15 CL3  UNL     1      20.496   7.409 -24.132  1.00  0.00    -0.083 Cl
ENDBRANCH   4   7
BRANCH   4  16
HETATM   16  C17 UNL     1      19.466   2.189 -22.580  1.00  0.00     0.018 C 
BRANCH  16  17
HETATM   17  C18 UNL     1      18.204   2.777 -22.178  1.00  0.00    -0.010 C 
HETATM   18  C19 UNL     1      17.135   3.046 -23.179  1.00  0.00     0.035 C 
HETATM   19  C20 UNL     1      17.536   4.443 -23.756  1.00  0.00     0.273 C 
HETATM   20  N3  UNL     1      16.975   5.400 -22.829  1.00  0.00     0.094 N 
HETATM   21  C25 UNL     1      17.244   4.981 -21.460  1.00  0.00     0.273 C 
HETATM   22  C26 UNL     1      18.408   4.031 -21.335  1.00  0.00     0.035 C 
BRANCH  20  23
HETATM   23  C21 UNL     1      17.495   6.741 -23.058  1.00  0.00     0.330 C 
BRANCH  23  24
HETATM   24  C22 UNL     1      16.907   7.638 -22.022  1.00  0.00     0.054 A 
HETATM   25  C23 UNL     1      17.504   8.534 -21.175  1.00  0.00     0.115 A 
HETATM   26  N4  UNL     1      16.573   9.168 -20.429  1.00  0.00    -0.360 N 
HETATM   27  C24 UNL     1      15.386   8.680 -20.794  1.00  0.00     0.180 A 
ATOM     28  H4  UNL     1      16.744   9.882 -19.723  1.00  0.00     0.166 HD
HETATM   29  N5  UNL     1      15.567   7.755 -21.752  1.00  0.00    -0.353 N 
ATOM     30  H5  UNL     1      14.825   7.223 -22.207  1.00  0.00     0.166 HD
ENDBRANCH  23  24
ENDBRANCH  20  23
ENDBRANCH  16  17
ENDBRANCH   4  16
BRANCH   1  31
HETATM   31  C6  UNL     1      21.356  -1.396 -19.671  1.00  0.00     0.118 C 
BRANCH  31  32
HETATM   32  C5  UNL     1      22.042  -2.663 -19.439  1.00  0.00     0.082 A 
HETATM   33  C1  UNL     1      21.743  -3.452 -18.326  1.00  0.00     0.093 A 
HETATM   34  C2  UNL     1      22.212  -4.733 -18.165  1.00  0.00     0.042 A 
HETATM   35  C3  UNL     1      23.013  -5.214 -19.180  1.00  0.00     0.045 A 
HETATM   36  C4  UNL     1      23.317  -4.458 -20.277  1.00  0.00     0.104 A 
HETATM   37 CL1  UNL     1      24.306  -5.199 -21.545  1.00  0.00    -0.065 Cl
HETATM   38  N1  UNL     1      22.832  -3.215 -20.377  1.00  0.00    -0.344 N 
ATOM     39  H1  UNL     1      23.072  -2.661 -21.200  1.00  0.00     0.167 HD
BRANCH  33  40
HETATM   40  O1  UNL     1      20.931  -2.834 -17.376  1.00  0.00    -0.358 OA
ATOM     41  H1  UNL     1      20.967  -1.899 -17.211  1.00  0.00     0.217 HD
ENDBRANCH  33  40
ENDBRANCH  31  32
ENDBRANCH   1  31
TORSDOF 8
ENDMDL
MODEL 2
REMARK VINA RESULT: -9.067642073      1.104      1.295
REMARK  8 active torsions:
REMARK  status: ('A' for Active; 'I' for Inactive)
REMARK    1  A    between atoms: O1_1  and  C1_3 
REMARK    2  A    between atoms: C5_10  and  C6_11 
REMARK    3  A    between atoms: C6_11  and  N2_12 
REMARK    4  A    between atoms: C9_15  and  C10_16 
REMARK    5  A    between atoms: C9_15  and  C17_25 
REMARK    6  A    between atoms: C17_25  and  C18_26 
REMARK    7  A    between atoms: N3_29  and  C21_30 
REMARK    8  A    between atoms: C21_30  and  C22_31 
ROOT
HETATM    1  N2  UNL     1      21.619  -0.616 -21.294  1.00  0.00    -0.388 N 
HETATM    2  C7  UNL     1      21.333   0.033 -22.438  1.00  0.00     0.123 C 
HETATM    3  C8  UNL     1      20.397   1.232 -22.204  1.00  0.00     0.033 C 
HETATM    4  C9  UNL     1      20.727   2.080 -21.002  1.00  0.00    -0.019 C 
HETATM    5  C27 UNL     1      21.172   1.286 -19.862  1.00  0.00     0.033 C 
HETATM    6  C28 UNL     1      22.226   0.282 -20.289  1.00  0.00     0.123 C 
ENDROOT
BRANCH   4   7
HETATM    7  C10 UNL     1      21.855   3.047 -21.452  1.00  0.00    -0.006 C 
HETATM    8  C11 UNL     1      21.890   3.584 -22.764  1.00  0.00    -0.037 A 
HETATM    9  C12 UNL     1      22.232   3.033 -23.945  1.00  0.00     0.013 A 
HETATM   10  C16 UNL     1      21.574   4.954 -22.882  1.00  0.00     0.036 A 
HETATM   11  C13 UNL     1      22.271   3.726 -25.168  1.00  0.00     0.026 A 
HETATM   12  C14 UNL     1      21.952   5.053 -25.198  1.00  0.00     0.055 A 
HETATM   13 CL2  UNL     1      21.949   6.003 -26.673  1.00  0.00    -0.083 Cl
HETATM   14  C15 UNL     1      21.595   5.678 -24.021  1.00  0.00     0.056 A 
HETATM   15 CL3  UNL     1      21.214   7.394 -24.037  1.00  0.00    -0.083 Cl
ENDBRANCH   4   7
BRANCH   4  16
HETATM   16  C17 UNL     1      19.565   3.014 -20.842  1.00  0.00     0.018 C 
BRANCH  16  17
HETATM   17  C18 UNL     1      18.439   3.158 -21.744  1.00  0.00    -0.010 C 
HETATM   18  C19 UNL     1      18.558   3.965 -22.990  1.00  0.00     0.035 C 
HETATM   19  C20 UNL     1      18.276   5.420 -22.495  1.00  0.00     0.273 C 
HETATM   20  N3  UNL     1      16.835   5.539 -22.500  1.00  0.00     0.094 N 
HETATM   21  C25 UNL     1      16.238   4.351 -21.905  1.00  0.00     0.273 C 
HETATM   22  C26 UNL     1      17.176   3.588 -21.005  1.00  0.00     0.035 C 
BRANCH  20  23
HETATM   23  C21 UNL     1      16.389   6.734 -21.796  1.00  0.00     0.330 C 
BRANCH  23  24
HETATM   24  C22 UNL     1      17.276   7.860 -22.207  1.00  0.00     0.054 A 
HETATM   25  C23 UNL     1      18.115   8.651 -21.466  1.00  0.00     0.115 A 
HETATM   26  N4  UNL     1      18.765   9.524 -22.266  1.00  0.00    -0.360 N 
HETATM   27  C24 UNL     1      18.346   9.296 -23.511  1.00  0.00     0.180 A 
ATOM     28  H4  UNL     1      19.447  10.223 -21.973  1.00  0.00     0.166 HD
HETATM   29  N5  UNL     1      17.446   8.298 -23.496  1.00  0.00    -0.353 N 
ATOM     30  H5  UNL     1      16.965   7.923 -24.314  1.00  0.00     0.166 HD
ENDBRANCH  23  24
ENDBRANCH  20  23
ENDBRANCH  16  17
ENDBRANCH   4  16
BRANCH   1  31
HETATM   31  C6  UNL     1      21.133  -1.718 -20.644  1.00  0.00     0.118 C 
BRANCH  31  32
HETATM   32  C5  UNL     1      21.989  -2.766 -20.098  1.00  0.00     0.082 A 
HETATM   33  C1  UNL     1      21.944  -3.102 -18.744  1.00  0.00     0.093 A 
HETATM   34  C2  UNL     1      22.579  -4.202 -18.220  1.00  0.00     0.042 A 
HETATM   35  C3  UNL     1      23.282  -4.977 -19.119  1.00  0.00     0.045 A 
HETATM   36  C4  UNL     1      23.340  -4.665 -20.449  1.00  0.00     0.104 A 
HETATM   37 CL1  UNL     1      24.223  -5.763 -21.520  1.00  0.00    -0.065 Cl
HETATM   38  N1  UNL     1      22.702  -3.578 -20.899  1.00  0.00    -0.344 N 
ATOM     39  H1  UNL     1      22.758  -3.356 -21.894  1.00  0.00     0.167 HD
BRANCH  33  40
HETATM   40  O1  UNL     1      21.204  -2.226 -17.952  1.00  0.00    -0.358 OA
ATOM     41  H1  UNL     1      20.359  -1.887 -18.226  1.00  0.00     0.217 HD
ENDBRANCH  33  40
ENDBRANCH  31  32
ENDBRANCH   1  31
TORSDOF 8
ENDMDL
MODEL 3
REMARK VINA RESULT: -8.913144328      1.048      1.486
REMARK  8 active torsions:
REMARK  status: ('A' for Active; 'I' for Inactive)
REMARK    1  A    between atoms: O1_1  and  C1_3 
REMARK    2  A    between atoms: C5_10  and  C6_11 
REMARK    3  A    between atoms: C6_11  and  N2_12 
REMARK    4  A    between atoms: C9_15  and  C10_16 
REMARK    5  A    between atoms: C9_15  and  C17_25 
REMARK    6  A    between atoms: C17_25  and  C18_26 
REMARK    7  A    between atoms: N3_29  and  C21_30 
REMARK    8  A    between atoms: C21_30  and  C22_31 
ROOT
HETATM    1  N2  UNL     1      21.844  -0.015 -20.043  1.00  0.00    -0.388 N 
HETATM    2  C7  UNL     1      22.717   0.098 -21.061  1.00  0.00     0.123 C 
HETATM    3  C8  UNL     1      22.029   0.537 -22.366  1.00  0.00     0.033 C 
HETATM    4  C9  UNL     1      21.007   1.635 -22.217  1.00  0.00    -0.019 C 
HETATM    5  C27 UNL     1      20.214   1.500 -21.001  1.00  0.00     0.033 C 
HETATM    6  C28 UNL     1      21.111   1.246 -19.804  1.00  0.00     0.123 C 
ENDROOT
BRANCH   4   7
HETATM    7  C10 UNL     1      21.805   2.967 -22.190  1.00  0.00    -0.006 C 
HETATM    8  C11 UNL     1      21.959   3.762 -23.353  1.00  0.00    -0.037 A 
HETATM    9  C12 UNL     1      22.736   3.607 -24.443  1.00  0.00     0.013 A 
HETATM   10  C16 UNL     1      21.229   4.968 -23.382  1.00  0.00     0.036 A 
HETATM   11  C13 UNL     1      22.820   4.530 -25.501  1.00  0.00     0.026 A 
HETATM   12  C14 UNL     1      22.080   5.676 -25.453  1.00  0.00     0.055 A 
HETATM   13 CL2  UNL     1      22.096   6.879 -26.729  1.00  0.00    -0.083 Cl
HETATM   14  C15 UNL     1      21.265   5.895 -24.361  1.00  0.00     0.056 A 
HETATM   15 CL3  UNL     1      20.332   7.382 -24.268  1.00  0.00    -0.083 Cl
ENDBRANCH   4   7
BRANCH   4  16
HETATM   16  C17 UNL     1      20.315   1.717 -23.544  1.00  0.00     0.018 C 
BRANCH  16  17
HETATM   17  C18 UNL     1      18.884   1.704 -23.778  1.00  0.00    -0.010 C 
HETATM   18  C19 UNL     1      18.230   2.787 -24.565  1.00  0.00     0.035 C 
HETATM   19  C20 UNL     1      17.987   3.901 -23.496  1.00  0.00     0.273 C 
HETATM   20  N3  UNL     1      16.738   3.541 -22.864  1.00  0.00     0.094 N 
HETATM   21  C25 UNL     1      16.726   2.115 -22.565  1.00  0.00     0.273 C 
HETATM   22  C26 UNL     1      18.102   1.502 -22.485  1.00  0.00     0.035 C 
BRANCH  20  23
HETATM   23  C21 UNL     1      16.504   4.312 -21.651  1.00  0.00     0.330 C 
BRANCH  23  24
HETATM   24  C22 UNL     1      16.906   5.721 -21.925  1.00  0.00     0.054 A 
HETATM   25  C23 UNL     1      16.167   6.792 -22.356  1.00  0.00     0.115 A 
HETATM   26  N4  UNL     1      16.939   7.898 -22.425  1.00  0.00    -0.360 N 
HETATM   27  C24 UNL     1      18.166   7.540 -22.043  1.00  0.00     0.180 A 
ATOM     28  H4  UNL     1      16.642   8.830 -22.714  1.00  0.00     0.166 HD
HETATM   29  N5  UNL     1      18.166   6.230 -21.739  1.00  0.00    -0.353 N 
ATOM     30  H5  UNL     1      18.975   5.698 -21.420  1.00  0.00     0.166 HD
ENDBRANCH  23  24
ENDBRANCH  20  23
ENDBRANCH  16  17
ENDBRANCH   4  16
BRANCH   1  31
HETATM   31  C6  UNL     1      21.138  -1.036 -19.466  1.00  0.00     0.118 C 
BRANCH  31  32
HETATM   32  C5  UNL     1      21.697  -2.365 -19.238  1.00  0.00     0.082 A 
HETATM   33  C1  UNL     1      21.263  -3.157 -18.174  1.00  0.00     0.093 A 
HETATM   34  C2  UNL     1      21.610  -4.478 -18.030  1.00  0.00     0.042 A 
HETATM   35  C3  UNL     1      22.428  -4.997 -19.012  1.00  0.00     0.045 A 
HETATM   36  C4  UNL     1      22.865  -4.238 -20.062  1.00  0.00     0.104 A 
HETATM   37 CL1  UNL     1      23.863  -5.024 -21.294  1.00  0.00    -0.065 Cl
HETATM   38  N1  UNL     1      22.495  -2.955 -20.146  1.00  0.00    -0.344 N 
ATOM     39  H1  UNL     1      22.832  -2.400 -20.933  1.00  0.00     0.167 HD
BRANCH  33  40
HETATM   40  O1  UNL     1      20.449  -2.499 -17.253  1.00  0.00    -0.358 OA
ATOM     41  H1  UNL     1      19.570  -2.211 -17.471  1.00  0.00     0.217 HD
ENDBRANCH  33  40
ENDBRANCH  31  32
ENDBRANCH   1  31
TORSDOF 8
ENDMDL
MODEL 4
REMARK VINA RESULT: -8.826230997      3.173      7.959
REMARK  8 active torsions:
REMARK  status: ('A' for Active; 'I' for Inactive)
REMARK    1  A    between atoms: O1_1  and  C1_3 
REMARK    2  A    between atoms: C5_10  and  C6_11 
REMARK    3  A    between atoms: C6_11  and  N2_12 
REMARK    4  A    between atoms: C9_15  and  C10_16 
REMARK    5  A    between atoms: C9_15  and  C17_25 
REMARK    6  A    between atoms: C17_25  and  C18_26 
REMARK    7  A    between atoms: N3_29  and  C21_30 
REMARK    8  A    between atoms: C21_30  and  C22_31 
ROOT
HETATM    1  N2  UNL     1      21.943   4.232 -23.933  1.00  0.00    -0.388 N 
HETATM    2  C7  UNL     1      21.915   4.376 -22.595  1.00  0.00     0.123 C 
HETATM    3  C8  UNL     1      20.892   3.436 -21.934  1.00  0.00     0.033 C 
HETATM    4  C9  UNL     1      20.873   2.027 -22.469  1.00  0.00    -0.019 C 
HETATM    5  C27 UNL     1      21.063   1.975 -23.913  1.00  0.00     0.033 C 
HETATM    6  C28 UNL     1      22.239   2.839 -24.329  1.00  0.00     0.123 C 
ENDROOT
BRANCH   4   7
HETATM    7  C10 UNL     1      22.028   1.277 -21.751  1.00  0.00    -0.006 C 
HETATM    8  C11 UNL     1      21.772   0.334 -20.723  1.00  0.00    -0.037 A 
HETATM    9  C12 UNL     1      21.408   0.494 -19.436  1.00  0.00     0.013 A 
HETATM   10  C16 UNL     1      21.984  -1.020 -21.056  1.00  0.00     0.036 A 
HETATM   11  C13 UNL     1      21.249  -0.556 -18.515  1.00  0.00     0.026 A 
HETATM   12  C14 UNL     1      21.475  -1.842 -18.916  1.00  0.00     0.055 A 
HETATM   13 CL2  UNL     1      21.284  -3.223 -17.852  1.00  0.00    -0.083 Cl
HETATM   14  C15 UNL     1      21.853  -2.073 -20.223  1.00  0.00     0.056 A 
HETATM   15 CL3  UNL     1      22.181  -3.718 -20.746  1.00  0.00    -0.083 Cl
ENDBRANCH   4   7
BRANCH   4  16
HETATM   16  C17 UNL     1      19.662   1.386 -21.860  1.00  0.00     0.018 C 
BRANCH  16  17
HETATM   17  C18 UNL     1      18.351   1.984 -21.702  1.00  0.00    -0.010 C 
HETATM   18  C19 UNL     1      17.376   1.991 -22.828  1.00  0.00     0.035 C 
HETATM   19  C20 UNL     1      17.792   3.257 -23.645  1.00  0.00     0.273 C 
HETATM   20  N3  UNL     1      17.118   4.356 -22.993  1.00  0.00     0.094 N 
HETATM   21  C25 UNL     1      17.266   4.240 -21.548  1.00  0.00     0.273 C 
HETATM   22  C26 UNL     1      18.439   3.393 -21.126  1.00  0.00     0.035 C 
BRANCH  20  23
HETATM   23  C21 UNL     1      17.619   5.645 -23.450  1.00  0.00     0.330 C 
BRANCH  23  24
HETATM   24  C22 UNL     1      17.195   6.674 -22.458  1.00  0.00     0.054 A 
HETATM   25  C23 UNL     1      17.938   7.530 -21.688  1.00  0.00     0.115 A 
HETATM   26  N4  UNL     1      17.129   8.328 -20.959  1.00  0.00    -0.360 N 
HETATM   27  C24 UNL     1      15.874   7.985 -21.256  1.00  0.00     0.180 A 
ATOM     28  H4  UNL     1      17.420   9.055 -20.305  1.00  0.00     0.166 HD
HETATM   29  N5  UNL     1      15.895   6.988 -22.157  1.00  0.00    -0.353 N 
ATOM     30  H5  UNL     1      15.072   6.534 -22.555  1.00  0.00     0.166 HD
ENDBRANCH  23  24
ENDBRANCH  20  23
ENDBRANCH  16  17
ENDBRANCH   4  16
BRANCH   1  31
HETATM   31  C6  UNL     1      21.368   4.868 -25.000  1.00  0.00     0.118 C 
BRANCH  31  32
HETATM   32  C5  UNL     1      21.474   6.306 -25.225  1.00  0.00     0.082 A 
HETATM   33  C1  UNL     1      22.132   6.814 -26.346  1.00  0.00     0.093 A 
HETATM   34  C2  UNL     1      22.092   8.139 -26.705  1.00  0.00     0.042 A 
HETATM   35  C3  UNL     1      21.353   8.964 -25.884  1.00  0.00     0.045 A 
HETATM   36  C4  UNL     1      20.702   8.487 -24.780  1.00  0.00     0.104 A 
HETATM   37 CL1  UNL     1      19.736   9.626 -23.831  1.00  0.00    -0.065 Cl
HETATM   38  N1  UNL     1      20.780   7.185 -24.480  1.00  0.00    -0.344 N 
ATOM     39  H1  UNL     1      20.293   6.845 -23.651  1.00  0.00     0.167 HD
BRANCH  33  40
HETATM   40  O1  UNL     1      22.847   5.867 -27.080  1.00  0.00    -0.358 OA
ATOM     41  H1  UNL     1      22.862   4.948 -26.840  1.00  0.00     0.217 HD
ENDBRANCH  33  40
ENDBRANCH  31  32
ENDBRANCH   1  31
TORSDOF 8
ENDMDL
MODEL 5
REMARK VINA RESULT: -8.776822454      3.398     10.181
REMARK  8 active torsions:
REMARK  status: ('A' for Active; 'I' for Inactive)
REMARK    1  A    between atoms: O1_1  and  C1_3 
REMARK    2  A    between atoms: C5_10  and  C6_11 
REMARK    3  A    between atoms: C6_11  and  N2_12 
REMARK    4  A    between atoms: C9_15  and  C10_16 
REMARK    5  A    between atoms: C9_15  and  C17_25 
REMARK    6  A    between atoms: C17_25  and  C18_26 
REMARK    7  A    between atoms: N3_29  and  C21_30 
REMARK    8  A    between atoms: C21_30  and  C22_31 
ROOT
HETATM    1  N2  UNL     1      17.172   5.009 -22.429  1.00  0.00    -0.388 N 
HETATM    2  C7  UNL     1      16.339   3.954 -22.379  1.00  0.00     0.123 C 
HETATM    3  C8  UNL     1      17.067   2.628 -22.664  1.00  0.00     0.033 C 
HETATM    4  C9  UNL     1      18.408   2.473 -21.992  1.00  0.00    -0.019 C 
HETATM    5  C27 UNL     1      19.168   3.717 -21.968  1.00  0.00     0.033 C 
HETATM    6  C28 UNL     1      18.301   4.865 -21.486  1.00  0.00     0.123 C 
ENDROOT
BRANCH   4   7
HETATM    7  C10 UNL     1      18.112   1.999 -20.543  1.00  0.00    -0.006 C 
HETATM    8  C11 UNL     1      18.753   0.862 -19.991  1.00  0.00    -0.037 A 
HETATM    9  C12 UNL     1      18.563  -0.456 -20.196  1.00  0.00     0.013 A 
HETATM   10  C16 UNL     1      19.728   1.116 -19.004  1.00  0.00     0.036 A 
HETATM   11  C13 UNL     1      19.251  -1.477 -19.515  1.00  0.00     0.026 A 
HETATM   12  C14 UNL     1      20.180  -1.147 -18.571  1.00  0.00     0.055 A 
HETATM   13 CL2  UNL     1      21.107  -2.343 -17.683  1.00  0.00    -0.083 Cl
HETATM   14  C15 UNL     1      20.420   0.187 -18.313  1.00  0.00     0.056 A 
HETATM   15 CL3  UNL     1      21.588   0.628 -17.076  1.00  0.00    -0.083 Cl
ENDBRANCH   4   7
BRANCH   4  16
HETATM   16  C17 UNL     1      19.018   1.246 -22.600  1.00  0.00     0.018 C 
BRANCH  16  17
HETATM   17  C18 UNL     1      20.381   1.099 -23.073  1.00  0.00    -0.010 C 
HETATM   18  C19 UNL     1      20.851  -0.190 -23.653  1.00  0.00     0.035 C 
HETATM   19  C20 UNL     1      21.260  -1.015 -22.391  1.00  0.00     0.273 C 
HETATM   20  N3  UNL     1      22.613  -0.599 -22.100  1.00  0.00     0.094 N 
HETATM   21  C25 UNL     1      22.715   0.852 -22.187  1.00  0.00     0.273 C 
HETATM   22  C26 UNL     1      21.393   1.561 -22.031  1.00  0.00     0.035 C 
BRANCH  20  23
HETATM   23  C21 UNL     1      23.049  -1.057 -20.787  1.00  0.00     0.330 C 
BRANCH  23  24
HETATM   24  C22 UNL     1      23.512  -2.467 -20.930  1.00  0.00     0.054 A 
HETATM   25  C23 UNL     1      24.671  -2.977 -21.453  1.00  0.00     0.115 A 
HETATM   26  N4  UNL     1      24.688  -4.322 -21.336  1.00  0.00    -0.360 N 
HETATM   27  C24 UNL     1      23.546  -4.674 -20.744  1.00  0.00     0.180 A 
ATOM     28  H4  UNL     1      25.432  -4.949 -21.642  1.00  0.00     0.166 HD
HETATM   29  N5  UNL     1      22.823  -3.569 -20.493  1.00  0.00    -0.353 N 
ATOM     30  H5  UNL     1      21.905  -3.552 -20.047  1.00  0.00     0.166 HD
ENDBRANCH  23  24
ENDBRANCH  20  23
ENDBRANCH  16  17
ENDBRANCH   4  16
BRANCH   1  31
HETATM   31  C6  UNL     1      17.517   5.942 -23.370  1.00  0.00     0.118 C 
BRANCH  31  32
HETATM   32  C5  UNL     1      17.860   7.321 -23.040  1.00  0.00     0.082 A 
HETATM   33  C1  UNL     1      19.020   7.916 -23.540  1.00  0.00     0.093 A 
HETATM   34  C2  UNL     1      19.288   9.258 -23.422  1.00  0.00     0.042 A 
HETATM   35  C3  UNL     1      18.332  10.008 -22.769  1.00  0.00     0.045 A 
HETATM   36  C4  UNL     1      17.190   9.445 -22.271  1.00  0.00     0.104 A 
HETATM   37 CL1  UNL     1      16.006  10.514 -21.503  1.00  0.00    -0.065 Cl
HETATM   38  N1  UNL     1      16.986   8.131 -22.415  1.00  0.00    -0.344 N 
ATOM     39  H1  UNL     1      16.131   7.724 -22.034  1.00  0.00     0.167 HD
BRANCH  33  40
HETATM   40  O1  UNL     1      19.900   7.036 -24.168  1.00  0.00    -0.358 OA
ATOM     41  H1  UNL     1      19.931   6.111 -23.952  1.00  0.00     0.217 HD
ENDBRANCH  33  40
ENDBRANCH  31  32
ENDBRANCH   1  31
TORSDOF 8
ENDMDL
