MODEL 1
REMARK VINA RESULT: -9.571010927      0.000      0.000
REMARK  9 active torsions:
REMARK  status: ('A' for Active; 'I' for Inactive)
REMARK    1  A    between atoms: S1_2  and  N1_4 
REMARK    2  A    between atoms: S1_2  and  C20_32 
REMARK    3  A    between atoms: N1_4  and  C1_6 
REMARK    4  A    between atoms: C1_6  and  C2_7 
REMARK    5  A    between atoms: C2_7  and  C3_8 
REMARK    6  A    between atoms: C3_8  and  C4_9 
REMARK    7  A    between atoms: C4_9  and  N2_10 
REMARK    8  A    between atoms: C7_13  and  C8_14 
REMARK    9  A    between atoms: C17_27  and  O3_28 
ROOT
HETATM    1  C1  UNL     1      20.993   2.702 -22.727  1.00  0.00     0.041 C 
HETATM    2  C15 UNL     1      22.264   2.855 -23.697  1.00  0.00     0.034 C 
HETATM    3  C16 UNL     1      21.808   3.754 -24.845  1.00  0.00     0.034 C 
HETATM    4  C17 UNL     1      21.597   5.113 -24.276  1.00  0.00     0.118 C 
HETATM    5  C18 UNL     1      21.700   5.130 -22.780  1.00  0.00     0.034 C 
HETATM    6  C19 UNL     1      20.946   4.016 -22.080  1.00  0.00     0.034 C 
ENDROOT
BRANCH   1   7
HETATM    7  N1  UNL     1      20.078   2.234 -23.612  1.00  0.00    -0.305 N 
ATOM      8  H1  UNL     1      20.514   1.617 -24.297  1.00  0.00     0.173 HD
BRANCH   7   9
HETATM    9  S1  UNL     1      18.506   2.375 -23.888  1.00  0.00     0.266 S 
HETATM   10  O1  UNL     1      18.049   2.537 -25.331  1.00  0.00    -0.200 OA
HETATM   11  O2  UNL     1      17.797   1.055 -23.510  1.00  0.00    -0.200 OA
BRANCH   9  12
HETATM   12  C20 UNL     1      17.669   3.612 -23.000  1.00  0.00     0.121 A 
HETATM   13  C21 UNL     1      16.948   3.525 -21.837  1.00  0.00     0.035 A 
HETATM   14  C22 UNL     1      16.453   4.636 -21.298  1.00  0.00     0.033 A 
HETATM   15  C23 UNL     1      16.707   5.815 -21.958  1.00  0.00     0.075 A 
HETATM   16 CL3  UNL     1      16.195   7.455 -21.472  1.00  0.00    -0.076 Cl
HETATM   17  S2  UNL     1      17.617   5.321 -23.298  1.00  0.00    -0.064 SA
ENDBRANCH   9  12
ENDBRANCH   7   9
ENDBRANCH   1   7
BRANCH   1  18
HETATM   18  C2  UNL     1      21.510   1.659 -21.774  1.00  0.00     0.033 C 
BRANCH  18  19
HETATM   19  C3  UNL     1      21.115   1.858 -20.349  1.00  0.00     0.033 C 
BRANCH  19  20
HETATM   20  C4  UNL     1      19.765   1.243 -20.073  1.00  0.00     0.272 C 
BRANCH  20  21
HETATM   21  N2  UNL     1      19.807   0.155 -19.114  1.00  0.00     0.089 N 
HETATM   22  C5  UNL     1      21.040   0.004 -18.425  1.00  0.00     0.276 C 
HETATM   23  C6  UNL     1      21.669  -1.334 -18.560  1.00  0.00     0.065 C 
HETATM   24  C7  UNL     1      21.604  -1.834 -19.964  1.00  0.00    -0.063 C 
HETATM   25  C13 UNL     1      20.348  -1.674 -20.687  1.00  0.00     0.065 C 
HETATM   26  C14 UNL     1      19.298  -1.011 -19.777  1.00  0.00     0.276 C 
BRANCH  24  27
HETATM   27  C8  UNL     1      22.571  -2.876 -20.290  1.00  0.00     0.013 A 
HETATM   28  C9  UNL     1      22.352  -4.250 -20.133  1.00  0.00     0.061 A 
HETATM   29 CL1  UNL     1      20.982  -4.808 -19.227  1.00  0.00    -0.082 Cl
HETATM   30  C10 UNL     1      23.219  -5.210 -20.598  1.00  0.00     0.112 A 
HETATM   31  N3  UNL     1      24.343  -4.860 -21.237  1.00  0.00    -0.372 N 
HETATM   32  C11 UNL     1      24.624  -3.581 -21.425  1.00  0.00     0.112 A 
ATOM     33  H3  UNL     1      24.981  -5.579 -21.578  1.00  0.00     0.164 HD
HETATM   34  C12 UNL     1      23.778  -2.619 -20.975  1.00  0.00     0.061 A 
HETATM   35 CL2  UNL     1      24.192  -0.947 -21.315  1.00  0.00    -0.082 Cl
ENDBRANCH  24  27
ENDBRANCH  20  21
ENDBRANCH  19  20
ENDBRANCH  18  19
ENDBRANCH   1  18
BRANCH   4  36
HETATM   36  O3  UNL     1      20.473   5.770 -24.762  1.00  0.00    -0.396 OA
ATOM     37  H3  UNL     1      20.113   6.421 -24.171  1.00  0.00     0.210 HD
ENDBRANCH   4  36
TORSDOF 9
ENDMDL
MODEL 2
REMARK VINA RESULT: -9.548430502      1.107      1.515
REMARK  9 active torsions:
REMARK  status: ('A' for Active; 'I' for Inactive)
REMARK    1  A    between atoms: S1_2  and  N1_4 
REMARK    2  A    between atoms: S1_2  and  C20_32 
REMARK    3  A    between atoms: N1_4  and  C1_6 
REMARK    4  A    between atoms: C1_6  and  C2_7 
REMARK    5  A    between atoms: C2_7  and  C3_8 
REMARK    6  A    between atoms: C3_8  and  C4_9 
REMARK    7  A    between atoms: C4_9  and  N2_10 
REMARK    8  A    between atoms: C7_13  and  C8_14 
REMARK    9  A    between atoms: C17_27  and  O3_28 
ROOT
HETATM    1  C1  UNL     1      20.743   2.689 -22.536  1.00  0.00     0.041 C 
HETATM    2  C15 UNL     1      21.396   1.242 -22.777  1.00  0.00     0.034 C 
HETATM    3  C16 UNL     1      20.958   0.813 -24.177  1.00  0.00     0.034 C 
HETATM    4  C17 UNL     1      21.649   1.709 -25.143  1.00  0.00     0.118 C 
HETATM    5  C18 UNL     1      22.374   2.833 -24.464  1.00  0.00     0.034 C 
HETATM    6  C19 UNL     1      21.577   3.543 -23.387  1.00  0.00     0.034 C 
ENDROOT
BRANCH   1   7
HETATM    7  N1  UNL     1      19.438   2.399 -22.761  1.00  0.00    -0.305 N 
ATOM      8  H1  UNL     1      19.181   1.512 -22.328  1.00  0.00     0.173 HD
BRANCH   7   9
HETATM    9  S1  UNL     1      18.184   3.052 -23.514  1.00  0.00     0.266 S 
HETATM   10  O1  UNL     1      18.192   3.060 -25.036  1.00  0.00    -0.200 OA
HETATM   11  O2  UNL     1      16.921   2.205 -23.239  1.00  0.00    -0.200 OA
BRANCH   9  12
HETATM   12  C20 UNL     1      17.756   4.671 -23.049  1.00  0.00     0.121 A 
HETATM   13  C21 UNL     1      16.742   5.115 -22.239  1.00  0.00     0.035 A 
HETATM   14  C22 UNL     1      16.656   6.414 -21.964  1.00  0.00     0.033 A 
HETATM   15  C23 UNL     1      17.608   7.234 -22.523  1.00  0.00     0.075 A 
HETATM   16 CL3  UNL     1      17.762   9.002 -22.323  1.00  0.00    -0.076 Cl
HETATM   17  S2  UNL     1      18.575   6.159 -23.405  1.00  0.00    -0.064 SA
ENDBRANCH   9  12
ENDBRANCH   7   9
ENDBRANCH   1   7
BRANCH   1  18
HETATM   18  C2  UNL     1      21.082   2.895 -21.084  1.00  0.00     0.033 C 
BRANCH  18  19
HETATM   19  C3  UNL     1      21.206   1.641 -20.284  1.00  0.00     0.033 C 
BRANCH  19  20
HETATM   20  C4  UNL     1      19.864   1.213 -19.742  1.00  0.00     0.272 C 
BRANCH  20  21
HETATM   21  N2  UNL     1      19.937   0.071 -18.849  1.00  0.00     0.089 N 
HETATM   22  C5  UNL     1      21.192  -0.121 -18.214  1.00  0.00     0.276 C 
HETATM   23  C6  UNL     1      21.811  -1.450 -18.448  1.00  0.00     0.065 C 
HETATM   24  C7  UNL     1      21.696  -1.867 -19.876  1.00  0.00    -0.063 C 
HETATM   25  C13 UNL     1      20.417  -1.664 -20.543  1.00  0.00     0.065 C 
HETATM   26  C14 UNL     1      19.401  -1.054 -19.560  1.00  0.00     0.276 C 
BRANCH  24  27
HETATM   27  C8  UNL     1      22.648  -2.890 -20.295  1.00  0.00     0.013 A 
HETATM   28  C9  UNL     1      22.436  -4.271 -20.197  1.00  0.00     0.061 A 
HETATM   29 CL1  UNL     1      21.106  -4.875 -19.262  1.00  0.00    -0.082 Cl
HETATM   30  C10 UNL     1      23.281  -5.205 -20.747  1.00  0.00     0.112 A 
HETATM   31  N3  UNL     1      24.376  -4.821 -21.416  1.00  0.00    -0.372 N 
HETATM   32  C11 UNL     1      24.649  -3.534 -21.552  1.00  0.00     0.112 A 
ATOM     33  H3  UNL     1      24.999  -5.521 -21.820  1.00  0.00     0.164 HD
HETATM   34  C12 UNL     1      23.824  -2.597 -21.018  1.00  0.00     0.061 A 
HETATM   35 CL2  UNL     1      24.223  -0.909 -21.292  1.00  0.00    -0.082 Cl
ENDBRANCH  24  27
ENDBRANCH  20  21
ENDBRANCH  19  20
ENDBRANCH  18  19
ENDBRANCH   1  18
BRANCH   4  36
HETATM   36  O3  UNL     1      20.859   2.123 -26.208  1.00  0.00    -0.396 OA
ATOM     37  H3  UNL     1      21.318   2.642 -26.858  1.00  0.00     0.210 HD
ENDBRANCH   4  36
TORSDOF 9
ENDMDL
MODEL 3
REMARK VINA RESULT: -9.393229886      1.976      3.485
REMARK  9 active torsions:
REMARK  status: ('A' for Active; 'I' for Inactive)
REMARK    1  A    between atoms: S1_2  and  N1_4 
REMARK    2  A    between atoms: S1_2  and  C20_32 
REMARK    3  A    between atoms: N1_4  and  C1_6 
REMARK    4  A    between atoms: C1_6  and  C2_7 
REMARK    5  A    between atoms: C2_7  and  C3_8 
REMARK    6  A    between atoms: C3_8  and  C4_9 
REMARK    7  A    between atoms: C4_9  and  N2_10 
REMARK    8  A    between atoms: C7_13  and  C8_14 
REMARK    9  A    between atoms: C17_27  and  O3_28 
ROOT
HETATM    1  C1  UNL     1      19.385   0.892 -22.404  1.00  0.00     0.041 C 
HETATM    2  C15 UNL     1      18.703  -0.546 -22.612  1.00  0.00     0.034 C 
HETATM    3  C16 UNL     1      18.960  -0.925 -24.070  1.00  0.00     0.034 C 
HETATM    4  C17 UNL     1      20.421  -1.174 -24.203  1.00  0.00     0.118 C 
HETATM    5  C18 UNL     1      21.181  -0.798 -22.966  1.00  0.00     0.034 C 
HETATM    6  C19 UNL     1      20.810   0.549 -22.379  1.00  0.00     0.034 C 
ENDROOT
BRANCH   1   7
HETATM    7  N1  UNL     1      18.767   1.590 -23.389  1.00  0.00    -0.305 N 
ATOM      8  H1  UNL     1      17.754   1.493 -23.324  1.00  0.00     0.173 HD
BRANCH   7   9
HETATM    9  S1  UNL     1      19.175   2.523 -24.626  1.00  0.00     0.266 S 
HETATM   10  O1  UNL     1      20.148   1.960 -25.652  1.00  0.00    -0.200 OA
HETATM   11  O2  UNL     1      17.935   2.770 -25.514  1.00  0.00    -0.200 OA
BRANCH   9  12
HETATM   12  C20 UNL     1      19.781   4.105 -24.239  1.00  0.00     0.121 A 
HETATM   13  C21 UNL     1      20.961   4.707 -24.594  1.00  0.00     0.035 A 
HETATM   14  C22 UNL     1      21.176   5.970 -24.236  1.00  0.00     0.033 A 
HETATM   15  C23 UNL     1      20.179   6.594 -23.524  1.00  0.00     0.075 A 
HETATM   16 CL3  UNL     1      20.172   8.277 -22.927  1.00  0.00    -0.076 Cl
HETATM   17  S2  UNL     1      18.994   5.393 -23.382  1.00  0.00    -0.064 SA
ENDBRANCH   9  12
ENDBRANCH   7   9
ENDBRANCH   1   7
BRANCH   1  18
HETATM   18  C2  UNL     1      18.894   1.222 -21.021  1.00  0.00     0.033 C 
BRANCH  18  19
HETATM   19  C3  UNL     1      19.961   1.329 -19.983  1.00  0.00     0.033 C 
BRANCH  19  20
HETATM   20  C4  UNL     1      19.544   0.639 -18.707  1.00  0.00     0.272 C 
BRANCH  20  21
HETATM   21  N2  UNL     1      20.653   0.060 -17.971  1.00  0.00     0.089 N 
HETATM   22  C5  UNL     1      21.940   0.325 -18.511  1.00  0.00     0.276 C 
HETATM   23  C6  UNL     1      22.741  -0.883 -18.830  1.00  0.00     0.065 C 
HETATM   24  C7  UNL     1      21.918  -1.928 -19.506  1.00  0.00    -0.063 C 
HETATM   25  C13 UNL     1      20.590  -2.201 -18.971  1.00  0.00     0.065 C 
HETATM   26  C14 UNL     1      20.329  -1.318 -17.737  1.00  0.00     0.276 C 
BRANCH  24  27
HETATM   27  C8  UNL     1      22.680  -2.917 -20.260  1.00  0.00     0.013 A 
HETATM   28  C9  UNL     1      23.830  -2.641 -21.011  1.00  0.00     0.061 A 
HETATM   29 CL1  UNL     1      24.266  -0.996 -21.349  1.00  0.00    -0.082 Cl
HETATM   30  C10 UNL     1      24.615  -3.618 -21.576  1.00  0.00     0.112 A 
HETATM   31  N3  UNL     1      24.300  -4.911 -21.430  1.00  0.00    -0.372 N 
HETATM   32  C11 UNL     1      23.228  -5.256 -20.736  1.00  0.00     0.112 A 
ATOM     33  H3  UNL     1      24.887  -5.630 -21.854  1.00  0.00     0.164 HD
HETATM   34  C12 UNL     1      22.443  -4.305 -20.168  1.00  0.00     0.061 A 
HETATM   35 CL2  UNL     1      21.071  -4.843 -19.214  1.00  0.00    -0.082 Cl
ENDBRANCH  24  27
ENDBRANCH  20  21
ENDBRANCH  19  20
ENDBRANCH  18  19
ENDBRANCH   1  18
BRANCH   4  36
HETATM   36  O3  UNL     1      20.984  -0.676 -25.372  1.00  0.00    -0.396 OA
ATOM     37  H3  UNL     1      21.561  -1.284 -25.819  1.00  0.00     0.210 HD
ENDBRANCH   4  36
TORSDOF 9
ENDMDL
MODEL 4
REMARK VINA RESULT: -9.376569742      1.147      2.187
REMARK  9 active torsions:
REMARK  status: ('A' for Active; 'I' for Inactive)
REMARK    1  A    between atoms: S1_2  and  N1_4 
REMARK    2  A    between atoms: S1_2  and  C20_32 
REMARK    3  A    between atoms: N1_4  and  C1_6 
REMARK    4  A    between atoms: C1_6  and  C2_7 
REMARK    5  A    between atoms: C2_7  and  C3_8 
REMARK    6  A    between atoms: C3_8  and  C4_9 
REMARK    7  A    between atoms: C4_9  and  N2_10 
REMARK    8  A    between atoms: C7_13  and  C8_14 
REMARK    9  A    between atoms: C17_27  and  O3_28 
ROOT
HETATM    1  C1  UNL     1      20.680   2.631 -22.489  1.00  0.00     0.041 C 
HETATM    2  C15 UNL     1      21.299   1.168 -22.729  1.00  0.00     0.034 C 
HETATM    3  C16 UNL     1      20.875   0.760 -24.138  1.00  0.00     0.034 C 
HETATM    4  C17 UNL     1      21.607   1.643 -25.086  1.00  0.00     0.118 C 
HETATM    5  C18 UNL     1      22.348   2.743 -24.387  1.00  0.00     0.034 C 
HETATM    6  C19 UNL     1      21.551   3.467 -23.320  1.00  0.00     0.034 C 
ENDROOT
BRANCH   1   7
HETATM    7  N1  UNL     1      19.372   2.376 -22.739  1.00  0.00    -0.305 N 
ATOM      8  H1  UNL     1      19.082   1.497 -22.309  1.00  0.00     0.173 HD
BRANCH   7   9
HETATM    9  S1  UNL     1      18.151   3.061 -23.519  1.00  0.00     0.266 S 
HETATM   10  O1  UNL     1      18.192   3.067 -25.040  1.00  0.00    -0.200 OA
HETATM   11  O2  UNL     1      16.861   2.246 -23.272  1.00  0.00    -0.200 OA
BRANCH   9  12
HETATM   12  C20 UNL     1      17.755   4.690 -23.063  1.00  0.00     0.121 A 
HETATM   13  C21 UNL     1      16.745   5.160 -22.264  1.00  0.00     0.035 A 
HETATM   14  C22 UNL     1      16.685   6.461 -21.995  1.00  0.00     0.033 A 
HETATM   15  C23 UNL     1      17.660   7.258 -22.547  1.00  0.00     0.075 A 
HETATM   16 CL3  UNL     1      17.851   9.022 -22.352  1.00  0.00    -0.076 Cl
HETATM   17  S2  UNL     1      18.611   6.158 -23.417  1.00  0.00    -0.064 SA
ENDBRANCH   9  12
ENDBRANCH   7   9
ENDBRANCH   1   7
BRANCH   1  18
HETATM   18  C2  UNL     1      20.998   2.818 -21.031  1.00  0.00     0.033 C 
BRANCH  18  19
HETATM   19  C3  UNL     1      21.186   1.554 -20.260  1.00  0.00     0.033 C 
BRANCH  19  20
HETATM   20  C4  UNL     1      19.938   1.203 -19.486  1.00  0.00     0.272 C 
BRANCH  20  21
HETATM   21  N2  UNL     1      20.091   0.038 -18.636  1.00  0.00     0.089 N 
HETATM   22  C5  UNL     1      21.407  -0.189 -18.152  1.00  0.00     0.276 C 
HETATM   23  C6  UNL     1      21.973  -1.520 -18.487  1.00  0.00     0.065 C 
HETATM   24  C7  UNL     1      21.690  -1.898 -19.902  1.00  0.00    -0.063 C 
HETATM   25  C13 UNL     1      20.347  -1.659 -20.415  1.00  0.00     0.065 C 
HETATM   26  C14 UNL     1      19.460  -1.060 -19.309  1.00  0.00     0.276 C 
BRANCH  24  27
HETATM   27  C8  UNL     1      22.571  -2.923 -20.451  1.00  0.00     0.013 A 
HETATM   28  C9  UNL     1      23.792  -2.672 -21.090  1.00  0.00     0.061 A 
HETATM   29 CL1  UNL     1      24.207  -1.053 -21.554  1.00  0.00    -0.082 Cl
HETATM   30  C10 UNL     1      24.672  -3.664 -21.452  1.00  0.00     0.112 A 
HETATM   31  N3  UNL     1      24.387  -4.949 -21.203  1.00  0.00    -0.372 N 
HETATM   32  C11 UNL     1      23.253  -5.270 -20.604  1.00  0.00     0.112 A 
ATOM     33  H3  UNL     1      25.045  -5.680 -21.476  1.00  0.00     0.164 HD
HETATM   34  C12 UNL     1      22.373  -4.303 -20.236  1.00  0.00     0.061 A 
HETATM   35 CL2  UNL     1      20.917  -4.805 -19.393  1.00  0.00    -0.082 Cl
ENDBRANCH  24  27
ENDBRANCH  20  21
ENDBRANCH  19  20
ENDBRANCH  18  19
ENDBRANCH   1  18
BRANCH   4  36
HETATM   36  O3  UNL     1      20.846   2.084 -26.163  1.00  0.00    -0.396 OA
ATOM     37  H3  UNL     1      19.912   2.123 -25.993  1.00  0.00     0.210 HD
ENDBRANCH   4  36
TORSDOF 9
ENDMDL
MODEL 5
REMARK VINA RESULT: -9.360437613      2.279      3.785
REMARK  9 active torsions:
REMARK  status: ('A' for Active; 'I' for Inactive)
REMARK    1  A    between atoms: S1_2  and  N1_4 
REMARK    2  A    between atoms: S1_2  and  C20_32 
REMARK    3  A    between atoms: N1_4  and  C1_6 
REMARK    4  A    between atoms: C1_6  and  C2_7 
REMARK    5  A    between atoms: C2_7  and  C3_8 
REMARK    6  A    between atoms: C3_8  and  C4_9 
REMARK    7  A    between atoms: C4_9  and  N2_10 
REMARK    8  A    between atoms: C7_13  and  C8_14 
REMARK    9  A    between atoms: C17_27  and  O3_28 
ROOT
HETATM    1  C1  UNL     1      20.513   2.011 -22.631  1.00  0.00     0.041 C 
HETATM    2  C15 UNL     1      19.054   1.404 -22.918  1.00  0.00     0.034 C 
HETATM    3  C16 UNL     1      19.035   1.044 -24.403  1.00  0.00     0.034 C 
HETATM    4  C17 UNL     1      19.967  -0.102 -24.585  1.00  0.00     0.118 C 
HETATM    5  C18 UNL     1      20.751  -0.405 -23.343  1.00  0.00     0.034 C 
HETATM    6  C19 UNL     1      21.351   0.808 -22.660  1.00  0.00     0.034 C 
ENDROOT
BRANCH   1   7
HETATM    7  N1  UNL     1      20.539   3.004 -23.554  1.00  0.00    -0.305 N 
ATOM      8  H1  UNL     1      19.648   3.498 -23.584  1.00  0.00     0.173 HD
BRANCH   7   9
HETATM    9  S1  UNL     1      21.573   3.623 -24.610  1.00  0.00     0.266 S 
HETATM   10  O1  UNL     1      23.046   3.277 -24.451  1.00  0.00    -0.200 OA
HETATM   11  O2  UNL     1      21.291   3.033 -26.011  1.00  0.00    -0.200 OA
BRANCH   9  12
HETATM   12  C20 UNL     1      21.526   5.347 -24.824  1.00  0.00     0.121 A 
HETATM   13  C21 UNL     1      21.980   6.117 -25.864  1.00  0.00     0.035 A 
HETATM   14  C22 UNL     1      21.763   7.429 -25.839  1.00  0.00     0.033 A 
HETATM   15  C23 UNL     1      21.085   7.929 -24.752  1.00  0.00     0.075 A 
HETATM   16 CL3  UNL     1      20.633   9.630 -24.450  1.00  0.00    -0.076 Cl
HETATM   17  S2  UNL     1      20.785   6.549 -23.816  1.00  0.00    -0.064 SA
ENDBRANCH   9  12
ENDBRANCH   7   9
ENDBRANCH   1   7
BRANCH   1  18
HETATM   18  C2  UNL     1      20.327   2.493 -21.218  1.00  0.00     0.033 C 
BRANCH  18  19
HETATM   19  C3  UNL     1      20.901   1.603 -20.168  1.00  0.00     0.033 C 
BRANCH  19  20
HETATM   20  C4  UNL     1      19.811   0.995 -19.321  1.00  0.00     0.272 C 
BRANCH  20  21
HETATM   21  N2  UNL     1      20.285  -0.034 -18.413  1.00  0.00     0.089 N 
HETATM   22  C5  UNL     1      21.693  -0.074 -18.230  1.00  0.00     0.276 C 
HETATM   23  C6  UNL     1      22.324  -1.379 -18.548  1.00  0.00     0.065 C 
HETATM   24  C7  UNL     1      21.783  -1.960 -19.811  1.00  0.00    -0.063 C 
HETATM   25  C13 UNL     1      20.341  -1.913 -20.018  1.00  0.00     0.065 C 
HETATM   26  C14 UNL     1      19.656  -1.262 -18.803  1.00  0.00     0.276 C 
BRANCH  24  27
HETATM   27  C8  UNL     1      22.636  -2.961 -20.441  1.00  0.00     0.013 A 
HETATM   28  C9  UNL     1      23.827  -2.684 -21.125  1.00  0.00     0.061 A 
HETATM   29 CL1  UNL     1      24.222  -1.047 -21.541  1.00  0.00    -0.082 Cl
HETATM   30  C10 UNL     1      24.687  -3.660 -21.567  1.00  0.00     0.112 A 
HETATM   31  N3  UNL     1      24.413  -4.955 -21.359  1.00  0.00    -0.372 N 
HETATM   32  C11 UNL     1      23.306  -5.300 -20.721  1.00  0.00     0.112 A 
ATOM     33  H3  UNL     1      25.056  -5.673 -21.691  1.00  0.00     0.164 HD
HETATM   34  C12 UNL     1      22.446  -4.349 -20.274  1.00  0.00     0.061 A 
HETATM   35 CL2  UNL     1      21.030  -4.885 -19.386  1.00  0.00    -0.082 Cl
ENDBRANCH  24  27
ENDBRANCH  20  21
ENDBRANCH  19  20
ENDBRANCH  18  19
ENDBRANCH   1  18
BRANCH   4  36
HETATM   36  O3  UNL     1      20.749  -0.029 -25.731  1.00  0.00    -0.396 OA
ATOM     37  H3  UNL     1      20.332  -0.370 -26.513  1.00  0.00     0.210 HD
ENDBRANCH   4  36
TORSDOF 9
ENDMDL
