MODEL 1
REMARK VINA RESULT: -7.653086331      0.000      0.000
REMARK  6 active torsions:
REMARK  status: ('A' for Active; 'I' for Inactive)
REMARK    1  A    between atoms: C2_2  and  S1_3 
REMARK    2  A    between atoms: S1_3  and  N1_6 
REMARK    3  A    between atoms: C11_15  and  N2_16 
REMARK       I    between atoms: N2_16  and  C12_18 
REMARK    4  A    between atoms: C12_18  and  C13_20 
REMARK    5  A    between atoms: C13_20  and  C14_21 
REMARK    6  A    between atoms: C14_21  and  S2_22 
ROOT
HETATM    1  N1  UNL     1     -20.362  -1.637   4.783  1.00  0.00    -0.206 NA
HETATM    2  C3  UNL     1     -21.350  -1.785   5.776  1.00  0.00     0.107 C 
HETATM    3  C4  UNL     1     -21.063  -2.728   6.892  1.00  0.00     0.015 C 
HETATM    4  C5  UNL     1     -20.839  -4.147   6.482  1.00  0.00     0.001 C 
HETATM    5  C6  UNL     1     -20.752  -4.390   5.026  1.00  0.00     0.001 C 
HETATM    6  C7  UNL     1     -19.512  -4.119   4.324  1.00  0.00     0.011 C 
HETATM    7  C8  UNL     1     -18.512  -3.174   4.876  1.00  0.00    -0.026 C 
HETATM    8  C9  UNL     1     -17.632  -3.740   5.955  1.00  0.00     0.013 C 
HETATM    9  C10 UNL     1     -16.248  -3.154   5.761  1.00  0.00     0.026 C 
HETATM   10  C11 UNL     1     -16.219  -2.554   4.399  1.00  0.00     0.085 C 
HETATM   11  C16 UNL     1     -17.484  -3.026   3.733  1.00  0.00     0.036 C 
HETATM   12  C17 UNL     1     -19.006  -1.799   5.175  1.00  0.00     0.117 C 
ENDROOT
BRANCH  10  13
HETATM   13  N2  UNL     1     -15.100  -2.998   3.600  1.00  0.00    -0.356 N 
HETATM   14  C12 UNL     1     -14.867  -2.553   2.272  1.00  0.00     0.218 C 
HETATM   15  O3  UNL     1     -15.672  -1.735   1.771  1.00  0.00    -0.274 OA
ATOM     16  H2  UNL     1     -14.445  -3.663   4.010  1.00  0.00     0.162 HD
BRANCH  14  17
HETATM   17  C13 UNL     1     -13.709  -3.044   1.510  1.00  0.00     0.117 C 
BRANCH  17  18
HETATM   18  C14 UNL     1     -12.897  -3.959   2.370  1.00  0.00     0.149 C 
BRANCH  18  19
HETATM   19  S2  UNL     1     -13.195  -5.668   2.039  1.00  0.00     0.141 S 
HETATM   20  C15 UNL     1     -12.137  -6.720   2.977  1.00  0.00     0.161 C 
HETATM   21  O4  UNL     1     -14.613  -5.978   2.347  1.00  0.00    -0.228 OA
HETATM   22  O5  UNL     1     -12.905  -5.891   0.568  1.00  0.00    -0.228 OA
ENDBRANCH  18  19
ENDBRANCH  17  18
ENDBRANCH  14  17
ENDBRANCH  10  13
BRANCH   1  23
HETATM   23  S1  UNL     1     -20.610  -0.108   3.973  1.00  0.00     0.232 S 
HETATM   24  O1  UNL     1     -19.957  -0.212   2.625  1.00  0.00    -0.207 OA
HETATM   25  O2  UNL     1     -19.991   1.001   4.744  1.00  0.00    -0.207 OA
BRANCH  23  26
HETATM   26  C2  UNL     1     -22.323   0.149   3.704  1.00  0.00     0.115 C 
HETATM   27  C1  UNL     1     -23.144   0.166   4.723  1.00  0.00     0.024 C 
ENDBRANCH  23  26
ENDBRANCH   1  23
TORSDOF 6
ENDMDL
MODEL 2
REMARK VINA RESULT: -7.580209598      2.299      3.380
REMARK  6 active torsions:
REMARK  status: ('A' for Active; 'I' for Inactive)
REMARK    1  A    between atoms: C2_2  and  S1_3 
REMARK    2  A    between atoms: S1_3  and  N1_6 
REMARK    3  A    between atoms: C11_15  and  N2_16 
REMARK       I    between atoms: N2_16  and  C12_18 
REMARK    4  A    between atoms: C12_18  and  C13_20 
REMARK    5  A    between atoms: C13_20  and  C14_21 
REMARK    6  A    between atoms: C14_21  and  S2_22 
ROOT
HETATM    1  N1  UNL     1     -20.382  -2.239   5.298  1.00  0.00    -0.206 NA
HETATM    2  C3  UNL     1     -21.449  -1.318   5.298  1.00  0.00     0.107 C 
HETATM    3  C4  UNL     1     -21.506  -0.335   4.182  1.00  0.00     0.015 C 
HETATM    4  C5  UNL     1     -20.327   0.578   4.079  1.00  0.00     0.001 C 
HETATM    5  C6  UNL     1     -19.192   0.266   4.975  1.00  0.00     0.001 C 
HETATM    6  C7  UNL     1     -18.258  -0.784   4.615  1.00  0.00     0.011 C 
HETATM    7  C8  UNL     1     -18.646  -1.862   3.675  1.00  0.00    -0.026 C 
HETATM    8  C9  UNL     1     -18.590  -1.485   2.221  1.00  0.00     0.013 C 
HETATM    9  C10 UNL     1     -18.093  -2.698   1.459  1.00  0.00     0.026 C 
HETATM   10  C11 UNL     1     -17.523  -3.636   2.465  1.00  0.00     0.085 C 
HETATM   11  C16 UNL     1     -17.460  -2.850   3.747  1.00  0.00     0.036 C 
HETATM   12  C17 UNL     1     -19.863  -2.642   4.039  1.00  0.00     0.117 C 
ENDROOT
BRANCH  10  13
HETATM   13  N2  UNL     1     -16.184  -4.077   2.145  1.00  0.00    -0.356 N 
HETATM   14  C12 UNL     1     -15.120  -3.185   1.853  1.00  0.00     0.218 C 
HETATM   15  O3  UNL     1     -15.354  -1.956   1.875  1.00  0.00    -0.274 OA
ATOM     16  H2  UNL     1     -15.996  -5.080   2.129  1.00  0.00     0.162 HD
BRANCH  14  17
HETATM   17  C13 UNL     1     -13.779  -3.699   1.534  1.00  0.00     0.117 C 
BRANCH  17  18
HETATM   18  C14 UNL     1     -13.234  -4.440   2.713  1.00  0.00     0.149 C 
BRANCH  18  19
HETATM   19  S2  UNL     1     -13.040  -6.170   2.415  1.00  0.00     0.141 S 
HETATM   20  C15 UNL     1     -14.355  -7.114   3.111  1.00  0.00     0.161 C 
HETATM   21  O4  UNL     1     -12.973  -6.403   0.952  1.00  0.00    -0.228 OA
HETATM   22  O5  UNL     1     -11.746  -6.591   3.085  1.00  0.00    -0.228 OA
ENDBRANCH  18  19
ENDBRANCH  17  18
ENDBRANCH  14  17
ENDBRANCH  10  13
BRANCH   1  23
HETATM   23  S1  UNL     1     -20.835  -3.619   6.269  1.00  0.00     0.232 S 
HETATM   24  O1  UNL     1     -20.157  -3.465   7.599  1.00  0.00    -0.207 OA
HETATM   25  O2  UNL     1     -20.392  -4.882   5.625  1.00  0.00    -0.207 OA
BRANCH  23  26
HETATM   26  C2  UNL     1     -22.564  -3.596   6.560  1.00  0.00     0.115 C 
HETATM   27  C1  UNL     1     -23.051  -4.192   7.619  1.00  0.00     0.024 C 
ENDBRANCH  23  26
ENDBRANCH   1  23
TORSDOF 6
ENDMDL
MODEL 3
REMARK VINA RESULT: -7.564852772      2.066      2.591
REMARK  6 active torsions:
REMARK  status: ('A' for Active; 'I' for Inactive)
REMARK    1  A    between atoms: C2_2  and  S1_3 
REMARK    2  A    between atoms: S1_3  and  N1_6 
REMARK    3  A    between atoms: C11_15  and  N2_16 
REMARK       I    between atoms: N2_16  and  C12_18 
REMARK    4  A    between atoms: C12_18  and  C13_20 
REMARK    5  A    between atoms: C13_20  and  C14_21 
REMARK    6  A    between atoms: C14_21  and  S2_22 
ROOT
HETATM    1  N1  UNL     1     -21.822  -1.912   5.459  1.00  0.00    -0.206 NA
HETATM    2  C3  UNL     1     -22.802  -2.457   6.312  1.00  0.00     0.107 C 
HETATM    3  C4  UNL     1     -22.360  -3.482   7.296  1.00  0.00     0.015 C 
HETATM    4  C5  UNL     1     -21.765  -4.718   6.701  1.00  0.00     0.001 C 
HETATM    5  C6  UNL     1     -21.529  -4.680   5.241  1.00  0.00     0.001 C 
HETATM    6  C7  UNL     1     -20.354  -4.008   4.719  1.00  0.00     0.011 C 
HETATM    7  C8  UNL     1     -19.658  -2.964   5.507  1.00  0.00    -0.026 C 
HETATM    8  C9  UNL     1     -18.734  -3.485   6.572  1.00  0.00     0.013 C 
HETATM    9  C10 UNL     1     -17.529  -2.566   6.613  1.00  0.00     0.026 C 
HETATM   10  C11 UNL     1     -17.565  -1.751   5.367  1.00  0.00     0.085 C 
HETATM   11  C16 UNL     1     -18.629  -2.385   4.512  1.00  0.00     0.036 C 
HETATM   12  C17 UNL     1     -20.495  -1.816   5.958  1.00  0.00     0.117 C 
ENDROOT
BRANCH  10  13
HETATM   13  N2  UNL     1     -16.323  -1.775   4.628  1.00  0.00    -0.356 N 
HETATM   14  C12 UNL     1     -15.861  -2.915   3.921  1.00  0.00     0.218 C 
HETATM   15  O3  UNL     1     -16.565  -3.950   3.938  1.00  0.00    -0.274 OA
ATOM     16  H2  UNL     1     -15.751  -0.930   4.615  1.00  0.00     0.162 HD
BRANCH  14  17
HETATM   17  C13 UNL     1     -14.586  -2.876   3.189  1.00  0.00     0.117 C 
BRANCH  17  18
HETATM   18  C14 UNL     1     -14.824  -2.380   1.797  1.00  0.00     0.149 C 
BRANCH  18  19
HETATM   19  S2  UNL     1     -15.226  -3.671   0.660  1.00  0.00     0.141 S 
HETATM   20  C15 UNL     1     -16.962  -3.792   0.382  1.00  0.00     0.161 C 
HETATM   21  O4  UNL     1     -14.528  -3.417  -0.623  1.00  0.00    -0.228 OA
HETATM   22  O5  UNL     1     -14.752  -4.970   1.282  1.00  0.00    -0.228 OA
ENDBRANCH  18  19
ENDBRANCH  17  18
ENDBRANCH  14  17
ENDBRANCH  10  13
BRANCH   1  23
HETATM   23  S1  UNL     1     -22.390  -0.369   4.869  1.00  0.00     0.232 S 
HETATM   24  O1  UNL     1     -23.052   0.328   6.023  1.00  0.00    -0.207 OA
HETATM   25  O2  UNL     1     -23.371  -0.555   3.769  1.00  0.00    -0.207 OA
BRANCH  23  26
HETATM   26  C2  UNL     1     -21.026   0.617   4.378  1.00  0.00     0.115 C 
HETATM   27  C1  UNL     1     -20.557   0.516   3.160  1.00  0.00     0.024 C 
ENDBRANCH  23  26
ENDBRANCH   1  23
TORSDOF 6
ENDMDL
MODEL 4
REMARK VINA RESULT: -7.544394067      2.466      3.703
REMARK  6 active torsions:
REMARK  status: ('A' for Active; 'I' for Inactive)
REMARK    1  A    between atoms: C2_2  and  S1_3 
REMARK    2  A    between atoms: S1_3  and  N1_6 
REMARK    3  A    between atoms: C11_15  and  N2_16 
REMARK       I    between atoms: N2_16  and  C12_18 
REMARK    4  A    between atoms: C12_18  and  C13_20 
REMARK    5  A    between atoms: C13_20  and  C14_21 
REMARK    6  A    between atoms: C14_21  and  S2_22 
ROOT
HETATM    1  N1  UNL     1     -20.721  -2.223   5.455  1.00  0.00    -0.206 NA
HETATM    2  C3  UNL     1     -21.770  -1.299   5.281  1.00  0.00     0.107 C 
HETATM    3  C4  UNL     1     -21.680  -0.372   4.120  1.00  0.00     0.015 C 
HETATM    4  C5  UNL     1     -20.488   0.529   4.119  1.00  0.00     0.001 C 
HETATM    5  C6  UNL     1     -19.474   0.257   5.161  1.00  0.00     0.001 C 
HETATM    6  C7  UNL     1     -18.514  -0.813   4.969  1.00  0.00     0.011 C 
HETATM    7  C8  UNL     1     -18.795  -1.935   4.041  1.00  0.00    -0.026 C 
HETATM    8  C9  UNL     1     -18.558  -1.629   2.588  1.00  0.00     0.013 C 
HETATM    9  C10 UNL     1     -17.984  -2.880   1.952  1.00  0.00     0.026 C 
HETATM   10  C11 UNL     1     -17.551  -3.770   3.065  1.00  0.00     0.085 C 
HETATM   11  C16 UNL     1     -17.638  -2.922   4.305  1.00  0.00     0.036 C 
HETATM   12  C17 UNL     1     -20.056  -2.690   4.290  1.00  0.00     0.117 C 
ENDROOT
BRANCH  10  13
HETATM   13  N2  UNL     1     -16.188  -4.233   2.933  1.00  0.00    -0.356 N 
HETATM   14  C12 UNL     1     -15.846  -5.591   2.705  1.00  0.00     0.218 C 
HETATM   15  O3  UNL     1     -16.772  -6.428   2.613  1.00  0.00    -0.274 OA
ATOM     16  H2  UNL     1     -15.435  -3.548   3.007  1.00  0.00     0.162 HD
BRANCH  14  17
HETATM   17  C13 UNL     1     -14.438  -5.998   2.581  1.00  0.00     0.117 C 
BRANCH  17  18
HETATM   18  C14 UNL     1     -13.565  -4.783   2.579  1.00  0.00     0.149 C 
BRANCH  18  19
HETATM   19  S2  UNL     1     -13.174  -4.213   0.954  1.00  0.00     0.141 S 
HETATM   20  C15 UNL     1     -14.560  -3.465   0.162  1.00  0.00     0.161 C 
HETATM   21  O4  UNL     1     -12.059  -3.239   1.040  1.00  0.00    -0.228 OA
HETATM   22  O5  UNL     1     -12.763  -5.428   0.146  1.00  0.00    -0.228 OA
ENDBRANCH  18  19
ENDBRANCH  17  18
ENDBRANCH  14  17
ENDBRANCH  10  13
BRANCH   1  23
HETATM   23  S1  UNL     1     -21.303  -3.553   6.428  1.00  0.00     0.232 S 
HETATM   24  O1  UNL     1     -20.620  -3.456   7.762  1.00  0.00    -0.207 OA
HETATM   25  O2  UNL     1     -20.974  -4.854   5.792  1.00  0.00    -0.207 OA
BRANCH  23  26
HETATM   26  C2  UNL     1     -23.024  -3.370   6.711  1.00  0.00     0.115 C 
HETATM   27  C1  UNL     1     -23.593  -4.022   7.693  1.00  0.00     0.024 C 
ENDBRANCH  23  26
ENDBRANCH   1  23
TORSDOF 6
ENDMDL
MODEL 5
REMARK VINA RESULT: -7.514951501      1.752      2.071
REMARK  6 active torsions:
REMARK  status: ('A' for Active; 'I' for Inactive)
REMARK    1  A    between atoms: C2_2  and  S1_3 
REMARK    2  A    between atoms: S1_3  and  N1_6 
REMARK    3  A    between atoms: C11_15  and  N2_16 
REMARK       I    between atoms: N2_16  and  C12_18 
REMARK    4  A    between atoms: C12_18  and  C13_20 
REMARK    5  A    between atoms: C13_20  and  C14_21 
REMARK    6  A    between atoms: C14_21  and  S2_22 
ROOT
HETATM    1  N1  UNL     1     -21.717  -1.877   5.420  1.00  0.00    -0.206 NA
HETATM    2  C3  UNL     1     -22.704  -2.371   6.296  1.00  0.00     0.107 C 
HETATM    3  C4  UNL     1     -22.290  -3.407   7.281  1.00  0.00     0.015 C 
HETATM    4  C5  UNL     1     -21.760  -4.672   6.686  1.00  0.00     0.001 C 
HETATM    5  C6  UNL     1     -21.550  -4.657   5.222  1.00  0.00     0.001 C 
HETATM    6  C7  UNL     1     -20.357  -4.042   4.673  1.00  0.00     0.011 C 
HETATM    7  C8  UNL     1     -19.601  -3.022   5.438  1.00  0.00    -0.026 C 
HETATM    8  C9  UNL     1     -18.681  -3.574   6.492  1.00  0.00     0.013 C 
HETATM    9  C10 UNL     1     -17.436  -2.709   6.502  1.00  0.00     0.026 C 
HETATM   10  C11 UNL     1     -17.460  -1.904   5.250  1.00  0.00     0.085 C 
HETATM   11  C16 UNL     1     -18.566  -2.497   4.419  1.00  0.00     0.036 C 
HETATM   12  C17 UNL     1     -20.379  -1.836   5.894  1.00  0.00     0.117 C 
ENDROOT
BRANCH  10  13
HETATM   13  N2  UNL     1     -16.234  -1.988   4.489  1.00  0.00    -0.356 N 
HETATM   14  C12 UNL     1     -15.848  -3.144   3.761  1.00  0.00     0.218 C 
HETATM   15  O3  UNL     1     -16.609  -4.138   3.781  1.00  0.00    -0.274 OA
ATOM     16  H2  UNL     1     -15.616  -1.177   4.474  1.00  0.00     0.162 HD
BRANCH  14  17
HETATM   17  C13 UNL     1     -14.586  -3.168   3.007  1.00  0.00     0.117 C 
BRANCH  17  18
HETATM   18  C14 UNL     1     -14.659  -4.217   1.944  1.00  0.00     0.149 C 
BRANCH  18  19
HETATM   19  S2  UNL     1     -13.277  -5.318   1.960  1.00  0.00     0.141 S 
HETATM   20  C15 UNL     1     -13.658  -6.848   2.747  1.00  0.00     0.161 C 
HETATM   21  O4  UNL     1     -12.841  -5.565   0.564  1.00  0.00    -0.228 OA
HETATM   22  O5  UNL     1     -12.179  -4.636   2.753  1.00  0.00    -0.228 OA
ENDBRANCH  18  19
ENDBRANCH  17  18
ENDBRANCH  14  17
ENDBRANCH  10  13
BRANCH   1  23
HETATM   23  S1  UNL     1     -22.228  -0.315   4.827  1.00  0.00     0.232 S 
HETATM   24  O1  UNL     1     -22.870   0.406   5.977  1.00  0.00    -0.207 OA
HETATM   25  O2  UNL     1     -23.211  -0.468   3.723  1.00  0.00    -0.207 OA
BRANCH  23  26
HETATM   26  C2  UNL     1     -20.828   0.622   4.341  1.00  0.00     0.115 C 
HETATM   27  C1  UNL     1     -20.419   0.580   3.099  1.00  0.00     0.024 C 
ENDBRANCH  23  26
ENDBRANCH   1  23
TORSDOF 6
ENDMDL
