MODEL 1
REMARK VINA RESULT: -8.935994462      0.000      0.000
REMARK  6 active torsions:
REMARK  status: ('A' for Active; 'I' for Inactive)
REMARK    1  A    between atoms: C3_3  and  C5_5 
REMARK    2  A    between atoms: C6_6  and  C7_7 
REMARK    3  A    between atoms: C11_12  and  C12_13 
REMARK    4  A    between atoms: C12_13  and  N1_14 
REMARK       I    between atoms: N1_14  and  C13_16 
REMARK       I    between atoms: C13_16  and  N2_18 
REMARK    5  A    between atoms: N3_21  and  C16_22 
REMARK    6  A    between atoms: C16_22  and  C17_23 
ROOT
HETATM    1  C1  UNL     1     -12.160  -6.452   2.654  1.00  0.00     0.012 C 
HETATM    2  C2  UNL     1     -12.955  -5.618   2.308  1.00  0.00    -0.109 C 
HETATM    3  C3  UNL     1     -13.960  -4.592   1.888  1.00  0.00     0.082 C 
HETATM    4  C4  UNL     1     -13.575  -4.188   0.471  1.00  0.00     0.027 C 
ENDROOT
BRANCH   3   5
HETATM    5  C5  UNL     1     -15.264  -5.232   1.942  1.00  0.00    -0.014 C 
HETATM    6  C6  UNL     1     -16.383  -4.634   2.233  1.00  0.00    -0.022 C 
BRANCH   6   7
HETATM    7  C7  UNL     1     -16.477  -3.199   2.554  1.00  0.00     0.039 C 
HETATM    8  C8  UNL     1     -15.380  -2.814   3.538  1.00  0.00     0.013 C 
HETATM    9  C9  UNL     1     -16.094  -2.715   4.875  1.00  0.00     0.035 C 
HETATM   10  C10 UNL     1     -17.393  -2.046   4.404  1.00  0.00     0.151 C 
HETATM   11  O1  UNL     1     -18.303  -1.932   5.428  1.00  0.00    -0.374 OA
HETATM   12  C23 UNL     1     -17.800  -2.962   3.296  1.00  0.00     0.158 C 
HETATM   13  C11 UNL     1     -18.741  -3.128   5.938  1.00  0.00     0.163 C 
HETATM   14  C22 UNL     1     -19.169  -4.028   4.815  1.00  0.00     0.201 C 
HETATM   15  O3  UNL     1     -18.188  -4.163   3.837  1.00  0.00    -0.380 OA
BRANCH  13  16
HETATM   16  C12 UNL     1     -19.879  -2.926   6.886  1.00  0.00     0.158 C 
BRANCH  16  17
HETATM   17  N1  UNL     1     -20.970  -2.188   6.337  1.00  0.00    -0.340 N 
HETATM   18  C13 UNL     1     -22.257  -2.747   6.288  1.00  0.00     0.318 C 
HETATM   19  O2  UNL     1     -22.450  -3.901   6.729  1.00  0.00    -0.247 OA
HETATM   20  N2  UNL     1     -23.351  -2.024   5.744  1.00  0.00    -0.331 N 
HETATM   21  C14 UNL     1     -24.654  -2.632   5.722  1.00  0.00     0.158 C 
HETATM   22  C21 UNL     1     -23.111  -0.702   5.237  1.00  0.00     0.158 C 
HETATM   23  C15 UNL     1     -25.456  -2.131   4.545  1.00  0.00     0.292 C 
HETATM   24  N3  UNL     1     -25.488  -0.678   4.562  1.00  0.00     0.091 N 
HETATM   25  C20 UNL     1     -24.190  -0.104   4.406  1.00  0.00     0.292 C 
ATOM     26  H1  UNL     1     -20.814  -1.247   5.977  1.00  0.00     0.164 HD
BRANCH  24  27
HETATM   27  C16 UNL     1     -26.412  -0.204   3.577  1.00  0.00     0.277 C 
BRANCH  27  28
HETATM   28  C17 UNL     1     -25.598   0.318   2.406  1.00  0.00     0.014 A 
HETATM   29  C18 UNL     1     -26.151   1.346   1.498  1.00  0.00     0.007 A 
HETATM   30  C19 UNL     1     -25.968  -0.068   1.019  1.00  0.00     0.007 A 
ENDBRANCH  27  28
ENDBRANCH  24  27
ENDBRANCH  16  17
ENDBRANCH  13  16
ENDBRANCH   6   7
ENDBRANCH   3   5
TORSDOF 6
ENDMDL
MODEL 2
REMARK VINA RESULT: -8.850947691      1.338      1.972
REMARK  6 active torsions:
REMARK  status: ('A' for Active; 'I' for Inactive)
REMARK    1  A    between atoms: C3_3  and  C5_5 
REMARK    2  A    between atoms: C6_6  and  C7_7 
REMARK    3  A    between atoms: C11_12  and  C12_13 
REMARK    4  A    between atoms: C12_13  and  N1_14 
REMARK       I    between atoms: N1_14  and  C13_16 
REMARK       I    between atoms: C13_16  and  N2_18 
REMARK    5  A    between atoms: N3_21  and  C16_22 
REMARK    6  A    between atoms: C16_22  and  C17_23 
ROOT
HETATM    1  C1  UNL     1     -12.868  -5.769   0.016  1.00  0.00     0.012 C 
HETATM    2  C2  UNL     1     -12.929  -5.309   1.126  1.00  0.00    -0.109 C 
HETATM    3  C3  UNL     1     -13.023  -4.722   2.499  1.00  0.00     0.082 C 
HETATM    4  C4  UNL     1     -11.591  -4.640   3.014  1.00  0.00     0.027 C 
ENDROOT
BRANCH   3   5
HETATM    5  C5  UNL     1     -13.632  -3.410   2.357  1.00  0.00    -0.014 C 
HETATM    6  C6  UNL     1     -14.883  -3.134   2.587  1.00  0.00    -0.022 C 
BRANCH   6   7
HETATM    7  C7  UNL     1     -15.868  -4.137   3.030  1.00  0.00     0.039 C 
HETATM    8  C8  UNL     1     -17.024  -4.201   2.041  1.00  0.00     0.013 C 
HETATM    9  C9  UNL     1     -18.144  -3.435   2.724  1.00  0.00     0.035 C 
HETATM   10  C10 UNL     1     -17.934  -3.935   4.160  1.00  0.00     0.151 C 
HETATM   11  O1  UNL     1     -18.772  -3.298   5.044  1.00  0.00    -0.374 OA
HETATM   12  C23 UNL     1     -16.480  -3.652   4.351  1.00  0.00     0.158 C 
HETATM   13  C11 UNL     1     -18.563  -1.947   5.155  1.00  0.00     0.163 C 
HETATM   14  C22 UNL     1     -17.102  -1.680   5.372  1.00  0.00     0.201 C 
HETATM   15  O3  UNL     1     -16.300  -2.292   4.413  1.00  0.00    -0.380 OA
BRANCH  13  16
HETATM   16  C12 UNL     1     -19.355  -1.370   6.284  1.00  0.00     0.158 C 
BRANCH  16  17
HETATM   17  N1  UNL     1     -20.697  -1.026   5.937  1.00  0.00    -0.340 N 
HETATM   18  C13 UNL     1     -21.749  -1.923   6.182  1.00  0.00     0.318 C 
HETATM   19  O2  UNL     1     -21.510  -3.032   6.707  1.00  0.00    -0.247 OA
HETATM   20  N2  UNL     1     -23.087  -1.593   5.842  1.00  0.00    -0.331 N 
HETATM   21  C14 UNL     1     -24.136  -2.538   6.118  1.00  0.00     0.158 C 
HETATM   22  C21 UNL     1     -23.343  -0.318   5.234  1.00  0.00     0.158 C 
HETATM   23  C15 UNL     1     -25.252  -2.407   5.110  1.00  0.00     0.292 C 
HETATM   24  N3  UNL     1     -25.704  -1.026   5.063  1.00  0.00     0.091 N 
HETATM   25  C20 UNL     1     -24.684  -0.133   4.616  1.00  0.00     0.292 C 
ATOM     26  H1  UNL     1     -20.892  -0.122   5.509  1.00  0.00     0.164 HD
BRANCH  24  27
HETATM   27  C16 UNL     1     -26.891  -0.933   4.270  1.00  0.00     0.277 C 
BRANCH  27  28
HETATM   28  C17 UNL     1     -26.746  -1.916   3.121  1.00  0.00     0.014 A 
HETATM   29  C18 UNL     1     -26.535  -1.438   1.738  1.00  0.00     0.007 A 
HETATM   30  C19 UNL     1     -27.845  -2.064   2.132  1.00  0.00     0.007 A 
ENDBRANCH  27  28
ENDBRANCH  24  27
ENDBRANCH  16  17
ENDBRANCH  13  16
ENDBRANCH   6   7
ENDBRANCH   3   5
TORSDOF 6
ENDMDL
MODEL 3
REMARK VINA RESULT: -8.806739381      2.075      3.315
REMARK  6 active torsions:
REMARK  status: ('A' for Active; 'I' for Inactive)
REMARK    1  A    between atoms: C3_3  and  C5_5 
REMARK    2  A    between atoms: C6_6  and  C7_7 
REMARK    3  A    between atoms: C11_12  and  C12_13 
REMARK    4  A    between atoms: C12_13  and  N1_14 
REMARK       I    between atoms: N1_14  and  C13_16 
REMARK       I    between atoms: C13_16  and  N2_18 
REMARK    5  A    between atoms: N3_21  and  C16_22 
REMARK    6  A    between atoms: C16_22  and  C17_23 
ROOT
HETATM    1  C1  UNL     1     -12.860  -5.767   0.005  1.00  0.00     0.012 C 
HETATM    2  C2  UNL     1     -12.919  -5.311   1.117  1.00  0.00    -0.109 C 
HETATM    3  C3  UNL     1     -13.009  -4.730   2.493  1.00  0.00     0.082 C 
HETATM    4  C4  UNL     1     -11.577  -4.659   3.009  1.00  0.00     0.027 C 
ENDROOT
BRANCH   3   5
HETATM    5  C5  UNL     1     -13.610  -3.413   2.357  1.00  0.00    -0.014 C 
HETATM    6  C6  UNL     1     -14.864  -3.136   2.566  1.00  0.00    -0.022 C 
BRANCH   6   7
HETATM    7  C7  UNL     1     -15.861  -4.140   2.978  1.00  0.00     0.039 C 
HETATM    8  C8  UNL     1     -16.998  -4.187   1.967  1.00  0.00     0.013 C 
HETATM    9  C9  UNL     1     -18.128  -3.426   2.638  1.00  0.00     0.035 C 
HETATM   10  C10 UNL     1     -17.948  -3.944   4.071  1.00  0.00     0.151 C 
HETATM   11  O1  UNL     1     -18.800  -3.315   4.947  1.00  0.00    -0.374 OA
HETATM   12  C23 UNL     1     -16.497  -3.669   4.293  1.00  0.00     0.158 C 
HETATM   13  C11 UNL     1     -18.588  -1.966   5.079  1.00  0.00     0.163 C 
HETATM   14  C22 UNL     1     -17.130  -1.707   5.326  1.00  0.00     0.201 C 
HETATM   15  O3  UNL     1     -16.313  -2.311   4.376  1.00  0.00    -0.380 OA
BRANCH  13  16
HETATM   16  C12 UNL     1     -19.400  -1.400   6.200  1.00  0.00     0.158 C 
BRANCH  16  17
HETATM   17  N1  UNL     1     -20.738  -1.892   6.256  1.00  0.00    -0.340 N 
HETATM   18  C13 UNL     1     -21.806  -1.114   5.782  1.00  0.00     0.318 C 
HETATM   19  O2  UNL     1     -21.584   0.021   5.306  1.00  0.00    -0.247 OA
HETATM   20  N2  UNL     1     -23.141  -1.593   5.832  1.00  0.00    -0.331 N 
HETATM   21  C14 UNL     1     -24.204  -0.766   5.327  1.00  0.00     0.158 C 
HETATM   22  C21 UNL     1     -23.379  -2.896   6.386  1.00  0.00     0.158 C 
HETATM   23  C15 UNL     1     -25.488  -1.032   6.075  1.00  0.00     0.292 C 
HETATM   24  N3  UNL     1     -25.785  -2.454   6.040  1.00  0.00     0.091 N 
HETATM   25  C20 UNL     1     -24.792  -3.234   6.706  1.00  0.00     0.292 C 
ATOM     26  H1  UNL     1     -20.920  -2.818   6.644  1.00  0.00     0.164 HD
BRANCH  24  27
HETATM   27  C16 UNL     1     -27.097  -2.686   6.563  1.00  0.00     0.277 C 
BRANCH  27  28
HETATM   28  C17 UNL     1     -27.274  -4.189   6.692  1.00  0.00     0.014 A 
HETATM   29  C18 UNL     1     -27.884  -4.976   5.599  1.00  0.00     0.007 A 
HETATM   30  C19 UNL     1     -28.632  -4.760   6.885  1.00  0.00     0.007 A 
ENDBRANCH  27  28
ENDBRANCH  24  27
ENDBRANCH  16  17
ENDBRANCH  13  16
ENDBRANCH   6   7
ENDBRANCH   3   5
TORSDOF 6
ENDMDL
MODEL 4
REMARK VINA RESULT: -8.727918791      1.297      1.907
REMARK  6 active torsions:
REMARK  status: ('A' for Active; 'I' for Inactive)
REMARK    1  A    between atoms: C3_3  and  C5_5 
REMARK    2  A    between atoms: C6_6  and  C7_7 
REMARK    3  A    between atoms: C11_12  and  C12_13 
REMARK    4  A    between atoms: C12_13  and  N1_14 
REMARK       I    between atoms: N1_14  and  C13_16 
REMARK       I    between atoms: C13_16  and  N2_18 
REMARK    5  A    between atoms: N3_21  and  C16_22 
REMARK    6  A    between atoms: C16_22  and  C17_23 
ROOT
HETATM    1  C1  UNL     1     -12.866  -6.136   0.329  1.00  0.00     0.012 C 
HETATM    2  C2  UNL     1     -12.864  -5.484   1.340  1.00  0.00    -0.109 C 
HETATM    3  C3  UNL     1     -12.879  -4.661   2.589  1.00  0.00     0.082 C 
HETATM    4  C4  UNL     1     -11.420  -4.492   2.994  1.00  0.00     0.027 C 
ENDROOT
BRANCH   3   5
HETATM    5  C5  UNL     1     -13.507  -3.394   2.253  1.00  0.00    -0.014 C 
HETATM    6  C6  UNL     1     -14.787  -3.159   2.284  1.00  0.00    -0.022 C 
BRANCH   6   7
HETATM    7  C7  UNL     1     -15.789  -4.166   2.674  1.00  0.00     0.039 C 
HETATM    8  C8  UNL     1     -16.974  -4.116   1.718  1.00  0.00     0.013 C 
HETATM    9  C9  UNL     1     -18.050  -3.378   2.494  1.00  0.00     0.035 C 
HETATM   10  C10 UNL     1     -17.816  -4.000   3.878  1.00  0.00     0.151 C 
HETATM   11  O1  UNL     1     -18.609  -3.415   4.836  1.00  0.00    -0.374 OA
HETATM   12  C23 UNL     1     -16.350  -3.775   4.048  1.00  0.00     0.158 C 
HETATM   13  C11 UNL     1     -18.356  -2.085   5.051  1.00  0.00     0.163 C 
HETATM   14  C22 UNL     1     -16.882  -1.877   5.244  1.00  0.00     0.201 C 
HETATM   15  O3  UNL     1     -16.127  -2.431   4.215  1.00  0.00    -0.380 OA
BRANCH  13  16
HETATM   16  C12 UNL     1     -19.099  -1.580   6.246  1.00  0.00     0.158 C 
BRANCH  16  17
HETATM   17  N1  UNL     1     -20.441  -1.179   5.971  1.00  0.00    -0.340 N 
HETATM   18  C13 UNL     1     -21.509  -2.062   6.193  1.00  0.00     0.318 C 
HETATM   19  O2  UNL     1     -21.285  -3.210   6.636  1.00  0.00    -0.247 OA
HETATM   20  N2  UNL     1     -22.849  -1.676   5.924  1.00  0.00    -0.331 N 
HETATM   21  C14 UNL     1     -23.914  -2.609   6.175  1.00  0.00     0.158 C 
HETATM   22  C21 UNL     1     -23.088  -0.356   5.410  1.00  0.00     0.158 C 
HETATM   23  C15 UNL     1     -25.059  -2.381   5.218  1.00  0.00     0.292 C 
HETATM   24  N3  UNL     1     -25.473  -0.989   5.278  1.00  0.00     0.091 N 
HETATM   25  C20 UNL     1     -24.444  -0.096   4.854  1.00  0.00     0.292 C 
ATOM     26  H1  UNL     1     -20.625  -0.244   5.610  1.00  0.00     0.164 HD
BRANCH  24  27
HETATM   27  C16 UNL     1     -26.684  -0.813   4.535  1.00  0.00     0.277 C 
BRANCH  27  28
HETATM   28  C17 UNL     1     -26.595   0.533   3.837  1.00  0.00     0.014 A 
HETATM   29  C18 UNL     1     -27.802   1.364   3.638  1.00  0.00     0.007 A 
HETATM   30  C19 UNL     1     -27.142   0.692   2.465  1.00  0.00     0.007 A 
ENDBRANCH  27  28
ENDBRANCH  24  27
ENDBRANCH  16  17
ENDBRANCH  13  16
ENDBRANCH   6   7
ENDBRANCH   3   5
TORSDOF 6
ENDMDL
MODEL 5
REMARK VINA RESULT: -8.682048421      1.572      2.028
REMARK  6 active torsions:
REMARK  status: ('A' for Active; 'I' for Inactive)
REMARK    1  A    between atoms: C3_3  and  C5_5 
REMARK    2  A    between atoms: C6_6  and  C7_7 
REMARK    3  A    between atoms: C11_12  and  C12_13 
REMARK    4  A    between atoms: C12_13  and  N1_14 
REMARK       I    between atoms: N1_14  and  C13_16 
REMARK       I    between atoms: C13_16  and  N2_18 
REMARK    5  A    between atoms: N3_21  and  C16_22 
REMARK    6  A    between atoms: C16_22  and  C17_23 
ROOT
HETATM    1  C1  UNL     1     -12.483  -3.518   1.762  1.00  0.00     0.012 C 
HETATM    2  C2  UNL     1     -13.670  -3.361   1.878  1.00  0.00    -0.109 C 
HETATM    3  C3  UNL     1     -15.145  -3.175   2.044  1.00  0.00     0.082 C 
HETATM    4  C4  UNL     1     -15.764  -3.527   0.697  1.00  0.00     0.027 C 
ENDROOT
BRANCH   3   5
HETATM    5  C5  UNL     1     -15.570  -4.081   3.098  1.00  0.00    -0.014 C 
HETATM    6  C6  UNL     1     -16.367  -3.771   4.079  1.00  0.00    -0.022 C 
BRANCH   6   7
HETATM    7  C7  UNL     1     -16.958  -2.432   4.254  1.00  0.00     0.039 C 
HETATM    8  C8  UNL     1     -16.539  -1.851   5.597  1.00  0.00     0.013 C 
HETATM    9  C9  UNL     1     -17.761  -2.029   6.480  1.00  0.00     0.035 C 
HETATM   10  C10 UNL     1     -18.850  -1.681   5.456  1.00  0.00     0.151 C 
HETATM   11  O1  UNL     1     -20.109  -1.872   5.971  1.00  0.00    -0.374 OA
HETATM   12  C23 UNL     1     -18.483  -2.590   4.329  1.00  0.00     0.158 C 
HETATM   13  C11 UNL     1     -20.400  -3.172   6.297  1.00  0.00     0.163 C 
HETATM   14  C22 UNL     1     -20.050  -4.070   5.148  1.00  0.00     0.201 C 
HETATM   15  O3  UNL     1     -18.744  -3.885   4.705  1.00  0.00    -0.380 OA
BRANCH  13  16
HETATM   16  C12 UNL     1     -21.847  -3.331   6.641  1.00  0.00     0.158 C 
BRANCH  16  17
HETATM   17  N1  UNL     1     -22.690  -2.319   6.092  1.00  0.00    -0.340 N 
HETATM   18  C13 UNL     1     -24.086  -2.465   6.113  1.00  0.00     0.318 C 
HETATM   19  O2  UNL     1     -24.597  -3.489   6.616  1.00  0.00    -0.247 OA
HETATM   20  N2  UNL     1     -24.936  -1.465   5.570  1.00  0.00    -0.331 N 
HETATM   21  C14 UNL     1     -26.361  -1.651   5.620  1.00  0.00     0.158 C 
HETATM   22  C21 UNL     1     -24.333  -0.298   4.990  1.00  0.00     0.158 C 
HETATM   23  C15 UNL     1     -27.029  -0.975   4.447  1.00  0.00     0.292 C 
HETATM   24  N3  UNL     1     -26.622   0.419   4.392  1.00  0.00     0.091 N 
HETATM   25  C20 UNL     1     -25.220   0.568   4.166  1.00  0.00     0.292 C 
ATOM     26  H1  UNL     1     -22.275  -1.483   5.681  1.00  0.00     0.164 HD
BRANCH  24  27
HETATM   27  C16 UNL     1     -27.405   1.113   3.416  1.00  0.00     0.277 C 
BRANCH  27  28
HETATM   28  C17 UNL     1     -26.679   2.407   3.091  1.00  0.00     0.014 A 
HETATM   29  C18 UNL     1     -27.433   3.635   2.759  1.00  0.00     0.007 A 
HETATM   30  C19 UNL     1     -26.659   2.911   1.693  1.00  0.00     0.007 A 
ENDBRANCH  27  28
ENDBRANCH  24  27
ENDBRANCH  16  17
ENDBRANCH  13  16
ENDBRANCH   6   7
ENDBRANCH   3   5
TORSDOF 6
ENDMDL
