MODEL 1
REMARK VINA RESULT: -8.158466765      0.000      0.000
REMARK  7 active torsions:
REMARK  status: ('A' for Active; 'I' for Inactive)
REMARK    1  A    between atoms: N1_2  and  C2_3 
REMARK    2  A    between atoms: N1_2  and  S1_10 
REMARK    3  A    between atoms: C2_3  and  C3_4 
REMARK    4  A    between atoms: C2_3  and  C6_7 
REMARK    5  A    between atoms: S1_10  and  N2_13 
REMARK    6  A    between atoms: C12_17  and  C13_18 
REMARK       I    between atoms: C13_18  and  N3_20 
REMARK    7  A    between atoms: N3_20  and  C14_22 
ROOT
HETATM    1  N2  UNL     1     -18.540  -1.782   5.455  1.00  0.00    -0.197 NA
HETATM    2  C9  UNL     1     -17.786  -1.956   6.662  1.00  0.00     0.108 C 
HETATM    3  C10 UNL     1     -16.384  -2.441   6.371  1.00  0.00     0.016 C 
HETATM    4  C11 UNL     1     -16.453  -3.340   5.158  1.00  0.00     0.016 C 
HETATM    5  C12 UNL     1     -16.704  -2.419   3.974  1.00  0.00     0.092 C 
HETATM    6  C17 UNL     1     -17.739  -1.372   4.330  1.00  0.00     0.122 C 
ENDROOT
BRANCH   1   7
HETATM    7  S1  UNL     1     -19.899  -0.810   5.756  1.00  0.00     0.283 S 
HETATM    8  O1  UNL     1     -19.970  -0.621   7.267  1.00  0.00    -0.194 OA
HETATM    9  O2  UNL     1     -19.717   0.515   5.076  1.00  0.00    -0.194 OA
BRANCH   7  10
HETATM   10  N1  UNL     1     -21.351  -1.506   5.251  1.00  0.00    -0.196 NA
HETATM   11  C1  UNL     1     -22.413  -0.557   5.027  1.00  0.00     0.131 C 
BRANCH  10  12
HETATM   12  C2  UNL     1     -21.766  -2.669   5.966  1.00  0.00     0.083 C 
BRANCH  12  13
HETATM   13  C3  UNL     1     -21.465  -3.927   5.261  1.00  0.00     0.005 A 
HETATM   14  C4  UNL     1     -20.060  -4.286   4.799  1.00  0.00     0.007 A 
HETATM   15  C5  UNL     1     -20.739  -5.071   5.852  1.00  0.00     0.007 A 
ENDBRANCH  12  13
BRANCH  12  16
HETATM   16  C6  UNL     1     -23.204  -2.507   6.366  1.00  0.00     0.005 A 
HETATM   17  C7  UNL     1     -23.934  -3.527   7.132  1.00  0.00     0.007 A 
HETATM   18  C8  UNL     1     -24.318  -3.223   5.695  1.00  0.00     0.007 A 
ENDBRANCH  12  16
ENDBRANCH  10  12
ENDBRANCH   7  10
ENDBRANCH   1   7
BRANCH   5  19
HETATM   19  C13 UNL     1     -17.072  -3.215   2.805  1.00  0.00     0.229 C 
HETATM   20  O3  UNL     1     -17.943  -2.782   2.012  1.00  0.00    -0.273 OA
HETATM   21  N3  UNL     1     -16.479  -4.470   2.523  1.00  0.00    -0.307 N 
ATOM     22  H3  UNL     1     -16.956  -5.323   2.815  1.00  0.00     0.171 HD
BRANCH  21  23
HETATM   23  C14 UNL     1     -15.329  -4.558   1.895  1.00  0.00     0.150 A 
HETATM   24  N4  UNL     1     -14.371  -5.462   2.088  1.00  0.00    -0.346 N 
HETATM   25  C15 UNL     1     -13.285  -5.390   1.359  1.00  0.00     0.097 A 
ATOM     26  H4  UNL     1     -14.480  -6.195   2.788  1.00  0.00     0.167 HD
HETATM   27  C16 UNL     1     -13.207  -4.375   0.438  1.00  0.00     0.070 A 
HETATM   28  S2  UNL     1     -14.696  -3.577   0.662  1.00  0.00    -0.064 SA
ENDBRANCH  21  23
ENDBRANCH   5  19
TORSDOF 7
ENDMDL
MODEL 2
REMARK VINA RESULT: -7.920554326      1.118      1.442
REMARK  7 active torsions:
REMARK  status: ('A' for Active; 'I' for Inactive)
REMARK    1  A    between atoms: N1_2  and  C2_3 
REMARK    2  A    between atoms: N1_2  and  S1_10 
REMARK    3  A    between atoms: C2_3  and  C3_4 
REMARK    4  A    between atoms: C2_3  and  C6_7 
REMARK    5  A    between atoms: S1_10  and  N2_13 
REMARK    6  A    between atoms: C12_17  and  C13_18 
REMARK       I    between atoms: C13_18  and  N3_20 
REMARK    7  A    between atoms: N3_20  and  C14_22 
ROOT
HETATM    1  N2  UNL     1     -18.719  -1.759   5.358  1.00  0.00    -0.197 NA
HETATM    2  C9  UNL     1     -18.143  -2.213   6.591  1.00  0.00     0.108 C 
HETATM    3  C10 UNL     1     -16.780  -2.828   6.368  1.00  0.00     0.016 C 
HETATM    4  C11 UNL     1     -16.801  -3.514   5.021  1.00  0.00     0.016 C 
HETATM    5  C12 UNL     1     -16.799  -2.398   3.989  1.00  0.00     0.092 C 
HETATM    6  C17 UNL     1     -17.744  -1.290   4.407  1.00  0.00     0.122 C 
ENDROOT
BRANCH   1   7
HETATM    7  S1  UNL     1     -19.984  -0.674   5.676  1.00  0.00     0.283 S 
HETATM    8  O1  UNL     1     -20.227  -0.720   7.181  1.00  0.00    -0.194 OA
HETATM    9  O2  UNL     1     -19.567   0.707   5.261  1.00  0.00    -0.194 OA
BRANCH   7  10
HETATM   10  N1  UNL     1     -21.430  -1.079   4.905  1.00  0.00    -0.196 NA
HETATM   11  C1  UNL     1     -21.848  -0.133   3.902  1.00  0.00     0.131 C 
BRANCH  10  12
HETATM   12  C2  UNL     1     -22.489  -1.514   5.756  1.00  0.00     0.083 C 
BRANCH  12  13
HETATM   13  C3  UNL     1     -22.633  -2.979   5.808  1.00  0.00     0.005 A 
HETATM   14  C4  UNL     1     -21.569  -3.882   6.416  1.00  0.00     0.007 A 
HETATM   15  C5  UNL     1     -22.906  -3.757   7.035  1.00  0.00     0.007 A 
ENDBRANCH  12  13
BRANCH  12  16
HETATM   16  C6  UNL     1     -23.744  -0.777   5.388  1.00  0.00     0.005 A 
HETATM   17  C7  UNL     1     -24.929  -0.744   6.257  1.00  0.00     0.007 A 
HETATM   18  C8  UNL     1     -24.976  -1.457   4.917  1.00  0.00     0.007 A 
ENDBRANCH  12  16
ENDBRANCH  10  12
ENDBRANCH   7  10
ENDBRANCH   1   7
BRANCH   5  19
HETATM   19  C13 UNL     1     -17.109  -2.949   2.671  1.00  0.00     0.229 C 
HETATM   20  O3  UNL     1     -17.766  -2.262   1.852  1.00  0.00    -0.273 OA
HETATM   21  N3  UNL     1     -16.692  -4.242   2.273  1.00  0.00    -0.307 N 
ATOM     22  H3  UNL     1     -17.340  -5.025   2.363  1.00  0.00     0.171 HD
BRANCH  21  23
HETATM   23  C14 UNL     1     -15.489  -4.456   1.790  1.00  0.00     0.150 A 
HETATM   24  N4  UNL     1     -14.861  -3.756   0.847  1.00  0.00    -0.346 N 
HETATM   25  C15 UNL     1     -13.654  -4.123   0.493  1.00  0.00     0.097 A 
ATOM     26  H4  UNL     1     -15.311  -2.952   0.408  1.00  0.00     0.167 HD
HETATM   27  C16 UNL     1     -13.114  -5.214   1.124  1.00  0.00     0.070 A 
HETATM   28  S2  UNL     1     -14.363  -5.660   2.194  1.00  0.00    -0.064 SA
ENDBRANCH  21  23
ENDBRANCH   5  19
TORSDOF 7
ENDMDL
MODEL 3
REMARK VINA RESULT: -7.820278037      2.198      6.982
REMARK  7 active torsions:
REMARK  status: ('A' for Active; 'I' for Inactive)
REMARK    1  A    between atoms: N1_2  and  C2_3 
REMARK    2  A    between atoms: N1_2  and  S1_10 
REMARK    3  A    between atoms: C2_3  and  C3_4 
REMARK    4  A    between atoms: C2_3  and  C6_7 
REMARK    5  A    between atoms: S1_10  and  N2_13 
REMARK    6  A    between atoms: C12_17  and  C13_18 
REMARK       I    between atoms: C13_18  and  N3_20 
REMARK    7  A    between atoms: N3_20  and  C14_22 
ROOT
HETATM    1  N2  UNL     1     -17.762  -2.546   3.934  1.00  0.00    -0.197 NA
HETATM    2  C9  UNL     1     -16.595  -1.763   4.219  1.00  0.00     0.108 C 
HETATM    3  C10 UNL     1     -16.280  -1.762   5.697  1.00  0.00     0.016 C 
HETATM    4  C11 UNL     1     -17.591  -1.817   6.446  1.00  0.00     0.016 C 
HETATM    5  C12 UNL     1     -18.120  -3.229   6.252  1.00  0.00     0.092 C 
HETATM    6  C17 UNL     1     -17.928  -3.672   4.817  1.00  0.00     0.122 C 
ENDROOT
BRANCH   1   7
HETATM    7  S1  UNL     1     -17.817  -2.921   2.280  1.00  0.00     0.283 S 
HETATM    8  O1  UNL     1     -18.779  -4.096   2.134  1.00  0.00    -0.194 OA
HETATM    9  O2  UNL     1     -18.332  -1.733   1.521  1.00  0.00    -0.194 OA
BRANCH   7  10
HETATM   10  N1  UNL     1     -16.325  -3.390   1.644  1.00  0.00    -0.196 NA
HETATM   11  C1  UNL     1     -16.398  -3.941   0.314  1.00  0.00     0.131 C 
BRANCH  10  12
HETATM   12  C2  UNL     1     -15.478  -4.129   2.523  1.00  0.00     0.083 C 
BRANCH  12  13
HETATM   13  C3  UNL     1     -14.113  -3.582   2.616  1.00  0.00     0.005 A 
HETATM   14  C4  UNL     1     -13.118  -3.674   1.468  1.00  0.00     0.007 A 
HETATM   15  C5  UNL     1     -13.642  -2.367   1.920  1.00  0.00     0.007 A 
ENDBRANCH  12  13
BRANCH  12  16
HETATM   16  C6  UNL     1     -15.544  -5.583   2.155  1.00  0.00     0.005 A 
HETATM   17  C7  UNL     1     -16.237  -6.580   2.982  1.00  0.00     0.007 A 
HETATM   18  C8  UNL     1     -14.727  -6.626   2.823  1.00  0.00     0.007 A 
ENDBRANCH  12  16
ENDBRANCH  10  12
ENDBRANCH   7  10
ENDBRANCH   1   7
BRANCH   5  19
HETATM   19  C13 UNL     1     -19.512  -3.295   6.691  1.00  0.00     0.229 C 
HETATM   20  O3  UNL     1     -19.769  -3.433   7.912  1.00  0.00    -0.273 OA
HETATM   21  N3  UNL     1     -20.599  -3.206   5.788  1.00  0.00    -0.307 N 
ATOM     22  H3  UNL     1     -21.035  -4.063   5.446  1.00  0.00     0.171 HD
BRANCH  21  23
HETATM   23  C14 UNL     1     -21.056  -2.045   5.379  1.00  0.00     0.150 A 
HETATM   24  N4  UNL     1     -20.473  -1.199   4.533  1.00  0.00    -0.346 N 
HETATM   25  C15 UNL     1     -21.088  -0.079   4.242  1.00  0.00     0.097 A 
ATOM     26  H4  UNL     1     -19.566  -1.417   4.121  1.00  0.00     0.167 HD
HETATM   27  C16 UNL     1     -22.304   0.148   4.836  1.00  0.00     0.070 A 
HETATM   28  S2  UNL     1     -22.505  -1.256   5.781  1.00  0.00    -0.064 SA
ENDBRANCH  21  23
ENDBRANCH   5  19
TORSDOF 7
ENDMDL
MODEL 4
REMARK VINA RESULT: -7.725743050      2.084      7.842
REMARK  7 active torsions:
REMARK  status: ('A' for Active; 'I' for Inactive)
REMARK    1  A    between atoms: N1_2  and  C2_3 
REMARK    2  A    between atoms: N1_2  and  S1_10 
REMARK    3  A    between atoms: C2_3  and  C3_4 
REMARK    4  A    between atoms: C2_3  and  C6_7 
REMARK    5  A    between atoms: S1_10  and  N2_13 
REMARK    6  A    between atoms: C12_17  and  C13_18 
REMARK       I    between atoms: C13_18  and  N3_20 
REMARK    7  A    between atoms: N3_20  and  C14_22 
ROOT
HETATM    1  N2  UNL     1     -17.724  -2.531   4.117  1.00  0.00    -0.197 NA
HETATM    2  C9  UNL     1     -17.079  -3.191   5.215  1.00  0.00     0.108 C 
HETATM    3  C10 UNL     1     -17.921  -3.124   6.469  1.00  0.00     0.016 C 
HETATM    4  C11 UNL     1     -18.660  -1.806   6.456  1.00  0.00     0.016 C 
HETATM    5  C12 UNL     1     -19.728  -1.941   5.382  1.00  0.00     0.092 C 
HETATM    6  C17 UNL     1     -19.161  -2.623   4.155  1.00  0.00     0.122 C 
ENDROOT
BRANCH   1   7
HETATM    7  S1  UNL     1     -17.015  -3.018   2.654  1.00  0.00     0.283 S 
HETATM    8  O1  UNL     1     -17.762  -4.271   2.207  1.00  0.00    -0.194 OA
HETATM    9  O2  UNL     1     -17.181  -1.926   1.637  1.00  0.00    -0.194 OA
BRANCH   7  10
HETATM   10  N1  UNL     1     -15.380  -3.412   2.793  1.00  0.00    -0.196 NA
HETATM   11  C1  UNL     1     -14.484  -2.364   2.375  1.00  0.00     0.131 C 
BRANCH  10  12
HETATM   12  C2  UNL     1     -15.007  -4.704   2.319  1.00  0.00     0.083 C 
BRANCH  12  13
HETATM   13  C3  UNL     1     -15.256  -5.779   3.295  1.00  0.00     0.005 A 
HETATM   14  C4  UNL     1     -16.156  -6.968   2.988  1.00  0.00     0.007 A 
HETATM   15  C5  UNL     1     -14.704  -7.147   3.202  1.00  0.00     0.007 A 
ENDBRANCH  12  13
BRANCH  12  16
HETATM   16  C6  UNL     1     -13.600  -4.646   1.800  1.00  0.00     0.005 A 
HETATM   17  C7  UNL     1     -13.285  -4.556   0.368  1.00  0.00     0.007 A 
HETATM   18  C8  UNL     1     -12.924  -5.801   1.158  1.00  0.00     0.007 A 
ENDBRANCH  12  16
ENDBRANCH  10  12
ENDBRANCH   7  10
ENDBRANCH   1   7
BRANCH   5  19
HETATM   19  C13 UNL     1     -20.302  -0.628   5.095  1.00  0.00     0.229 C 
HETATM   20  O3  UNL     1     -19.781   0.094   4.210  1.00  0.00    -0.273 OA
HETATM   21  N3  UNL     1     -21.437  -0.129   5.779  1.00  0.00    -0.307 N 
ATOM     22  H3  UNL     1     -21.304   0.495   6.576  1.00  0.00     0.171 HD
BRANCH  21  23
HETATM   23  C14 UNL     1     -22.656  -0.451   5.411  1.00  0.00     0.150 A 
HETATM   24  N4  UNL     1     -23.472   0.245   4.623  1.00  0.00    -0.346 N 
HETATM   25  C15 UNL     1     -24.661  -0.243   4.365  1.00  0.00     0.097 A 
ATOM     26  H4  UNL     1     -23.179   1.139   4.229  1.00  0.00     0.167 HD
HETATM   27  C16 UNL     1     -24.987  -1.449   4.930  1.00  0.00     0.070 A 
HETATM   28  S2  UNL     1     -23.572  -1.826   5.804  1.00  0.00    -0.064 SA
ENDBRANCH  21  23
ENDBRANCH   5  19
TORSDOF 7
ENDMDL
MODEL 5
REMARK VINA RESULT: -7.565358855      0.786      1.951
REMARK  7 active torsions:
REMARK  status: ('A' for Active; 'I' for Inactive)
REMARK    1  A    between atoms: N1_2  and  C2_3 
REMARK    2  A    between atoms: N1_2  and  S1_10 
REMARK    3  A    between atoms: C2_3  and  C3_4 
REMARK    4  A    between atoms: C2_3  and  C6_7 
REMARK    5  A    between atoms: S1_10  and  N2_13 
REMARK    6  A    between atoms: C12_17  and  C13_18 
REMARK       I    between atoms: C13_18  and  N3_20 
REMARK    7  A    between atoms: N3_20  and  C14_22 
ROOT
HETATM    1  N2  UNL     1     -18.555  -1.732   5.396  1.00  0.00    -0.197 NA
HETATM    2  C9  UNL     1     -17.789  -1.893   6.598  1.00  0.00     0.108 C 
HETATM    3  C10 UNL     1     -16.379  -2.348   6.296  1.00  0.00     0.016 C 
HETATM    4  C11 UNL     1     -16.437  -3.245   5.080  1.00  0.00     0.016 C 
HETATM    5  C12 UNL     1     -16.716  -2.325   3.901  1.00  0.00     0.092 C 
HETATM    6  C17 UNL     1     -17.769  -1.301   4.268  1.00  0.00     0.122 C 
ENDROOT
BRANCH   1   7
HETATM    7  S1  UNL     1     -19.931  -0.789   5.709  1.00  0.00     0.283 S 
HETATM    8  O1  UNL     1     -20.128  -0.799   7.222  1.00  0.00    -0.194 OA
HETATM    9  O2  UNL     1     -19.690   0.612   5.227  1.00  0.00    -0.194 OA
BRANCH   7  10
HETATM   10  N1  UNL     1     -21.338  -1.393   4.999  1.00  0.00    -0.196 NA
HETATM   11  C1  UNL     1     -22.434  -0.457   4.974  1.00  0.00     0.131 C 
BRANCH  10  12
HETATM   12  C2  UNL     1     -21.720  -2.709   5.395  1.00  0.00     0.083 C 
BRANCH  12  13
HETATM   13  C3  UNL     1     -22.587  -2.733   6.587  1.00  0.00     0.005 A 
HETATM   14  C4  UNL     1     -24.019  -3.246   6.543  1.00  0.00     0.007 A 
HETATM   15  C5  UNL     1     -22.979  -3.954   7.320  1.00  0.00     0.007 A 
ENDBRANCH  12  13
BRANCH  12  16
HETATM   16  C6  UNL     1     -20.490  -3.563   5.502  1.00  0.00     0.005 A 
HETATM   17  C7  UNL     1     -19.995  -4.384   4.388  1.00  0.00     0.007 A 
HETATM   18  C8  UNL     1     -20.537  -5.039   5.647  1.00  0.00     0.007 A 
ENDBRANCH  12  16
ENDBRANCH  10  12
ENDBRANCH   7  10
ENDBRANCH   1   7
BRANCH   5  19
HETATM   19  C13 UNL     1     -17.075  -3.124   2.732  1.00  0.00     0.229 C 
HETATM   20  O3  UNL     1     -17.889  -2.664   1.895  1.00  0.00    -0.273 OA
HETATM   21  N3  UNL     1     -16.535  -4.413   2.497  1.00  0.00    -0.307 N 
ATOM     22  H3  UNL     1     -17.066  -5.235   2.784  1.00  0.00     0.171 HD
BRANCH  21  23
HETATM   23  C14 UNL     1     -15.366  -4.571   1.920  1.00  0.00     0.150 A 
HETATM   24  N4  UNL     1     -14.835  -3.825   0.954  1.00  0.00    -0.346 N 
HETATM   25  C15 UNL     1     -13.646  -4.139   0.501  1.00  0.00     0.097 A 
ATOM     26  H4  UNL     1     -15.342  -3.026   0.574  1.00  0.00     0.167 HD
HETATM   27  C16 UNL     1     -13.024  -5.228   1.057  1.00  0.00     0.070 A 
HETATM   28  S2  UNL     1     -14.173  -5.746   2.205  1.00  0.00    -0.064 SA
ENDBRANCH  21  23
ENDBRANCH   5  19
TORSDOF 7
ENDMDL
