MODEL 1
REMARK VINA RESULT: -8.864117103      0.000      0.000
REMARK  14 active torsions:
REMARK  status: ('A' for Active; 'I' for Inactive)
REMARK    1  A    between atoms: C3_3  and  C4_4 
REMARK    2  A    between atoms: C4_4  and  C5_5 
REMARK    3  A    between atoms: C7_10  and  C8_11 
REMARK    4  A    between atoms: C8_11  and  C9_12 
REMARK       I    between atoms: C9_12  and  N2_14 
REMARK    5  A    between atoms: N2_14  and  C10_16 
REMARK    6  A    between atoms: C10_16  and  C11_17 
REMARK    7  A    between atoms: C11_17  and  C12_18 
REMARK    8  A    between atoms: C12_18  and  C13_19 
REMARK    9  A    between atoms: C13_19  and  C14_20 
REMARK   10  A    between atoms: C14_20  and  C15_21 
REMARK   11  A    between atoms: C15_21  and  C16_22 
REMARK   12  A    between atoms: C19_28  and  C20_29 
REMARK   13  A    between atoms: C20_29  and  C21_30 
REMARK   14  A    between atoms: C27_39  and  O5_40 
ROOT
HETATM    1  C1  UNL     1      23.463  52.640  45.439  1.00  0.00     0.112 C 
HETATM    2  C2  UNL     1      22.492  51.704  44.867  1.00  0.00    -0.111 C 
HETATM    3  C3  UNL     1      21.706  50.924  44.411  1.00  0.00    -0.106 C 
ENDROOT
BRANCH   3   4
HETATM    4  C4  UNL     1      20.779  50.001  43.839  1.00  0.00     0.110 C 
BRANCH   4   5
HETATM    5  C5  UNL     1      21.180  48.535  44.083  1.00  0.00     0.119 C 
HETATM    6  C6  UNL     1      20.068  47.845  44.812  1.00  0.00     0.226 C 
HETATM    7  O1  UNL     1      19.185  48.637  45.320  1.00  0.00    -0.273 OA
HETATM    8  N1  UNL     1      19.856  46.499  45.014  1.00  0.00    -0.347 N 
HETATM    9  C7  UNL     1      19.916  45.360  44.141  1.00  0.00     0.185 C 
ATOM     10  H1  UNL     1      19.607  46.264  45.974  1.00  0.00     0.163 HD
HETATM   11  C18 UNL     1      20.218  45.610  42.734  1.00  0.00     0.241 C 
HETATM   12  O3  UNL     1      19.361  46.166  42.002  1.00  0.00    -0.271 OA
HETATM   13  N3  UNL     1      21.463  45.245  42.144  1.00  0.00    -0.346 N 
HETATM   14  C19 UNL     1      22.682  45.341  42.906  1.00  0.00     0.177 C 
ATOM     15  H3  UNL     1      21.491  44.915  41.178  1.00  0.00     0.163 HD
HETATM   16  C24 UNL     1      23.435  46.492  42.284  1.00  0.00     0.240 C 
HETATM   17  O4  UNL     1      23.857  46.194  41.119  1.00  0.00    -0.271 OA
HETATM   18  N4  UNL     1      23.688  47.744  42.820  1.00  0.00    -0.353 N 
HETATM   19  C25 UNL     1      23.702  48.279  44.126  1.00  0.00     0.110 C 
ATOM     20  H4  UNL     1      23.917  48.438  42.108  1.00  0.00     0.163 HD
HETATM   21  C26 UNL     1      24.634  47.409  44.992  1.00  0.00     0.035 C 
HETATM   22  C27 UNL     1      22.460  48.515  44.871  1.00  0.00     0.154 C 
BRANCH   9  23
HETATM   23  C8  UNL     1      18.725  44.446  44.292  1.00  0.00     0.137 C 
BRANCH  23  24
HETATM   24  C9  UNL     1      18.108  43.976  43.048  1.00  0.00     0.220 C 
HETATM   25  O2  UNL     1      18.598  43.021  42.413  1.00  0.00    -0.274 OA
HETATM   26  N2  UNL     1      16.927  44.588  42.514  1.00  0.00    -0.361 N 
ATOM     27  H2  UNL     1      16.488  45.370  42.998  1.00  0.00     0.162 HD
BRANCH  26  28
HETATM   28  C10 UNL     1      16.359  44.077  41.264  1.00  0.00     0.122 C 
BRANCH  28  29
HETATM   29  C11 UNL     1      17.227  44.402  40.098  1.00  0.00     0.020 C 
BRANCH  29  30
HETATM   30  C12 UNL     1      16.618  45.528  39.307  1.00  0.00     0.002 C 
BRANCH  30  31
HETATM   31  C13 UNL     1      16.925  46.845  39.934  1.00  0.00     0.000 C 
BRANCH  31  32
HETATM   32  C14 UNL     1      15.784  47.835  39.769  1.00  0.00     0.000 C 
BRANCH  32  33
HETATM   33  C15 UNL     1      14.561  47.181  39.183  1.00  0.00    -0.000 C 
BRANCH  33  34
HETATM   34  C16 UNL     1      13.381  47.218  40.108  1.00  0.00    -0.005 C 
HETATM   35  C17 UNL     1      13.536  46.101  41.119  1.00  0.00     0.005 C 
ENDBRANCH  33  34
ENDBRANCH  32  33
ENDBRANCH  31  32
ENDBRANCH  30  31
ENDBRANCH  29  30
ENDBRANCH  28  29
ENDBRANCH  26  28
ENDBRANCH  23  24
ENDBRANCH   9  23
BRANCH  14  36
HETATM   36  C20 UNL     1      23.485  44.109  43.037  1.00  0.00     0.038 C 
BRANCH  36  37
HETATM   37  C21 UNL     1      23.543  43.381  44.312  1.00  0.00    -0.020 C 
HETATM   38  C22 UNL     1      24.824  43.897  45.023  1.00  0.00     0.009 C 
HETATM   39  C23 UNL     1      22.428  43.667  45.286  1.00  0.00     0.009 C 
ENDBRANCH  36  37
ENDBRANCH  14  36
BRANCH  22  40
HETATM   40  O5  UNL     1      22.327  47.763  46.056  1.00  0.00    -0.393 OA
ATOM     41  H5  UNL     1      22.520  46.845  45.909  1.00  0.00     0.210 HD
ENDBRANCH  22  40
ENDBRANCH   4   5
ENDBRANCH   3   4
TORSDOF 14
ENDMDL
MODEL 2
REMARK VINA RESULT: -8.753324525      0.554      1.318
REMARK  14 active torsions:
REMARK  status: ('A' for Active; 'I' for Inactive)
REMARK    1  A    between atoms: C3_3  and  C4_4 
REMARK    2  A    between atoms: C4_4  and  C5_5 
REMARK    3  A    between atoms: C7_10  and  C8_11 
REMARK    4  A    between atoms: C8_11  and  C9_12 
REMARK       I    between atoms: C9_12  and  N2_14 
REMARK    5  A    between atoms: N2_14  and  C10_16 
REMARK    6  A    between atoms: C10_16  and  C11_17 
REMARK    7  A    between atoms: C11_17  and  C12_18 
REMARK    8  A    between atoms: C12_18  and  C13_19 
REMARK    9  A    between atoms: C13_19  and  C14_20 
REMARK   10  A    between atoms: C14_20  and  C15_21 
REMARK   11  A    between atoms: C15_21  and  C16_22 
REMARK   12  A    between atoms: C19_28  and  C20_29 
REMARK   13  A    between atoms: C20_29  and  C21_30 
REMARK   14  A    between atoms: C27_39  and  O5_40 
ROOT
HETATM    1  C1  UNL     1      23.649  52.579  45.525  1.00  0.00     0.112 C 
HETATM    2  C2  UNL     1      22.654  51.672  44.946  1.00  0.00    -0.111 C 
HETATM    3  C3  UNL     1      21.851  50.915  44.480  1.00  0.00    -0.106 C 
ENDROOT
BRANCH   3   4
HETATM    4  C4  UNL     1      20.900  50.024  43.897  1.00  0.00     0.110 C 
BRANCH   4   5
HETATM    5  C5  UNL     1      21.232  48.547  44.167  1.00  0.00     0.119 C 
HETATM    6  C6  UNL     1      20.048  47.896  44.814  1.00  0.00     0.226 C 
HETATM    7  O1  UNL     1      19.159  48.718  45.259  1.00  0.00    -0.273 OA
HETATM    8  N1  UNL     1      19.777  46.557  44.999  1.00  0.00    -0.347 N 
HETATM    9  C7  UNL     1      19.860  45.417  44.132  1.00  0.00     0.185 C 
ATOM     10  H1  UNL     1      19.452  46.332  45.939  1.00  0.00     0.163 HD
HETATM   11  C18 UNL     1      20.270  45.654  42.750  1.00  0.00     0.241 C 
HETATM   12  O3  UNL     1      19.487  46.238  41.959  1.00  0.00    -0.271 OA
HETATM   13  N3  UNL     1      21.541  45.246  42.250  1.00  0.00    -0.346 N 
HETATM   14  C19 UNL     1      22.705  45.302  43.097  1.00  0.00     0.177 C 
ATOM     15  H3  UNL     1      21.627  44.914  41.289  1.00  0.00     0.163 HD
HETATM   16  C24 UNL     1      23.539  46.425  42.532  1.00  0.00     0.240 C 
HETATM   17  O4  UNL     1      24.034  46.112  41.400  1.00  0.00    -0.271 OA
HETATM   18  N4  UNL     1      23.796  47.669  43.086  1.00  0.00    -0.353 N 
HETATM   19  C25 UNL     1      23.734  48.205  44.391  1.00  0.00     0.110 C 
ATOM     20  H4  UNL     1      24.099  48.354  42.393  1.00  0.00     0.163 HD
HETATM   21  C26 UNL     1      24.573  47.305  45.320  1.00  0.00     0.035 C 
HETATM   22  C27 UNL     1      22.451  48.484  45.045  1.00  0.00     0.154 C 
BRANCH   9  23
HETATM   23  C8  UNL     1      18.631  44.544  44.196  1.00  0.00     0.137 C 
BRANCH  23  24
HETATM   24  C9  UNL     1      18.079  44.108  42.910  1.00  0.00     0.220 C 
HETATM   25  O2  UNL     1      18.491  43.069  42.356  1.00  0.00    -0.274 OA
HETATM   26  N2  UNL     1      17.051  44.850  42.240  1.00  0.00    -0.361 N 
ATOM     27  H2  UNL     1      16.680  45.705  42.655  1.00  0.00     0.162 HD
BRANCH  26  28
HETATM   28  C10 UNL     1      16.542  44.368  40.955  1.00  0.00     0.122 C 
BRANCH  28  29
HETATM   29  C11 UNL     1      15.089  44.049  41.029  1.00  0.00     0.020 C 
BRANCH  29  30
HETATM   30  C12 UNL     1      14.297  45.110  40.314  1.00  0.00     0.002 C 
BRANCH  30  31
HETATM   31  C13 UNL     1      13.952  46.228  41.238  1.00  0.00     0.000 C 
BRANCH  31  32
HETATM   32  C14 UNL     1      14.127  47.586  40.580  1.00  0.00     0.000 C 
BRANCH  32  33
HETATM   33  C15 UNL     1      15.104  47.528  39.436  1.00  0.00    -0.000 C 
BRANCH  33  34
HETATM   34  C16 UNL     1      16.493  47.926  39.836  1.00  0.00    -0.005 C 
HETATM   35  C17 UNL     1      16.709  49.368  39.431  1.00  0.00     0.005 C 
ENDBRANCH  33  34
ENDBRANCH  32  33
ENDBRANCH  31  32
ENDBRANCH  30  31
ENDBRANCH  29  30
ENDBRANCH  28  29
ENDBRANCH  26  28
ENDBRANCH  23  24
ENDBRANCH   9  23
BRANCH  14  36
HETATM   36  C20 UNL     1      23.454  44.043  43.284  1.00  0.00     0.038 C 
BRANCH  36  37
HETATM   37  C21 UNL     1      23.366  43.295  44.545  1.00  0.00    -0.020 C 
HETATM   38  C22 UNL     1      24.571  43.780  45.397  1.00  0.00     0.009 C 
HETATM   39  C23 UNL     1      22.158  43.584  45.400  1.00  0.00     0.009 C 
ENDBRANCH  36  37
ENDBRANCH  14  36
BRANCH  22  40
HETATM   40  O5  UNL     1      22.208  47.739  46.216  1.00  0.00    -0.393 OA
ATOM     41  H5  UNL     1      21.883  48.289  46.919  1.00  0.00     0.210 HD
ENDBRANCH  22  40
ENDBRANCH   4   5
ENDBRANCH   3   4
TORSDOF 14
ENDMDL
MODEL 3
REMARK VINA RESULT: -8.179577942      1.128      1.223
REMARK  14 active torsions:
REMARK  status: ('A' for Active; 'I' for Inactive)
REMARK    1  A    between atoms: C3_3  and  C4_4 
REMARK    2  A    between atoms: C4_4  and  C5_5 
REMARK    3  A    between atoms: C7_10  and  C8_11 
REMARK    4  A    between atoms: C8_11  and  C9_12 
REMARK       I    between atoms: C9_12  and  N2_14 
REMARK    5  A    between atoms: N2_14  and  C10_16 
REMARK    6  A    between atoms: C10_16  and  C11_17 
REMARK    7  A    between atoms: C11_17  and  C12_18 
REMARK    8  A    between atoms: C12_18  and  C13_19 
REMARK    9  A    between atoms: C13_19  and  C14_20 
REMARK   10  A    between atoms: C14_20  and  C15_21 
REMARK   11  A    between atoms: C15_21  and  C16_22 
REMARK   12  A    between atoms: C19_28  and  C20_29 
REMARK   13  A    between atoms: C20_29  and  C21_30 
REMARK   14  A    between atoms: C27_39  and  O5_40 
ROOT
HETATM    1  C1  UNL     1      23.078  52.852  45.477  1.00  0.00     0.112 C 
HETATM    2  C2  UNL     1      22.299  51.734  44.939  1.00  0.00    -0.111 C 
HETATM    3  C3  UNL     1      21.665  50.809  44.518  1.00  0.00    -0.106 C 
ENDROOT
BRANCH   3   4
HETATM    4  C4  UNL     1      20.928  49.705  43.991  1.00  0.00     0.110 C 
BRANCH   4   5
HETATM    5  C5  UNL     1      21.494  48.349  44.446  1.00  0.00     0.119 C 
HETATM    6  C6  UNL     1      20.356  47.462  44.852  1.00  0.00     0.226 C 
HETATM    7  O1  UNL     1      19.231  48.072  45.015  1.00  0.00    -0.273 OA
HETATM    8  N1  UNL     1      20.342  46.103  45.073  1.00  0.00    -0.347 N 
HETATM    9  C7  UNL     1      20.874  44.989  44.340  1.00  0.00     0.185 C 
ATOM     10  H1  UNL     1      19.855  45.833  45.928  1.00  0.00     0.163 HD
HETATM   11  C18 UNL     1      21.546  45.279  43.076  1.00  0.00     0.241 C 
HETATM   12  O3  UNL     1      20.871  45.651  42.083  1.00  0.00    -0.271 OA
HETATM   13  N3  UNL     1      22.957  45.158  42.915  1.00  0.00    -0.346 N 
HETATM   14  C19 UNL     1      23.842  45.497  44.000  1.00  0.00     0.177 C 
ATOM     15  H3  UNL     1      23.341  44.830  42.029  1.00  0.00     0.163 HD
HETATM   16  C24 UNL     1      24.527  46.766  43.556  1.00  0.00     0.240 C 
HETATM   17  O4  UNL     1      25.336  46.545  42.596  1.00  0.00    -0.271 OA
HETATM   18  N4  UNL     1      24.370  48.049  44.056  1.00  0.00    -0.353 N 
HETATM   19  C25 UNL     1      23.881  48.589  45.265  1.00  0.00     0.110 C 
ATOM     20  H4  UNL     1      24.677  48.767  43.399  1.00  0.00     0.163 HD
HETATM   21  C26 UNL     1      24.643  47.925  46.429  1.00  0.00     0.035 C 
HETATM   22  C27 UNL     1      22.449  48.586  45.583  1.00  0.00     0.154 C 
BRANCH   9  23
HETATM   23  C8  UNL     1      19.883  43.862  44.189  1.00  0.00     0.137 C 
BRANCH  23  24
HETATM   24  C9  UNL     1      18.588  44.215  43.599  1.00  0.00     0.220 C 
HETATM   25  O2  UNL     1      17.750  44.876  44.245  1.00  0.00    -0.274 OA
HETATM   26  N2  UNL     1      18.233  43.820  42.268  1.00  0.00    -0.361 N 
ATOM     27  H2  UNL     1      18.885  43.281  41.699  1.00  0.00     0.162 HD
BRANCH  26  28
HETATM   28  C10 UNL     1      16.922  44.198  41.735  1.00  0.00     0.122 C 
BRANCH  28  29
HETATM   29  C11 UNL     1      16.856  44.001  40.260  1.00  0.00     0.020 C 
BRANCH  29  30
HETATM   30  C12 UNL     1      17.155  45.298  39.558  1.00  0.00     0.002 C 
BRANCH  30  31
HETATM   31  C13 UNL     1      17.068  46.447  40.505  1.00  0.00     0.000 C 
BRANCH  31  32
HETATM   32  C14 UNL     1      16.277  47.606  39.924  1.00  0.00     0.000 C 
BRANCH  32  33
HETATM   33  C15 UNL     1      14.949  47.154  39.377  1.00  0.00    -0.000 C 
BRANCH  33  34
HETATM   34  C16 UNL     1      13.849  47.216  40.394  1.00  0.00    -0.005 C 
HETATM   35  C17 UNL     1      13.607  45.816  40.917  1.00  0.00     0.005 C 
ENDBRANCH  33  34
ENDBRANCH  32  33
ENDBRANCH  31  32
ENDBRANCH  30  31
ENDBRANCH  29  30
ENDBRANCH  28  29
ENDBRANCH  26  28
ENDBRANCH  23  24
ENDBRANCH   9  23
BRANCH  14  36
HETATM   36  C20 UNL     1      24.775  44.446  44.453  1.00  0.00     0.038 C 
BRANCH  36  37
HETATM   37  C21 UNL     1      24.274  43.197  45.042  1.00  0.00    -0.020 C 
HETATM   38  C22 UNL     1      23.437  43.630  46.276  1.00  0.00     0.009 C 
HETATM   39  C23 UNL     1      23.313  42.406  44.191  1.00  0.00     0.009 C 
ENDBRANCH  36  37
ENDBRANCH  14  36
BRANCH  22  40
HETATM   40  O5  UNL     1      22.095  47.834  46.721  1.00  0.00    -0.393 OA
ATOM     41  H5  UNL     1      22.505  48.177  47.507  1.00  0.00     0.210 HD
ENDBRANCH  22  40
ENDBRANCH   4   5
ENDBRANCH   3   4
TORSDOF 14
ENDMDL
MODEL 4
REMARK VINA RESULT: -7.819588937      1.279      1.728
REMARK  14 active torsions:
REMARK  status: ('A' for Active; 'I' for Inactive)
REMARK    1  A    between atoms: C3_3  and  C4_4 
REMARK    2  A    between atoms: C4_4  and  C5_5 
REMARK    3  A    between atoms: C7_10  and  C8_11 
REMARK    4  A    between atoms: C8_11  and  C9_12 
REMARK       I    between atoms: C9_12  and  N2_14 
REMARK    5  A    between atoms: N2_14  and  C10_16 
REMARK    6  A    between atoms: C10_16  and  C11_17 
REMARK    7  A    between atoms: C11_17  and  C12_18 
REMARK    8  A    between atoms: C12_18  and  C13_19 
REMARK    9  A    between atoms: C13_19  and  C14_20 
REMARK   10  A    between atoms: C14_20  and  C15_21 
REMARK   11  A    between atoms: C15_21  and  C16_22 
REMARK   12  A    between atoms: C19_28  and  C20_29 
REMARK   13  A    between atoms: C20_29  and  C21_30 
REMARK   14  A    between atoms: C27_39  and  O5_40 
ROOT
HETATM    1  C1  UNL     1      23.276  52.932  45.448  1.00  0.00     0.112 C 
HETATM    2  C2  UNL     1      22.494  51.793  44.960  1.00  0.00    -0.111 C 
HETATM    3  C3  UNL     1      21.870  50.857  44.549  1.00  0.00    -0.106 C 
ENDROOT
BRANCH   3   4
HETATM    4  C4  UNL     1      21.105  49.759  44.049  1.00  0.00     0.110 C 
BRANCH   4   5
HETATM    5  C5  UNL     1      21.637  48.400  44.537  1.00  0.00     0.119 C 
HETATM    6  C6  UNL     1      20.473  47.527  44.896  1.00  0.00     0.226 C 
HETATM    7  O1  UNL     1      19.348  48.149  45.005  1.00  0.00    -0.273 OA
HETATM    8  N1  UNL     1      20.435  46.169  45.125  1.00  0.00    -0.347 N 
HETATM    9  C7  UNL     1      20.989  45.046  44.423  1.00  0.00     0.185 C 
ATOM     10  H1  UNL     1      19.908  45.910  45.959  1.00  0.00     0.163 HD
HETATM   11  C18 UNL     1      21.719  45.321  43.189  1.00  0.00     0.241 C 
HETATM   12  O3  UNL     1      21.093  45.693  42.164  1.00  0.00    -0.271 OA
HETATM   13  N3  UNL     1      23.134  45.186  43.091  1.00  0.00    -0.346 N 
HETATM   14  C19 UNL     1      23.973  45.523  44.213  1.00  0.00     0.177 C 
ATOM     15  H3  UNL     1      23.555  44.849  42.225  1.00  0.00     0.163 HD
HETATM   16  C24 UNL     1      24.691  46.782  43.793  1.00  0.00     0.240 C 
HETATM   17  O4  UNL     1      25.539  46.547  42.871  1.00  0.00    -0.271 OA
HETATM   18  N4  UNL     1      24.524  48.070  44.277  1.00  0.00    -0.353 N 
HETATM   19  C25 UNL     1      23.987  48.622  45.461  1.00  0.00     0.110 C 
ATOM     20  H4  UNL     1      24.867  48.781  43.631  1.00  0.00     0.163 HD
HETATM   21  C26 UNL     1      24.689  47.958  46.662  1.00  0.00     0.035 C 
HETATM   22  C27 UNL     1      22.542  48.635  45.714  1.00  0.00     0.154 C 
BRANCH   9  23
HETATM   23  C8  UNL     1      19.994  43.928  44.234  1.00  0.00     0.137 C 
BRANCH  23  24
HETATM   24  C9  UNL     1      18.713  44.298  43.624  1.00  0.00     0.220 C 
HETATM   25  O2  UNL     1      17.834  44.882  44.289  1.00  0.00    -0.274 OA
HETATM   26  N2  UNL     1      18.419  44.008  42.252  1.00  0.00    -0.361 N 
ATOM     27  H2  UNL     1      19.107  43.535  41.667  1.00  0.00     0.162 HD
BRANCH  26  28
HETATM   28  C10 UNL     1      17.120  44.399  41.700  1.00  0.00     0.122 C 
BRANCH  28  29
HETATM   29  C11 UNL     1      17.082  44.228  40.221  1.00  0.00     0.020 C 
BRANCH  29  30
HETATM   30  C12 UNL     1      15.658  44.076  39.761  1.00  0.00     0.002 C 
BRANCH  30  31
HETATM   31  C13 UNL     1      14.708  44.329  40.881  1.00  0.00     0.000 C 
BRANCH  31  32
HETATM   32  C14 UNL     1      13.795  45.511  40.599  1.00  0.00     0.000 C 
BRANCH  32  33
HETATM   33  C15 UNL     1      14.447  46.817  40.966  1.00  0.00    -0.000 C 
BRANCH  33  34
HETATM   34  C16 UNL     1      14.901  47.597  39.768  1.00  0.00    -0.005 C 
HETATM   35  C17 UNL     1      16.394  47.818  39.884  1.00  0.00     0.005 C 
ENDBRANCH  33  34
ENDBRANCH  32  33
ENDBRANCH  31  32
ENDBRANCH  30  31
ENDBRANCH  29  30
ENDBRANCH  28  29
ENDBRANCH  26  28
ENDBRANCH  23  24
ENDBRANCH   9  23
BRANCH  14  36
HETATM   36  C20 UNL     1      24.875  44.466  44.713  1.00  0.00     0.038 C 
BRANCH  36  37
HETATM   37  C21 UNL     1      24.350  43.150  45.103  1.00  0.00    -0.020 C 
HETATM   38  C22 UNL     1      23.393  43.425  46.295  1.00  0.00     0.009 C 
HETATM   39  C23 UNL     1      23.488  42.455  44.079  1.00  0.00     0.009 C 
ENDBRANCH  36  37
ENDBRANCH  14  36
BRANCH  22  40
HETATM   40  O5  UNL     1      22.130  47.894  46.840  1.00  0.00    -0.393 OA
ATOM     41  H5  UNL     1      22.631  47.092  46.931  1.00  0.00     0.210 HD
ENDBRANCH  22  40
ENDBRANCH   4   5
ENDBRANCH   3   4
TORSDOF 14
ENDMDL
MODEL 5
REMARK VINA RESULT: -7.362893433      1.687      4.563
REMARK  14 active torsions:
REMARK  status: ('A' for Active; 'I' for Inactive)
REMARK    1  A    between atoms: C3_3  and  C4_4 
REMARK    2  A    between atoms: C4_4  and  C5_5 
REMARK    3  A    between atoms: C7_10  and  C8_11 
REMARK    4  A    between atoms: C8_11  and  C9_12 
REMARK       I    between atoms: C9_12  and  N2_14 
REMARK    5  A    between atoms: N2_14  and  C10_16 
REMARK    6  A    between atoms: C10_16  and  C11_17 
REMARK    7  A    between atoms: C11_17  and  C12_18 
REMARK    8  A    between atoms: C12_18  and  C13_19 
REMARK    9  A    between atoms: C13_19  and  C14_20 
REMARK   10  A    between atoms: C14_20  and  C15_21 
REMARK   11  A    between atoms: C15_21  and  C16_22 
REMARK   12  A    between atoms: C19_28  and  C20_29 
REMARK   13  A    between atoms: C20_29  and  C21_30 
REMARK   14  A    between atoms: C27_39  and  O5_40 
ROOT
HETATM    1  C1  UNL     1      28.897  46.049  43.963  1.00  0.00     0.112 C 
HETATM    2  C2  UNL     1      27.634  45.397  44.316  1.00  0.00    -0.111 C 
HETATM    3  C3  UNL     1      26.609  44.845  44.597  1.00  0.00    -0.106 C 
ENDROOT
BRANCH   3   4
HETATM    4  C4  UNL     1      25.371  44.209  44.916  1.00  0.00     0.110 C 
BRANCH   4   5
HETATM    5  C5  UNL     1      24.152  45.027  44.454  1.00  0.00     0.119 C 
HETATM    6  C6  UNL     1      23.239  44.133  43.671  1.00  0.00     0.226 C 
HETATM    7  O1  UNL     1      23.765  43.012  43.309  1.00  0.00    -0.273 OA
HETATM    8  N1  UNL     1      21.932  44.336  43.288  1.00  0.00    -0.347 N 
HETATM    9  C7  UNL     1      20.773  44.813  43.988  1.00  0.00     0.185 C 
ATOM     10  H1  UNL     1      21.751  44.101  42.312  1.00  0.00     0.163 HD
HETATM   11  C18 UNL     1      20.929  45.128  45.405  1.00  0.00     0.241 C 
HETATM   12  O3  UNL     1      21.088  44.198  46.237  1.00  0.00    -0.271 OA
HETATM   13  N3  UNL     1      20.910  46.466  45.898  1.00  0.00    -0.346 N 
HETATM   14  C19 UNL     1      21.483  47.533  45.118  1.00  0.00     0.177 C 
ATOM     15  H3  UNL     1      20.489  46.668  46.805  1.00  0.00     0.163 HD
HETATM   16  C24 UNL     1      22.727  47.935  45.871  1.00  0.00     0.240 C 
HETATM   17  O4  UNL     1      22.437  48.516  46.968  1.00  0.00    -0.271 OA
HETATM   18  N4  UNL     1      24.051  47.745  45.510  1.00  0.00    -0.353 N 
HETATM   19  C25 UNL     1      24.720  47.492  44.293  1.00  0.00     0.110 C 
ATOM     20  H4  UNL     1      24.688  47.799  46.305  1.00  0.00     0.163 HD
HETATM   21  C26 UNL     1      24.307  48.581  43.283  1.00  0.00     0.035 C 
HETATM   22  C27 UNL     1      24.639  46.186  43.630  1.00  0.00     0.154 C 
BRANCH   9  23
HETATM   23  C8  UNL     1      19.553  43.958  43.748  1.00  0.00     0.137 C 
BRANCH  23  24
HETATM   24  C9  UNL     1      18.537  44.518  42.851  1.00  0.00     0.220 C 
HETATM   25  O2  UNL     1      18.709  45.624  42.301  1.00  0.00    -0.274 OA
HETATM   26  N2  UNL     1      17.314  43.825  42.571  1.00  0.00    -0.361 N 
ATOM     27  H2  UNL     1      17.128  42.916  42.995  1.00  0.00     0.162 HD
BRANCH  26  28
HETATM   28  C10 UNL     1      16.334  44.437  41.671  1.00  0.00     0.122 C 
BRANCH  28  29
HETATM   29  C11 UNL     1      16.534  43.991  40.264  1.00  0.00     0.020 C 
BRANCH  29  30
HETATM   30  C12 UNL     1      16.441  45.172  39.336  1.00  0.00     0.002 C 
BRANCH  30  31
HETATM   31  C13 UNL     1      16.993  46.398  39.981  1.00  0.00     0.000 C 
BRANCH  31  32
HETATM   32  C14 UNL     1      16.085  47.602  39.789  1.00  0.00     0.000 C 
BRANCH  32  33
HETATM   33  C15 UNL     1      14.748  47.205  39.223  1.00  0.00    -0.000 C 
BRANCH  33  34
HETATM   34  C16 UNL     1      13.623  47.404  40.194  1.00  0.00    -0.005 C 
HETATM   35  C17 UNL     1      13.347  46.082  40.878  1.00  0.00     0.005 C 
ENDBRANCH  33  34
ENDBRANCH  32  33
ENDBRANCH  31  32
ENDBRANCH  30  31
ENDBRANCH  29  30
ENDBRANCH  28  29
ENDBRANCH  26  28
ENDBRANCH  23  24
ENDBRANCH   9  23
BRANCH  14  36
HETATM   36  C20 UNL     1      20.597  48.667  44.787  1.00  0.00     0.038 C 
BRANCH  36  37
HETATM   37  C21 UNL     1      21.097  49.812  44.014  1.00  0.00    -0.020 C 
HETATM   38  C22 UNL     1      19.838  50.649  43.658  1.00  0.00     0.009 C 
HETATM   39  C23 UNL     1      21.990  50.771  44.760  1.00  0.00     0.009 C 
ENDBRANCH  36  37
ENDBRANCH  14  36
BRANCH  22  40
HETATM   40  O5  UNL     1      24.036  46.204  42.355  1.00  0.00    -0.393 OA
ATOM     41  H5  UNL     1      23.319  45.584  42.300  1.00  0.00     0.210 HD
ENDBRANCH  22  40
ENDBRANCH   4   5
ENDBRANCH   3   4
TORSDOF 14
ENDMDL
