MODEL 1
REMARK VINA RESULT: -9.258521896      0.000      0.000
REMARK  15 active torsions:
REMARK  status: ('A' for Active; 'I' for Inactive)
REMARK    1  A    between atoms: C4_5  and  C5_6 
REMARK    2  A    between atoms: C5_6  and  N2_7 
REMARK       I    between atoms: N2_7  and  C6_9 
REMARK    3  A    between atoms: N4_11  and  C7_13 
REMARK    4  A    between atoms: C7_13  and  C8_14 
REMARK    5  A    between atoms: C8_14  and  C9_15 
REMARK    6  A    between atoms: C9_15  and  C10_16 
REMARK    7  A    between atoms: C10_16  and  C11_17 
REMARK    8  A    between atoms: C11_17  and  C12_18 
REMARK    9  A    between atoms: C12_18  and  C13_19 
REMARK   10  A    between atoms: C13_19  and  C14_20 
REMARK       I    between atoms: C14_20  and  N5_22 
REMARK   11  A    between atoms: N5_22  and  C15_23 
REMARK   12  A    between atoms: C22_34  and  N8_35 
REMARK   13  A    between atoms: N8_35  and  C23_37 
REMARK   14  A    between atoms: C23_37  and  C24_38 
REMARK   15  A    between atoms: C24_38  and  N9_39 
ROOT
HETATM    1  C14 UNL     1      22.485  48.606  44.143  1.00  0.00     0.293 C 
HETATM    2  O1  UNL     1      21.429  47.942  43.868  1.00  0.00    -0.257 OA
HETATM    3  N5  UNL     1      22.647  49.150  45.325  1.00  0.00    -0.348 NA
ENDROOT
BRANCH   1   4
HETATM    4  C13 UNL     1      23.460  48.686  43.013  1.00  0.00     0.119 C 
BRANCH   4   5
HETATM    5  C12 UNL     1      24.193  47.472  42.660  1.00  0.00     0.010 C 
BRANCH   5   6
HETATM    6  C11 UNL     1      23.596  46.463  41.767  1.00  0.00     0.001 C 
BRANCH   6   7
HETATM    7  C10 UNL     1      23.417  45.104  42.447  1.00  0.00     0.000 C 
BRANCH   7   8
HETATM    8  C9  UNL     1      23.989  45.102  43.822  1.00  0.00     0.002 C 
BRANCH   8   9
HETATM    9  C8  UNL     1      23.890  43.743  44.453  1.00  0.00     0.020 C 
BRANCH   9  10
HETATM   10  C7  UNL     1      22.452  43.330  44.672  1.00  0.00     0.122 C 
BRANCH  10  11
HETATM   11  N4  UNL     1      21.853  44.246  45.636  1.00  0.00    -0.365 N 
HETATM   12  C6  UNL     1      20.657  44.657  45.431  1.00  0.00     0.184 C 
HETATM   13  N2  UNL     1      19.958  44.207  44.275  1.00  0.00    -0.360 N 
HETATM   14  N3  UNL     1      20.027  45.545  46.338  1.00  0.00    -0.064 NA
ATOM     15  H2  UNL     1      19.546  43.274  44.241  1.00  0.00     0.162 HD
ATOM     16  H4  UNL     1      22.375  44.553  46.456  1.00  0.00     0.162 HD
BRANCH  13  17
HETATM   17  C5  UNL     1      19.852  45.098  43.168  1.00  0.00     0.161 C 
BRANCH  17  18
HETATM   18  C4  UNL     1      18.591  45.049  42.425  1.00  0.00    -0.036 A 
HETATM   19  C3  UNL     1      17.825  43.899  42.556  1.00  0.00     0.026 A 
HETATM   20  C2  UNL     1      16.619  43.751  41.897  1.00  0.00     0.092 A 
HETATM   21  N1  UNL     1      16.150  44.731  41.103  1.00  0.00    -0.352 N 
HETATM   22  C1  UNL     1      14.883  44.527  40.436  1.00  0.00     0.156 C 
HETATM   23  C26 UNL     1      16.867  45.843  40.962  1.00  0.00     0.105 A 
HETATM   24  C25 UNL     1      18.083  46.029  41.607  1.00  0.00     0.051 A 
HETATM   25 CL1  UNL     1      16.285  47.124  39.939  1.00  0.00    -0.064 Cl
ENDBRANCH  17  18
ENDBRANCH  13  17
ENDBRANCH  10  11
ENDBRANCH   9  10
ENDBRANCH   8   9
ENDBRANCH   7   8
ENDBRANCH   6   7
ENDBRANCH   5   6
ENDBRANCH   4   5
ENDBRANCH   1   4
BRANCH   3  26
HETATM   26  C15 UNL     1      22.958  49.642  46.388  1.00  0.00     0.227 A 
HETATM   27  N6  UNL     1      22.837  48.945  47.568  1.00  0.00    -0.326 N 
HETATM   28  C16 UNL     1      23.144  49.459  48.752  1.00  0.00     0.061 A 
ATOM     29  H6  UNL     1      22.493  47.986  47.532  1.00  0.00     0.169 HD
HETATM   30  C17 UNL     1      22.996  48.697  49.920  1.00  0.00     0.032 A 
HETATM   31  C21 UNL     1      23.609  50.749  48.824  1.00  0.00     0.060 A 
HETATM   32  C18 UNL     1      23.307  49.213  51.152  1.00  0.00     0.002 A 
HETATM   33  C19 UNL     1      23.773  50.507  51.219  1.00  0.00     0.002 A 
HETATM   34  C20 UNL     1      23.918  51.257  50.059  1.00  0.00     0.032 A 
HETATM   35  N7  UNL     1      23.744  51.465  47.697  1.00  0.00    -0.337 N 
HETATM   36  C22 UNL     1      23.440  50.958  46.515  1.00  0.00     0.161 A 
ATOM     37  H7  UNL     1      24.089  52.423  47.754  1.00  0.00     0.167 HD
BRANCH  36  38
HETATM   38  N8  UNL     1      23.598  51.641  45.456  1.00  0.00    -0.371 N 
ATOM     39  H8  UNL     1      23.943  51.119  44.650  1.00  0.00     0.161 HD
BRANCH  38  40
HETATM   40  C23 UNL     1      23.367  53.022  45.228  1.00  0.00     0.148 C 
BRANCH  40  41
HETATM   41  C24 UNL     1      24.524  53.931  45.582  1.00  0.00     0.249 C 
BRANCH  41  42
HETATM   42  N9  UNL     1      24.180  55.321  45.582  1.00  0.00    -0.078 N 
ATOM     43  H93 UNL     1      24.491  55.771  44.721  1.00  0.00     0.274 HD
ATOM     44  H92 UNL     1      23.172  55.444  45.483  1.00  0.00     0.274 HD
ATOM     45  H91 UNL     1      24.526  55.827  46.398  1.00  0.00     0.274 HD
ENDBRANCH  41  42
ENDBRANCH  40  41
ENDBRANCH  38  40
ENDBRANCH  36  38
ENDBRANCH   3  26
TORSDOF 15
ENDMDL
MODEL 2
REMARK VINA RESULT: -9.193423441      0.767      1.091
REMARK  15 active torsions:
REMARK  status: ('A' for Active; 'I' for Inactive)
REMARK    1  A    between atoms: C4_5  and  C5_6 
REMARK    2  A    between atoms: C5_6  and  N2_7 
REMARK       I    between atoms: N2_7  and  C6_9 
REMARK    3  A    between atoms: N4_11  and  C7_13 
REMARK    4  A    between atoms: C7_13  and  C8_14 
REMARK    5  A    between atoms: C8_14  and  C9_15 
REMARK    6  A    between atoms: C9_15  and  C10_16 
REMARK    7  A    between atoms: C10_16  and  C11_17 
REMARK    8  A    between atoms: C11_17  and  C12_18 
REMARK    9  A    between atoms: C12_18  and  C13_19 
REMARK   10  A    between atoms: C13_19  and  C14_20 
REMARK       I    between atoms: C14_20  and  N5_22 
REMARK   11  A    between atoms: N5_22  and  C15_23 
REMARK   12  A    between atoms: C22_34  and  N8_35 
REMARK   13  A    between atoms: N8_35  and  C23_37 
REMARK   14  A    between atoms: C23_37  and  C24_38 
REMARK   15  A    between atoms: C24_38  and  N9_39 
ROOT
HETATM    1  C14 UNL     1      22.461  48.450  44.365  1.00  0.00     0.293 C 
HETATM    2  O1  UNL     1      21.485  47.654  44.155  1.00  0.00    -0.257 OA
HETATM    3  N5  UNL     1      22.629  49.011  45.539  1.00  0.00    -0.348 NA
ENDROOT
BRANCH   1   4
HETATM    4  C13 UNL     1      23.342  48.656  43.175  1.00  0.00     0.119 C 
BRANCH   4   5
HETATM    5  C12 UNL     1      24.102  47.508  42.685  1.00  0.00     0.010 C 
BRANCH   5   6
HETATM    6  C11 UNL     1      23.478  46.514  41.793  1.00  0.00     0.001 C 
BRANCH   6   7
HETATM    7  C10 UNL     1      23.434  45.114  42.408  1.00  0.00     0.000 C 
BRANCH   7   8
HETATM    8  C9  UNL     1      23.968  45.111  43.798  1.00  0.00     0.002 C 
BRANCH   8   9
HETATM    9  C8  UNL     1      23.920  43.735  44.399  1.00  0.00     0.020 C 
BRANCH   9  10
HETATM   10  C7  UNL     1      22.499  43.267  44.614  1.00  0.00     0.122 C 
BRANCH  10  11
HETATM   11  N4  UNL     1      21.879  44.124  45.619  1.00  0.00    -0.365 N 
HETATM   12  C6  UNL     1      20.677  44.523  45.429  1.00  0.00     0.184 C 
HETATM   13  N2  UNL     1      19.990  44.117  44.250  1.00  0.00    -0.360 N 
HETATM   14  N3  UNL     1      20.028  45.354  46.376  1.00  0.00    -0.064 NA
ATOM     15  H2  UNL     1      19.595  43.180  44.169  1.00  0.00     0.162 HD
ATOM     16  H4  UNL     1      22.394  44.400  46.455  1.00  0.00     0.162 HD
BRANCH  13  17
HETATM   17  C5  UNL     1      19.871  45.059  43.187  1.00  0.00     0.161 C 
BRANCH  17  18
HETATM   18  C4  UNL     1      18.612  45.028  42.442  1.00  0.00    -0.036 A 
HETATM   19  C3  UNL     1      17.810  43.907  42.602  1.00  0.00     0.026 A 
HETATM   20  C2  UNL     1      16.601  43.778  41.944  1.00  0.00     0.092 A 
HETATM   21  N1  UNL     1      16.164  44.750  41.122  1.00  0.00    -0.352 N 
HETATM   22  C1  UNL     1      14.893  44.567  40.457  1.00  0.00     0.156 C 
HETATM   23  C26 UNL     1      16.915  45.835  40.953  1.00  0.00     0.105 A 
HETATM   24  C25 UNL     1      18.136  46.001  41.596  1.00  0.00     0.051 A 
HETATM   25 CL1  UNL     1      16.376  47.105  39.893  1.00  0.00    -0.064 Cl
ENDBRANCH  17  18
ENDBRANCH  13  17
ENDBRANCH  10  11
ENDBRANCH   9  10
ENDBRANCH   8   9
ENDBRANCH   7   8
ENDBRANCH   6   7
ENDBRANCH   5   6
ENDBRANCH   4   5
ENDBRANCH   1   4
BRANCH   3  26
HETATM   26  C15 UNL     1      22.943  49.541  46.583  1.00  0.00     0.227 A 
HETATM   27  N6  UNL     1      22.848  48.877  47.785  1.00  0.00    -0.326 N 
HETATM   28  C16 UNL     1      23.159  49.432  48.949  1.00  0.00     0.061 A 
ATOM     29  H6  UNL     1      22.522  47.911  47.781  1.00  0.00     0.169 HD
HETATM   30  C17 UNL     1      23.038  48.703  50.141  1.00  0.00     0.032 A 
HETATM   31  C21 UNL     1      23.600  50.732  48.977  1.00  0.00     0.060 A 
HETATM   32  C18 UNL     1      23.353  49.261  51.353  1.00  0.00     0.002 A 
HETATM   33  C19 UNL     1      23.795  50.565  51.376  1.00  0.00     0.002 A 
HETATM   34  C20 UNL     1      23.913  51.283  50.193  1.00  0.00     0.032 A 
HETATM   35  N7  UNL     1      23.709  51.416  47.828  1.00  0.00    -0.337 N 
HETATM   36  C22 UNL     1      23.401  50.868  46.665  1.00  0.00     0.161 A 
ATOM     37  H7  UNL     1      24.037  52.382  47.852  1.00  0.00     0.167 HD
BRANCH  36  38
HETATM   38  N8  UNL     1      23.534  51.522  45.584  1.00  0.00    -0.371 N 
ATOM     39  H8  UNL     1      24.339  51.260  45.014  1.00  0.00     0.161 HD
BRANCH  38  40
HETATM   40  C23 UNL     1      22.731  52.563  45.053  1.00  0.00     0.148 C 
BRANCH  40  41
HETATM   41  C24 UNL     1      21.240  52.380  45.242  1.00  0.00     0.249 C 
BRANCH  41  42
HETATM   42  N9  UNL     1      20.666  51.409  44.360  1.00  0.00    -0.078 N 
ATOM     43  H93 UNL     1      20.272  51.859  43.534  1.00  0.00     0.274 HD
ATOM     44  H92 UNL     1      21.395  50.849  43.917  1.00  0.00     0.274 HD
ATOM     45  H91 UNL     1      19.973  50.810  44.809  1.00  0.00     0.274 HD
ENDBRANCH  41  42
ENDBRANCH  40  41
ENDBRANCH  38  40
ENDBRANCH  36  38
ENDBRANCH   3  26
TORSDOF 15
ENDMDL
MODEL 3
REMARK VINA RESULT: -8.719579573      1.355      1.812
REMARK  15 active torsions:
REMARK  status: ('A' for Active; 'I' for Inactive)
REMARK    1  A    between atoms: C4_5  and  C5_6 
REMARK    2  A    between atoms: C5_6  and  N2_7 
REMARK       I    between atoms: N2_7  and  C6_9 
REMARK    3  A    between atoms: N4_11  and  C7_13 
REMARK    4  A    between atoms: C7_13  and  C8_14 
REMARK    5  A    between atoms: C8_14  and  C9_15 
REMARK    6  A    between atoms: C9_15  and  C10_16 
REMARK    7  A    between atoms: C10_16  and  C11_17 
REMARK    8  A    between atoms: C11_17  and  C12_18 
REMARK    9  A    between atoms: C12_18  and  C13_19 
REMARK   10  A    between atoms: C13_19  and  C14_20 
REMARK       I    between atoms: C14_20  and  N5_22 
REMARK   11  A    between atoms: N5_22  and  C15_23 
REMARK   12  A    between atoms: C22_34  and  N8_35 
REMARK   13  A    between atoms: N8_35  and  C23_37 
REMARK   14  A    between atoms: C23_37  and  C24_38 
REMARK   15  A    between atoms: C24_38  and  N9_39 
ROOT
HETATM    1  C14 UNL     1      22.169  48.259  44.532  1.00  0.00     0.293 C 
HETATM    2  O1  UNL     1      21.333  47.297  44.445  1.00  0.00    -0.257 OA
HETATM    3  N5  UNL     1      22.424  48.824  45.687  1.00  0.00    -0.348 NA
ENDROOT
BRANCH   1   4
HETATM    4  C13 UNL     1      22.787  48.645  43.227  1.00  0.00     0.119 C 
BRANCH   4   5
HETATM    5  C12 UNL     1      24.205  48.348  43.032  1.00  0.00     0.010 C 
BRANCH   5   6
HETATM    6  C11 UNL     1      24.651  46.987  42.682  1.00  0.00     0.001 C 
BRANCH   6   7
HETATM    7  C10 UNL     1      25.058  46.166  43.907  1.00  0.00     0.000 C 
BRANCH   7   8
HETATM    8  C9  UNL     1      24.292  44.892  43.990  1.00  0.00     0.002 C 
BRANCH   8   9
HETATM    9  C8  UNL     1      23.316  44.766  42.856  1.00  0.00     0.020 C 
BRANCH   9  10
HETATM   10  C7  UNL     1      21.890  44.685  43.350  1.00  0.00     0.122 C 
BRANCH  10  11
HETATM   11  N4  UNL     1      21.913  44.341  44.767  1.00  0.00    -0.365 N 
HETATM   12  C6  UNL     1      20.933  43.674  45.252  1.00  0.00     0.184 C 
HETATM   13  N2  UNL     1      19.861  43.294  44.396  1.00  0.00    -0.360 N 
HETATM   14  N3  UNL     1      20.907  43.311  46.622  1.00  0.00    -0.064 NA
ATOM     15  H2  UNL     1      19.958  42.508  43.752  1.00  0.00     0.162 HD
ATOM     16  H4  UNL     1      22.693  44.625  45.359  1.00  0.00     0.162 HD
BRANCH  13  17
HETATM   17  C5  UNL     1      18.651  44.043  44.465  1.00  0.00     0.161 C 
BRANCH  17  18
HETATM   18  C4  UNL     1      18.084  44.463  43.182  1.00  0.00    -0.036 A 
HETATM   19  C3  UNL     1      18.663  45.564  42.566  1.00  0.00     0.026 A 
HETATM   20  C2  UNL     1      18.203  46.043  41.354  1.00  0.00     0.092 A 
HETATM   21  N1  UNL     1      17.171  45.445  40.730  1.00  0.00    -0.352 N 
HETATM   22  C1  UNL     1      16.727  45.985  39.464  1.00  0.00     0.156 C 
HETATM   23  C26 UNL     1      16.600  44.387  41.301  1.00  0.00     0.105 A 
HETATM   24  C25 UNL     1      17.033  43.877  42.519  1.00  0.00     0.051 A 
HETATM   25 CL1  UNL     1      15.261  43.598  40.519  1.00  0.00    -0.064 Cl
ENDBRANCH  17  18
ENDBRANCH  13  17
ENDBRANCH  10  11
ENDBRANCH   9  10
ENDBRANCH   8   9
ENDBRANCH   7   8
ENDBRANCH   6   7
ENDBRANCH   5   6
ENDBRANCH   4   5
ENDBRANCH   1   4
BRANCH   3  26
HETATM   26  C15 UNL     1      22.805  49.387  46.691  1.00  0.00     0.227 A 
HETATM   27  N6  UNL     1      22.704  48.798  47.931  1.00  0.00    -0.326 N 
HETATM   28  C16 UNL     1      23.087  49.393  49.053  1.00  0.00     0.061 A 
ATOM     29  H6  UNL     1      22.315  47.857  47.990  1.00  0.00     0.169 HD
HETATM   30  C17 UNL     1      22.956  48.739  50.287  1.00  0.00     0.032 A 
HETATM   31  C21 UNL     1      23.614  50.659  48.996  1.00  0.00     0.060 A 
HETATM   32  C18 UNL     1      23.345  49.340  51.457  1.00  0.00     0.002 A 
HETATM   33  C19 UNL     1      23.873  50.609  51.394  1.00  0.00     0.002 A 
HETATM   34  C20 UNL     1      24.001  51.252  50.169  1.00  0.00     0.032 A 
HETATM   35  N7  UNL     1      23.732  51.270  47.807  1.00  0.00    -0.337 N 
HETATM   36  C22 UNL     1      23.352  50.682  46.686  1.00  0.00     0.161 A 
ATOM     37  H7  UNL     1      24.124  52.211  47.768  1.00  0.00     0.167 HD
BRANCH  36  38
HETATM   38  N8  UNL     1      23.495  51.266  45.567  1.00  0.00    -0.371 N 
ATOM     39  H8  UNL     1      24.272  50.931  44.997  1.00  0.00     0.161 HD
BRANCH  38  40
HETATM   40  C23 UNL     1      22.734  52.316  44.992  1.00  0.00     0.148 C 
BRANCH  40  41
HETATM   41  C24 UNL     1      21.243  52.237  45.243  1.00  0.00     0.249 C 
BRANCH  41  42
HETATM   42  N9  UNL     1      20.553  51.380  44.326  1.00  0.00    -0.078 N 
ATOM     43  H93 UNL     1      20.860  50.414  44.434  1.00  0.00     0.274 HD
ATOM     44  H92 UNL     1      19.574  51.278  44.595  1.00  0.00     0.274 HD
ATOM     45  H91 UNL     1      20.630  51.676  43.354  1.00  0.00     0.274 HD
ENDBRANCH  41  42
ENDBRANCH  40  41
ENDBRANCH  38  40
ENDBRANCH  36  38
ENDBRANCH   3  26
TORSDOF 15
ENDMDL
MODEL 4
REMARK VINA RESULT: -8.513367105      2.783      4.289
REMARK  15 active torsions:
REMARK  status: ('A' for Active; 'I' for Inactive)
REMARK    1  A    between atoms: C4_5  and  C5_6 
REMARK    2  A    between atoms: C5_6  and  N2_7 
REMARK       I    between atoms: N2_7  and  C6_9 
REMARK    3  A    between atoms: N4_11  and  C7_13 
REMARK    4  A    between atoms: C7_13  and  C8_14 
REMARK    5  A    between atoms: C8_14  and  C9_15 
REMARK    6  A    between atoms: C9_15  and  C10_16 
REMARK    7  A    between atoms: C10_16  and  C11_17 
REMARK    8  A    between atoms: C11_17  and  C12_18 
REMARK    9  A    between atoms: C12_18  and  C13_19 
REMARK   10  A    between atoms: C13_19  and  C14_20 
REMARK       I    between atoms: C14_20  and  N5_22 
REMARK   11  A    between atoms: N5_22  and  C15_23 
REMARK   12  A    between atoms: C22_34  and  N8_35 
REMARK   13  A    between atoms: N8_35  and  C23_37 
REMARK   14  A    between atoms: C23_37  and  C24_38 
REMARK   15  A    between atoms: C24_38  and  N9_39 
ROOT
HETATM    1  C14 UNL     1      22.662  45.714  42.252  1.00  0.00     0.293 C 
HETATM    2  O1  UNL     1      21.599  45.303  41.676  1.00  0.00    -0.257 OA
HETATM    3  N5  UNL     1      22.713  46.906  42.795  1.00  0.00    -0.348 NA
ENDROOT
BRANCH   1   4
HETATM    4  C13 UNL     1      23.783  44.725  42.231  1.00  0.00     0.119 C 
BRANCH   4   5
HETATM    5  C12 UNL     1      23.864  43.766  43.331  1.00  0.00     0.010 C 
BRANCH   5   6
HETATM    6  C11 UNL     1      23.561  44.177  44.715  1.00  0.00     0.001 C 
BRANCH   6   7
HETATM    7  C10 UNL     1      23.348  42.986  45.651  1.00  0.00     0.000 C 
BRANCH   7   8
HETATM    8  C9  UNL     1      22.022  42.346  45.426  1.00  0.00     0.002 C 
BRANCH   8   9
HETATM    9  C8  UNL     1      20.912  43.166  46.019  1.00  0.00     0.020 C 
BRANCH   9  10
HETATM   10  C7  UNL     1      19.873  43.534  44.984  1.00  0.00     0.122 C 
BRANCH  10  11
HETATM   11  N4  UNL     1      20.098  44.917  44.579  1.00  0.00    -0.365 N 
HETATM   12  C6  UNL     1      19.169  45.529  43.944  1.00  0.00     0.184 C 
HETATM   13  N2  UNL     1      17.956  44.841  43.658  1.00  0.00    -0.360 N 
HETATM   14  N3  UNL     1      19.335  46.874  43.530  1.00  0.00    -0.064 NA
ATOM     15  H2  UNL     1      17.248  44.705  44.379  1.00  0.00     0.162 HD
ATOM     16  H4  UNL     1      20.977  45.387  44.796  1.00  0.00     0.162 HD
BRANCH  13  17
HETATM   17  C5  UNL     1      17.761  44.349  42.334  1.00  0.00     0.161 C 
BRANCH  17  18
HETATM   18  C4  UNL     1      16.822  45.103  41.502  1.00  0.00    -0.036 A 
HETATM   19  C3  UNL     1      15.572  44.538  41.290  1.00  0.00     0.026 A 
HETATM   20  C2  UNL     1      14.612  45.167  40.520  1.00  0.00     0.092 A 
HETATM   21  N1  UNL     1      14.867  46.359  39.950  1.00  0.00    -0.352 N 
HETATM   22  C1  UNL     1      13.829  46.976  39.153  1.00  0.00     0.156 C 
HETATM   23  C26 UNL     1      16.058  46.921  40.140  1.00  0.00     0.105 A 
HETATM   24  C25 UNL     1      17.049  46.320  40.907  1.00  0.00     0.051 A 
HETATM   25 CL1  UNL     1      16.415  48.460  39.412  1.00  0.00    -0.064 Cl
ENDBRANCH  17  18
ENDBRANCH  13  17
ENDBRANCH  10  11
ENDBRANCH   9  10
ENDBRANCH   8   9
ENDBRANCH   7   8
ENDBRANCH   6   7
ENDBRANCH   5   6
ENDBRANCH   4   5
ENDBRANCH   1   4
BRANCH   3  26
HETATM   26  C15 UNL     1      22.877  47.947  43.394  1.00  0.00     0.227 A 
HETATM   27  N6  UNL     1      21.840  48.823  43.615  1.00  0.00    -0.326 N 
HETATM   28  C16 UNL     1      21.987  49.982  44.245  1.00  0.00     0.061 A 
ATOM     29  H6  UNL     1      20.911  48.571  43.277  1.00  0.00     0.169 HD
HETATM   30  C17 UNL     1      20.889  50.833  44.436  1.00  0.00     0.032 A 
HETATM   31  C21 UNL     1      23.228  50.342  44.708  1.00  0.00     0.060 A 
HETATM   32  C18 UNL     1      21.023  52.035  45.084  1.00  0.00     0.002 A 
HETATM   33  C19 UNL     1      22.270  52.391  45.546  1.00  0.00     0.002 A 
HETATM   34  C20 UNL     1      23.354  51.544  45.354  1.00  0.00     0.032 A 
HETATM   35  N7  UNL     1      24.268  49.516  44.516  1.00  0.00    -0.337 N 
HETATM   36  C22 UNL     1      24.127  48.361  43.890  1.00  0.00     0.161 A 
ATOM     37  H7  UNL     1      25.189  49.786  44.862  1.00  0.00     0.167 HD
BRANCH  36  38
HETATM   38  N8  UNL     1      25.118  47.579  43.739  1.00  0.00    -0.371 N 
ATOM     39  H8  UNL     1      25.508  47.549  42.797  1.00  0.00     0.161 HD
BRANCH  38  40
HETATM   40  C23 UNL     1      25.762  46.744  44.687  1.00  0.00     0.148 C 
BRANCH  40  41
HETATM   41  C24 UNL     1      26.854  45.859  44.124  1.00  0.00     0.249 C 
BRANCH  41  42
HETATM   42  N9  UNL     1      28.176  46.331  44.406  1.00  0.00    -0.078 N 
ATOM     43  H93 UNL     1      28.458  46.068  45.350  1.00  0.00     0.274 HD
ATOM     44  H92 UNL     1      28.868  45.808  43.870  1.00  0.00     0.274 HD
ATOM     45  H91 UNL     1      28.290  47.334  44.262  1.00  0.00     0.274 HD
ENDBRANCH  41  42
ENDBRANCH  40  41
ENDBRANCH  38  40
ENDBRANCH  36  38
ENDBRANCH   3  26
TORSDOF 15
ENDMDL
MODEL 5
REMARK VINA RESULT: -8.466928361      0.994      1.129
REMARK  15 active torsions:
REMARK  status: ('A' for Active; 'I' for Inactive)
REMARK    1  A    between atoms: C4_5  and  C5_6 
REMARK    2  A    between atoms: C5_6  and  N2_7 
REMARK       I    between atoms: N2_7  and  C6_9 
REMARK    3  A    between atoms: N4_11  and  C7_13 
REMARK    4  A    between atoms: C7_13  and  C8_14 
REMARK    5  A    between atoms: C8_14  and  C9_15 
REMARK    6  A    between atoms: C9_15  and  C10_16 
REMARK    7  A    between atoms: C10_16  and  C11_17 
REMARK    8  A    between atoms: C11_17  and  C12_18 
REMARK    9  A    between atoms: C12_18  and  C13_19 
REMARK   10  A    between atoms: C13_19  and  C14_20 
REMARK       I    between atoms: C14_20  and  N5_22 
REMARK   11  A    between atoms: N5_22  and  C15_23 
REMARK   12  A    between atoms: C22_34  and  N8_35 
REMARK   13  A    between atoms: N8_35  and  C23_37 
REMARK   14  A    between atoms: C23_37  and  C24_38 
REMARK   15  A    between atoms: C24_38  and  N9_39 
ROOT
HETATM    1  C14 UNL     1      22.814  49.118  44.160  1.00  0.00     0.293 C 
HETATM    2  O1  UNL     1      22.891  49.815  43.092  1.00  0.00    -0.257 OA
HETATM    3  N5  UNL     1      23.116  49.640  45.324  1.00  0.00    -0.348 NA
ENDROOT
BRANCH   1   4
HETATM    4  C13 UNL     1      22.364  47.711  43.934  1.00  0.00     0.119 C 
BRANCH   4   5
HETATM    5  C12 UNL     1      23.021  46.948  42.874  1.00  0.00     0.010 C 
BRANCH   5   6
HETATM    6  C11 UNL     1      22.553  45.597  42.515  1.00  0.00     0.001 C 
BRANCH   6   7
HETATM    7  C10 UNL     1      23.402  44.491  43.142  1.00  0.00     0.000 C 
BRANCH   7   8
HETATM    8  C9  UNL     1      23.152  44.373  44.606  1.00  0.00     0.002 C 
BRANCH   8   9
HETATM    9  C8  UNL     1      22.491  43.068  44.944  1.00  0.00     0.020 C 
BRANCH   9  10
HETATM   10  C7  UNL     1      21.027  43.251  45.276  1.00  0.00     0.122 C 
BRANCH  10  11
HETATM   11  N4  UNL     1      20.772  44.675  45.462  1.00  0.00    -0.365 N 
HETATM   12  C6  UNL     1      19.750  45.195  44.892  1.00  0.00     0.184 C 
HETATM   13  N2  UNL     1      18.903  44.370  44.101  1.00  0.00    -0.360 N 
HETATM   14  N3  UNL     1      19.456  46.573  45.043  1.00  0.00    -0.064 NA
ATOM     15  H2  UNL     1      18.226  43.742  44.536  1.00  0.00     0.162 HD
ATOM     16  H4  UNL     1      21.395  45.245  46.035  1.00  0.00     0.162 HD
BRANCH  13  17
HETATM   17  C5  UNL     1      19.028  44.445  42.683  1.00  0.00     0.161 C 
BRANCH  17  18
HETATM   18  C4  UNL     1      17.840  44.901  41.959  1.00  0.00    -0.036 A 
HETATM   19  C3  UNL     1      16.733  44.064  41.969  1.00  0.00     0.026 A 
HETATM   20  C2  UNL     1      15.563  44.400  41.316  1.00  0.00     0.092 A 
HETATM   21  N1  UNL     1      15.463  45.563  40.647  1.00  0.00    -0.352 N 
HETATM   22  C1  UNL     1      14.216  45.868  39.979  1.00  0.00     0.156 C 
HETATM   23  C26 UNL     1      16.511  46.383  40.623  1.00  0.00     0.105 A 
HETATM   24  C25 UNL     1      17.705  46.080  41.266  1.00  0.00     0.051 A 
HETATM   25 CL1  UNL     1      16.412  47.891  39.761  1.00  0.00    -0.064 Cl
ENDBRANCH  17  18
ENDBRANCH  13  17
ENDBRANCH  10  11
ENDBRANCH   9  10
ENDBRANCH   8   9
ENDBRANCH   7   8
ENDBRANCH   6   7
ENDBRANCH   5   6
ENDBRANCH   4   5
ENDBRANCH   1   4
BRANCH   3  26
HETATM   26  C15 UNL     1      23.296  50.009  46.465  1.00  0.00     0.227 A 
HETATM   27  N6  UNL     1      23.083  49.171  47.535  1.00  0.00    -0.326 N 
HETATM   28  C16 UNL     1      23.245  49.547  48.798  1.00  0.00     0.061 A 
ATOM     29  H6  UNL     1      22.785  48.213  47.350  1.00  0.00     0.169 HD
HETATM   30  C17 UNL     1      23.010  48.645  49.846  1.00  0.00     0.032 A 
HETATM   31  C21 UNL     1      23.645  50.832  49.069  1.00  0.00     0.060 A 
HETATM   32  C18 UNL     1      23.171  49.017  51.156  1.00  0.00     0.002 A 
HETATM   33  C19 UNL     1      23.572  50.307  51.423  1.00  0.00     0.002 A 
HETATM   34  C20 UNL     1      23.804  51.196  50.381  1.00  0.00     0.032 A 
HETATM   35  N7  UNL     1      23.865  51.682  48.055  1.00  0.00    -0.337 N 
HETATM   36  C22 UNL     1      23.706  51.313  46.796  1.00  0.00     0.161 A 
ATOM     37  H7  UNL     1      24.162  52.636  48.260  1.00  0.00     0.167 HD
BRANCH  36  38
HETATM   38  N8  UNL     1      23.943  52.124  45.847  1.00  0.00    -0.371 N 
ATOM     39  H8  UNL     1      23.378  51.989  45.008  1.00  0.00     0.161 HD
BRANCH  38  40
HETATM   40  C23 UNL     1      24.878  53.189  45.781  1.00  0.00     0.148 C 
BRANCH  40  41
HETATM   41  C24 UNL     1      24.293  54.531  45.395  1.00  0.00     0.249 C 
BRANCH  41  42
HETATM   42  N9  UNL     1      22.888  54.485  45.120  1.00  0.00    -0.078 N 
ATOM     43  H93 UNL     1      22.353  54.425  45.986  1.00  0.00     0.274 HD
ATOM     44  H92 UNL     1      22.558  55.387  44.778  1.00  0.00     0.274 HD
ATOM     45  H91 UNL     1      22.623  53.737  44.479  1.00  0.00     0.274 HD
ENDBRANCH  41  42
ENDBRANCH  40  41
ENDBRANCH  38  40
ENDBRANCH  36  38
ENDBRANCH   3  26
TORSDOF 15
ENDMDL
