MODEL 1
REMARK VINA RESULT: -3.589093842      0.000      0.000
REMARK  5 active torsions:
REMARK  status: ('A' for Active; 'I' for Inactive)
REMARK    1  A    between atoms: O1_1  and  C1_3 
REMARK    2  A    between atoms: C1_3  and  C2_4 
REMARK    3  A    between atoms: C2_4  and  N1_5 
REMARK    4  A    between atoms: C6_10  and  C7_11 
REMARK    5  A    between atoms: C7_11  and  O3_12 
ROOT
HETATM    1  N1  UNL     1      62.259 105.043  52.679  1.00  0.00    -0.189 NA
HETATM    2  O2  UNL     1      62.460 103.952  51.940  1.00  0.00    -0.303 OA
HETATM    3  C3  UNL     1      62.167 102.778  52.561  1.00  0.00     0.194 C 
HETATM    4  C4  UNL     1      62.835 102.597  53.892  1.00  0.00     0.030 C 
HETATM    5  C5  UNL     1      62.384 103.805  54.735  1.00  0.00     0.026 C 
HETATM    6  C6  UNL     1      62.875 104.993  53.955  1.00  0.00     0.110 C 
ENDROOT
BRANCH   1   7
HETATM    7  C2  UNL     1      60.911 105.518  52.666  1.00  0.00     0.147 C 
BRANCH   7   8
HETATM    8  C1  UNL     1      60.578 106.218  51.338  1.00  0.00     0.181 C 
BRANCH   8   9
HETATM    9  O1  UNL     1      61.638 106.233  50.446  1.00  0.00    -0.400 OA
ATOM     10  H1  UNL     1      61.841 107.102  50.120  1.00  0.00     0.209 HD
ENDBRANCH   8   9
ENDBRANCH   7   8
ENDBRANCH   1   7
BRANCH   6  11
HETATM   11  C7  UNL     1      62.721 106.235  54.767  1.00  0.00     0.186 C 
BRANCH  11  12
HETATM   12  O3  UNL     1      62.159 105.867  56.005  1.00  0.00    -0.399 OA
ATOM     13  H3  UNL     1      61.543 106.545  56.253  1.00  0.00     0.209 HD
ENDBRANCH  11  12
ENDBRANCH   6  11
TORSDOF 5
ENDMDL
MODEL 2
REMARK VINA RESULT: -3.561969987      1.541      3.037
REMARK  5 active torsions:
REMARK  status: ('A' for Active; 'I' for Inactive)
REMARK    1  A    between atoms: O1_1  and  C1_3 
REMARK    2  A    between atoms: C1_3  and  C2_4 
REMARK    3  A    between atoms: C2_4  and  N1_5 
REMARK    4  A    between atoms: C6_10  and  C7_11 
REMARK    5  A    between atoms: C7_11  and  O3_12 
ROOT
HETATM    1  N1  UNL     1      61.885 104.604  53.984  1.00  0.00    -0.189 NA
HETATM    2  O2  UNL     1      61.481 104.368  52.736  1.00  0.00    -0.303 OA
HETATM    3  C3  UNL     1      62.383 104.693  51.771  1.00  0.00     0.194 C 
HETATM    4  C4  UNL     1      62.904 106.098  51.859  1.00  0.00     0.030 C 
HETATM    5  C5  UNL     1      63.523 106.209  53.266  1.00  0.00     0.026 C 
HETATM    6  C6  UNL     1      62.373 105.919  54.190  1.00  0.00     0.110 C 
ENDROOT
BRANCH   1   7
HETATM    7  C2  UNL     1      62.678 103.559  54.549  1.00  0.00     0.147 C 
BRANCH   7   8
HETATM    8  C1  UNL     1      62.680 102.310  53.651  1.00  0.00     0.181 C 
BRANCH   8   9
HETATM    9  O1  UNL     1      61.429 101.728  53.521  1.00  0.00    -0.400 OA
ATOM     10  H1  UNL     1      61.385 101.089  52.820  1.00  0.00     0.209 HD
ENDBRANCH   8   9
ENDBRANCH   7   8
ENDBRANCH   1   7
BRANCH   6  11
HETATM   11  C7  UNL     1      62.761 106.222  55.598  1.00  0.00     0.186 C 
BRANCH  11  12
HETATM   12  O3  UNL     1      61.617 106.045  56.401  1.00  0.00    -0.399 OA
ATOM     13  H3  UNL     1      60.886 105.865  55.823  1.00  0.00     0.209 HD
ENDBRANCH  11  12
ENDBRANCH   6  11
TORSDOF 5
ENDMDL
MODEL 3
REMARK VINA RESULT: -3.092736620      7.643      9.264
REMARK  5 active torsions:
REMARK  status: ('A' for Active; 'I' for Inactive)
REMARK    1  A    between atoms: O1_1  and  C1_3 
REMARK    2  A    between atoms: C1_3  and  C2_4 
REMARK    3  A    between atoms: C2_4  and  N1_5 
REMARK    4  A    between atoms: C6_10  and  C7_11 
REMARK    5  A    between atoms: C7_11  and  O3_12 
ROOT
HETATM    1  N1  UNL     1      63.433  97.745  47.697  1.00  0.00    -0.189 NA
HETATM    2  O2  UNL     1      63.095  99.034  47.700  1.00  0.00    -0.303 OA
HETATM    3  C3  UNL     1      63.963  99.852  48.352  1.00  0.00     0.194 C 
HETATM    4  C4  UNL     1      64.279  99.428  49.756  1.00  0.00     0.030 C 
HETATM    5  C5  UNL     1      64.845  98.000  49.626  1.00  0.00     0.026 C 
HETATM    6  C6  UNL     1      63.726  97.226  48.984  1.00  0.00     0.110 C 
ENDROOT
BRANCH   1   7
HETATM    7  C2  UNL     1      64.353  97.383  46.666  1.00  0.00     0.147 C 
BRANCH   7   8
HETATM    8  C1  UNL     1      63.898  97.919  45.298  1.00  0.00     0.181 C 
BRANCH   8   9
HETATM    9  O1  UNL     1      64.426  99.164  44.995  1.00  0.00    -0.400 OA
ATOM     10  H1  UNL     1      64.508  99.319  44.062  1.00  0.00     0.209 HD
ENDBRANCH   8   9
ENDBRANCH   7   8
ENDBRANCH   1   7
BRANCH   6  11
HETATM   11  C7  UNL     1      64.035  95.768  49.009  1.00  0.00     0.186 C 
BRANCH  11  12
HETATM   12  O3  UNL     1      64.916  95.538  50.084  1.00  0.00    -0.399 OA
ATOM     13  H3  UNL     1      65.788  95.784  49.798  1.00  0.00     0.209 HD
ENDBRANCH  11  12
ENDBRANCH   6  11
TORSDOF 5
ENDMDL
MODEL 4
REMARK VINA RESULT: -3.018010061      8.097      9.684
REMARK  5 active torsions:
REMARK  status: ('A' for Active; 'I' for Inactive)
REMARK    1  A    between atoms: O1_1  and  C1_3 
REMARK    2  A    between atoms: C1_3  and  C2_4 
REMARK    3  A    between atoms: C2_4  and  N1_5 
REMARK    4  A    between atoms: C6_10  and  C7_11 
REMARK    5  A    between atoms: C7_11  and  O3_12 
ROOT
HETATM    1  N1  UNL     1      65.580  95.805  50.532  1.00  0.00    -0.189 NA
HETATM    2  O2  UNL     1      66.372  94.742  50.673  1.00  0.00    -0.303 OA
HETATM    3  C3  UNL     1      66.311  94.141  51.891  1.00  0.00     0.194 C 
HETATM    4  C4  UNL     1      66.526  95.069  53.052  1.00  0.00     0.030 C 
HETATM    5  C5  UNL     1      65.439  96.151  52.906  1.00  0.00     0.026 C 
HETATM    6  C6  UNL     1      65.721  96.767  51.563  1.00  0.00     0.110 C 
ENDROOT
BRANCH   1   7
HETATM    7  C2  UNL     1      64.234  95.487  50.169  1.00  0.00     0.147 C 
BRANCH   7   8
HETATM    8  C1  UNL     1      63.967  95.797  48.687  1.00  0.00     0.181 C 
BRANCH   8   9
HETATM    9  O1  UNL     1      63.812  97.150  48.430  1.00  0.00    -0.400 OA
ATOM     10  H1  UNL     1      63.358  97.613  49.122  1.00  0.00     0.209 HD
ENDBRANCH   8   9
ENDBRANCH   7   8
ENDBRANCH   1   7
BRANCH   6  11
HETATM   11  C7  UNL     1      64.895  97.996  51.383  1.00  0.00     0.186 C 
BRANCH  11  12
HETATM   12  O3  UNL     1      65.530  98.797  50.414  1.00  0.00    -0.399 OA
ATOM     13  H3  UNL     1      65.158  98.574  49.569  1.00  0.00     0.209 HD
ENDBRANCH  11  12
ENDBRANCH   6  11
TORSDOF 5
ENDMDL
MODEL 5
REMARK VINA RESULT: -2.844677707      7.468      9.265
REMARK  5 active torsions:
REMARK  status: ('A' for Active; 'I' for Inactive)
REMARK    1  A    between atoms: O1_1  and  C1_3 
REMARK    2  A    between atoms: C1_3  and  C2_4 
REMARK    3  A    between atoms: C2_4  and  N1_5 
REMARK    4  A    between atoms: C6_10  and  C7_11 
REMARK    5  A    between atoms: C7_11  and  O3_12 
ROOT
HETATM    1  N1  UNL     1      63.467  98.410  47.653  1.00  0.00    -0.189 NA
HETATM    2  O2  UNL     1      63.216  97.610  46.617  1.00  0.00    -0.303 OA
HETATM    3  C3  UNL     1      64.125  97.677  45.608  1.00  0.00     0.194 C 
HETATM    4  C4  UNL     1      64.387  99.065  45.101  1.00  0.00     0.030 C 
HETATM    5  C5  UNL     1      64.858  99.860  46.334  1.00  0.00     0.026 C 
HETATM    6  C6  UNL     1      63.701  99.761  47.291  1.00  0.00     0.110 C 
ENDROOT
BRANCH   1   7
HETATM    7  C2  UNL     1      64.379  97.863  48.607  1.00  0.00     0.147 C 
BRANCH   7   8
HETATM    8  C1  UNL     1      63.848  96.546  49.198  1.00  0.00     0.181 C 
BRANCH   8   9
HETATM    9  O1  UNL     1      64.400  95.420  48.609  1.00  0.00    -0.400 OA
ATOM     10  H1  UNL     1      63.919  94.624  48.800  1.00  0.00     0.209 HD
ENDBRANCH   8   9
ENDBRANCH   7   8
ENDBRANCH   1   7
BRANCH   6  11
HETATM   11  C7  UNL     1      63.912 100.684  48.443  1.00  0.00     0.186 C 
BRANCH  11  12
HETATM   12  O3  UNL     1      62.647 100.979  48.988  1.00  0.00    -0.399 OA
ATOM     13  H3  UNL     1      62.595 100.556  49.836  1.00  0.00     0.209 HD
ENDBRANCH  11  12
ENDBRANCH   6  11
TORSDOF 5
ENDMDL
