MODEL 1
REMARK VINA RESULT: -5.272312928      0.000      0.000
REMARK  5 active torsions:
REMARK  status: ('A' for Active; 'I' for Inactive)
REMARK    1  A    between atoms: C2_3  and  O1_4 
REMARK    2  A    between atoms: O1_4  and  C3_5 
REMARK    3  A    between atoms: C5_7  and  O2_8 
REMARK    4  A    between atoms: C7_11  and  C8_12 
REMARK    5  A    between atoms: C8_12  and  O3_13 
ROOT
HETATM    1  N1  UNL     1      68.042  93.864  51.027  1.00  0.00    -0.195 NA
HETATM    2  C1  UNL     1      67.165  94.369  51.588  1.00  0.00     0.085 C 
HETATM    3  C2  UNL     1      66.041  94.991  52.300  1.00  0.00     0.291 C 
ENDROOT
BRANCH   3   4
HETATM    4  O1  UNL     1      65.003  95.104  51.385  1.00  0.00    -0.372 OA
BRANCH   4   5
HETATM    5  C3  UNL     1      65.199  96.270  50.657  1.00  0.00     0.131 C 
HETATM    6  C4  UNL     1      65.228  97.406  51.681  1.00  0.00     0.064 C 
HETATM    7  C5  UNL     1      64.867  98.620  50.858  1.00  0.00     0.121 C 
HETATM    8  C6  UNL     1      64.382  98.143  49.524  1.00  0.00     0.041 C 
HETATM    9  C7  UNL     1      64.063  96.666  49.779  1.00  0.00     0.041 C 
BRANCH   7  10
HETATM   10  O2  UNL     1      66.072  99.316  50.631  1.00  0.00    -0.395 OA
ATOM     11  H2  UNL     1      65.847 100.070  50.100  1.00  0.00     0.210 HD
ENDBRANCH   7  10
BRANCH   9  12
HETATM   12  C8  UNL     1      64.011  95.996  48.446  1.00  0.00     0.171 C 
BRANCH  12  13
HETATM   13  O3  UNL     1      64.634  94.778  48.366  1.00  0.00    -0.400 OA
ATOM     14  H3  UNL     1      65.306  94.701  47.700  1.00  0.00     0.209 HD
ENDBRANCH  12  13
ENDBRANCH   9  12
ENDBRANCH   4   5
ENDBRANCH   3   4
TORSDOF 5
ENDMDL
MODEL 2
REMARK VINA RESULT: -4.572513057      3.340      4.837
REMARK  5 active torsions:
REMARK  status: ('A' for Active; 'I' for Inactive)
REMARK    1  A    between atoms: C2_3  and  O1_4 
REMARK    2  A    between atoms: O1_4  and  C3_5 
REMARK    3  A    between atoms: C5_7  and  O2_8 
REMARK    4  A    between atoms: C7_11  and  C8_12 
REMARK    5  A    between atoms: C8_12  and  O3_13 
ROOT
HETATM    1  N1  UNL     1      65.466  96.306  44.225  1.00  0.00    -0.195 NA
HETATM    2  C1  UNL     1      64.878  97.133  44.783  1.00  0.00     0.085 C 
HETATM    3  C2  UNL     1      64.141  98.175  45.508  1.00  0.00     0.291 C 
ENDROOT
BRANCH   3   4
HETATM    4  O1  UNL     1      63.223  97.524  46.320  1.00  0.00    -0.372 OA
BRANCH   4   5
HETATM    5  C3  UNL     1      63.229  98.148  47.560  1.00  0.00     0.131 C 
HETATM    6  C4  UNL     1      63.644  99.596  47.300  1.00  0.00     0.064 C 
HETATM    7  C5  UNL     1      64.182 100.046  48.638  1.00  0.00     0.121 C 
HETATM    8  C6  UNL     1      64.327  98.834  49.506  1.00  0.00     0.041 C 
HETATM    9  C7  UNL     1      64.287  97.680  48.498  1.00  0.00     0.041 C 
BRANCH   7  10
HETATM   10  O2  UNL     1      63.178 100.848  49.218  1.00  0.00    -0.395 OA
ATOM     11  H2  UNL     1      62.913 100.407  50.016  1.00  0.00     0.210 HD
ENDBRANCH   7  10
BRANCH   9  12
HETATM   12  C8  UNL     1      63.968  96.441  49.268  1.00  0.00     0.171 C 
BRANCH  12  13
HETATM   13  O3  UNL     1      64.359  95.263  48.688  1.00  0.00    -0.400 OA
ATOM     14  H3  UNL     1      65.178  94.900  49.002  1.00  0.00     0.209 HD
ENDBRANCH  12  13
ENDBRANCH   9  12
ENDBRANCH   4   5
ENDBRANCH   3   4
TORSDOF 5
ENDMDL
MODEL 3
REMARK VINA RESULT: -4.304015653      3.593      5.183
REMARK  5 active torsions:
REMARK  status: ('A' for Active; 'I' for Inactive)
REMARK    1  A    between atoms: C2_3  and  O1_4 
REMARK    2  A    between atoms: O1_4  and  C3_5 
REMARK    3  A    between atoms: C5_7  and  O2_8 
REMARK    4  A    between atoms: C7_11  and  C8_12 
REMARK    5  A    between atoms: C8_12  and  O3_13 
ROOT
HETATM    1  N1  UNL     1      65.009  99.123  44.570  1.00  0.00    -0.195 NA
HETATM    2  C1  UNL     1      64.474  98.252  45.114  1.00  0.00     0.085 C 
HETATM    3  C2  UNL     1      63.777  97.156  45.797  1.00  0.00     0.291 C 
ENDROOT
BRANCH   3   4
HETATM    4  O1  UNL     1      63.109  97.719  46.877  1.00  0.00    -0.372 OA
BRANCH   4   5
HETATM    5  C3  UNL     1      64.033  97.928  47.891  1.00  0.00     0.131 C 
HETATM    6  C4  UNL     1      63.873  96.753  48.856  1.00  0.00     0.064 C 
HETATM    7  C5  UNL     1      64.431  97.293  50.151  1.00  0.00     0.121 C 
HETATM    8  C6  UNL     1      64.620  98.770  49.991  1.00  0.00     0.041 C 
HETATM    9  C7  UNL     1      63.754  99.098  48.769  1.00  0.00     0.041 C 
BRANCH   7  10
HETATM   10  O2  UNL     1      65.715  96.728  50.293  1.00  0.00    -0.395 OA
ATOM     11  H2  UNL     1      66.317  97.327  49.868  1.00  0.00     0.210 HD
ENDBRANCH   7  10
BRANCH   9  12
HETATM   12  C8  UNL     1      64.216 100.420  48.252  1.00  0.00     0.171 C 
BRANCH  12  13
HETATM   13  O3  UNL     1      63.826 100.729  46.975  1.00  0.00    -0.400 OA
ATOM     14  H3  UNL     1      63.691  99.990  46.394  1.00  0.00     0.209 HD
ENDBRANCH  12  13
ENDBRANCH   9  12
ENDBRANCH   4   5
ENDBRANCH   3   4
TORSDOF 5
ENDMDL
MODEL 4
REMARK VINA RESULT: -4.289146526      2.369      2.929
REMARK  5 active torsions:
REMARK  status: ('A' for Active; 'I' for Inactive)
REMARK    1  A    between atoms: C2_3  and  O1_4 
REMARK    2  A    between atoms: O1_4  and  C3_5 
REMARK    3  A    between atoms: C5_7  and  O2_8 
REMARK    4  A    between atoms: C7_11  and  C8_12 
REMARK    5  A    between atoms: C8_12  and  O3_13 
ROOT
HETATM    1  N1  UNL     1      66.025  94.775  51.221  1.00  0.00    -0.195 NA
HETATM    2  C1  UNL     1      65.450  95.741  50.943  1.00  0.00     0.085 C 
HETATM    3  C2  UNL     1      64.703  96.955  50.593  1.00  0.00     0.291 C 
ENDROOT
BRANCH   3   4
HETATM    4  O1  UNL     1      64.118  96.721  49.355  1.00  0.00    -0.372 OA
BRANCH   4   5
HETATM    5  C3  UNL     1      64.346  97.834  48.557  1.00  0.00     0.131 C 
HETATM    6  C4  UNL     1      64.173  99.049  49.469  1.00  0.00     0.064 C 
HETATM    7  C5  UNL     1      63.860 100.164  48.500  1.00  0.00     0.121 C 
HETATM    8  C6  UNL     1      63.586  99.548  47.163  1.00  0.00     0.041 C 
HETATM    9  C7  UNL     1      63.319  98.079  47.507  1.00  0.00     0.041 C 
BRANCH   7  10
HETATM   10  O2  UNL     1      65.044 100.919  48.369  1.00  0.00    -0.395 OA
ATOM     11  H2  UNL     1      64.837 101.638  47.785  1.00  0.00     0.210 HD
ENDBRANCH   7  10
BRANCH   9  12
HETATM   12  C8  UNL     1      63.484  97.300  46.244  1.00  0.00     0.171 C 
BRANCH  12  13
HETATM   13  O3  UNL     1      62.395  97.274  45.413  1.00  0.00    -0.400 OA
ATOM     14  H3  UNL     1      61.597  96.922  45.789  1.00  0.00     0.209 HD
ENDBRANCH  12  13
ENDBRANCH   9  12
ENDBRANCH   4   5
ENDBRANCH   3   4
TORSDOF 5
ENDMDL
MODEL 5
REMARK VINA RESULT: -4.217654417      1.277      2.838
REMARK  5 active torsions:
REMARK  status: ('A' for Active; 'I' for Inactive)
REMARK    1  A    between atoms: C2_3  and  O1_4 
REMARK    2  A    between atoms: O1_4  and  C3_5 
REMARK    3  A    between atoms: C5_7  and  O2_8 
REMARK    4  A    between atoms: C7_11  and  C8_12 
REMARK    5  A    between atoms: C8_12  and  O3_13 
ROOT
HETATM    1  N1  UNL     1      68.445  94.362  51.882  1.00  0.00    -0.195 NA
HETATM    2  C1  UNL     1      67.388  94.703  52.210  1.00  0.00     0.085 C 
HETATM    3  C2  UNL     1      66.043  95.136  52.607  1.00  0.00     0.291 C 
ENDROOT
BRANCH   3   4
HETATM    4  O1  UNL     1      65.921  96.464  52.219  1.00  0.00    -0.372 OA
BRANCH   4   5
HETATM    5  C3  UNL     1      64.890  96.545  51.292  1.00  0.00     0.131 C 
HETATM    6  C4  UNL     1      64.909  95.224  50.524  1.00  0.00     0.064 C 
HETATM    7  C5  UNL     1      64.218  95.570  49.226  1.00  0.00     0.121 C 
HETATM    8  C6  UNL     1      64.085  97.060  49.159  1.00  0.00     0.041 C 
HETATM    9  C7  UNL     1      65.094  97.544  50.207  1.00  0.00     0.041 C 
BRANCH   7  10
HETATM   10  O2  UNL     1      62.912  95.046  49.323  1.00  0.00    -0.395 OA
ATOM     11  H2  UNL     1      62.629  95.201  50.216  1.00  0.00     0.210 HD
ENDBRANCH   7  10
BRANCH   9  12
HETATM   12  C8  UNL     1      64.729  98.952  50.545  1.00  0.00     0.171 C 
BRANCH  12  13
HETATM   13  O3  UNL     1      63.904  99.584  49.651  1.00  0.00    -0.400 OA
ATOM     14  H3  UNL     1      63.049  99.831  49.981  1.00  0.00     0.209 HD
ENDBRANCH  12  13
ENDBRANCH   9  12
ENDBRANCH   4   5
ENDBRANCH   3   4
TORSDOF 5
ENDMDL
