MODEL 1
REMARK VINA RESULT: -4.712344393      0.000      0.000
REMARK  5 active torsions:
REMARK  status: ('A' for Active; 'I' for Inactive)
REMARK    1  A    between atoms: O1_1  and  C1_3 
REMARK    2  A    between atoms: C1_3  and  C2_4 
REMARK    3  A    between atoms: C2_4  and  O2_5 
REMARK    4  A    between atoms: C2_4  and  C3_7 
REMARK    5  A    between atoms: C3_7  and  N1_8 
ROOT
HETATM    1  C2  UNL     1      63.665  99.839  47.620  1.00  0.00     0.155 C 
ENDROOT
BRANCH   1   2
HETATM    2  C1  UNL     1      64.513 100.169  46.408  1.00  0.00     0.197 C 
BRANCH   2   3
HETATM    3  O1  UNL     1      64.252  99.179  45.433  1.00  0.00    -0.398 OA
ATOM      4  H1  UNL     1      64.972  98.562  45.460  1.00  0.00     0.209 HD
ENDBRANCH   2   3
ENDBRANCH   1   2
BRANCH   1   5
HETATM    5  O2  UNL     1      62.718 100.783  47.909  1.00  0.00    -0.392 OA
ATOM      6  H2  UNL     1      63.067 101.571  48.308  1.00  0.00     0.210 HD
ENDBRANCH   1   5
BRANCH   1   7
HETATM    7  C3  UNL     1      64.576  99.592  48.797  1.00  0.00     0.136 C 
BRANCH   7   8
HETATM    8  N1  UNL     1      64.044  98.438  49.507  1.00  0.00    -0.256 NA
HETATM    9  C4  UNL     1      64.007  97.262  48.690  1.00  0.00     0.103 C 
HETATM   10  C5  UNL     1      64.229  96.022  49.431  1.00  0.00     0.027 C 
HETATM   11  C6  UNL     1      64.984  96.220  50.689  1.00  0.00     0.092 C 
HETATM   12  S1  UNL     1      65.045  98.037  50.909  1.00  0.00    -0.083 SA
ENDBRANCH   7   8
ENDBRANCH   1   7
TORSDOF 5
ENDMDL
MODEL 2
REMARK VINA RESULT: -4.559000345      4.402      5.767
REMARK  5 active torsions:
REMARK  status: ('A' for Active; 'I' for Inactive)
REMARK    1  A    between atoms: O1_1  and  C1_3 
REMARK    2  A    between atoms: C1_3  and  C2_4 
REMARK    3  A    between atoms: C2_4  and  O2_5 
REMARK    4  A    between atoms: C2_4  and  C3_7 
REMARK    5  A    between atoms: C3_7  and  N1_8 
ROOT
HETATM    1  C2  UNL     1      66.835  94.957  52.180  1.00  0.00     0.155 C 
ENDROOT
BRANCH   1   2
HETATM    2  C1  UNL     1      67.350  93.955  51.166  1.00  0.00     0.197 C 
BRANCH   2   3
HETATM    3  O1  UNL     1      68.701  94.281  50.907  1.00  0.00    -0.398 OA
ATOM      4  H1  UNL     1      69.109  93.509  50.534  1.00  0.00     0.209 HD
ENDBRANCH   2   3
ENDBRANCH   1   2
BRANCH   1   5
HETATM    5  O2  UNL     1      66.919  94.531  53.477  1.00  0.00    -0.392 OA
ATOM      6  H2  UNL     1      66.630  93.636  53.609  1.00  0.00     0.210 HD
ENDBRANCH   1   5
BRANCH   1   7
HETATM    7  C3  UNL     1      65.419  95.333  51.813  1.00  0.00     0.136 C 
BRANCH   7   8
HETATM    8  N1  UNL     1      65.498  96.154  50.614  1.00  0.00    -0.256 NA
HETATM    9  C4  UNL     1      64.461  95.852  49.674  1.00  0.00     0.103 C 
HETATM   10  C5  UNL     1      64.009  97.007  48.902  1.00  0.00     0.027 C 
HETATM   11  C6  UNL     1      64.258  98.299  49.583  1.00  0.00     0.092 C 
HETATM   12  S1  UNL     1      65.328  97.870  51.006  1.00  0.00    -0.083 SA
ENDBRANCH   7   8
ENDBRANCH   1   7
TORSDOF 5
ENDMDL
MODEL 3
REMARK VINA RESULT: -4.070423493      4.375      5.863
REMARK  5 active torsions:
REMARK  status: ('A' for Active; 'I' for Inactive)
REMARK    1  A    between atoms: O1_1  and  C1_3 
REMARK    2  A    between atoms: C1_3  and  C2_4 
REMARK    3  A    between atoms: C2_4  and  O2_5 
REMARK    4  A    between atoms: C2_4  and  C3_7 
REMARK    5  A    between atoms: C3_7  and  N1_8 
ROOT
HETATM    1  C2  UNL     1      66.350  95.354  52.233  1.00  0.00     0.155 C 
ENDROOT
BRANCH   1   2
HETATM    2  C1  UNL     1      66.990  94.033  52.613  1.00  0.00     0.197 C 
BRANCH   2   3
HETATM    3  O1  UNL     1      68.386  94.246  52.669  1.00  0.00    -0.398 OA
ATOM      4  H1  UNL     1      68.677  94.429  51.784  1.00  0.00     0.209 HD
ENDBRANCH   2   3
ENDBRANCH   1   2
BRANCH   1   5
HETATM    5  O2  UNL     1      65.382  95.774  53.104  1.00  0.00    -0.392 OA
ATOM      6  H2  UNL     1      65.588  95.614  54.017  1.00  0.00     0.210 HD
ENDBRANCH   1   5
BRANCH   1   7
HETATM    7  C3  UNL     1      65.817  95.246  50.825  1.00  0.00     0.136 C 
BRANCH   7   8
HETATM    8  N1  UNL     1      64.798  96.276  50.680  1.00  0.00    -0.256 NA
HETATM    9  C4  UNL     1      65.343  97.599  50.755  1.00  0.00     0.103 C 
HETATM   10  C5  UNL     1      64.642  98.574  49.923  1.00  0.00     0.027 C 
HETATM   11  C6  UNL     1      63.925  97.960  48.781  1.00  0.00     0.092 C 
HETATM   12  S1  UNL     1      63.996  96.160  49.108  1.00  0.00    -0.083 SA
ENDBRANCH   7   8
ENDBRANCH   1   7
TORSDOF 5
ENDMDL
MODEL 4
REMARK VINA RESULT: -4.023735513      1.589      1.869
REMARK  5 active torsions:
REMARK  status: ('A' for Active; 'I' for Inactive)
REMARK    1  A    between atoms: O1_1  and  C1_3 
REMARK    2  A    between atoms: C1_3  and  C2_4 
REMARK    3  A    between atoms: C2_4  and  O2_5 
REMARK    4  A    between atoms: C2_4  and  C3_7 
REMARK    5  A    between atoms: C3_7  and  N1_8 
ROOT
HETATM    1  C2  UNL     1      63.954  98.808  47.582  1.00  0.00     0.155 C 
ENDROOT
BRANCH   1   2
HETATM    2  C1  UNL     1      64.054 100.264  47.173  1.00  0.00     0.197 C 
BRANCH   2   3
HETATM    3  O1  UNL     1      64.436 100.290  45.812  1.00  0.00    -0.398 OA
ATOM      4  H1  UNL     1      65.383 100.356  45.788  1.00  0.00     0.209 HD
ENDBRANCH   2   3
ENDBRANCH   1   2
BRANCH   1   5
HETATM    5  O2  UNL     1      63.000  98.103  46.900  1.00  0.00    -0.392 OA
ATOM      6  H2  UNL     1      63.189  97.177  46.818  1.00  0.00     0.210 HD
ENDBRANCH   1   5
BRANCH   1   7
HETATM    7  C3  UNL     1      63.731  98.738  49.074  1.00  0.00     0.136 C 
BRANCH   7   8
HETATM    8  N1  UNL     1      64.751  97.849  49.611  1.00  0.00    -0.256 NA
HETATM    9  C4  UNL     1      64.957  98.037  51.016  1.00  0.00     0.103 C 
HETATM   10  C5  UNL     1      65.318  96.813  51.727  1.00  0.00     0.027 C 
HETATM   11  C6  UNL     1      64.864  95.582  51.041  1.00  0.00     0.092 C 
HETATM   12  S1  UNL     1      64.293  96.155  49.398  1.00  0.00    -0.083 SA
ENDBRANCH   7   8
ENDBRANCH   1   7
TORSDOF 5
ENDMDL
MODEL 5
REMARK VINA RESULT: -3.974898168      1.507      1.795
REMARK  5 active torsions:
REMARK  status: ('A' for Active; 'I' for Inactive)
REMARK    1  A    between atoms: O1_1  and  C1_3 
REMARK    2  A    between atoms: C1_3  and  C2_4 
REMARK    3  A    between atoms: C2_4  and  O2_5 
REMARK    4  A    between atoms: C2_4  and  C3_7 
REMARK    5  A    between atoms: C3_7  and  N1_8 
ROOT
HETATM    1  C2  UNL     1      63.833  97.915  46.240  1.00  0.00     0.155 C 
ENDROOT
BRANCH   1   2
HETATM    2  C1  UNL     1      64.552  98.532  45.056  1.00  0.00     0.197 C 
BRANCH   2   3
HETATM    3  O1  UNL     1      64.590  99.928  45.272  1.00  0.00    -0.398 OA
ATOM      4  H1  UNL     1      63.838 100.150  45.807  1.00  0.00     0.209 HD
ENDBRANCH   2   3
ENDBRANCH   1   2
BRANCH   1   5
HETATM    5  O2  UNL     1      62.558  97.505  45.964  1.00  0.00    -0.392 OA
ATOM      6  H2  UNL     1      62.274  97.696  45.078  1.00  0.00     0.210 HD
ENDBRANCH   1   5
BRANCH   1   7
HETATM    7  C3  UNL     1      63.863  98.894  47.389  1.00  0.00     0.136 C 
BRANCH   7   8
HETATM    8  N1  UNL     1      63.616  98.128  48.602  1.00  0.00    -0.256 NA
HETATM    9  C4  UNL     1      63.923  96.738  48.443  1.00  0.00     0.103 C 
HETATM   10  C5  UNL     1      64.424  96.102  49.660  1.00  0.00     0.027 C 
HETATM   11  C6  UNL     1      65.042  97.058  50.607  1.00  0.00     0.092 C 
HETATM   12  S1  UNL     1      64.620  98.709  49.936  1.00  0.00    -0.083 SA
ENDBRANCH   7   8
ENDBRANCH   1   7
TORSDOF 5
ENDMDL
