MODEL 1
REMARK VINA RESULT: -7.525971123      0.000      0.000
REMARK  15 active torsions:
REMARK  status: ('A' for Active; 'I' for Inactive)
REMARK    1  A    between atoms: C2_2  and  C3_3 
REMARK    2  A    between atoms: C3_3  and  C4_4 
REMARK    3  A    between atoms: C4_4  and  C5_5 
REMARK    4  A    between atoms: C5_5  and  C6_6 
REMARK    5  A    between atoms: C6_6  and  O2_8 
REMARK    6  A    between atoms: O2_8  and  C7_9 
REMARK    7  A    between atoms: C7_9  and  C8_10 
REMARK    8  A    between atoms: C9_11  and  O3_12 
REMARK    9  A    between atoms: C15_19  and  O4_20 
REMARK   10  A    between atoms: O4_20  and  C16_21 
REMARK   11  A    between atoms: C17_24  and  C18_25 
REMARK   12  A    between atoms: C18_25  and  O7_26 
REMARK   13  A    between atoms: C19_28  and  O8_29 
REMARK   14  A    between atoms: C20_31  and  O9_32 
REMARK   15  A    between atoms: C21_34  and  O10_35 
ROOT
HETATM    1  C8  UNL     1      -8.935   2.980 -17.452  1.00  0.00     0.069 C 
HETATM    2  C9  UNL     1      -8.350   3.857 -18.469  1.00  0.00     0.126 C 
HETATM    3  C10 UNL     1      -6.850   3.588 -18.682  1.00  0.00     0.033 C 
HETATM    4  C11 UNL     1      -6.457   2.429 -17.817  1.00  0.00     0.014 C 
HETATM    5  C12 UNL     1      -7.307   1.196 -18.143  1.00  0.00    -0.021 C 
HETATM    6  C13 UNL     1      -7.206   0.858 -19.592  1.00  0.00     0.017 C 
HETATM    7  C14 UNL     1      -6.682   0.047 -17.376  1.00  0.00     0.017 C 
HETATM    8  C15 UNL     1      -8.696   1.500 -17.645  1.00  0.00     0.141 C 
ENDROOT
BRANCH   8   9
HETATM    9  O4  UNL     1      -9.702   0.919 -18.305  1.00  0.00    -0.349 OA
BRANCH   9  10
HETATM   10  C16 UNL     1     -10.117  -0.325 -17.987  1.00  0.00     0.328 C 
HETATM   11  O5  UNL     1     -10.726  -0.811 -19.166  1.00  0.00    -0.205 OA
HETATM   12  O6  UNL     1     -11.594  -0.100 -19.727  1.00  0.00    -0.228 OA
HETATM   13  C17 UNL     1     -12.530   0.440 -18.870  1.00  0.00     0.215 C 
HETATM   14  C19 UNL     1     -13.235  -0.696 -18.168  1.00  0.00     0.183 C 
HETATM   15  C20 UNL     1     -12.239  -1.429 -17.319  1.00  0.00     0.183 C 
HETATM   16  C21 UNL     1     -11.105  -0.521 -16.898  1.00  0.00     0.207 C 
BRANCH  13  17
HETATM   17  C18 UNL     1     -13.625   1.186 -19.631  1.00  0.00     0.201 C 
BRANCH  17  18
HETATM   18  O7  UNL     1     -13.684   0.604 -20.900  1.00  0.00    -0.398 OA
ATOM     19  H7  UNL     1     -14.590   0.354 -21.035  1.00  0.00     0.209 HD
ENDBRANCH  17  18
ENDBRANCH  13  17
BRANCH  14  20
HETATM   20  O8  UNL     1     -13.695  -1.552 -19.170  1.00  0.00    -0.390 OA
ATOM     21  H8  UNL     1     -14.617  -1.697 -18.996  1.00  0.00     0.210 HD
ENDBRANCH  14  20
BRANCH  15  22
HETATM   22  O9  UNL     1     -11.719  -2.567 -17.931  1.00  0.00    -0.390 OA
ATOM     23  H9  UNL     1     -11.587  -3.292 -17.331  1.00  0.00     0.210 HD
ENDBRANCH  15  22
BRANCH  16  24
HETATM   24  O10 UNL     1     -10.554  -1.186 -15.780  1.00  0.00    -0.388 OA
ATOM     25  H10 UNL     1     -11.104  -1.897 -15.472  1.00  0.00     0.210 HD
ENDBRANCH  16  24
ENDBRANCH   9  10
ENDBRANCH   8   9
BRANCH   1  26
HETATM   26  C7  UNL     1     -10.365   3.262 -17.138  1.00  0.00     0.188 C 
BRANCH  26  27
HETATM   27  O2  UNL     1     -11.270   3.596 -18.064  1.00  0.00    -0.321 OA
BRANCH  27  28
HETATM   28  C6  UNL     1     -12.300   4.401 -18.291  1.00  0.00     0.258 C 
HETATM   29  O1  UNL     1     -12.997   4.804 -17.340  1.00  0.00    -0.265 OA
BRANCH  28  30
HETATM   30  C5  UNL     1     -12.718   4.891 -19.660  1.00  0.00     0.111 C 
BRANCH  30  31
HETATM   31  C4  UNL     1     -14.064   5.525 -19.618  1.00  0.00     0.010 C 
BRANCH  31  32
HETATM   32  C3  UNL     1     -14.357   6.200 -20.924  1.00  0.00     0.000 C 
BRANCH  32  33
HETATM   33  C2  UNL     1     -14.534   7.676 -20.719  1.00  0.00    -0.005 C 
HETATM   34  C1  UNL     1     -13.798   8.398 -21.831  1.00  0.00     0.005 C 
ENDBRANCH  32  33
ENDBRANCH  31  32
ENDBRANCH  30  31
ENDBRANCH  28  30
ENDBRANCH  27  28
ENDBRANCH  26  27
ENDBRANCH   1  26
BRANCH   2  35
HETATM   35  O3  UNL     1      -8.948   3.852 -19.707  1.00  0.00    -0.395 OA
ATOM     36  H3  UNL     1      -8.567   4.419 -20.368  1.00  0.00     0.210 HD
ENDBRANCH   2  35
TORSDOF 15
ENDMDL
MODEL 2
REMARK VINA RESULT: -7.477205182      3.574      5.177
REMARK  15 active torsions:
REMARK  status: ('A' for Active; 'I' for Inactive)
REMARK    1  A    between atoms: C2_2  and  C3_3 
REMARK    2  A    between atoms: C3_3  and  C4_4 
REMARK    3  A    between atoms: C4_4  and  C5_5 
REMARK    4  A    between atoms: C5_5  and  C6_6 
REMARK    5  A    between atoms: C6_6  and  O2_8 
REMARK    6  A    between atoms: O2_8  and  C7_9 
REMARK    7  A    between atoms: C7_9  and  C8_10 
REMARK    8  A    between atoms: C9_11  and  O3_12 
REMARK    9  A    between atoms: C15_19  and  O4_20 
REMARK   10  A    between atoms: O4_20  and  C16_21 
REMARK   11  A    between atoms: C17_24  and  C18_25 
REMARK   12  A    between atoms: C18_25  and  O7_26 
REMARK   13  A    between atoms: C19_28  and  O8_29 
REMARK   14  A    between atoms: C20_31  and  O9_32 
REMARK   15  A    between atoms: C21_34  and  O10_35 
ROOT
HETATM    1  C8  UNL     1     -14.934   3.777 -17.045  1.00  0.00     0.069 C 
HETATM    2  C9  UNL     1     -14.752   4.682 -18.183  1.00  0.00     0.126 C 
HETATM    3  C10 UNL     1     -13.276   5.055 -18.404  1.00  0.00     0.033 C 
HETATM    4  C11 UNL     1     -12.450   4.296 -17.411  1.00  0.00     0.014 C 
HETATM    5  C12 UNL     1     -12.682   2.787 -17.553  1.00  0.00    -0.021 C 
HETATM    6  C13 UNL     1     -12.407   2.343 -18.950  1.00  0.00     0.017 C 
HETATM    7  C14 UNL     1     -11.648   2.123 -16.665  1.00  0.00     0.017 C 
HETATM    8  C15 UNL     1     -14.081   2.529 -17.055  1.00  0.00     0.141 C 
ENDROOT
BRANCH   8   9
HETATM    9  O4  UNL     1     -14.724   1.496 -17.606  1.00  0.00    -0.349 OA
BRANCH   9  10
HETATM   10  C16 UNL     1     -14.888   0.339 -16.931  1.00  0.00     0.328 C 
HETATM   11  O5  UNL     1     -13.910  -0.530 -17.468  1.00  0.00    -0.205 OA
HETATM   12  O6  UNL     1     -13.844  -0.657 -18.715  1.00  0.00    -0.228 OA
HETATM   13  C17 UNL     1     -15.063  -0.838 -19.334  1.00  0.00     0.215 C 
HETATM   14  C19 UNL     1     -15.699  -2.084 -18.766  1.00  0.00     0.183 C 
HETATM   15  C20 UNL     1     -15.980  -1.859 -17.310  1.00  0.00     0.183 C 
HETATM   16  C21 UNL     1     -16.178  -0.390 -17.011  1.00  0.00     0.207 C 
BRANCH  13  17
HETATM   17  C18 UNL     1     -14.899  -1.114 -20.828  1.00  0.00     0.201 C 
BRANCH  17  18
HETATM   18  O7  UNL     1     -15.842  -2.093 -21.150  1.00  0.00    -0.398 OA
ATOM     19  H7  UNL     1     -16.662  -1.809 -20.763  1.00  0.00     0.209 HD
ENDBRANCH  17  18
ENDBRANCH  13  17
BRANCH  14  20
HETATM   20  O8  UNL     1     -14.753  -3.102 -18.894  1.00  0.00    -0.390 OA
ATOM     21  H8  UNL     1     -15.119  -3.733 -19.503  1.00  0.00     0.210 HD
ENDBRANCH  14  20
BRANCH  15  22
HETATM   22  O9  UNL     1     -14.998  -2.376 -16.469  1.00  0.00    -0.390 OA
ATOM     23  H9  UNL     1     -15.006  -3.325 -16.416  1.00  0.00     0.210 HD
ENDBRANCH  15  22
BRANCH  16  24
HETATM   24  O10 UNL     1     -16.870  -0.399 -15.779  1.00  0.00    -0.388 OA
ATOM     25  H10 UNL     1     -16.344  -0.749 -15.069  1.00  0.00     0.210 HD
ENDBRANCH  16  24
ENDBRANCH   9  10
ENDBRANCH   8   9
BRANCH   1  26
HETATM   26  C7  UNL     1     -16.355   3.459 -16.726  1.00  0.00     0.188 C 
BRANCH  26  27
HETATM   27  O2  UNL     1     -17.393   4.105 -17.270  1.00  0.00    -0.321 OA
BRANCH  27  28
HETATM   28  C6  UNL     1     -18.705   4.272 -17.163  1.00  0.00     0.258 C 
HETATM   29  O1  UNL     1     -19.229   4.387 -16.037  1.00  0.00    -0.265 OA
BRANCH  28  30
HETATM   30  C5  UNL     1     -19.658   4.340 -18.335  1.00  0.00     0.111 C 
BRANCH  30  31
HETATM   31  C4  UNL     1     -19.810   5.736 -18.827  1.00  0.00     0.010 C 
BRANCH  31  32
HETATM   32  C3  UNL     1     -19.459   5.812 -20.283  1.00  0.00     0.000 C 
BRANCH  32  33
HETATM   33  C2  UNL     1     -17.976   5.950 -20.455  1.00  0.00    -0.005 C 
HETATM   34  C1  UNL     1     -17.482   6.990 -19.469  1.00  0.00     0.005 C 
ENDBRANCH  32  33
ENDBRANCH  31  32
ENDBRANCH  30  31
ENDBRANCH  28  30
ENDBRANCH  27  28
ENDBRANCH  26  27
ENDBRANCH   1  26
BRANCH   2  35
HETATM   35  O3  UNL     1     -15.257   4.264 -19.392  1.00  0.00    -0.395 OA
ATOM     36  H3  UNL     1     -14.694   4.370 -20.149  1.00  0.00     0.210 HD
ENDBRANCH   2  35
TORSDOF 15
ENDMDL
MODEL 3
REMARK VINA RESULT: -7.350082794      3.926      5.774
REMARK  15 active torsions:
REMARK  status: ('A' for Active; 'I' for Inactive)
REMARK    1  A    between atoms: C2_2  and  C3_3 
REMARK    2  A    between atoms: C3_3  and  C4_4 
REMARK    3  A    between atoms: C4_4  and  C5_5 
REMARK    4  A    between atoms: C5_5  and  C6_6 
REMARK    5  A    between atoms: C6_6  and  O2_8 
REMARK    6  A    between atoms: O2_8  and  C7_9 
REMARK    7  A    between atoms: C7_9  and  C8_10 
REMARK    8  A    between atoms: C9_11  and  O3_12 
REMARK    9  A    between atoms: C15_19  and  O4_20 
REMARK   10  A    between atoms: O4_20  and  C16_21 
REMARK   11  A    between atoms: C17_24  and  C18_25 
REMARK   12  A    between atoms: C18_25  and  O7_26 
REMARK   13  A    between atoms: C19_28  and  O8_29 
REMARK   14  A    between atoms: C20_31  and  O9_32 
REMARK   15  A    between atoms: C21_34  and  O10_35 
ROOT
HETATM    1  C8  UNL     1     -14.956   4.587 -17.107  1.00  0.00     0.069 C 
HETATM    2  C9  UNL     1     -14.824   5.304 -18.377  1.00  0.00     0.126 C 
HETATM    3  C10 UNL     1     -13.385   5.278 -18.918  1.00  0.00     0.033 C 
HETATM    4  C11 UNL     1     -12.555   4.438 -17.995  1.00  0.00     0.014 C 
HETATM    5  C12 UNL     1     -13.142   3.027 -17.871  1.00  0.00    -0.021 C 
HETATM    6  C13 UNL     1     -13.277   2.395 -19.216  1.00  0.00     0.017 C 
HETATM    7  C14 UNL     1     -12.116   2.217 -17.102  1.00  0.00     0.017 C 
HETATM    8  C15 UNL     1     -14.424   3.172 -17.093  1.00  0.00     0.141 C 
ENDROOT
BRANCH   8   9
HETATM    9  O4  UNL     1     -15.383   2.281 -17.360  1.00  0.00    -0.349 OA
BRANCH   9  10
HETATM   10  C16 UNL     1     -15.948   1.551 -16.376  1.00  0.00     0.328 C 
HETATM   11  O5  UNL     1     -15.006   0.533 -16.100  1.00  0.00    -0.205 OA
HETATM   12  O6  UNL     1     -14.558  -0.141 -17.059  1.00  0.00    -0.228 OA
HETATM   13  C17 UNL     1     -15.518  -0.579 -17.946  1.00  0.00     0.215 C 
HETATM   14  C19 UNL     1     -16.503  -1.437 -17.187  1.00  0.00     0.183 C 
HETATM   15  C20 UNL     1     -17.204  -0.582 -16.174  1.00  0.00     0.183 C 
HETATM   16  C21 UNL     1     -17.243   0.865 -16.612  1.00  0.00     0.207 C 
BRANCH  13  17
HETATM   17  C18 UNL     1     -14.922  -1.498 -19.012  1.00  0.00     0.201 C 
BRANCH  17  18
HETATM   18  O7  UNL     1     -16.003  -2.117 -19.643  1.00  0.00    -0.398 OA
ATOM     19  H7  UNL     1     -15.641  -2.600 -20.376  1.00  0.00     0.209 HD
ENDBRANCH  17  18
ENDBRANCH  13  17
BRANCH  14  20
HETATM   20  O8  UNL     1     -15.749  -2.405 -16.521  1.00  0.00    -0.390 OA
ATOM     21  H8  UNL     1     -15.336  -1.965 -15.787  1.00  0.00     0.210 HD
ENDBRANCH  14  20
BRANCH  15  22
HETATM   22  O9  UNL     1     -16.652  -0.666 -14.898  1.00  0.00    -0.390 OA
ATOM     23  H9  UNL     1     -16.796  -1.507 -14.479  1.00  0.00     0.210 HD
ENDBRANCH  15  22
BRANCH  16  24
HETATM   24  O10 UNL     1     -18.292   1.411 -15.839  1.00  0.00    -0.388 OA
ATOM     25  H10 UNL     1     -18.297   1.081 -14.948  1.00  0.00     0.210 HD
ENDBRANCH  16  24
ENDBRANCH   9  10
ENDBRANCH   8   9
BRANCH   1  26
HETATM   26  C7  UNL     1     -16.311   4.662 -16.489  1.00  0.00     0.188 C 
BRANCH  26  27
HETATM   27  O2  UNL     1     -17.446   4.598 -17.195  1.00  0.00    -0.321 OA
BRANCH  27  28
HETATM   28  C6  UNL     1     -18.738   4.318 -17.090  1.00  0.00     0.258 C 
HETATM   29  O1  UNL     1     -19.303   4.380 -15.981  1.00  0.00    -0.265 OA
BRANCH  28  30
HETATM   30  C5  UNL     1     -19.622   3.912 -18.249  1.00  0.00     0.111 C 
BRANCH  30  31
HETATM   31  C4  UNL     1     -20.147   5.104 -18.970  1.00  0.00     0.010 C 
BRANCH  31  32
HETATM   32  C3  UNL     1     -19.333   5.362 -20.203  1.00  0.00     0.000 C 
BRANCH  32  33
HETATM   33  C2  UNL     1     -19.032   6.825 -20.331  1.00  0.00    -0.005 C 
HETATM   34  C1  UNL     1     -17.838   7.140 -19.450  1.00  0.00     0.005 C 
ENDBRANCH  32  33
ENDBRANCH  31  32
ENDBRANCH  30  31
ENDBRANCH  28  30
ENDBRANCH  27  28
ENDBRANCH  26  27
ENDBRANCH   1  26
BRANCH   2  35
HETATM   35  O3  UNL     1     -15.656   4.909 -19.399  1.00  0.00    -0.395 OA
ATOM     36  H3  UNL     1     -16.269   5.558 -19.725  1.00  0.00     0.210 HD
ENDBRANCH   2  35
TORSDOF 15
ENDMDL
MODEL 4
REMARK VINA RESULT: -7.298832288      1.898      2.724
REMARK  15 active torsions:
REMARK  status: ('A' for Active; 'I' for Inactive)
REMARK    1  A    between atoms: C2_2  and  C3_3 
REMARK    2  A    between atoms: C3_3  and  C4_4 
REMARK    3  A    between atoms: C4_4  and  C5_5 
REMARK    4  A    between atoms: C5_5  and  C6_6 
REMARK    5  A    between atoms: C6_6  and  O2_8 
REMARK    6  A    between atoms: O2_8  and  C7_9 
REMARK    7  A    between atoms: C7_9  and  C8_10 
REMARK    8  A    between atoms: C9_11  and  O3_12 
REMARK    9  A    between atoms: C15_19  and  O4_20 
REMARK   10  A    between atoms: O4_20  and  C16_21 
REMARK   11  A    between atoms: C17_24  and  C18_25 
REMARK   12  A    between atoms: C18_25  and  O7_26 
REMARK   13  A    between atoms: C19_28  and  O8_29 
REMARK   14  A    between atoms: C20_31  and  O9_32 
REMARK   15  A    between atoms: C21_34  and  O10_35 
ROOT
HETATM    1  C8  UNL     1     -11.707   2.568 -16.764  1.00  0.00     0.069 C 
HETATM    2  C9  UNL     1     -10.918   3.421 -17.656  1.00  0.00     0.126 C 
HETATM    3  C10 UNL     1      -9.452   2.968 -17.755  1.00  0.00     0.033 C 
HETATM    4  C11 UNL     1      -9.296   1.714 -16.949  1.00  0.00     0.014 C 
HETATM    5  C12 UNL     1     -10.261   0.629 -17.441  1.00  0.00    -0.021 C 
HETATM    6  C13 UNL     1     -10.063   0.373 -18.898  1.00  0.00     0.017 C 
HETATM    7  C14 UNL     1      -9.866  -0.640 -16.711  1.00  0.00     0.017 C 
HETATM    8  C15 UNL     1     -11.642   1.084 -17.046  1.00  0.00     0.141 C 
ENDROOT
BRANCH   8   9
HETATM    9  O4  UNL     1     -12.644   0.687 -17.835  1.00  0.00    -0.349 OA
BRANCH   9  10
HETATM   10  C16 UNL     1     -13.459  -0.325 -17.468  1.00  0.00     0.328 C 
HETATM   11  O5  UNL     1     -13.163  -1.369 -18.375  1.00  0.00    -0.205 OA
HETATM   12  O6  UNL     1     -13.169  -1.113 -19.603  1.00  0.00    -0.228 OA
HETATM   13  C17 UNL     1     -14.257  -0.380 -20.027  1.00  0.00     0.215 C 
HETATM   14  C19 UNL     1     -15.506  -1.164 -19.703  1.00  0.00     0.183 C 
HETATM   15  C20 UNL     1     -15.621  -1.292 -18.213  1.00  0.00     0.183 C 
HETATM   16  C21 UNL     1     -14.931  -0.144 -17.511  1.00  0.00     0.207 C 
BRANCH  13  17
HETATM   17  C18 UNL     1     -14.267  -0.215 -21.547  1.00  0.00     0.201 C 
BRANCH  17  18
HETATM   18  O7  UNL     1     -12.952  -0.426 -21.970  1.00  0.00    -0.398 OA
ATOM     19  H7  UNL     1     -12.498   0.399 -21.847  1.00  0.00     0.209 HD
ENDBRANCH  17  18
ENDBRANCH  13  17
BRANCH  14  20
HETATM   20  O8  UNL     1     -15.328  -2.434 -20.256  1.00  0.00    -0.390 OA
ATOM     21  H8  UNL     1     -16.063  -2.959 -19.963  1.00  0.00     0.210 HD
ENDBRANCH  14  20
BRANCH  15  22
HETATM   22  O9  UNL     1     -15.134  -2.499 -17.720  1.00  0.00    -0.390 OA
ATOM     23  H9  UNL     1     -15.640  -2.842 -16.993  1.00  0.00     0.210 HD
ENDBRANCH  15  22
BRANCH  16  24
HETATM   24  O10 UNL     1     -15.513  -0.152 -16.224  1.00  0.00    -0.388 OA
ATOM     25  H10 UNL     1     -15.393  -0.981 -15.776  1.00  0.00     0.210 HD
ENDBRANCH  16  24
ENDBRANCH   9  10
ENDBRANCH   8   9
BRANCH   1  26
HETATM   26  C7  UNL     1     -13.113   3.019 -16.557  1.00  0.00     0.188 C 
BRANCH  26  27
HETATM   27  O2  UNL     1     -13.699   3.965 -17.299  1.00  0.00    -0.321 OA
BRANCH  27  28
HETATM   28  C6  UNL     1     -14.091   5.232 -17.276  1.00  0.00     0.258 C 
HETATM   29  O1  UNL     1     -14.134   5.852 -16.196  1.00  0.00    -0.265 OA
BRANCH  28  30
HETATM   30  C5  UNL     1     -14.508   6.021 -18.498  1.00  0.00     0.111 C 
BRANCH  30  31
HETATM   31  C4  UNL     1     -14.283   5.243 -19.746  1.00  0.00     0.010 C 
BRANCH  31  32
HETATM   32  C3  UNL     1     -13.738   6.136 -20.821  1.00  0.00     0.000 C 
BRANCH  32  33
HETATM   33  C2  UNL     1     -14.536   7.403 -20.898  1.00  0.00    -0.005 C 
HETATM   34  C1  UNL     1     -13.797   8.372 -21.801  1.00  0.00     0.005 C 
ENDBRANCH  32  33
ENDBRANCH  31  32
ENDBRANCH  30  31
ENDBRANCH  28  30
ENDBRANCH  27  28
ENDBRANCH  26  27
ENDBRANCH   1  26
BRANCH   2  35
HETATM   35  O3  UNL     1     -11.389   3.575 -18.939  1.00  0.00    -0.395 OA
ATOM     36  H3  UNL     1     -11.046   4.310 -19.435  1.00  0.00     0.210 HD
ENDBRANCH   2  35
TORSDOF 15
ENDMDL
MODEL 5
REMARK VINA RESULT: -7.254117004      4.659      8.472
REMARK  15 active torsions:
REMARK  status: ('A' for Active; 'I' for Inactive)
REMARK    1  A    between atoms: C2_2  and  C3_3 
REMARK    2  A    between atoms: C3_3  and  C4_4 
REMARK    3  A    between atoms: C4_4  and  C5_5 
REMARK    4  A    between atoms: C5_5  and  C6_6 
REMARK    5  A    between atoms: C6_6  and  O2_8 
REMARK    6  A    between atoms: O2_8  and  C7_9 
REMARK    7  A    between atoms: C7_9  and  C8_10 
REMARK    8  A    between atoms: C9_11  and  O3_12 
REMARK    9  A    between atoms: C15_19  and  O4_20 
REMARK   10  A    between atoms: O4_20  and  C16_21 
REMARK   11  A    between atoms: C17_24  and  C18_25 
REMARK   12  A    between atoms: C18_25  and  O7_26 
REMARK   13  A    between atoms: C19_28  and  O8_29 
REMARK   14  A    between atoms: C20_31  and  O9_32 
REMARK   15  A    between atoms: C21_34  and  O10_35 
ROOT
HETATM    1  C8  UNL     1     -15.503   4.407 -18.585  1.00  0.00     0.069 C 
HETATM    2  C9  UNL     1     -14.454   5.421 -18.461  1.00  0.00     0.126 C 
HETATM    3  C10 UNL     1     -14.460   6.418 -19.633  1.00  0.00     0.033 C 
HETATM    4  C11 UNL     1     -15.618   6.083 -20.523  1.00  0.00     0.014 C 
HETATM    5  C12 UNL     1     -16.934   6.119 -19.738  1.00  0.00    -0.021 C 
HETATM    6  C13 UNL     1     -17.114   7.445 -19.078  1.00  0.00     0.017 C 
HETATM    7  C14 UNL     1     -18.037   5.985 -20.770  1.00  0.00     0.017 C 
HETATM    8  C15 UNL     1     -16.902   4.934 -18.809  1.00  0.00     0.141 C 
ENDROOT
BRANCH   8   9
HETATM    9  O4  UNL     1     -17.570   5.064 -17.659  1.00  0.00    -0.349 OA
BRANCH   9  10
HETATM   10  C16 UNL     1     -18.919   5.102 -17.639  1.00  0.00     0.328 C 
HETATM   11  O5  UNL     1     -19.268   4.717 -16.325  1.00  0.00    -0.205 OA
HETATM   12  O6  UNL     1     -18.769   3.664 -15.858  1.00  0.00    -0.228 OA
HETATM   13  C17 UNL     1     -18.804   2.587 -16.718  1.00  0.00     0.215 C 
HETATM   14  C19 UNL     1     -20.248   2.310 -17.065  1.00  0.00     0.183 C 
HETATM   15  C20 UNL     1     -20.795   3.485 -17.817  1.00  0.00     0.183 C 
HETATM   16  C21 UNL     1     -19.699   4.227 -18.549  1.00  0.00     0.207 C 
BRANCH  13  17
HETATM   17  C18 UNL     1     -18.299   1.312 -16.043  1.00  0.00     0.201 C 
BRANCH  17  18
HETATM   18  O7  UNL     1     -19.049   0.263 -16.580  1.00  0.00    -0.398 OA
ATOM     19  H7  UNL     1     -19.938   0.587 -16.662  1.00  0.00     0.209 HD
ENDBRANCH  17  18
ENDBRANCH  13  17
BRANCH  14  20
HETATM   20  O8  UNL     1     -20.927   2.190 -15.852  1.00  0.00    -0.390 OA
ATOM     21  H8  UNL     1     -21.852   2.259 -16.054  1.00  0.00     0.210 HD
ENDBRANCH  14  20
BRANCH  15  22
HETATM   22  O9  UNL     1     -21.504   4.376 -17.016  1.00  0.00    -0.390 OA
ATOM     23  H9  UNL     1     -22.433   4.183 -16.965  1.00  0.00     0.210 HD
ENDBRANCH  15  22
BRANCH  16  24
HETATM   24  O10 UNL     1     -20.401   4.958 -19.532  1.00  0.00    -0.388 OA
ATOM     25  H10 UNL     1     -20.394   4.528 -20.379  1.00  0.00     0.210 HD
ENDBRANCH  16  24
ENDBRANCH   9  10
ENDBRANCH   8   9
BRANCH   1  26
HETATM   26  C7  UNL     1     -15.481   3.358 -17.526  1.00  0.00     0.188 C 
BRANCH  26  27
HETATM   27  O2  UNL     1     -14.437   3.152 -16.716  1.00  0.00    -0.321 OA
BRANCH  27  28
HETATM   28  C6  UNL     1     -13.222   2.621 -16.674  1.00  0.00     0.258 C 
HETATM   29  O1  UNL     1     -13.081   1.383 -16.713  1.00  0.00    -0.265 OA
BRANCH  28  30
HETATM   30  C5  UNL     1     -11.941   3.421 -16.581  1.00  0.00     0.111 C 
BRANCH  30  31
HETATM   31  C4  UNL     1     -11.293   3.558 -17.914  1.00  0.00     0.010 C 
BRANCH  31  32
HETATM   32  C3  UNL     1      -9.837   3.211 -17.818  1.00  0.00     0.000 C 
BRANCH  32  33
HETATM   33  C2  UNL     1      -9.632   1.748 -18.083  1.00  0.00    -0.005 C 
HETATM   34  C1  UNL     1      -8.430   1.598 -18.995  1.00  0.00     0.005 C 
ENDBRANCH  32  33
ENDBRANCH  31  32
ENDBRANCH  30  31
ENDBRANCH  28  30
ENDBRANCH  27  28
ENDBRANCH  26  27
ENDBRANCH   1  26
BRANCH   2  35
HETATM   35  O3  UNL     1     -14.437   6.153 -17.297  1.00  0.00    -0.395 OA
ATOM     36  H3  UNL     1     -14.956   5.819 -16.575  1.00  0.00     0.210 HD
ENDBRANCH   2  35
TORSDOF 15
ENDMDL
