MODEL 1
REMARK VINA RESULT: -8.473402414      0.000      0.000
REMARK  15 active torsions:
REMARK  status: ('A' for Active; 'I' for Inactive)
REMARK    1  A    between atoms: O1_2  and  C2_3 
REMARK    2  A    between atoms: C4_5  and  C5_6 
REMARK    3  A    between atoms: C5_6  and  C6_7 
REMARK    4  A    between atoms: C6_7  and  C7_8 
REMARK    5  A    between atoms: C7_8  and  O2_9 
REMARK    6  A    between atoms: O2_9  and  C8_10 
REMARK    7  A    between atoms: C14_17  and  O4_18 
REMARK    8  A    between atoms: C15_20  and  O5_21 
REMARK    9  A    between atoms: O5_21  and  C16_22 
REMARK   10  A    between atoms: C17_24  and  C18_25 
REMARK   11  A    between atoms: C18_25  and  O7_26 
REMARK   12  A    between atoms: C19_28  and  C20_29 
REMARK   13  A    between atoms: C20_29  and  O8_30 
REMARK   14  A    between atoms: C21_32  and  O9_33 
REMARK   15  A    between atoms: C22_35  and  O10_36 
ROOT
HETATM    1  C2  UNL     1     -13.524   4.818 -16.832  1.00  0.00     0.104 A 
HETATM    2  C3  UNL     1     -12.473   4.005 -16.483  1.00  0.00     0.047 A 
HETATM    3  C4  UNL     1     -11.585   3.615 -17.458  1.00  0.00    -0.053 A 
HETATM    4  C13 UNL     1     -11.759   4.035 -18.736  1.00  0.00     0.046 A 
HETATM    5  C14 UNL     1     -12.817   4.866 -19.144  1.00  0.00     0.102 A 
HETATM    6  C15 UNL     1     -13.683   5.236 -18.150  1.00  0.00     0.138 A 
ENDROOT
BRANCH   6   7
HETATM    7  O5  UNL     1     -14.768   6.058 -18.453  1.00  0.00    -0.312 OA
BRANCH   7   8
HETATM    8  C16 UNL     1     -15.782   5.494 -19.304  1.00  0.00     0.298 C 
HETATM    9  O6  UNL     1     -16.500   4.637 -18.451  1.00  0.00    -0.350 OA
HETATM   10  C17 UNL     1     -17.664   5.332 -18.062  1.00  0.00     0.157 C 
HETATM   11  C19 UNL     1     -18.579   5.264 -19.236  1.00  0.00     0.072 C 
HETATM   12  C21 UNL     1     -18.004   6.206 -20.289  1.00  0.00     0.160 C 
HETATM   13  C22 UNL     1     -16.571   6.563 -19.944  1.00  0.00     0.203 C 
BRANCH  10  14
HETATM   14  C18 UNL     1     -18.219   4.734 -16.810  1.00  0.00     0.196 C 
BRANCH  14  15
HETATM   15  O7  UNL     1     -18.471   3.376 -16.902  1.00  0.00    -0.398 OA
ATOM     16  H7  UNL     1     -19.388   3.148 -16.805  1.00  0.00     0.209 HD
ENDBRANCH  14  15
ENDBRANCH  10  14
BRANCH  11  17
HETATM   17  C20 UNL     1     -20.014   5.499 -18.937  1.00  0.00     0.174 C 
BRANCH  17  18
HETATM   18  O8  UNL     1     -20.723   4.272 -18.908  1.00  0.00    -0.400 OA
ATOM     19  H8  UNL     1     -21.657   4.429 -18.842  1.00  0.00     0.209 HD
ENDBRANCH  17  18
ENDBRANCH  11  17
BRANCH  12  20
HETATM   20  O9  UNL     1     -18.114   5.623 -21.530  1.00  0.00    -0.392 OA
ATOM     21  H9  UNL     1     -17.999   6.287 -22.201  1.00  0.00     0.210 HD
ENDBRANCH  12  20
BRANCH  13  22
HETATM   22  O10 UNL     1     -15.973   6.950 -21.153  1.00  0.00    -0.388 OA
ATOM     23  H10 UNL     1     -15.531   7.785 -21.049  1.00  0.00     0.210 HD
ENDBRANCH  13  22
ENDBRANCH   7   8
ENDBRANCH   6   7
BRANCH   1  24
HETATM   24  O1  UNL     1     -14.432   5.221 -15.855  1.00  0.00    -0.353 OA
HETATM   25  C1  UNL     1     -14.262   4.855 -14.513  1.00  0.00     0.210 C 
ENDBRANCH   1  24
BRANCH   5  26
HETATM   26  O4  UNL     1     -12.939   5.260 -20.453  1.00  0.00    -0.358 OA
ATOM     27  H4  UNL     1     -12.761   6.157 -20.712  1.00  0.00     0.217 HD
ENDBRANCH   5  26
BRANCH   3  28
HETATM   28  C5  UNL     1     -10.467   2.736 -17.055  1.00  0.00     0.041 C 
BRANCH  28  29
HETATM   29  C6  UNL     1     -10.054   1.799 -18.180  1.00  0.00     0.031 C 
BRANCH  29  30
HETATM   30  C7  UNL     1     -10.764   0.465 -17.898  1.00  0.00     0.171 C 
BRANCH  30  31
HETATM   31  O2  UNL     1     -11.185  -0.001 -19.128  1.00  0.00    -0.361 OA
BRANCH  31  32
HETATM   32  C8  UNL     1     -12.516   0.307 -19.403  1.00  0.00     0.259 C 
HETATM   33  C9  UNL     1     -13.430   0.205 -18.246  1.00  0.00     0.061 C 
HETATM   34  C10 UNL     1     -14.590  -0.725 -18.406  1.00  0.00     0.007 C 
HETATM   35  C11 UNL     1     -15.061  -0.959 -19.795  1.00  0.00     0.026 C 
HETATM   36  C12 UNL     1     -14.264  -0.071 -20.737  1.00  0.00     0.171 C 
HETATM   37  O3  UNL     1     -12.916  -0.435 -20.516  1.00  0.00    -0.361 OA
ENDBRANCH  31  32
ENDBRANCH  30  31
ENDBRANCH  29  30
ENDBRANCH  28  29
ENDBRANCH   3  28
TORSDOF 15
ENDMDL
MODEL 2
REMARK VINA RESULT: -8.463212154      0.763      1.147
REMARK  15 active torsions:
REMARK  status: ('A' for Active; 'I' for Inactive)
REMARK    1  A    between atoms: O1_2  and  C2_3 
REMARK    2  A    between atoms: C4_5  and  C5_6 
REMARK    3  A    between atoms: C5_6  and  C6_7 
REMARK    4  A    between atoms: C6_7  and  C7_8 
REMARK    5  A    between atoms: C7_8  and  O2_9 
REMARK    6  A    between atoms: O2_9  and  C8_10 
REMARK    7  A    between atoms: C14_17  and  O4_18 
REMARK    8  A    between atoms: C15_20  and  O5_21 
REMARK    9  A    between atoms: O5_21  and  C16_22 
REMARK   10  A    between atoms: C17_24  and  C18_25 
REMARK   11  A    between atoms: C18_25  and  O7_26 
REMARK   12  A    between atoms: C19_28  and  C20_29 
REMARK   13  A    between atoms: C20_29  and  O8_30 
REMARK   14  A    between atoms: C21_32  and  O9_33 
REMARK   15  A    between atoms: C22_35  and  O10_36 
ROOT
HETATM    1  C2  UNL     1     -13.461   4.813 -16.871  1.00  0.00     0.104 A 
HETATM    2  C3  UNL     1     -12.404   4.003 -16.530  1.00  0.00     0.047 A 
HETATM    3  C4  UNL     1     -11.512   3.633 -17.508  1.00  0.00    -0.053 A 
HETATM    4  C13 UNL     1     -11.686   4.068 -18.781  1.00  0.00     0.046 A 
HETATM    5  C14 UNL     1     -12.750   4.896 -19.180  1.00  0.00     0.102 A 
HETATM    6  C15 UNL     1     -13.620   5.247 -18.183  1.00  0.00     0.138 A 
ENDROOT
BRANCH   6   7
HETATM    7  O5  UNL     1     -14.711   6.065 -18.477  1.00  0.00    -0.312 OA
BRANCH   7   8
HETATM    8  C16 UNL     1     -15.725   5.500 -19.327  1.00  0.00     0.298 C 
HETATM    9  O6  UNL     1     -16.445   4.646 -18.471  1.00  0.00    -0.350 OA
HETATM   10  C17 UNL     1     -17.608   5.344 -18.084  1.00  0.00     0.157 C 
HETATM   11  C19 UNL     1     -18.523   5.274 -19.259  1.00  0.00     0.072 C 
HETATM   12  C21 UNL     1     -17.947   6.212 -20.313  1.00  0.00     0.160 C 
HETATM   13  C22 UNL     1     -16.513   6.568 -19.970  1.00  0.00     0.203 C 
BRANCH  10  14
HETATM   14  C18 UNL     1     -18.164   4.750 -16.831  1.00  0.00     0.196 C 
BRANCH  14  15
HETATM   15  O7  UNL     1     -18.398   3.388 -16.912  1.00  0.00    -0.398 OA
ATOM     16  H7  UNL     1     -19.054   3.074 -16.300  1.00  0.00     0.209 HD
ENDBRANCH  14  15
ENDBRANCH  10  14
BRANCH  11  17
HETATM   17  C20 UNL     1     -19.958   5.512 -18.960  1.00  0.00     0.174 C 
BRANCH  17  18
HETATM   18  O8  UNL     1     -20.667   4.285 -18.920  1.00  0.00    -0.400 OA
ATOM     19  H8  UNL     1     -20.809   3.955 -19.799  1.00  0.00     0.209 HD
ENDBRANCH  17  18
ENDBRANCH  11  17
BRANCH  12  20
HETATM   20  O9  UNL     1     -18.057   5.626 -21.553  1.00  0.00    -0.392 OA
ATOM     21  H9  UNL     1     -18.823   5.970 -21.997  1.00  0.00     0.210 HD
ENDBRANCH  12  20
BRANCH  13  22
HETATM   22  O10 UNL     1     -15.914   6.951 -21.180  1.00  0.00    -0.388 OA
ATOM     23  H10 UNL     1     -16.543   6.897 -21.889  1.00  0.00     0.210 HD
ENDBRANCH  13  22
ENDBRANCH   7   8
ENDBRANCH   6   7
BRANCH   1  24
HETATM   24  O1  UNL     1     -14.373   5.197 -15.889  1.00  0.00    -0.353 OA
HETATM   25  C1  UNL     1     -14.193   4.828 -14.550  1.00  0.00     0.210 C 
ENDBRANCH   1  24
BRANCH   5  26
HETATM   26  O4  UNL     1     -12.873   5.306 -20.484  1.00  0.00    -0.358 OA
ATOM     27  H4  UNL     1     -13.726   5.360 -20.900  1.00  0.00     0.217 HD
ENDBRANCH   5  26
BRANCH   3  28
HETATM   28  C5  UNL     1     -10.388   2.757 -17.115  1.00  0.00     0.041 C 
BRANCH  28  29
HETATM   29  C6  UNL     1      -9.894   1.916 -18.282  1.00  0.00     0.031 C 
BRANCH  29  30
HETATM   30  C7  UNL     1     -10.352   0.478 -17.988  1.00  0.00     0.171 C 
BRANCH  30  31
HETATM   31  O2  UNL     1     -11.110   0.097 -19.079  1.00  0.00    -0.361 OA
BRANCH  31  32
HETATM   32  C8  UNL     1     -12.453  -0.104 -18.768  1.00  0.00     0.259 C 
HETATM   33  C9  UNL     1     -13.401   0.733 -19.533  1.00  0.00     0.061 C 
HETATM   34  C10 UNL     1     -14.313   1.599 -18.724  1.00  0.00     0.007 C 
HETATM   35  C11 UNL     1     -14.621   1.128 -17.349  1.00  0.00     0.026 C 
HETATM   36  C12 UNL     1     -13.977  -0.232 -17.143  1.00  0.00     0.171 C 
HETATM   37  O3  UNL     1     -12.600  -0.016 -17.383  1.00  0.00    -0.361 OA
ENDBRANCH  31  32
ENDBRANCH  30  31
ENDBRANCH  29  30
ENDBRANCH  28  29
ENDBRANCH   3  28
TORSDOF 15
ENDMDL
MODEL 3
REMARK VINA RESULT: -8.332071906      1.130      2.320
REMARK  15 active torsions:
REMARK  status: ('A' for Active; 'I' for Inactive)
REMARK    1  A    between atoms: O1_2  and  C2_3 
REMARK    2  A    between atoms: C4_5  and  C5_6 
REMARK    3  A    between atoms: C5_6  and  C6_7 
REMARK    4  A    between atoms: C6_7  and  C7_8 
REMARK    5  A    between atoms: C7_8  and  O2_9 
REMARK    6  A    between atoms: O2_9  and  C8_10 
REMARK    7  A    between atoms: C14_17  and  O4_18 
REMARK    8  A    between atoms: C15_20  and  O5_21 
REMARK    9  A    between atoms: O5_21  and  C16_22 
REMARK   10  A    between atoms: C17_24  and  C18_25 
REMARK   11  A    between atoms: C18_25  and  O7_26 
REMARK   12  A    between atoms: C19_28  and  C20_29 
REMARK   13  A    between atoms: C20_29  and  O8_30 
REMARK   14  A    between atoms: C21_32  and  O9_33 
REMARK   15  A    between atoms: C22_35  and  O10_36 
ROOT
HETATM    1  C2  UNL     1     -13.322   5.154 -18.904  1.00  0.00     0.104 A 
HETATM    2  C3  UNL     1     -12.193   4.464 -18.530  1.00  0.00     0.047 A 
HETATM    3  C4  UNL     1     -12.087   4.023 -17.232  1.00  0.00    -0.053 A 
HETATM    4  C13 UNL     1     -13.087   4.272 -16.350  1.00  0.00     0.046 A 
HETATM    5  C14 UNL     1     -14.259   4.972 -16.682  1.00  0.00     0.102 A 
HETATM    6  C15 UNL     1     -14.335   5.399 -17.982  1.00  0.00     0.138 A 
ENDROOT
BRANCH   6   7
HETATM    7  O5  UNL     1     -15.458   6.105 -18.410  1.00  0.00    -0.312 OA
BRANCH   7   8
HETATM    8  C16 UNL     1     -16.446   5.358 -19.142  1.00  0.00     0.298 C 
HETATM    9  O6  UNL     1     -17.020   4.517 -18.172  1.00  0.00    -0.350 OA
HETATM   10  C17 UNL     1     -18.232   5.120 -17.776  1.00  0.00     0.157 C 
HETATM   11  C19 UNL     1     -19.193   4.842 -18.881  1.00  0.00     0.072 C 
HETATM   12  C21 UNL     1     -18.781   5.733 -20.048  1.00  0.00     0.160 C 
HETATM   13  C22 UNL     1     -17.381   6.271 -19.827  1.00  0.00     0.203 C 
BRANCH  10  14
HETATM   14  C18 UNL     1     -18.652   4.591 -16.443  1.00  0.00     0.196 C 
BRANCH  14  15
HETATM   15  O7  UNL     1     -18.907   3.230 -16.435  1.00  0.00    -0.398 OA
ATOM     16  H7  UNL     1     -19.823   3.010 -16.554  1.00  0.00     0.209 HD
ENDBRANCH  14  15
ENDBRANCH  10  14
BRANCH  11  17
HETATM   17  C20 UNL     1     -20.628   4.953 -18.516  1.00  0.00     0.174 C 
BRANCH  17  18
HETATM   18  O8  UNL     1     -21.245   3.676 -18.537  1.00  0.00    -0.400 OA
ATOM     19  H8  UNL     1     -21.398   3.367 -17.651  1.00  0.00     0.209 HD
ENDBRANCH  17  18
ENDBRANCH  11  17
BRANCH  12  20
HETATM   20  O9  UNL     1     -18.889   5.023 -21.222  1.00  0.00    -0.392 OA
ATOM     21  H9  UNL     1     -19.750   5.166 -21.598  1.00  0.00     0.210 HD
ENDBRANCH  12  20
BRANCH  13  22
HETATM   22  O10 UNL     1     -16.892   6.599 -21.101  1.00  0.00    -0.388 OA
ATOM     23  H10 UNL     1     -17.572   7.015 -21.616  1.00  0.00     0.210 HD
ENDBRANCH  13  22
ENDBRANCH   7   8
ENDBRANCH   6   7
BRANCH   1  24
HETATM   24  O1  UNL     1     -13.444   5.607 -20.216  1.00  0.00    -0.353 OA
HETATM   25  C1  UNL     1     -13.548   4.709 -21.286  1.00  0.00     0.210 C 
ENDBRANCH   1  24
BRANCH   5  26
HETATM   26  O4  UNL     1     -15.239   5.193 -15.746  1.00  0.00    -0.358 OA
ATOM     27  H4  UNL     1     -16.073   5.577 -15.992  1.00  0.00     0.217 HD
ENDBRANCH   5  26
BRANCH   3  28
HETATM   28  C5  UNL     1     -10.861   3.289 -16.856  1.00  0.00     0.041 C 
BRANCH  28  29
HETATM   29  C6  UNL     1     -10.267   2.540 -18.039  1.00  0.00     0.031 C 
BRANCH  29  30
HETATM   30  C7  UNL     1     -10.395   1.046 -17.699  1.00  0.00     0.171 C 
BRANCH  30  31
HETATM   31  O2  UNL     1     -10.960   0.457 -18.813  1.00  0.00    -0.361 OA
BRANCH  31  32
HETATM   32  C8  UNL     1     -12.295   0.100 -18.626  1.00  0.00     0.259 C 
HETATM   33  C9  UNL     1     -13.260   0.848 -19.459  1.00  0.00     0.061 C 
HETATM   34  C10 UNL     1     -14.330   1.587 -18.719  1.00  0.00     0.007 C 
HETATM   35  C11 UNL     1     -14.701   1.049 -17.385  1.00  0.00     0.026 C 
HETATM   36  C12 UNL     1     -13.928  -0.237 -17.146  1.00  0.00     0.171 C 
HETATM   37  O3  UNL     1     -12.569   0.136 -17.258  1.00  0.00    -0.361 OA
ENDBRANCH  31  32
ENDBRANCH  30  31
ENDBRANCH  29  30
ENDBRANCH  28  29
ENDBRANCH   3  28
TORSDOF 15
ENDMDL
MODEL 4
REMARK VINA RESULT: -8.201077746      2.411      3.769
REMARK  15 active torsions:
REMARK  status: ('A' for Active; 'I' for Inactive)
REMARK    1  A    between atoms: O1_2  and  C2_3 
REMARK    2  A    between atoms: C4_5  and  C5_6 
REMARK    3  A    between atoms: C5_6  and  C6_7 
REMARK    4  A    between atoms: C6_7  and  C7_8 
REMARK    5  A    between atoms: C7_8  and  O2_9 
REMARK    6  A    between atoms: O2_9  and  C8_10 
REMARK    7  A    between atoms: C14_17  and  O4_18 
REMARK    8  A    between atoms: C15_20  and  O5_21 
REMARK    9  A    between atoms: O5_21  and  C16_22 
REMARK   10  A    between atoms: C17_24  and  C18_25 
REMARK   11  A    between atoms: C18_25  and  O7_26 
REMARK   12  A    between atoms: C19_28  and  C20_29 
REMARK   13  A    between atoms: C20_29  and  O8_30 
REMARK   14  A    between atoms: C21_32  and  O9_33 
REMARK   15  A    between atoms: C22_35  and  O10_36 
ROOT
HETATM    1  C2  UNL     1     -13.487   4.799 -16.920  1.00  0.00     0.104 A 
HETATM    2  C3  UNL     1     -12.391   4.020 -16.633  1.00  0.00     0.047 A 
HETATM    3  C4  UNL     1     -11.518   3.708 -17.648  1.00  0.00    -0.053 A 
HETATM    4  C13 UNL     1     -11.747   4.169 -18.903  1.00  0.00     0.046 A 
HETATM    5  C14 UNL     1     -12.851   4.968 -19.246  1.00  0.00     0.102 A 
HETATM    6  C15 UNL     1     -13.702   5.261 -18.214  1.00  0.00     0.138 A 
ENDROOT
BRANCH   6   7
HETATM    7  O5  UNL     1     -14.830   6.046 -18.454  1.00  0.00    -0.312 OA
BRANCH   7   8
HETATM    8  C16 UNL     1     -15.841   5.475 -19.303  1.00  0.00     0.298 C 
HETATM    9  O6  UNL     1     -16.559   4.620 -18.447  1.00  0.00    -0.350 OA
HETATM   10  C17 UNL     1     -17.725   5.314 -18.064  1.00  0.00     0.157 C 
HETATM   11  C19 UNL     1     -18.637   5.237 -19.239  1.00  0.00     0.072 C 
HETATM   12  C21 UNL     1     -18.063   6.175 -20.296  1.00  0.00     0.160 C 
HETATM   13  C22 UNL     1     -16.632   6.538 -19.950  1.00  0.00     0.203 C 
BRANCH  10  14
HETATM   14  C18 UNL     1     -18.280   4.721 -16.809  1.00  0.00     0.196 C 
BRANCH  14  15
HETATM   15  O7  UNL     1     -18.474   3.352 -16.875  1.00  0.00    -0.398 OA
ATOM     16  H7  UNL     1     -17.894   2.911 -17.484  1.00  0.00     0.209 HD
ENDBRANCH  14  15
ENDBRANCH  10  14
BRANCH  11  17
HETATM   17  C20 UNL     1     -20.074   5.470 -18.944  1.00  0.00     0.174 C 
BRANCH  17  18
HETATM   18  O8  UNL     1     -20.769   4.238 -18.860  1.00  0.00    -0.400 OA
ATOM     19  H8  UNL     1     -21.695   4.389 -18.705  1.00  0.00     0.209 HD
ENDBRANCH  17  18
ENDBRANCH  11  17
BRANCH  12  20
HETATM   20  O9  UNL     1     -18.169   5.585 -21.534  1.00  0.00    -0.392 OA
ATOM     21  H9  UNL     1     -18.208   6.260 -22.202  1.00  0.00     0.210 HD
ENDBRANCH  12  20
BRANCH  13  22
HETATM   22  O10 UNL     1     -16.032   6.920 -21.161  1.00  0.00    -0.388 OA
ATOM     23  H10 UNL     1     -16.638   7.437 -21.678  1.00  0.00     0.210 HD
ENDBRANCH  13  22
ENDBRANCH   7   8
ENDBRANCH   6   7
BRANCH   1  24
HETATM   24  O1  UNL     1     -14.381   5.124 -15.901  1.00  0.00    -0.353 OA
HETATM   25  C1  UNL     1     -14.113   4.787 -14.568  1.00  0.00     0.210 C 
ENDBRANCH   1  24
BRANCH   5  26
HETATM   26  O4  UNL     1     -13.030   5.408 -20.535  1.00  0.00    -0.358 OA
ATOM     27  H4  UNL     1     -13.275   4.804 -21.227  1.00  0.00     0.217 HD
ENDBRANCH   5  26
BRANCH   3  28
HETATM   28  C5  UNL     1     -10.352   2.864 -17.313  1.00  0.00     0.041 C 
BRANCH  28  29
HETATM   29  C6  UNL     1      -9.198   3.088 -18.278  1.00  0.00     0.031 C 
BRANCH  29  30
HETATM   30  C7  UNL     1      -8.763   1.689 -18.746  1.00  0.00     0.171 C 
BRANCH  30  31
HETATM   31  O2  UNL     1      -7.613   1.399 -18.038  1.00  0.00    -0.361 OA
BRANCH  31  32
HETATM   32  C8  UNL     1      -6.486   1.282 -18.849  1.00  0.00     0.259 C 
HETATM   33  C9  UNL     1      -5.526   2.402 -18.747  1.00  0.00     0.061 C 
HETATM   34  C10 UNL     1      -5.215   3.118 -20.022  1.00  0.00     0.007 C 
HETATM   35  C11 UNL     1      -5.366   2.331 -21.273  1.00  0.00     0.026 C 
HETATM   36  C12 UNL     1      -5.722   0.899 -20.910  1.00  0.00     0.171 C 
HETATM   37  O3  UNL     1      -6.910   1.007 -20.150  1.00  0.00    -0.361 OA
ENDBRANCH  31  32
ENDBRANCH  30  31
ENDBRANCH  29  30
ENDBRANCH  28  29
ENDBRANCH   3  28
TORSDOF 15
ENDMDL
MODEL 5
REMARK VINA RESULT: -8.133317159      2.241      4.384
REMARK  15 active torsions:
REMARK  status: ('A' for Active; 'I' for Inactive)
REMARK    1  A    between atoms: O1_2  and  C2_3 
REMARK    2  A    between atoms: C4_5  and  C5_6 
REMARK    3  A    between atoms: C5_6  and  C6_7 
REMARK    4  A    between atoms: C6_7  and  C7_8 
REMARK    5  A    between atoms: C7_8  and  O2_9 
REMARK    6  A    between atoms: O2_9  and  C8_10 
REMARK    7  A    between atoms: C14_17  and  O4_18 
REMARK    8  A    between atoms: C15_20  and  O5_21 
REMARK    9  A    between atoms: O5_21  and  C16_22 
REMARK   10  A    between atoms: C17_24  and  C18_25 
REMARK   11  A    between atoms: C18_25  and  O7_26 
REMARK   12  A    between atoms: C19_28  and  C20_29 
REMARK   13  A    between atoms: C20_29  and  O8_30 
REMARK   14  A    between atoms: C21_32  and  O9_33 
REMARK   15  A    between atoms: C22_35  and  O10_36 
ROOT
HETATM    1  C2  UNL     1     -13.331   5.130 -19.032  1.00  0.00     0.104 A 
HETATM    2  C3  UNL     1     -12.198   4.427 -18.696  1.00  0.00     0.047 A 
HETATM    3  C4  UNL     1     -12.073   3.952 -17.411  1.00  0.00    -0.053 A 
HETATM    4  C13 UNL     1     -13.056   4.182 -16.506  1.00  0.00     0.046 A 
HETATM    5  C14 UNL     1     -14.231   4.894 -16.801  1.00  0.00     0.102 A 
HETATM    6  C15 UNL     1     -14.327   5.354 -18.088  1.00  0.00     0.138 A 
ENDROOT
BRANCH   6   7
HETATM    7  O5  UNL     1     -15.455   6.075 -18.479  1.00  0.00    -0.312 OA
BRANCH   7   8
HETATM    8  C16 UNL     1     -16.463   5.347 -19.202  1.00  0.00     0.298 C 
HETATM    9  O6  UNL     1     -17.037   4.508 -18.229  1.00  0.00    -0.350 OA
HETATM   10  C17 UNL     1     -18.234   5.127 -17.813  1.00  0.00     0.157 C 
HETATM   11  C19 UNL     1     -19.214   4.870 -18.906  1.00  0.00     0.072 C 
HETATM   12  C21 UNL     1     -18.805   5.762 -20.073  1.00  0.00     0.160 C 
HETATM   13  C22 UNL     1     -17.394   6.278 -19.868  1.00  0.00     0.203 C 
BRANCH  10  14
HETATM   14  C18 UNL     1     -18.644   4.596 -16.478  1.00  0.00     0.196 C 
BRANCH  14  15
HETATM   15  O7  UNL     1     -18.891   3.234 -16.468  1.00  0.00    -0.398 OA
ATOM     16  H7  UNL     1     -19.366   2.924 -17.231  1.00  0.00     0.209 HD
ENDBRANCH  14  15
ENDBRANCH  10  14
BRANCH  11  17
HETATM   17  C20 UNL     1     -20.642   4.999 -18.521  1.00  0.00     0.174 C 
BRANCH  17  18
HETATM   18  O8  UNL     1     -21.269   3.728 -18.505  1.00  0.00    -0.400 OA
ATOM     19  H8  UNL     1     -21.800   3.629 -17.723  1.00  0.00     0.209 HD
ENDBRANCH  17  18
ENDBRANCH  11  17
BRANCH  12  20
HETATM   20  O9  UNL     1     -18.939   5.062 -21.250  1.00  0.00    -0.392 OA
ATOM     21  H9  UNL     1     -19.665   5.420 -21.748  1.00  0.00     0.210 HD
ENDBRANCH  12  20
BRANCH  13  22
HETATM   22  O10 UNL     1     -16.917   6.607 -21.146  1.00  0.00    -0.388 OA
ATOM     23  H10 UNL     1     -16.899   7.550 -21.257  1.00  0.00     0.210 HD
ENDBRANCH  13  22
ENDBRANCH   7   8
ENDBRANCH   6   7
BRANCH   1  24
HETATM   24  O1  UNL     1     -13.473   5.617 -20.330  1.00  0.00    -0.353 OA
HETATM   25  C1  UNL     1     -13.649   4.749 -21.415  1.00  0.00     0.210 C 
ENDBRANCH   1  24
BRANCH   5  26
HETATM   26  O4  UNL     1     -15.194   5.094 -15.843  1.00  0.00    -0.358 OA
ATOM     27  H4  UNL     1     -15.303   5.942 -15.429  1.00  0.00     0.217 HD
ENDBRANCH   5  26
BRANCH   3  28
HETATM   28  C5  UNL     1     -10.842   3.205 -17.075  1.00  0.00     0.041 C 
BRANCH  28  29
HETATM   29  C6  UNL     1     -10.595   2.061 -18.047  1.00  0.00     0.031 C 
BRANCH  29  30
HETATM   30  C7  UNL     1      -9.084   1.778 -17.987  1.00  0.00     0.171 C 
BRANCH  30  31
HETATM   31  O2  UNL     1      -8.559   2.302 -19.152  1.00  0.00    -0.361 OA
BRANCH  31  32
HETATM   32  C8  UNL     1      -7.486   3.163 -18.930  1.00  0.00     0.259 C 
HETATM   33  C9  UNL     1      -6.234   2.787 -19.620  1.00  0.00     0.061 C 
HETATM   34  C10 UNL     1      -5.038   2.583 -18.745  1.00  0.00     0.007 C 
HETATM   35  C11 UNL     1      -5.028   3.326 -17.459  1.00  0.00     0.026 C 
HETATM   36  C12 UNL     1      -6.252   4.225 -17.405  1.00  0.00     0.171 C 
HETATM   37  O3  UNL     1      -7.349   3.345 -17.553  1.00  0.00    -0.361 OA
ENDBRANCH  31  32
ENDBRANCH  30  31
ENDBRANCH  29  30
ENDBRANCH  28  29
ENDBRANCH   3  28
TORSDOF 15
ENDMDL
