MODEL 1
REMARK VINA RESULT: -6.981690323      0.000      0.000
REMARK  17 active torsions:
REMARK  status: ('A' for Active; 'I' for Inactive)
REMARK    1  A    between atoms: C2_2  and  C3_3 
REMARK    2  A    between atoms: C3_3  and  C4_4 
REMARK    3  A    between atoms: C4_4  and  C5_5 
REMARK    4  A    between atoms: C5_5  and  C6_6 
REMARK    5  A    between atoms: C6_6  and  O2_8 
REMARK    6  A    between atoms: O2_8  and  C7_9 
REMARK    7  A    between atoms: C8_11  and  O3_12 
REMARK    8  A    between atoms: O3_12  and  C9_13 
REMARK    9  A    between atoms: C10_14  and  N1_15 
REMARK   10  A    between atoms: C12_20  and  N2_21 
REMARK   11  A    between atoms: N2_21  and  N3_23 
REMARK   12  A    between atoms: N3_23  and  N4_24 
REMARK   13  A    between atoms: C13_27  and  O4_28 
REMARK   14  A    between atoms: C14_30  and  C15_31 
REMARK   15  A    between atoms: C15_31  and  O5_32 
REMARK   16  A    between atoms: C16_34  and  N5_35 
REMARK   17  A    between atoms: C18_40  and  N6_41 
ROOT
HETATM    1  C7  UNL     1     -15.376   4.493 -18.682  1.00  0.00     0.226 C 
HETATM    2  S1  UNL     1     -13.856   3.614 -19.155  1.00  0.00    -0.101 SA
HETATM    3  C8  UNL     1     -13.594   2.264 -17.960  1.00  0.00     0.216 C 
HETATM    4  C16 UNL     1     -13.621   2.860 -16.603  1.00  0.00     0.224 C 
HETATM    5  C17 UNL     1     -14.546   4.030 -16.444  1.00  0.00     0.072 C 
HETATM    6  C18 UNL     1     -15.777   3.943 -17.312  1.00  0.00     0.225 C 
ENDROOT
BRANCH   3   7
HETATM    7  O3  UNL     1     -14.545   1.319 -18.221  1.00  0.00    -0.365 OA
BRANCH   7   8
HETATM    8  C9  UNL     1     -14.339   0.067 -17.737  1.00  0.00     0.162 C 
HETATM    9  C10 UNL     1     -13.369  -0.767 -18.543  1.00  0.00     0.215 C 
HETATM   10  C11 UNL     1     -13.269  -2.107 -17.840  1.00  0.00     0.065 C 
HETATM   11  C12 UNL     1     -14.522  -2.868 -18.088  1.00  0.00     0.145 C 
HETATM   12  C13 UNL     1     -15.675  -1.975 -18.372  1.00  0.00     0.152 C 
HETATM   13  C14 UNL     1     -15.663  -0.654 -17.686  1.00  0.00     0.071 C 
BRANCH   9  14
HETATM   14  N1  UNL     1     -12.031  -0.207 -18.528  1.00  0.00    -0.072 N 
ATOM     15  H13 UNL     1     -11.577  -0.354 -17.627  1.00  0.00     0.274 HD
ATOM     16  H12 UNL     1     -11.396  -0.746 -19.116  1.00  0.00     0.274 HD
ATOM     17  H11 UNL     1     -12.029   0.780 -18.788  1.00  0.00     0.274 HD
ENDBRANCH   9  14
BRANCH  11  18
HETATM   18  N2  UNL     1     -14.809  -3.836 -17.031  1.00  0.00    -0.245 N 
ATOM     19  H2  UNL     1     -14.083  -4.046 -16.346  1.00  0.00     0.197 HD
BRANCH  18  20
HETATM   20  N3  UNL     1     -15.889  -4.404 -16.938  1.00  0.00    -0.248 NA
BRANCH  20  21
HETATM   21  N4  UNL     1     -16.948  -4.964 -16.741  1.00  0.00    -0.261 N 
ATOM     22  H42 UNL     1     -17.281  -4.047 -17.036  1.00  0.00     0.193 HD
ATOM     23  H41 UNL     1     -17.791  -5.507 -16.552  1.00  0.00     0.193 HD
ENDBRANCH  20  21
ENDBRANCH  18  20
ENDBRANCH  11  18
BRANCH  12  24
HETATM   24  O4  UNL     1     -15.917  -1.843 -19.761  1.00  0.00    -0.393 OA
ATOM     25  H4  UNL     1     -16.843  -1.892 -19.969  1.00  0.00     0.210 HD
ENDBRANCH  12  24
BRANCH  13  26
HETATM   26  C15 UNL     1     -16.148  -0.818 -16.240  1.00  0.00     0.174 C 
BRANCH  26  27
HETATM   27  O5  UNL     1     -17.141  -1.794 -16.199  1.00  0.00    -0.400 OA
ATOM     28  H5  UNL     1     -16.764  -2.612 -15.895  1.00  0.00     0.209 HD
ENDBRANCH  26  27
ENDBRANCH  13  26
ENDBRANCH   7   8
ENDBRANCH   3   7
BRANCH   4  29
HETATM   29  N5  UNL     1     -12.266   3.360 -16.315  1.00  0.00    -0.072 N 
ATOM     30  H53 UNL     1     -11.532   2.740 -16.656  1.00  0.00     0.274 HD
ATOM     31  H52 UNL     1     -12.016   4.179 -16.871  1.00  0.00     0.274 HD
ATOM     32  H51 UNL     1     -12.210   3.529 -15.311  1.00  0.00     0.274 HD
ENDBRANCH   4  29
BRANCH   1  33
HETATM   33  O2  UNL     1     -15.121   5.880 -18.496  1.00  0.00    -0.303 OA
BRANCH  33  34
HETATM   34  C6  UNL     1     -15.583   6.836 -19.420  1.00  0.00     0.260 C 
HETATM   35  O1  UNL     1     -14.973   7.919 -19.410  1.00  0.00    -0.265 OA
BRANCH  34  36
HETATM   36  C5  UNL     1     -16.719   6.532 -20.323  1.00  0.00     0.111 C 
BRANCH  36  37
HETATM   37  C4  UNL     1     -18.052   6.829 -19.739  1.00  0.00     0.010 C 
BRANCH  37  38
HETATM   38  C3  UNL     1     -19.177   5.961 -20.216  1.00  0.00     0.000 C 
BRANCH  38  39
HETATM   39  C2  UNL     1     -19.458   4.851 -19.220  1.00  0.00    -0.005 C 
HETATM   40  C1  UNL     1     -20.321   5.396 -18.101  1.00  0.00     0.005 C 
ENDBRANCH  38  39
ENDBRANCH  37  38
ENDBRANCH  36  37
ENDBRANCH  34  36
ENDBRANCH  33  34
ENDBRANCH   1  33
BRANCH   6  41
HETATM   41  N6  UNL     1     -16.760   4.850 -16.753  1.00  0.00    -0.072 N 
ATOM     42  H63 UNL     1     -16.953   5.650 -17.356  1.00  0.00     0.274 HD
ATOM     43  H62 UNL     1     -17.703   4.460 -16.745  1.00  0.00     0.274 HD
ATOM     44  H61 UNL     1     -16.434   5.120 -15.825  1.00  0.00     0.274 HD
ENDBRANCH   6  41
TORSDOF 17
ENDMDL
MODEL 2
REMARK VINA RESULT: -6.804320243      0.903      1.059
REMARK  17 active torsions:
REMARK  status: ('A' for Active; 'I' for Inactive)
REMARK    1  A    between atoms: C2_2  and  C3_3 
REMARK    2  A    between atoms: C3_3  and  C4_4 
REMARK    3  A    between atoms: C4_4  and  C5_5 
REMARK    4  A    between atoms: C5_5  and  C6_6 
REMARK    5  A    between atoms: C6_6  and  O2_8 
REMARK    6  A    between atoms: O2_8  and  C7_9 
REMARK    7  A    between atoms: C8_11  and  O3_12 
REMARK    8  A    between atoms: O3_12  and  C9_13 
REMARK    9  A    between atoms: C10_14  and  N1_15 
REMARK   10  A    between atoms: C12_20  and  N2_21 
REMARK   11  A    between atoms: N2_21  and  N3_23 
REMARK   12  A    between atoms: N3_23  and  N4_24 
REMARK   13  A    between atoms: C13_27  and  O4_28 
REMARK   14  A    between atoms: C14_30  and  C15_31 
REMARK   15  A    between atoms: C15_31  and  O5_32 
REMARK   16  A    between atoms: C16_34  and  N5_35 
REMARK   17  A    between atoms: C18_40  and  N6_41 
ROOT
HETATM    1  C7  UNL     1     -15.109   4.612 -18.664  1.00  0.00     0.226 C 
HETATM    2  S1  UNL     1     -13.432   3.945 -18.886  1.00  0.00    -0.101 SA
HETATM    3  C8  UNL     1     -13.130   2.736 -17.556  1.00  0.00     0.216 C 
HETATM    4  C16 UNL     1     -13.411   3.413 -16.268  1.00  0.00     0.224 C 
HETATM    5  C17 UNL     1     -14.506   4.436 -16.316  1.00  0.00     0.072 C 
HETATM    6  C18 UNL     1     -15.595   4.103 -17.306  1.00  0.00     0.225 C 
ENDROOT
BRANCH   3   7
HETATM    7  O3  UNL     1     -13.895   1.641 -17.840  1.00  0.00    -0.365 OA
BRANCH   7   8
HETATM    8  C9  UNL     1     -13.568   0.470 -17.237  1.00  0.00     0.162 C 
HETATM    9  C10 UNL     1     -12.232  -0.102 -17.656  1.00  0.00     0.215 C 
HETATM   10  C11 UNL     1     -12.050  -1.387 -16.872  1.00  0.00     0.065 C 
HETATM   11  C12 UNL     1     -12.955  -2.421 -17.437  1.00  0.00     0.145 C 
HETATM   12  C13 UNL     1     -14.137  -1.826 -18.113  1.00  0.00     0.152 C 
HETATM   13  C14 UNL     1     -14.641  -0.546 -17.542  1.00  0.00     0.071 C 
BRANCH   9  14
HETATM   14  N1  UNL     1     -11.130   0.760 -17.274  1.00  0.00    -0.072 N 
ATOM     15  H13 UNL     1     -11.442   1.509 -16.658  1.00  0.00     0.274 HD
ATOM     16  H12 UNL     1     -10.490   0.285 -16.638  1.00  0.00     0.274 HD
ATOM     17  H11 UNL     1     -10.637   1.130 -18.087  1.00  0.00     0.274 HD
ENDBRANCH   9  14
BRANCH  11  18
HETATM   18  N2  UNL     1     -13.325  -3.440 -16.456  1.00  0.00    -0.245 N 
ATOM     19  H2  UNL     1     -12.769  -3.529 -15.606  1.00  0.00     0.197 HD
BRANCH  18  20
HETATM   20  N3  UNL     1     -14.279  -4.190 -16.618  1.00  0.00    -0.248 NA
BRANCH  20  21
HETATM   21  N4  UNL     1     -15.210  -4.968 -16.679  1.00  0.00    -0.261 N 
ATOM     22  H42 UNL     1     -14.506  -5.561 -16.240  1.00  0.00     0.193 HD
ATOM     23  H41 UNL     1     -16.038  -5.555 -16.768  1.00  0.00     0.193 HD
ENDBRANCH  20  21
ENDBRANCH  18  20
ENDBRANCH  11  18
BRANCH  12  24
HETATM   24  O4  UNL     1     -13.962  -1.741 -19.515  1.00  0.00    -0.393 OA
ATOM     25  H4  UNL     1     -13.426  -2.450 -19.853  1.00  0.00     0.210 HD
ENDBRANCH  12  24
BRANCH  13  26
HETATM   26  C15 UNL     1     -15.497  -0.835 -16.303  1.00  0.00     0.174 C 
BRANCH  26  27
HETATM   27  O5  UNL     1     -16.241  -1.993 -16.521  1.00  0.00    -0.400 OA
ATOM     28  H5  UNL     1     -16.961  -1.795 -17.109  1.00  0.00     0.209 HD
ENDBRANCH  26  27
ENDBRANCH  13  26
ENDBRANCH   7   8
ENDBRANCH   3   7
BRANCH   4  29
HETATM   29  N5  UNL     1     -12.187   4.133 -15.874  1.00  0.00    -0.072 N 
ATOM     30  H53 UNL     1     -11.402   3.510 -15.684  1.00  0.00     0.274 HD
ATOM     31  H52 UNL     1     -11.763   4.650 -16.644  1.00  0.00     0.274 HD
ATOM     32  H51 UNL     1     -12.426   4.727 -15.079  1.00  0.00     0.274 HD
ENDBRANCH   4  29
BRANCH   1  33
HETATM   33  O2  UNL     1     -15.081   6.031 -18.572  1.00  0.00    -0.303 OA
BRANCH  33  34
HETATM   34  C6  UNL     1     -15.587   6.839 -19.607  1.00  0.00     0.260 C 
HETATM   35  O1  UNL     1     -14.992   7.917 -19.776  1.00  0.00    -0.265 OA
BRANCH  34  36
HETATM   36  C5  UNL     1     -16.750   6.398 -20.415  1.00  0.00     0.111 C 
BRANCH  36  37
HETATM   37  C4  UNL     1     -18.066   6.742 -19.821  1.00  0.00     0.010 C 
BRANCH  37  38
HETATM   38  C3  UNL     1     -19.228   5.926 -20.301  1.00  0.00     0.000 C 
BRANCH  38  39
HETATM   39  C2  UNL     1     -19.569   4.837 -19.300  1.00  0.00    -0.005 C 
HETATM   40  C1  UNL     1     -20.274   5.457 -18.113  1.00  0.00     0.005 C 
ENDBRANCH  38  39
ENDBRANCH  37  38
ENDBRANCH  36  37
ENDBRANCH  34  36
ENDBRANCH  33  34
ENDBRANCH   1  33
BRANCH   6  41
HETATM   41  N6  UNL     1     -16.760   4.885 -16.942  1.00  0.00    -0.072 N 
ATOM     42  H63 UNL     1     -17.268   5.241 -17.751  1.00  0.00     0.274 HD
ATOM     43  H62 UNL     1     -17.513   4.319 -16.551  1.00  0.00     0.274 HD
ATOM     44  H61 UNL     1     -16.446   5.623 -16.311  1.00  0.00     0.274 HD
ENDBRANCH   6  41
TORSDOF 17
ENDMDL
MODEL 3
REMARK VINA RESULT: -6.681247020      2.695      3.428
REMARK  17 active torsions:
REMARK  status: ('A' for Active; 'I' for Inactive)
REMARK    1  A    between atoms: C2_2  and  C3_3 
REMARK    2  A    between atoms: C3_3  and  C4_4 
REMARK    3  A    between atoms: C4_4  and  C5_5 
REMARK    4  A    between atoms: C5_5  and  C6_6 
REMARK    5  A    between atoms: C6_6  and  O2_8 
REMARK    6  A    between atoms: O2_8  and  C7_9 
REMARK    7  A    between atoms: C8_11  and  O3_12 
REMARK    8  A    between atoms: O3_12  and  C9_13 
REMARK    9  A    between atoms: C10_14  and  N1_15 
REMARK   10  A    between atoms: C12_20  and  N2_21 
REMARK   11  A    between atoms: N2_21  and  N3_23 
REMARK   12  A    between atoms: N3_23  and  N4_24 
REMARK   13  A    between atoms: C13_27  and  O4_28 
REMARK   14  A    between atoms: C14_30  and  C15_31 
REMARK   15  A    between atoms: C15_31  and  O5_32 
REMARK   16  A    between atoms: C16_34  and  N5_35 
REMARK   17  A    between atoms: C18_40  and  N6_41 
ROOT
HETATM    1  C7  UNL     1     -12.992   3.087 -16.533  1.00  0.00     0.226 C 
HETATM    2  S1  UNL     1     -14.545   2.357 -17.133  1.00  0.00    -0.101 SA
HETATM    3  C8  UNL     1     -14.155   0.736 -17.869  1.00  0.00     0.216 C 
HETATM    4  C16 UNL     1     -13.089   0.950 -18.876  1.00  0.00     0.224 C 
HETATM    5  C17 UNL     1     -12.115   2.040 -18.545  1.00  0.00     0.072 C 
HETATM    6  C18 UNL     1     -11.868   2.195 -17.064  1.00  0.00     0.225 C 
ENDROOT
BRANCH   3   7
HETATM    7  O3  UNL     1     -13.846  -0.100 -16.834  1.00  0.00    -0.365 OA
BRANCH   7   8
HETATM    8  C9  UNL     1     -14.151  -1.416 -16.974  1.00  0.00     0.162 C 
HETATM    9  C10 UNL     1     -13.118  -2.224 -17.727  1.00  0.00     0.215 C 
HETATM   10  C11 UNL     1     -13.633  -3.650 -17.765  1.00  0.00     0.065 C 
HETATM   11  C12 UNL     1     -14.762  -3.721 -18.729  1.00  0.00     0.145 C 
HETATM   12  C13 UNL     1     -15.442  -2.411 -18.898  1.00  0.00     0.152 C 
HETATM   13  C14 UNL     1     -15.470  -1.530 -17.698  1.00  0.00     0.071 C 
BRANCH   9  14
HETATM   14  N1  UNL     1     -11.851  -2.275 -17.022  1.00  0.00    -0.072 N 
ATOM     15  H13 UNL     1     -11.442  -3.207 -17.062  1.00  0.00     0.274 HD
ATOM     16  H12 UNL     1     -11.127  -1.760 -17.523  1.00  0.00     0.274 HD
ATOM     17  H11 UNL     1     -11.938  -1.948 -16.060  1.00  0.00     0.274 HD
ENDBRANCH   9  14
BRANCH  11  18
HETATM   18  N2  UNL     1     -15.696  -4.803 -18.421  1.00  0.00    -0.245 N 
ATOM     19  H2  UNL     1     -16.172  -5.275 -19.190  1.00  0.00     0.197 HD
BRANCH  18  20
HETATM   20  N3  UNL     1     -15.928  -5.162 -17.275  1.00  0.00    -0.248 NA
BRANCH  20  21
HETATM   21  N4  UNL     1     -16.171  -5.616 -16.175  1.00  0.00    -0.261 N 
ATOM     22  H42 UNL     1     -15.193  -5.353 -16.052  1.00  0.00     0.193 HD
ATOM     23  H41 UNL     1     -16.456  -6.014 -15.280  1.00  0.00     0.193 HD
ENDBRANCH  20  21
ENDBRANCH  18  20
ENDBRANCH  11  18
BRANCH  12  24
HETATM   24  O4  UNL     1     -14.989  -1.719 -20.047  1.00  0.00    -0.393 OA
ATOM     25  H4  UNL     1     -14.201  -2.107 -20.411  1.00  0.00     0.210 HD
ENDBRANCH  12  24
BRANCH  13  26
HETATM   26  C15 UNL     1     -16.584  -1.986 -16.748  1.00  0.00     0.174 C 
BRANCH  26  27
HETATM   27  O5  UNL     1     -17.345  -0.881 -16.372  1.00  0.00    -0.400 OA
ATOM     28  H5  UNL     1     -18.264  -1.123 -16.362  1.00  0.00     0.209 HD
ENDBRANCH  26  27
ENDBRANCH  13  26
ENDBRANCH   7   8
ENDBRANCH   3   7
BRANCH   4  29
HETATM   29  N5  UNL     1     -13.746   1.347 -20.133  1.00  0.00    -0.072 N 
ATOM     30  H53 UNL     1     -13.821   0.582 -20.803  1.00  0.00     0.274 HD
ATOM     31  H52 UNL     1     -14.744   1.525 -20.023  1.00  0.00     0.274 HD
ATOM     32  H51 UNL     1     -13.236   2.151 -20.502  1.00  0.00     0.274 HD
ENDBRANCH   4  29
BRANCH   1  33
HETATM   33  O2  UNL     1     -12.784   4.373 -17.104  1.00  0.00    -0.303 OA
BRANCH  33  34
HETATM   34  C6  UNL     1     -13.834   5.304 -17.206  1.00  0.00     0.260 C 
HETATM   35  O1  UNL     1     -14.313   5.681 -16.122  1.00  0.00    -0.265 OA
BRANCH  34  36
HETATM   36  C5  UNL     1     -14.307   5.775 -18.530  1.00  0.00     0.111 C 
BRANCH  36  37
HETATM   37  C4  UNL     1     -13.492   5.288 -19.671  1.00  0.00     0.010 C 
BRANCH  37  38
HETATM   38  C3  UNL     1     -13.711   5.998 -20.974  1.00  0.00     0.000 C 
BRANCH  38  39
HETATM   39  C2  UNL     1     -14.413   7.325 -20.751  1.00  0.00    -0.005 C 
HETATM   40  C1  UNL     1     -13.914   8.328 -21.769  1.00  0.00     0.005 C 
ENDBRANCH  38  39
ENDBRANCH  37  38
ENDBRANCH  36  37
ENDBRANCH  34  36
ENDBRANCH  33  34
ENDBRANCH   1  33
BRANCH   6  41
HETATM   41  N6  UNL     1     -10.626   2.925 -16.910  1.00  0.00    -0.072 N 
ATOM     42  H63 UNL     1     -10.018   2.853 -17.726  1.00  0.00     0.274 HD
ATOM     43  H62 UNL     1     -10.754   3.937 -16.930  1.00  0.00     0.274 HD
ATOM     44  H61 UNL     1     -10.183   2.597 -16.052  1.00  0.00     0.274 HD
ENDBRANCH   6  41
TORSDOF 17
ENDMDL
MODEL 4
REMARK VINA RESULT: -6.674824759      1.329      1.390
REMARK  17 active torsions:
REMARK  status: ('A' for Active; 'I' for Inactive)
REMARK    1  A    between atoms: C2_2  and  C3_3 
REMARK    2  A    between atoms: C3_3  and  C4_4 
REMARK    3  A    between atoms: C4_4  and  C5_5 
REMARK    4  A    between atoms: C5_5  and  C6_6 
REMARK    5  A    between atoms: C6_6  and  O2_8 
REMARK    6  A    between atoms: O2_8  and  C7_9 
REMARK    7  A    between atoms: C8_11  and  O3_12 
REMARK    8  A    between atoms: O3_12  and  C9_13 
REMARK    9  A    between atoms: C10_14  and  N1_15 
REMARK   10  A    between atoms: C12_20  and  N2_21 
REMARK   11  A    between atoms: N2_21  and  N3_23 
REMARK   12  A    between atoms: N3_23  and  N4_24 
REMARK   13  A    between atoms: C13_27  and  O4_28 
REMARK   14  A    between atoms: C14_30  and  C15_31 
REMARK   15  A    between atoms: C15_31  and  O5_32 
REMARK   16  A    between atoms: C16_34  and  N5_35 
REMARK   17  A    between atoms: C18_40  and  N6_41 
ROOT
HETATM    1  C7  UNL     1     -14.864   4.219 -18.541  1.00  0.00     0.226 C 
HETATM    2  S1  UNL     1     -14.005   2.774 -19.233  1.00  0.00    -0.101 SA
HETATM    3  C8  UNL     1     -13.066   1.982 -17.886  1.00  0.00     0.216 C 
HETATM    4  C16 UNL     1     -12.217   3.026 -17.264  1.00  0.00     0.224 C 
HETATM    5  C17 UNL     1     -12.811   4.402 -17.252  1.00  0.00     0.072 C 
HETATM    6  C18 UNL     1     -14.316   4.405 -17.126  1.00  0.00     0.225 C 
ENDROOT
BRANCH   3   7
HETATM    7  O3  UNL     1     -13.983   1.385 -17.068  1.00  0.00    -0.365 OA
BRANCH   7   8
HETATM    8  C9  UNL     1     -14.034   0.029 -17.065  1.00  0.00     0.162 C 
HETATM    9  C10 UNL     1     -12.741  -0.651 -17.454  1.00  0.00     0.215 C 
HETATM   10  C11 UNL     1     -13.001  -2.143 -17.379  1.00  0.00     0.065 C 
HETATM   11  C12 UNL     1     -13.849  -2.536 -18.534  1.00  0.00     0.145 C 
HETATM   12  C13 UNL     1     -14.670  -1.406 -19.039  1.00  0.00     0.152 C 
HETATM   13  C14 UNL     1     -15.114  -0.415 -18.021  1.00  0.00     0.071 C 
BRANCH   9  14
HETATM   14  N1  UNL     1     -11.680  -0.381 -16.502  1.00  0.00    -0.072 N 
ATOM     15  H13 UNL     1     -10.769  -0.642 -16.878  1.00  0.00     0.274 HD
ATOM     16  H12 UNL     1     -11.527   0.621 -16.392  1.00  0.00     0.274 HD
ATOM     17  H11 UNL     1     -11.852  -0.830 -15.603  1.00  0.00     0.274 HD
ENDBRANCH   9  14
BRANCH  11  18
HETATM   18  N2  UNL     1     -14.646  -3.732 -18.264  1.00  0.00    -0.245 N 
ATOM     19  H2  UNL     1     -15.169  -4.157 -19.030  1.00  0.00     0.197 HD
BRANCH  18  20
HETATM   20  N3  UNL     1     -14.709  -4.242 -17.153  1.00  0.00    -0.248 NA
BRANCH  20  21
HETATM   21  N4  UNL     1     -14.825  -4.826 -16.095  1.00  0.00    -0.261 N 
ATOM     22  H42 UNL     1     -14.975  -3.865 -15.789  1.00  0.00     0.193 HD
ATOM     23  H41 UNL     1     -14.908  -5.393 -15.251  1.00  0.00     0.193 HD
ENDBRANCH  20  21
ENDBRANCH  18  20
ENDBRANCH  11  18
BRANCH  12  24
HETATM   24  O4  UNL     1     -14.079  -0.778 -20.161  1.00  0.00    -0.393 OA
ATOM     25  H4  UNL     1     -14.728  -0.420 -20.755  1.00  0.00     0.210 HD
ENDBRANCH  12  24
BRANCH  13  26
HETATM   26  C15 UNL     1     -16.332  -0.960 -17.265  1.00  0.00     0.174 C 
BRANCH  26  27
HETATM   27  O5  UNL     1     -15.896  -1.714 -16.178  1.00  0.00    -0.400 OA
ATOM     28  H5  UNL     1     -16.649  -2.007 -15.679  1.00  0.00     0.209 HD
ENDBRANCH  26  27
ENDBRANCH  13  26
ENDBRANCH   7   8
ENDBRANCH   3   7
BRANCH   4  29
HETATM   29  N5  UNL     1     -10.979   3.115 -18.056  1.00  0.00    -0.072 N 
ATOM     30  H53 UNL     1     -10.285   3.739 -17.643  1.00  0.00     0.274 HD
ATOM     31  H52 UNL     1     -10.423   2.260 -18.026  1.00  0.00     0.274 HD
ATOM     32  H51 UNL     1     -11.243   3.385 -19.004  1.00  0.00     0.274 HD
ENDBRANCH   4  29
BRANCH   1  33
HETATM   33  O2  UNL     1     -14.527   5.400 -19.259  1.00  0.00    -0.303 OA
BRANCH  33  34
HETATM   34  C6  UNL     1     -15.427   5.980 -20.172  1.00  0.00     0.260 C 
HETATM   35  O1  UNL     1     -15.002   6.093 -21.335  1.00  0.00    -0.265 OA
BRANCH  34  36
HETATM   36  C5  UNL     1     -16.776   6.414 -19.736  1.00  0.00     0.111 C 
BRANCH  36  37
HETATM   37  C4  UNL     1     -17.863   6.047 -20.679  1.00  0.00     0.010 C 
BRANCH  37  38
HETATM   38  C3  UNL     1     -19.255   6.126 -20.126  1.00  0.00     0.000 C 
BRANCH  38  39
HETATM   39  C2  UNL     1     -19.528   4.965 -19.189  1.00  0.00    -0.005 C 
HETATM   40  C1  UNL     1     -20.346   5.456 -18.014  1.00  0.00     0.005 C 
ENDBRANCH  38  39
ENDBRANCH  37  38
ENDBRANCH  36  37
ENDBRANCH  34  36
ENDBRANCH  33  34
ENDBRANCH   1  33
BRANCH   6  41
HETATM   41  N6  UNL     1     -14.706   5.728 -16.680  1.00  0.00    -0.072 N 
ATOM     42  H63 UNL     1     -14.117   6.084 -15.927  1.00  0.00     0.274 HD
ATOM     43  H62 UNL     1     -14.500   6.456 -17.365  1.00  0.00     0.274 HD
ATOM     44  H61 UNL     1     -15.694   5.686 -16.428  1.00  0.00     0.274 HD
ENDBRANCH   6  41
TORSDOF 17
ENDMDL
MODEL 5
REMARK VINA RESULT: -6.577377480      3.914      7.647
REMARK  17 active torsions:
REMARK  status: ('A' for Active; 'I' for Inactive)
REMARK    1  A    between atoms: C2_2  and  C3_3 
REMARK    2  A    between atoms: C3_3  and  C4_4 
REMARK    3  A    between atoms: C4_4  and  C5_5 
REMARK    4  A    between atoms: C5_5  and  C6_6 
REMARK    5  A    between atoms: C6_6  and  O2_8 
REMARK    6  A    between atoms: O2_8  and  C7_9 
REMARK    7  A    between atoms: C8_11  and  O3_12 
REMARK    8  A    between atoms: O3_12  and  C9_13 
REMARK    9  A    between atoms: C10_14  and  N1_15 
REMARK   10  A    between atoms: C12_20  and  N2_21 
REMARK   11  A    between atoms: N2_21  and  N3_23 
REMARK   12  A    between atoms: N3_23  and  N4_24 
REMARK   13  A    between atoms: C13_27  and  O4_28 
REMARK   14  A    between atoms: C14_30  and  C15_31 
REMARK   15  A    between atoms: C15_31  and  O5_32 
REMARK   16  A    between atoms: C16_34  and  N5_35 
REMARK   17  A    between atoms: C18_40  and  N6_41 
ROOT
HETATM    1  C7  UNL     1     -11.801   2.179 -18.114  1.00  0.00     0.226 C 
HETATM    2  S1  UNL     1     -13.480   2.699 -17.649  1.00  0.00    -0.101 SA
HETATM    3  C8  UNL     1     -13.403   4.444 -17.129  1.00  0.00     0.216 C 
HETATM    4  C16 UNL     1     -12.360   4.550 -16.081  1.00  0.00     0.224 C 
HETATM    5  C17 UNL     1     -11.202   3.612 -16.243  1.00  0.00     0.072 C 
HETATM    6  C18 UNL     1     -10.869   3.313 -17.685  1.00  0.00     0.225 C 
ENDROOT
BRANCH   3   7
HETATM    7  O3  UNL     1     -13.195   5.181 -18.260  1.00  0.00    -0.365 OA
BRANCH   7   8
HETATM    8  C9  UNL     1     -14.169   5.172 -19.206  1.00  0.00     0.162 C 
HETATM    9  C10 UNL     1     -13.840   5.955 -20.457  1.00  0.00     0.215 C 
HETATM   10  C11 UNL     1     -15.035   5.812 -21.380  1.00  0.00     0.065 C 
HETATM   11  C12 UNL     1     -16.148   6.641 -20.848  1.00  0.00     0.145 C 
HETATM   12  C13 UNL     1     -16.042   6.852 -19.381  1.00  0.00     0.152 C 
HETATM   13  C14 UNL     1     -15.431   5.739 -18.603  1.00  0.00     0.071 C 
BRANCH   9  14
HETATM   14  N1  UNL     1     -12.712   5.387 -21.170  1.00  0.00    -0.072 N 
ATOM     15  H13 UNL     1     -12.241   4.676 -20.612  1.00  0.00     0.274 HD
ATOM     16  H12 UNL     1     -13.021   4.802 -21.946  1.00  0.00     0.274 HD
ATOM     17  H11 UNL     1     -12.060   6.105 -21.484  1.00  0.00     0.274 HD
ENDBRANCH   9  14
BRANCH  11  18
HETATM   18  N2  UNL     1     -17.462   6.141 -21.249  1.00  0.00    -0.245 N 
ATOM     19  H2  UNL     1     -17.520   5.471 -22.016  1.00  0.00     0.197 HD
BRANCH  18  20
HETATM   20  N3  UNL     1     -18.495   6.497 -20.698  1.00  0.00    -0.248 NA
BRANCH  20  21
HETATM   21  N4  UNL     1     -19.548   6.749 -20.147  1.00  0.00    -0.261 N 
ATOM     22  H42 UNL     1     -19.084   6.210 -19.416  1.00  0.00     0.193 HD
ATOM     23  H41 UNL     1     -20.456   7.003 -19.759  1.00  0.00     0.193 HD
ENDBRANCH  20  21
ENDBRANCH  18  20
ENDBRANCH  11  18
BRANCH  12  24
HETATM   24  O4  UNL     1     -15.452   8.099 -19.064  1.00  0.00    -0.393 OA
ATOM     25  H4  UNL     1     -16.071   8.817 -19.135  1.00  0.00     0.210 HD
ENDBRANCH  12  24
BRANCH  13  26
HETATM   26  C15 UNL     1     -16.475   4.640 -18.368  1.00  0.00     0.174 C 
BRANCH  26  27
HETATM   27  O5  UNL     1     -17.720   5.228 -18.161  1.00  0.00    -0.400 OA
ATOM     28  H5  UNL     1     -18.343   4.559 -17.902  1.00  0.00     0.209 HD
ENDBRANCH  26  27
ENDBRANCH  13  26
ENDBRANCH   7   8
ENDBRANCH   3   7
BRANCH   4  29
HETATM   29  N5  UNL     1     -12.993   4.209 -14.795  1.00  0.00    -0.072 N 
ATOM     30  H53 UNL     1     -12.769   4.871 -14.053  1.00  0.00     0.274 HD
ATOM     31  H52 UNL     1     -14.004   4.350 -14.798  1.00  0.00     0.274 HD
ATOM     32  H51 UNL     1     -12.725   3.251 -14.568  1.00  0.00     0.274 HD
ENDBRANCH   4  29
BRANCH   1  33
HETATM   33  O2  UNL     1     -11.403   1.033 -17.372  1.00  0.00    -0.303 OA
BRANCH  33  34
HETATM   34  C6  UNL     1     -11.464  -0.256 -17.934  1.00  0.00     0.260 C 
HETATM   35  O1  UNL     1     -10.828  -0.402 -18.992  1.00  0.00    -0.265 OA
BRANCH  34  36
HETATM   36  C5  UNL     1     -12.243  -1.334 -17.279  1.00  0.00     0.111 C 
BRANCH  36  37
HETATM   37  C4  UNL     1     -13.393  -1.822 -18.080  1.00  0.00     0.010 C 
BRANCH  37  38
HETATM   38  C3  UNL     1     -14.438  -0.797 -18.405  1.00  0.00     0.000 C 
BRANCH  38  39
HETATM   39  C2  UNL     1     -14.815  -0.862 -19.874  1.00  0.00    -0.005 C 
HETATM   40  C1  UNL     1     -13.996   0.154 -20.642  1.00  0.00     0.005 C 
ENDBRANCH  38  39
ENDBRANCH  37  38
ENDBRANCH  36  37
ENDBRANCH  34  36
ENDBRANCH  33  34
ENDBRANCH   1  33
BRANCH   6  41
HETATM   41  N6  UNL     1      -9.515   2.796 -17.714  1.00  0.00    -0.072 N 
ATOM     42  H63 UNL     1      -9.208   2.537 -18.652  1.00  0.00     0.274 HD
ATOM     43  H62 UNL     1      -8.811   3.512 -17.537  1.00  0.00     0.274 HD
ATOM     44  H61 UNL     1      -9.470   2.021 -17.052  1.00  0.00     0.274 HD
ENDBRANCH   6  41
TORSDOF 17
ENDMDL
