MODEL 1
REMARK VINA RESULT: -5.052458911      0.000      0.000
REMARK  4 active torsions:
REMARK  status: ('A' for Active; 'I' for Inactive)
REMARK    1  A    between atoms: C1_4  and  C2_5 
REMARK    2  A    between atoms: C3_6  and  C4_7 
REMARK    3  A    between atoms: C5_8  and  C6_9 
REMARK    4  A    between atoms: N2_10  and  N3_12 
ROOT
HETATM    1  C4  UNL     1      44.752  72.937  16.274  1.00  0.00     0.001 C 
HETATM    2  C5  UNL     1      43.610  72.776  15.627  1.00  0.00     0.019 C 
ENDROOT
BRANCH   1   3
HETATM    3  C3  UNL     1      45.297  71.930  17.152  1.00  0.00     0.001 C 
HETATM    4  C2  UNL     1      46.486  71.387  17.056  1.00  0.00     0.016 C 
BRANCH   4   5
HETATM    5  C1  UNL     1      47.392  71.785  15.997  1.00  0.00     0.080 C 
HETATM    6  N1  UNL     1      48.609  72.129  16.326  1.00  0.00    -0.408 N 
ATOM      7  H12 UNL     1      48.897  72.112  17.304  1.00  0.00     0.155 HD
ATOM      8  H11 UNL     1      49.247  72.409  15.581  1.00  0.00     0.155 HD
ENDBRANCH   4   5
ENDBRANCH   1   3
BRANCH   2   9
HETATM    9  C6  UNL     1      43.052  73.772  14.747  1.00  0.00     0.106 C 
HETATM   10  N2  UNL     1      42.066  73.505  13.979  1.00  0.00    -0.318 N 
ATOM     11  H2  UNL     1      41.717  74.253  13.380  1.00  0.00     0.185 HD
BRANCH  10  12
HETATM   12  N3  UNL     1      41.438  72.276  13.900  1.00  0.00    -0.345 N 
ATOM     13  H32 UNL     1      40.422  72.277  13.986  1.00  0.00     0.176 HD
ATOM     14  H31 UNL     1      41.916  71.385  13.763  1.00  0.00     0.176 HD
ENDBRANCH  10  12
ENDBRANCH   2   9
TORSDOF 4
ENDMDL
MODEL 2
REMARK VINA RESULT: -4.789092855      2.042      2.259
REMARK  4 active torsions:
REMARK  status: ('A' for Active; 'I' for Inactive)
REMARK    1  A    between atoms: C1_4  and  C2_5 
REMARK    2  A    between atoms: C3_6  and  C4_7 
REMARK    3  A    between atoms: C5_8  and  C6_9 
REMARK    4  A    between atoms: N2_10  and  N3_12 
ROOT
HETATM    1  C4  UNL     1      43.829  72.344  16.436  1.00  0.00     0.001 C 
HETATM    2  C5  UNL     1      43.732  73.305  15.533  1.00  0.00     0.019 C 
ENDROOT
BRANCH   1   3
HETATM    3  C3  UNL     1      44.848  72.339  17.459  1.00  0.00     0.001 C 
HETATM    4  C2  UNL     1      45.713  71.379  17.677  1.00  0.00     0.016 C 
BRANCH   4   5
HETATM    5  C1  UNL     1      45.710  70.185  16.856  1.00  0.00     0.080 C 
HETATM    6  N1  UNL     1      45.130  69.114  17.331  1.00  0.00    -0.408 N 
ATOM      7  H12 UNL     1      44.697  69.135  18.254  1.00  0.00     0.155 HD
ATOM      8  H11 UNL     1      45.127  68.274  16.752  1.00  0.00     0.155 HD
ENDBRANCH   4   5
ENDBRANCH   1   3
BRANCH   2   9
HETATM    9  C6  UNL     1      42.721  73.325  14.505  1.00  0.00     0.106 C 
HETATM   10  N2  UNL     1      42.249  74.424  14.056  1.00  0.00    -0.318 N 
ATOM     11  H2  UNL     1      41.537  74.370  13.328  1.00  0.00     0.185 HD
BRANCH  10  12
HETATM   12  N3  UNL     1      42.634  75.681  14.484  1.00  0.00    -0.345 N 
ATOM     13  H32 UNL     1      43.562  75.995  14.199  1.00  0.00     0.176 HD
ATOM     14  H31 UNL     1      42.060  76.303  15.055  1.00  0.00     0.176 HD
ENDBRANCH  10  12
ENDBRANCH   2   9
TORSDOF 4
ENDMDL
MODEL 3
REMARK VINA RESULT: -4.770666391      3.042      3.741
REMARK  4 active torsions:
REMARK  status: ('A' for Active; 'I' for Inactive)
REMARK    1  A    between atoms: C1_4  and  C2_5 
REMARK    2  A    between atoms: C3_6  and  C4_7 
REMARK    3  A    between atoms: C5_8  and  C6_9 
REMARK    4  A    between atoms: N2_10  and  N3_12 
ROOT
HETATM    1  C4  UNL     1      44.636  74.299  16.070  1.00  0.00     0.001 C 
HETATM    2  C5  UNL     1      43.861  73.357  16.581  1.00  0.00     0.019 C 
ENDROOT
BRANCH   1   3
HETATM    3  C3  UNL     1      44.314  75.703  16.157  1.00  0.00     0.001 C 
HETATM    4  C2  UNL     1      45.071  76.692  15.747  1.00  0.00     0.016 C 
BRANCH   4   5
HETATM    5  C1  UNL     1      46.360  76.429  15.140  1.00  0.00     0.080 C 
HETATM    6  N1  UNL     1      47.272  77.363  15.203  1.00  0.00    -0.408 N 
ATOM      7  H12 UNL     1      47.066  78.246  15.669  1.00  0.00     0.155 HD
ATOM      8  H11 UNL     1      48.180  77.177  14.775  1.00  0.00     0.155 HD
ENDBRANCH   4   5
ENDBRANCH   1   3
BRANCH   2   9
HETATM    9  C6  UNL     1      44.168  71.951  16.503  1.00  0.00     0.106 C 
HETATM   10  N2  UNL     1      43.516  71.169  15.730  1.00  0.00    -0.318 N 
ATOM     11  H2  UNL     1      43.783  70.185  15.720  1.00  0.00     0.185 HD
BRANCH  10  12
HETATM   12  N3  UNL     1      42.476  71.560  14.907  1.00  0.00    -0.345 N 
ATOM     13  H32 UNL     1      41.636  70.982  14.929  1.00  0.00     0.176 HD
ATOM     14  H31 UNL     1      42.495  72.374  14.292  1.00  0.00     0.176 HD
ENDBRANCH  10  12
ENDBRANCH   2   9
TORSDOF 4
ENDMDL
MODEL 4
REMARK VINA RESULT: -4.669716114      1.298      5.206
REMARK  4 active torsions:
REMARK  status: ('A' for Active; 'I' for Inactive)
REMARK    1  A    between atoms: C1_4  and  C2_5 
REMARK    2  A    between atoms: C3_6  and  C4_7 
REMARK    3  A    between atoms: C5_8  and  C6_9 
REMARK    4  A    between atoms: N2_10  and  N3_12 
ROOT
HETATM    1  C4  UNL     1      43.994  73.044  16.450  1.00  0.00     0.001 C 
HETATM    2  C5  UNL     1      45.135  72.380  16.526  1.00  0.00     0.019 C 
ENDROOT
BRANCH   1   3
HETATM    3  C3  UNL     1      43.637  73.848  15.305  1.00  0.00     0.001 C 
HETATM    4  C2  UNL     1      42.752  73.535  14.392  1.00  0.00     0.016 C 
BRANCH   4   5
HETATM    5  C1  UNL     1      42.024  72.285  14.471  1.00  0.00     0.080 C 
HETATM    6  N1  UNL     1      41.108  72.048  13.569  1.00  0.00    -0.408 N 
ATOM      7  H12 UNL     1      40.924  72.733  12.837  1.00  0.00     0.155 HD
ATOM      8  H11 UNL     1      40.596  71.167  13.625  1.00  0.00     0.155 HD
ENDBRANCH   4   5
ENDBRANCH   1   3
BRANCH   2   9
HETATM    9  C6  UNL     1      45.506  71.573  17.661  1.00  0.00     0.106 C 
HETATM   10  N2  UNL     1      46.664  71.038  17.748  1.00  0.00    -0.318 N 
ATOM     11  H2  UNL     1      46.865  70.479  18.577  1.00  0.00     0.185 HD
BRANCH  10  12
HETATM   12  N3  UNL     1      47.664  71.162  16.802  1.00  0.00    -0.345 N 
ATOM     13  H32 UNL     1      48.612  71.293  17.154  1.00  0.00     0.176 HD
ATOM     14  H31 UNL     1      47.517  71.132  15.792  1.00  0.00     0.176 HD
ENDBRANCH  10  12
ENDBRANCH   2   9
TORSDOF 4
ENDMDL
MODEL 5
REMARK VINA RESULT: -4.556109522      1.214      5.465
REMARK  4 active torsions:
REMARK  status: ('A' for Active; 'I' for Inactive)
REMARK    1  A    between atoms: C1_4  and  C2_5 
REMARK    2  A    between atoms: C3_6  and  C4_7 
REMARK    3  A    between atoms: C5_8  and  C6_9 
REMARK    4  A    between atoms: N2_10  and  N3_12 
ROOT
HETATM    1  C4  UNL     1      45.798  73.390  15.906  1.00  0.00     0.001 C 
HETATM    2  C5  UNL     1      46.875  72.738  15.502  1.00  0.00     0.019 C 
ENDROOT
BRANCH   1   3
HETATM    3  C3  UNL     1      45.358  74.622  15.295  1.00  0.00     0.001 C 
HETATM    4  C2  UNL     1      44.185  74.834  14.751  1.00  0.00     0.016 C 
BRANCH   4   5
HETATM    5  C1  UNL     1      43.186  73.785  14.725  1.00  0.00     0.080 C 
HETATM    6  N1  UNL     1      42.138  73.952  13.961  1.00  0.00    -0.408 N 
ATOM      7  H12 UNL     1      42.042  74.802  13.406  1.00  0.00     0.155 HD
ATOM      8  H11 UNL     1      41.435  73.213  13.943  1.00  0.00     0.155 HD
ENDBRANCH   4   5
ENDBRANCH   1   3
BRANCH   2   9
HETATM    9  C6  UNL     1      47.327  71.508  16.101  1.00  0.00     0.106 C 
HETATM   10  N2  UNL     1      48.548  71.342  16.443  1.00  0.00    -0.318 N 
ATOM     11  H2  UNL     1      48.804  70.449  16.862  1.00  0.00     0.185 HD
BRANCH  10  12
HETATM   12  N3  UNL     1      49.546  72.285  16.284  1.00  0.00    -0.345 N 
ATOM     13  H32 UNL     1      49.722  72.606  15.332  1.00  0.00     0.176 HD
ATOM     14  H31 UNL     1      50.107  72.673  17.043  1.00  0.00     0.176 HD
ENDBRANCH  10  12
ENDBRANCH   2   9
TORSDOF 4
ENDMDL
