MODEL 1
REMARK VINA RESULT: -4.070794761      0.000      0.000
REMARK  3 active torsions:
REMARK  status: ('A' for Active; 'I' for Inactive)
REMARK    1  A    between atoms: N1_2  and  C2_5 
REMARK    2  A    between atoms: C2_5  and  N2_6 
REMARK    3  A    between atoms: C3_8  and  C4_9 
ROOT
HETATM    1  N2  UNL     1      43.844  72.765  15.513  1.00  0.00    -0.380 N 
ATOM      2  H2  UNL     1      43.328  71.940  15.208  1.00  0.00     0.160 HD
HETATM    3  C3  UNL     1      44.836  72.631  16.295  1.00  0.00     0.061 C 
ENDROOT
BRANCH   1   4
HETATM    4  C2  UNL     1      43.440  74.070  15.053  1.00  0.00     0.353 C 
BRANCH   4   5
HETATM    5  N1  UNL     1      42.343  73.936  14.110  1.00  0.00    -0.063 N 
HETATM    6  C1  UNL     1      41.868  72.584  14.017  1.00  0.00     0.269 C 
ATOM      7  H12 UNL     1      42.598  74.301  13.193  1.00  0.00     0.278 HD
ATOM      8  H11 UNL     1      41.584  74.579  14.335  1.00  0.00     0.278 HD
ENDBRANCH   4   5
ENDBRANCH   1   4
BRANCH   3   9
HETATM    9  C4  UNL     1      45.224  71.278  16.747  1.00  0.00     0.024 A 
HETATM   10  C5  UNL     1      45.995  71.051  17.982  1.00  0.00     0.010 A 
HETATM   11  C6  UNL     1      46.737  71.026  16.679  1.00  0.00     0.010 A 
ENDBRANCH   3   9
TORSDOF 3
ENDMDL
MODEL 2
REMARK VINA RESULT: -4.012140007      1.163      1.773
REMARK  3 active torsions:
REMARK  status: ('A' for Active; 'I' for Inactive)
REMARK    1  A    between atoms: N1_2  and  C2_5 
REMARK    2  A    between atoms: C2_5  and  N2_6 
REMARK    3  A    between atoms: C3_8  and  C4_9 
ROOT
HETATM    1  N2  UNL     1      44.571  72.807  15.814  1.00  0.00    -0.380 N 
ATOM      2  H2  UNL     1      45.510  73.090  15.532  1.00  0.00     0.160 HD
HETATM    3  C3  UNL     1      44.425  72.000  16.783  1.00  0.00     0.061 C 
ENDROOT
BRANCH   1   4
HETATM    4  C2  UNL     1      43.427  73.325  15.107  1.00  0.00     0.353 C 
BRANCH   4   5
HETATM    5  N1  UNL     1      43.866  74.006  13.901  1.00  0.00    -0.063 N 
HETATM    6  C1  UNL     1      45.184  74.561  14.038  1.00  0.00     0.269 C 
ATOM      7  H12 UNL     1      43.194  74.717  13.614  1.00  0.00     0.278 HD
ATOM      8  H11 UNL     1      43.808  73.391  13.090  1.00  0.00     0.278 HD
ENDBRANCH   4   5
ENDBRANCH   1   4
BRANCH   3   9
HETATM    9  C4  UNL     1      45.620  71.487  17.486  1.00  0.00     0.024 A 
HETATM   10  C5  UNL     1      46.669  70.716  16.797  1.00  0.00     0.010 A 
HETATM   11  C6  UNL     1      45.651  69.956  17.593  1.00  0.00     0.010 A 
ENDBRANCH   3   9
TORSDOF 3
ENDMDL
MODEL 3
REMARK VINA RESULT: -3.967719696      1.289      1.471
REMARK  3 active torsions:
REMARK  status: ('A' for Active; 'I' for Inactive)
REMARK    1  A    between atoms: N1_2  and  C2_5 
REMARK    2  A    between atoms: C2_5  and  N2_6 
REMARK    3  A    between atoms: C3_8  and  C4_9 
ROOT
HETATM    1  N2  UNL     1      45.601  72.859  15.360  1.00  0.00    -0.380 N 
ATOM      2  H2  UNL     1      46.205  72.472  14.635  1.00  0.00     0.160 HD
HETATM    3  C3  UNL     1      45.465  72.240  16.461  1.00  0.00     0.061 C 
ENDROOT
BRANCH   1   4
HETATM    4  C2  UNL     1      44.911  74.103  15.124  1.00  0.00     0.353 C 
BRANCH   4   5
HETATM    5  N1  UNL     1      44.031  73.961  13.977  1.00  0.00    -0.063 N 
HETATM    6  C1  UNL     1      42.704  73.565  14.355  1.00  0.00     0.269 C 
ATOM      7  H12 UNL     1      44.425  73.321  13.287  1.00  0.00     0.278 HD
ATOM      8  H11 UNL     1      44.016  74.813  13.417  1.00  0.00     0.278 HD
ENDBRANCH   4   5
ENDBRANCH   1   4
BRANCH   3   9
HETATM    9  C4  UNL     1      46.188  70.967  16.670  1.00  0.00     0.024 A 
HETATM   10  C5  UNL     1      45.492  69.711  17.001  1.00  0.00     0.010 A 
HETATM   11  C6  UNL     1      46.136  70.472  18.122  1.00  0.00     0.010 A 
ENDBRANCH   3   9
TORSDOF 3
ENDMDL
MODEL 4
REMARK VINA RESULT: -3.959194938      2.496      3.048
REMARK  3 active torsions:
REMARK  status: ('A' for Active; 'I' for Inactive)
REMARK    1  A    between atoms: N1_2  and  C2_5 
REMARK    2  A    between atoms: C2_5  and  N2_6 
REMARK    3  A    between atoms: C3_8  and  C4_9 
ROOT
HETATM    1  N2  UNL     1      46.251  72.984  15.005  1.00  0.00    -0.380 N 
ATOM      2  H2  UNL     1      46.873  72.449  14.399  1.00  0.00     0.160 HD
HETATM    3  C3  UNL     1      45.927  72.517  16.141  1.00  0.00     0.061 C 
ENDROOT
BRANCH   1   4
HETATM    4  C2  UNL     1      45.748  74.261  14.563  1.00  0.00     0.353 C 
BRANCH   4   5
HETATM    5  N1  UNL     1      46.654  75.314  14.985  1.00  0.00    -0.063 N 
HETATM    6  C1  UNL     1      45.962  76.527  15.321  1.00  0.00     0.269 C 
ATOM      7  H12 UNL     1      47.375  75.484  14.284  1.00  0.00     0.278 HD
ATOM      8  H11 UNL     1      47.248  75.003  15.754  1.00  0.00     0.278 HD
ENDBRANCH   4   5
ENDBRANCH   1   4
BRANCH   3   9
HETATM    9  C4  UNL     1      46.462  71.205  16.563  1.00  0.00     0.024 A 
HETATM   10  C5  UNL     1      45.587  70.062  16.877  1.00  0.00     0.010 A 
HETATM   11  C6  UNL     1      46.136  70.858  18.023  1.00  0.00     0.010 A 
ENDBRANCH   3   9
TORSDOF 3
ENDMDL
MODEL 5
REMARK VINA RESULT: -3.889913968      1.166      1.402
REMARK  3 active torsions:
REMARK  status: ('A' for Active; 'I' for Inactive)
REMARK    1  A    between atoms: N1_2  and  C2_5 
REMARK    2  A    between atoms: C2_5  and  N2_6 
REMARK    3  A    between atoms: C3_8  and  C4_9 
ROOT
HETATM    1  N2  UNL     1      45.156  73.166  16.487  1.00  0.00    -0.380 N 
ATOM      2  H2  UNL     1      46.139  73.413  16.600  1.00  0.00     0.160 HD
HETATM    3  C3  UNL     1      44.723  72.073  16.967  1.00  0.00     0.061 C 
ENDROOT
BRANCH   1   4
HETATM    4  C2  UNL     1      44.273  74.062  15.782  1.00  0.00     0.353 C 
BRANCH   4   5
HETATM    5  N1  UNL     1      43.954  73.506  14.478  1.00  0.00    -0.063 N 
HETATM    6  C1  UNL     1      42.537  73.415  14.257  1.00  0.00     0.269 C 
ATOM      7  H12 UNL     1      44.406  72.602  14.342  1.00  0.00     0.278 HD
ATOM      8  H11 UNL     1      44.411  74.030  13.732  1.00  0.00     0.278 HD
ENDBRANCH   4   5
ENDBRANCH   1   4
BRANCH   3   9
HETATM    9  C4  UNL     1      45.656  71.178  17.684  1.00  0.00     0.024 A 
HETATM   10  C5  UNL     1      46.723  70.434  16.992  1.00  0.00     0.010 A 
HETATM   11  C6  UNL     1      45.463  69.695  17.335  1.00  0.00     0.010 A 
ENDBRANCH   3   9
TORSDOF 3
ENDMDL
