MODEL 1
REMARK VINA RESULT: -5.060009988      0.000      0.000
REMARK  3 active torsions:
REMARK  status: ('A' for Active; 'I' for Inactive)
REMARK    1  A    between atoms: C4_5  and  N2_6 
REMARK    2  A    between atoms: N2_6  and  C5_8 
REMARK    3  A    between atoms: C5_8  and  N3_9 
ROOT
HETATM    1  N2  UNL     1      43.030  72.637  15.124  1.00  0.00    -0.356 N 
ATOM      2  H2  UNL     1      43.046  71.857  15.781  1.00  0.00     0.162 HD
ENDROOT
BRANCH   1   3
HETATM    3  C4  UNL     1      43.911  73.752  15.168  1.00  0.00     0.315 A 
HETATM    4  N1  UNL     1      45.231  73.564  15.792  1.00  0.00    -0.049 N 
HETATM    5  C1  UNL     1      46.346  74.263  15.175  1.00  0.00     0.274 C 
HETATM    6  C2  UNL     1      45.530  72.259  16.398  1.00  0.00     0.274 C 
HETATM    7  C3  UNL     1      44.262  74.377  16.480  1.00  0.00     0.293 A 
ENDBRANCH   1   3
BRANCH   1   8
HETATM    8  C5  UNL     1      42.108  72.765  14.016  1.00  0.00     0.193 C 
BRANCH   8   9
HETATM    9  N3  UNL     1      41.091  71.782  13.967  1.00  0.00    -0.303 N 
HETATM   10  N4  UNL     1      40.359  71.634  13.008  1.00  0.00    -0.344 N 
ATOM     11  H42 UNL     1      40.497  72.255  12.210  1.00  0.00     0.176 HD
ATOM     12  H41 UNL     1      39.625  70.926  12.972  1.00  0.00     0.176 HD
ATOM     13  H3  UNL     1      40.966  71.169  14.773  1.00  0.00     0.187 HD
ENDBRANCH   8   9
ENDBRANCH   1   8
TORSDOF 3
ENDMDL
MODEL 2
REMARK VINA RESULT: -5.043488017      0.919      1.165
REMARK  3 active torsions:
REMARK  status: ('A' for Active; 'I' for Inactive)
REMARK    1  A    between atoms: C4_5  and  N2_6 
REMARK    2  A    between atoms: N2_6  and  C5_8 
REMARK    3  A    between atoms: C5_8  and  N3_9 
ROOT
HETATM    1  N2  UNL     1      43.502  73.029  14.735  1.00  0.00    -0.356 N 
ATOM      2  H2  UNL     1      44.116  72.214  14.693  1.00  0.00     0.162 HD
ENDROOT
BRANCH   1   3
HETATM    3  C4  UNL     1      43.770  74.207  15.484  1.00  0.00     0.315 A 
HETATM    4  N1  UNL     1      45.167  74.662  15.578  1.00  0.00    -0.049 N 
HETATM    5  C1  UNL     1      45.384  76.099  15.554  1.00  0.00     0.274 C 
HETATM    6  C2  UNL     1      46.208  73.831  14.957  1.00  0.00     0.274 C 
HETATM    7  C3  UNL     1      44.544  74.123  16.759  1.00  0.00     0.293 A 
ENDBRANCH   1   3
BRANCH   1   8
HETATM    8  C5  UNL     1      42.237  73.146  14.042  1.00  0.00     0.193 C 
BRANCH   8   9
HETATM    9  N3  UNL     1      41.431  71.983  14.064  1.00  0.00    -0.303 N 
HETATM   10  N4  UNL     1      40.645  71.704  13.180  1.00  0.00    -0.344 N 
ATOM     11  H42 UNL     1      40.576  72.349  12.393  1.00  0.00     0.176 HD
ATOM     12  H41 UNL     1      40.063  70.866  13.196  1.00  0.00     0.176 HD
ATOM     13  H3  UNL     1      41.513  71.349  14.859  1.00  0.00     0.187 HD
ENDBRANCH   8   9
ENDBRANCH   1   8
TORSDOF 3
ENDMDL
MODEL 3
REMARK VINA RESULT: -4.828322789      1.231      1.810
REMARK  3 active torsions:
REMARK  status: ('A' for Active; 'I' for Inactive)
REMARK    1  A    between atoms: C4_5  and  N2_6 
REMARK    2  A    between atoms: N2_6  and  C5_8 
REMARK    3  A    between atoms: C5_8  and  N3_9 
ROOT
HETATM    1  N2  UNL     1      43.513  72.961  14.606  1.00  0.00    -0.356 N 
ATOM      2  H2  UNL     1      44.376  73.115  14.083  1.00  0.00     0.162 HD
ENDROOT
BRANCH   1   3
HETATM    3  C4  UNL     1      43.452  72.539  15.962  1.00  0.00     0.315 A 
HETATM    4  N1  UNL     1      44.684  72.617  16.764  1.00  0.00    -0.049 N 
HETATM    5  C1  UNL     1      44.527  73.004  18.157  1.00  0.00     0.274 C 
HETATM    6  C2  UNL     1      45.918  73.055  16.097  1.00  0.00     0.274 C 
HETATM    7  C3  UNL     1      44.191  71.315  16.398  1.00  0.00     0.293 A 
ENDBRANCH   1   3
BRANCH   1   8
HETATM    8  C5  UNL     1      42.181  73.144  14.073  1.00  0.00     0.193 C 
BRANCH   8   9
HETATM    9  N3  UNL     1      41.380  71.977  14.048  1.00  0.00    -0.303 N 
HETATM   10  N4  UNL     1      40.608  71.721  13.144  1.00  0.00    -0.344 N 
ATOM     11  H42 UNL     1      40.548  72.388  12.375  1.00  0.00     0.176 HD
ATOM     12  H41 UNL     1      40.031  70.880  13.127  1.00  0.00     0.176 HD
ATOM     13  H3  UNL     1      41.453  71.320  14.826  1.00  0.00     0.187 HD
ENDBRANCH   8   9
ENDBRANCH   1   8
TORSDOF 3
ENDMDL
MODEL 4
REMARK VINA RESULT: -4.801991725      1.062      1.911
REMARK  3 active torsions:
REMARK  status: ('A' for Active; 'I' for Inactive)
REMARK    1  A    between atoms: C4_5  and  N2_6 
REMARK    2  A    between atoms: N2_6  and  C5_8 
REMARK    3  A    between atoms: C5_8  and  N3_9 
ROOT
HETATM    1  N2  UNL     1      43.642  73.317  14.377  1.00  0.00    -0.356 N 
ATOM      2  H2  UNL     1      44.325  73.672  13.706  1.00  0.00     0.162 HD
ENDROOT
BRANCH   1   3
HETATM    3  C4  UNL     1      43.966  72.746  15.638  1.00  0.00     0.315 A 
HETATM    4  N1  UNL     1      44.404  73.652  16.712  1.00  0.00    -0.049 N 
HETATM    5  C1  UNL     1      43.955  73.328  18.056  1.00  0.00     0.274 C 
HETATM    6  C2  UNL     1      44.554  75.079  16.396  1.00  0.00     0.274 C 
HETATM    7  C3  UNL     1      45.378  72.766  16.127  1.00  0.00     0.293 A 
ENDBRANCH   1   3
BRANCH   1   8
HETATM    8  C5  UNL     1      42.209  73.325  14.177  1.00  0.00     0.193 C 
BRANCH   8   9
HETATM    9  N3  UNL     1      41.608  72.046  14.096  1.00  0.00    -0.303 N 
HETATM   10  N4  UNL     1      40.762  71.762  13.271  1.00  0.00    -0.344 N 
ATOM     11  H42 UNL     1      40.483  72.491  12.614  1.00  0.00     0.176 HD
ATOM     12  H41 UNL     1      40.328  70.841  13.212  1.00  0.00     0.176 HD
ATOM     13  H3  UNL     1      41.898  71.328  14.761  1.00  0.00     0.187 HD
ENDBRANCH   8   9
ENDBRANCH   1   8
TORSDOF 3
ENDMDL
MODEL 5
REMARK VINA RESULT: -4.747309467      1.532      2.175
REMARK  3 active torsions:
REMARK  status: ('A' for Active; 'I' for Inactive)
REMARK    1  A    between atoms: C4_5  and  N2_6 
REMARK    2  A    between atoms: N2_6  and  C5_8 
REMARK    3  A    between atoms: C5_8  and  N3_9 
ROOT
HETATM    1  N2  UNL     1      42.321  73.747  13.933  1.00  0.00    -0.356 N 
ATOM      2  H2  UNL     1      41.956  74.500  13.349  1.00  0.00     0.162 HD
ENDROOT
BRANCH   1   3
HETATM    3  C4  UNL     1      43.602  73.748  14.550  1.00  0.00     0.315 A 
HETATM    4  N1  UNL     1      44.099  75.019  15.102  1.00  0.00    -0.049 N 
HETATM    5  C1  UNL     1      44.857  74.936  16.340  1.00  0.00     0.274 C 
HETATM    6  C2  UNL     1      43.278  76.223  14.916  1.00  0.00     0.274 C 
HETATM    7  C3  UNL     1      44.734  74.494  13.921  1.00  0.00     0.293 A 
ENDBRANCH   1   3
BRANCH   1   8
HETATM    8  C5  UNL     1      41.610  72.527  14.247  1.00  0.00     0.193 C 
BRANCH   8   9
HETATM    9  N3  UNL     1      41.090  71.830  13.130  1.00  0.00    -0.303 N 
HETATM   10  N4  UNL     1      39.928  71.482  13.048  1.00  0.00    -0.344 N 
ATOM     11  H42 UNL     1      39.312  71.711  13.828  1.00  0.00     0.176 HD
ATOM     12  H41 UNL     1      39.553  70.980  12.242  1.00  0.00     0.176 HD
ATOM     13  H3  UNL     1      41.719  71.610  12.357  1.00  0.00     0.187 HD
ENDBRANCH   8   9
ENDBRANCH   1   8
TORSDOF 3
ENDMDL
