MODEL 1
REMARK VINA RESULT: -6.915494173      0.000      0.000
REMARK  5 active torsions:
REMARK  status: ('A' for Active; 'I' for Inactive)
REMARK    1  A    between atoms: C2_2  and  O2_4 
REMARK    2  A    between atoms: O2_4  and  C3_5 
REMARK    3  A    between atoms: C5_7  and  O3_9 
REMARK    4  A    between atoms: C9_14  and  O4_16 
REMARK    5  A    between atoms: C13_20  and  O5_21 
ROOT
HETATM    1  C3  UNL     1       0.528 -10.113  44.166  1.00  0.00     0.175 C 
HETATM    2  C4  UNL     1       1.581 -11.170  44.216  1.00  0.00     0.085 C 
HETATM    3  C5  UNL     1       1.831 -11.640  42.779  1.00  0.00     0.109 C 
HETATM    4  C6  UNL     1       3.020 -12.541  42.713  1.00  0.00     0.058 C 
HETATM    5  S1  UNL     1       2.143 -10.191  41.724  1.00  0.00    -0.094 SA
HETATM    6  C7  UNL     1       1.477  -8.712  42.467  1.00  0.00     0.017 C 
HETATM    7  C8  UNL     1       1.278  -7.652  41.704  1.00  0.00     0.027 C 
HETATM    8  C9  UNL     1       0.718  -6.373  42.269  1.00  0.00     0.073 C 
HETATM    9  C10 UNL     1       1.402  -5.200  41.635  1.00  0.00     0.050 C 
HETATM   10  C11 UNL     1       0.792  -6.374  43.770  1.00  0.00     0.045 C 
HETATM   11  C12 UNL     1       0.177  -7.671  44.257  1.00  0.00     0.049 C 
HETATM   12  C13 UNL     1       1.176  -8.764  43.931  1.00  0.00     0.117 C 
ENDROOT
BRANCH   1  13
HETATM   13  O2  UNL     1      -0.312 -10.099  45.302  1.00  0.00    -0.313 OA
BRANCH  13  14
HETATM   14  C2  UNL     1       0.112 -10.502  46.567  1.00  0.00     0.255 C 
HETATM   15  C1  UNL     1      -0.203 -11.827  47.129  1.00  0.00     0.126 C 
HETATM   16  O1  UNL     1       0.794  -9.669  47.237  1.00  0.00    -0.266 OA
ENDBRANCH  13  14
ENDBRANCH   1  13
BRANCH  12  17
HETATM   17  O5  UNL     1       2.315  -8.666  44.704  1.00  0.00    -0.382 OA
ATOM     18  H5  UNL     1       2.710  -7.812  44.573  1.00  0.00     0.211 HD
ENDBRANCH  12  17
BRANCH   3  19
HETATM   19  O3  UNL     1       0.688 -12.312  42.367  1.00  0.00    -0.379 OA
ATOM     20  H3  UNL     1       0.862 -12.650  41.497  1.00  0.00     0.211 HD
ENDBRANCH   3  19
BRANCH   8  21
HETATM   21  O4  UNL     1      -0.635  -6.366  41.921  1.00  0.00    -0.386 OA
ATOM     22  H4  UNL     1      -0.907  -5.457  41.969  1.00  0.00     0.211 HD
ENDBRANCH   8  21
TORSDOF 5
ENDMDL
MODEL 2
REMARK VINA RESULT: -6.900559842      2.910      6.084
REMARK  5 active torsions:
REMARK  status: ('A' for Active; 'I' for Inactive)
REMARK    1  A    between atoms: C2_2  and  O2_4 
REMARK    2  A    between atoms: O2_4  and  C3_5 
REMARK    3  A    between atoms: C5_7  and  O3_9 
REMARK    4  A    between atoms: C9_14  and  O4_16 
REMARK    5  A    between atoms: C13_20  and  O5_21 
ROOT
HETATM    1  C3  UNL     1       1.350  -8.520  40.278  1.00  0.00     0.175 C 
HETATM    2  C4  UNL     1       2.017  -7.212  40.551  1.00  0.00     0.085 C 
HETATM    3  C5  UNL     1       0.916  -6.161  40.729  1.00  0.00     0.109 C 
HETATM    4  C6  UNL     1       1.486  -4.870  41.218  1.00  0.00     0.058 C 
HETATM    5  S1  UNL     1      -0.289  -6.763  41.952  1.00  0.00    -0.094 SA
HETATM    6  C7  UNL     1      -0.207  -8.539  42.100  1.00  0.00     0.017 C 
HETATM    7  C8  UNL     1      -1.228  -9.179  42.644  1.00  0.00     0.027 C 
HETATM    8  C9  UNL     1      -1.223 -10.677  42.797  1.00  0.00     0.073 C 
HETATM    9  C10 UNL     1      -1.850 -11.052  44.105  1.00  0.00     0.050 C 
HETATM   10  C11 UNL     1       0.165 -11.227  42.615  1.00  0.00     0.045 C 
HETATM   11  C12 UNL     1       0.713 -10.665  41.318  1.00  0.00     0.049 C 
HETATM   12  C13 UNL     1       1.029  -9.207  41.589  1.00  0.00     0.117 C 
ENDROOT
BRANCH   1  13
HETATM   13  O2  UNL     1       2.089  -9.359  39.414  1.00  0.00    -0.313 OA
BRANCH  13  14
HETATM   14  C2  UNL     1       1.777  -9.531  38.067  1.00  0.00     0.255 C 
HETATM   15  C1  UNL     1       2.345  -8.686  37.002  1.00  0.00     0.126 C 
HETATM   16  O1  UNL     1       0.967 -10.462  37.779  1.00  0.00    -0.266 OA
ENDBRANCH  13  14
ENDBRANCH   1  13
BRANCH  12  17
HETATM   17  O5  UNL     1       2.097  -9.064  42.451  1.00  0.00    -0.382 OA
ATOM     18  H5  UNL     1       1.805  -8.623  43.241  1.00  0.00     0.211 HD
ENDBRANCH  12  17
BRANCH   3  19
HETATM   19  O3  UNL     1       0.315  -5.989  39.489  1.00  0.00    -0.379 OA
ATOM     20  H3  UNL     1      -0.598  -5.781  39.649  1.00  0.00     0.211 HD
ENDBRANCH   3  19
BRANCH   8  21
HETATM   21  O4  UNL     1      -2.004 -11.168  41.749  1.00  0.00    -0.386 OA
ATOM     22  H4  UNL     1      -1.620 -12.004  41.513  1.00  0.00     0.211 HD
ENDBRANCH   8  21
TORSDOF 5
ENDMDL
MODEL 3
REMARK VINA RESULT: -6.845407430      3.975      5.813
REMARK  5 active torsions:
REMARK  status: ('A' for Active; 'I' for Inactive)
REMARK    1  A    between atoms: C2_2  and  O2_4 
REMARK    2  A    between atoms: O2_4  and  C3_5 
REMARK    3  A    between atoms: C5_7  and  O3_9 
REMARK    4  A    between atoms: C9_14  and  O4_16 
REMARK    5  A    between atoms: C13_20  and  O5_21 
ROOT
HETATM    1  C3  UNL     1       2.674  -9.151  39.196  1.00  0.00     0.175 C 
HETATM    2  C4  UNL     1       3.190 -10.399  39.832  1.00  0.00     0.085 C 
HETATM    3  C5  UNL     1       4.400 -10.014  40.689  1.00  0.00     0.109 C 
HETATM    4  C6  UNL     1       4.845 -11.165  41.530  1.00  0.00     0.058 C 
HETATM    5  S1  UNL     1       3.939  -8.639  41.788  1.00  0.00    -0.094 SA
HETATM    6  C7  UNL     1       2.519  -7.767  41.147  1.00  0.00     0.017 C 
HETATM    7  C8  UNL     1       2.270  -6.547  41.591  1.00  0.00     0.027 C 
HETATM    8  C9  UNL     1       1.089  -5.757  41.091  1.00  0.00     0.073 C 
HETATM    9  C10 UNL     1       0.480  -4.989  42.224  1.00  0.00     0.050 C 
HETATM   10  C11 UNL     1       0.114  -6.649  40.375  1.00  0.00     0.045 C 
HETATM   11  C12 UNL     1       0.893  -7.449  39.349  1.00  0.00     0.049 C 
HETATM   12  C13 UNL     1       1.688  -8.479  40.128  1.00  0.00     0.117 C 
ENDROOT
BRANCH   1  13
HETATM   13  O2  UNL     1       2.122  -9.360  37.913  1.00  0.00    -0.313 OA
BRANCH  13  14
HETATM   14  C2  UNL     1       2.777  -9.010  36.734  1.00  0.00     0.255 C 
HETATM   15  C1  UNL     1       4.096  -9.553  36.364  1.00  0.00     0.126 C 
HETATM   16  O1  UNL     1       2.187  -8.188  35.970  1.00  0.00    -0.266 OA
ENDBRANCH  13  14
ENDBRANCH   1  13
BRANCH  12  17
HETATM   17  O5  UNL     1       0.872  -9.436  40.695  1.00  0.00    -0.382 OA
ATOM     18  H5  UNL     1      -0.037  -9.212  40.530  1.00  0.00     0.211 HD
ENDBRANCH  12  17
BRANCH   3  19
HETATM   19  O3  UNL     1       5.410  -9.630  39.816  1.00  0.00    -0.379 OA
ATOM     20  H3  UNL     1       6.164  -9.403  40.347  1.00  0.00     0.211 HD
ENDBRANCH   3  19
BRANCH   8  21
HETATM   21  O4  UNL     1       1.603  -4.864  40.148  1.00  0.00    -0.386 OA
ATOM     22  H4  UNL     1       2.498  -5.142  39.991  1.00  0.00     0.211 HD
ENDBRANCH   8  21
TORSDOF 5
ENDMDL
MODEL 4
REMARK VINA RESULT: -6.792166692      2.515      5.857
REMARK  5 active torsions:
REMARK  status: ('A' for Active; 'I' for Inactive)
REMARK    1  A    between atoms: C2_2  and  O2_4 
REMARK    2  A    between atoms: O2_4  and  C3_5 
REMARK    3  A    between atoms: C5_7  and  O3_9 
REMARK    4  A    between atoms: C9_14  and  O4_16 
REMARK    5  A    between atoms: C13_20  and  O5_21 
ROOT
HETATM    1  C3  UNL     1       1.032  -8.881  41.087  1.00  0.00     0.175 C 
HETATM    2  C4  UNL     1       1.551  -7.515  41.394  1.00  0.00     0.085 C 
HETATM    3  C5  UNL     1       0.341  -6.607  41.641  1.00  0.00     0.109 C 
HETATM    4  C6  UNL     1       0.771  -5.277  42.166  1.00  0.00     0.058 C 
HETATM    5  S1  UNL     1      -0.750  -7.390  42.870  1.00  0.00    -0.094 SA
HETATM    6  C7  UNL     1      -0.458  -9.148  42.945  1.00  0.00     0.017 C 
HETATM    7  C8  UNL     1      -1.381  -9.922  43.489  1.00  0.00     0.027 C 
HETATM    8  C9  UNL     1      -1.198 -11.414  43.583  1.00  0.00     0.073 C 
HETATM    9  C10 UNL     1      -1.739 -11.907  44.890  1.00  0.00     0.050 C 
HETATM   10  C11 UNL     1       0.238 -11.792  43.344  1.00  0.00     0.045 C 
HETATM   11  C12 UNL     1       0.679 -11.122  42.058  1.00  0.00     0.049 C 
HETATM   12  C13 UNL     1       0.832  -9.648  42.377  1.00  0.00     0.117 C 
ENDROOT
BRANCH   1  13
HETATM   13  O2  UNL     1       1.837  -9.596  40.172  1.00  0.00    -0.313 OA
BRANCH  13  14
HETATM   14  C2  UNL     1       1.543  -9.699  38.814  1.00  0.00     0.255 C 
HETATM   15  C1  UNL     1       1.949  -8.679  37.831  1.00  0.00     0.126 C 
HETATM   16  O1  UNL     1       0.897 -10.723  38.442  1.00  0.00    -0.266 OA
ENDBRANCH  13  14
ENDBRANCH   1  13
BRANCH  12  17
HETATM   17  O5  UNL     1       1.900  -9.412  43.218  1.00  0.00    -0.382 OA
ATOM     18  H5  UNL     1       2.634  -9.955  42.953  1.00  0.00     0.211 HD
ENDBRANCH  12  17
BRANCH   3  19
HETATM   19  O3  UNL     1      -0.312  -6.462  40.424  1.00  0.00    -0.379 OA
ATOM     20  H3  UNL     1      -1.184  -6.824  40.531  1.00  0.00     0.211 HD
ENDBRANCH   3  19
BRANCH   8  21
HETATM   21  O4  UNL     1      -1.947 -11.955  42.536  1.00  0.00    -0.386 OA
ATOM     22  H4  UNL     1      -2.492 -12.626  42.930  1.00  0.00     0.211 HD
ENDBRANCH   8  21
TORSDOF 5
ENDMDL
MODEL 5
REMARK VINA RESULT: -6.734728356      1.936      5.305
REMARK  5 active torsions:
REMARK  status: ('A' for Active; 'I' for Inactive)
REMARK    1  A    between atoms: C2_2  and  O2_4 
REMARK    2  A    between atoms: O2_4  and  C3_5 
REMARK    3  A    between atoms: C5_7  and  O3_9 
REMARK    4  A    between atoms: C9_14  and  O4_16 
REMARK    5  A    between atoms: C13_20  and  O5_21 
ROOT
HETATM    1  C3  UNL     1       0.897  -8.854  42.680  1.00  0.00     0.175 C 
HETATM    2  C4  UNL     1       1.306  -7.465  42.316  1.00  0.00     0.085 C 
HETATM    3  C5  UNL     1       0.058  -6.580  42.403  1.00  0.00     0.109 C 
HETATM    4  C6  UNL     1       0.418  -5.137  42.265  1.00  0.00     0.058 C 
HETATM    5  S1  UNL     1      -0.736  -6.826  44.021  1.00  0.00    -0.094 SA
HETATM    6  C7  UNL     1      -0.247  -8.387  44.735  1.00  0.00     0.017 C 
HETATM    7  C8  UNL     1      -0.984  -8.901  45.703  1.00  0.00     0.027 C 
HETATM    8  C9  UNL     1      -0.627 -10.215  46.347  1.00  0.00     0.073 C 
HETATM    9  C10 UNL     1      -0.900 -10.146  47.819  1.00  0.00     0.050 C 
HETATM   10  C11 UNL     1       0.786 -10.606  46.015  1.00  0.00     0.045 C 
HETATM   11  C12 UNL     1       0.946 -10.509  44.510  1.00  0.00     0.049 C 
HETATM   12  C13 UNL     1       0.986  -9.030  44.182  1.00  0.00     0.117 C 
ENDROOT
BRANCH   1  13
HETATM   13  O2  UNL     1       1.623  -9.853  41.993  1.00  0.00    -0.313 OA
BRANCH  13  14
HETATM   14  C2  UNL     1       1.297 -10.285  40.709  1.00  0.00     0.255 C 
HETATM   15  C1  UNL     1       2.084  -9.918  39.520  1.00  0.00     0.126 C 
HETATM   16  O1  UNL     1       0.274 -11.025  40.595  1.00  0.00    -0.266 OA
ENDBRANCH  13  14
ENDBRANCH   1  13
BRANCH  12  17
HETATM   17  O5  UNL     1       2.140  -8.431  44.643  1.00  0.00    -0.382 OA
ATOM     18  H5  UNL     1       2.424  -8.868  45.438  1.00  0.00     0.211 HD
ENDBRANCH  12  17
BRANCH   3  19
HETATM   19  O3  UNL     1      -0.789  -6.970  41.373  1.00  0.00    -0.379 OA
ATOM     20  H3  UNL     1      -1.530  -7.409  41.775  1.00  0.00     0.211 HD
ENDBRANCH   3  19
BRANCH   8  21
HETATM   21  O4  UNL     1      -1.467 -11.165  45.762  1.00  0.00    -0.386 OA
ATOM     22  H4  UNL     1      -1.397 -11.940  46.306  1.00  0.00     0.211 HD
ENDBRANCH   8  21
TORSDOF 5
ENDMDL
