MODEL 1
REMARK VINA RESULT: -8.562837983      0.000      0.000
REMARK  4 active torsions:
REMARK  status: ('A' for Active; 'I' for Inactive)
REMARK    1  A    between atoms: C3_3  and  O1_4 
REMARK    2  A    between atoms: C5_7  and  O2_8 
REMARK    3  A    between atoms: N1_16  and  O3_18 
REMARK    4  A    between atoms: C14_23  and  C15_24 
ROOT
HETATM    1  C1  UNL     1       1.638 -10.048  45.005  1.00  0.00     0.022 C 
HETATM    2  C2  UNL     1       0.290 -10.777  44.749  1.00  0.00     0.025 A 
HETATM    3  C3  UNL     1      -0.478 -10.611  46.022  1.00  0.00     0.132 C 
HETATM    4  C4  UNL     1       0.329 -10.208  47.223  1.00  0.00     0.064 C 
HETATM    5  C5  UNL     1      -0.088 -10.828  48.532  1.00  0.00     0.120 C 
HETATM    6  C6  UNL     1      -1.447 -11.348  48.643  1.00  0.00     0.032 C 
HETATM    7  C7  UNL     1      -1.730 -12.788  48.514  1.00  0.00     0.002 C 
HETATM    8  C8  UNL     1      -0.630 -13.773  48.584  1.00  0.00     0.000 C 
HETATM    9  C9  UNL     1      -0.421 -14.511  47.260  1.00  0.00     0.006 C 
HETATM   10  C10 UNL     1       0.588 -13.855  46.359  1.00  0.00     0.057 C 
HETATM   11  C11 UNL     1      -0.030 -13.252  45.158  1.00  0.00     0.039 C 
HETATM   12  N1  UNL     1      -1.155 -13.727  44.832  1.00  0.00    -0.275 N 
ATOM     13  H1  UNL     1      -1.498 -14.469  45.443  1.00  0.00     0.193 HD
HETATM   14  C12 UNL     1       0.638 -12.188  44.391  1.00  0.00     0.180 A 
HETATM   15  O4  UNL     1       0.446 -12.340  43.020  1.00  0.00    -0.378 OA
HETATM   16  C13 UNL     1      -0.107 -11.234  42.475  1.00  0.00     0.181 A 
HETATM   17  C14 UNL     1      -0.245 -10.156  43.524  1.00  0.00     0.084 A 
ENDROOT
BRANCH  12  18
HETATM   18  O3  UNL     1      -1.974 -13.415  43.816  1.00  0.00    -0.290 OA
ATOM     19  H3  UNL     1      -1.873 -13.542  42.880  1.00  0.00     0.244 HD
ENDBRANCH  12  18
BRANCH   3  20
HETATM   20  O1  UNL     1      -1.480  -9.609  45.935  1.00  0.00    -0.395 OA
ATOM     21  H1  UNL     1      -2.269  -9.833  46.413  1.00  0.00     0.210 HD
ENDBRANCH   3  20
BRANCH  17  22
HETATM   22  C15 UNL     1      -1.591  -9.624  43.485  1.00  0.00     0.238 C 
HETATM   23  O5  UNL     1      -2.643 -10.205  43.323  1.00  0.00    -0.306 OA
ENDBRANCH  17  22
BRANCH   5  24
HETATM   24  O2  UNL     1       0.117  -9.794  49.503  1.00  0.00    -0.395 OA
ATOM     25  H2  UNL     1       0.684 -10.188  50.156  1.00  0.00     0.210 HD
ENDBRANCH   5  24
TORSDOF 4
ENDMDL
MODEL 2
REMARK VINA RESULT: -8.235758773      2.457      4.539
REMARK  4 active torsions:
REMARK  status: ('A' for Active; 'I' for Inactive)
REMARK    1  A    between atoms: C3_3  and  O1_4 
REMARK    2  A    between atoms: C5_7  and  O2_8 
REMARK    3  A    between atoms: N1_16  and  O3_18 
REMARK    4  A    between atoms: C14_23  and  C15_24 
ROOT
HETATM    1  C1  UNL     1      -1.835  -9.071  42.313  1.00  0.00     0.022 C 
HETATM    2  C2  UNL     1      -0.358  -9.368  42.695  1.00  0.00     0.025 A 
HETATM    3  C3  UNL     1      -0.304 -10.852  42.873  1.00  0.00     0.132 C 
HETATM    4  C4  UNL     1      -1.630 -11.538  43.042  1.00  0.00     0.064 C 
HETATM    5  C5  UNL     1      -1.652 -12.691  44.012  1.00  0.00     0.120 C 
HETATM    6  C6  UNL     1      -0.387 -13.348  44.328  1.00  0.00     0.032 C 
HETATM    7  C7  UNL     1       0.343 -13.047  45.570  1.00  0.00     0.002 C 
HETATM    8  C8  UNL     1      -0.326 -12.321  46.672  1.00  0.00     0.000 C 
HETATM    9  C9  UNL     1       0.290 -10.942  46.921  1.00  0.00     0.006 C 
HETATM   10  C10 UNL     1      -0.378  -9.837  46.150  1.00  0.00     0.057 C 
HETATM   11  C11 UNL     1       0.484  -9.291  45.079  1.00  0.00     0.039 C 
HETATM   12  N1  UNL     1       1.724  -9.477  45.235  1.00  0.00    -0.275 N 
ATOM     13  H1  UNL     1       1.976  -9.984  46.084  1.00  0.00     0.193 HD
HETATM   14  C12 UNL     1      -0.074  -8.566  43.927  1.00  0.00     0.180 A 
HETATM   15  O4  UNL     1       0.726  -7.486  43.558  1.00  0.00    -0.378 OA
HETATM   16  C13 UNL     1       1.098  -7.570  42.261  1.00  0.00     0.181 A 
HETATM   17  C14 UNL     1       0.437  -8.764  41.612  1.00  0.00     0.084 A 
ENDROOT
BRANCH  12  18
HETATM   18  O3  UNL     1       2.764  -9.118  44.468  1.00  0.00    -0.290 OA
ATOM     19  H3  UNL     1       3.619  -8.778  44.705  1.00  0.00     0.244 HD
ENDBRANCH  12  18
BRANCH   3  20
HETATM   20  O1  UNL     1       0.283 -11.519  41.765  1.00  0.00    -0.395 OA
ATOM     21  H1  UNL     1       0.665 -10.921  41.134  1.00  0.00     0.210 HD
ENDBRANCH   3  20
BRANCH  17  22
HETATM   22  C15 UNL     1       1.439  -9.534  40.904  1.00  0.00     0.238 C 
HETATM   23  O5  UNL     1       2.576  -9.801  41.230  1.00  0.00    -0.306 OA
ENDBRANCH  17  22
BRANCH   5  24
HETATM   24  O2  UNL     1      -2.556 -13.637  43.427  1.00  0.00    -0.395 OA
ATOM     25  H2  UNL     1      -2.857 -14.165  44.158  1.00  0.00     0.210 HD
ENDBRANCH   5  24
TORSDOF 4
ENDMDL
MODEL 3
REMARK VINA RESULT: -7.934132781      3.499      4.861
REMARK  4 active torsions:
REMARK  status: ('A' for Active; 'I' for Inactive)
REMARK    1  A    between atoms: C3_3  and  O1_4 
REMARK    2  A    between atoms: C5_7  and  O2_8 
REMARK    3  A    between atoms: N1_16  and  O3_18 
REMARK    4  A    between atoms: C14_23  and  C15_24 
ROOT
HETATM    1  C1  UNL     1       2.169  -6.205  43.055  1.00  0.00     0.022 C 
HETATM    2  C2  UNL     1       1.804  -7.517  42.306  1.00  0.00     0.025 A 
HETATM    3  C3  UNL     1       0.379  -7.780  42.675  1.00  0.00     0.132 C 
HETATM    4  C4  UNL     1      -0.132  -7.036  43.876  1.00  0.00     0.064 C 
HETATM    5  C5  UNL     1      -1.082  -7.797  44.764  1.00  0.00     0.120 C 
HETATM    6  C6  UNL     1      -1.790  -8.940  44.193  1.00  0.00     0.032 C 
HETATM    7  C7  UNL     1      -1.340 -10.320  44.438  1.00  0.00     0.002 C 
HETATM    8  C8  UNL     1      -0.364 -10.608  45.511  1.00  0.00     0.000 C 
HETATM    9  C9  UNL     1       0.970 -11.121  44.965  1.00  0.00     0.006 C 
HETATM   10  C10 UNL     1       1.976 -10.031  44.715  1.00  0.00     0.057 C 
HETATM   11  C11 UNL     1       2.231  -9.814  43.274  1.00  0.00     0.039 C 
HETATM   12  N1  UNL     1       1.957 -10.792  42.523  1.00  0.00    -0.275 N 
ATOM     13  H1  UNL     1       1.591 -11.612  43.007  1.00  0.00     0.193 HD
HETATM   14  C12 UNL     1       2.786  -8.549  42.766  1.00  0.00     0.180 A 
HETATM   15  O4  UNL     1       3.697  -8.762  41.734  1.00  0.00    -0.378 OA
HETATM   16  C13 UNL     1       3.343  -8.086  40.618  1.00  0.00     0.181 A 
HETATM   17  C14 UNL     1       2.121  -7.241  40.894  1.00  0.00     0.084 A 
ENDROOT
BRANCH  12  18
HETATM   18  O3  UNL     1       2.068 -10.930  41.193  1.00  0.00    -0.290 OA
ATOM     19  H3  UNL     1       2.833 -11.066  40.647  1.00  0.00     0.244 HD
ENDBRANCH  12  18
BRANCH   3  20
HETATM   20  O1  UNL     1      -0.532  -7.428  41.645  1.00  0.00    -0.395 OA
ATOM     21  H1  UNL     1      -0.108  -7.297  40.805  1.00  0.00     0.210 HD
ENDBRANCH   3  20
BRANCH  17  22
HETATM   22  C15 UNL     1       1.141  -7.470  39.852  1.00  0.00     0.238 C 
HETATM   23  O5  UNL     1       0.548  -6.666  39.165  1.00  0.00    -0.306 OA
ENDBRANCH  17  22
BRANCH   5  24
HETATM   24  O2  UNL     1      -2.026  -6.815  45.209  1.00  0.00    -0.395 OA
ATOM     25  H2  UNL     1      -2.062  -6.928  46.152  1.00  0.00     0.210 HD
ENDBRANCH   5  24
TORSDOF 4
ENDMDL
MODEL 4
REMARK VINA RESULT: -7.923879072      1.156      1.182
REMARK  4 active torsions:
REMARK  status: ('A' for Active; 'I' for Inactive)
REMARK    1  A    between atoms: C3_3  and  O1_4 
REMARK    2  A    between atoms: C5_7  and  O2_8 
REMARK    3  A    between atoms: N1_16  and  O3_18 
REMARK    4  A    between atoms: C14_23  and  C15_24 
ROOT
HETATM    1  C1  UNL     1       2.143  -9.876  44.259  1.00  0.00     0.022 C 
HETATM    2  C2  UNL     1       0.699 -10.377  43.983  1.00  0.00     0.025 A 
HETATM    3  C3  UNL     1      -0.035 -10.146  45.265  1.00  0.00     0.132 C 
HETATM    4  C4  UNL     1       0.823  -9.921  46.477  1.00  0.00     0.064 C 
HETATM    5  C5  UNL     1       0.315 -10.521  47.762  1.00  0.00     0.120 C 
HETATM    6  C6  UNL     1      -1.109 -10.830  47.860  1.00  0.00     0.032 C 
HETATM    7  C7  UNL     1      -1.610 -12.202  47.675  1.00  0.00     0.002 C 
HETATM    8  C8  UNL     1      -0.675 -13.348  47.701  1.00  0.00     0.000 C 
HETATM    9  C9  UNL     1      -0.581 -14.056  46.347  1.00  0.00     0.006 C 
HETATM   10  C10 UNL     1       0.518 -13.527  45.467  1.00  0.00     0.057 C 
HETATM   11  C11 UNL     1       0.001 -12.788  44.295  1.00  0.00     0.039 C 
HETATM   12  N1  UNL     1      -1.184 -13.071  43.957  1.00  0.00    -0.275 N 
ATOM     13  H1  UNL     1      -1.637 -13.775  44.539  1.00  0.00     0.193 HD
HETATM   14  C12 UNL     1       0.825 -11.810  43.567  1.00  0.00     0.180 A 
HETATM   15  O4  UNL     1       0.613 -11.876  42.192  1.00  0.00    -0.378 OA
HETATM   16  C13 UNL     1       0.238 -10.677  41.694  1.00  0.00     0.181 A 
HETATM   17  C14 UNL     1       0.267  -9.634  42.786  1.00  0.00     0.084 A 
ENDROOT
BRANCH  12  18
HETATM   18  O3  UNL     1      -1.944 -12.597  42.958  1.00  0.00    -0.290 OA
ATOM     19  H3  UNL     1      -2.494 -11.824  42.913  1.00  0.00     0.244 HD
ENDBRANCH  12  18
BRANCH   3  20
HETATM   20  O1  UNL     1      -0.871  -8.999  45.223  1.00  0.00    -0.395 OA
ATOM     21  H1  UNL     1      -0.454  -8.225  45.582  1.00  0.00     0.210 HD
ENDBRANCH   3  20
BRANCH  17  22
HETATM   22  C15 UNL     1      -0.981  -8.899  42.775  1.00  0.00     0.238 C 
HETATM   23  O5  UNL     1      -1.173  -7.712  42.626  1.00  0.00    -0.306 OA
ENDBRANCH  17  22
BRANCH   5  24
HETATM   24  O2  UNL     1       0.675  -9.571  48.772  1.00  0.00    -0.395 OA
ATOM     25  H2  UNL     1       0.012  -9.674  49.446  1.00  0.00     0.210 HD
ENDBRANCH   5  24
TORSDOF 4
ENDMDL
MODEL 5
REMARK VINA RESULT: -7.876335372      5.225      7.212
REMARK  4 active torsions:
REMARK  status: ('A' for Active; 'I' for Inactive)
REMARK    1  A    between atoms: C3_3  and  O1_4 
REMARK    2  A    between atoms: C5_7  and  O2_8 
REMARK    3  A    between atoms: N1_16  and  O3_18 
REMARK    4  A    between atoms: C14_23  and  C15_24 
ROOT
HETATM    1  C1  UNL     1       4.256  -7.565  39.752  1.00  0.00     0.022 C 
HETATM    2  C2  UNL     1       2.956  -8.325  39.369  1.00  0.00     0.025 A 
HETATM    3  C3  UNL     1       1.847  -7.399  39.754  1.00  0.00     0.132 C 
HETATM    4  C4  UNL     1       2.219  -6.292  40.699  1.00  0.00     0.064 C 
HETATM    5  C5  UNL     1       1.181  -5.933  41.731  1.00  0.00     0.120 C 
HETATM    6  C6  UNL     1      -0.207  -6.298  41.464  1.00  0.00     0.032 C 
HETATM    7  C7  UNL     1      -0.818  -7.488  42.079  1.00  0.00     0.002 C 
HETATM    8  C8  UNL     1      -0.157  -8.163  43.217  1.00  0.00     0.000 C 
HETATM    9  C9  UNL     1       0.316  -9.575  42.864  1.00  0.00     0.006 C 
HETATM   10  C10 UNL     1       1.733  -9.626  42.363  1.00  0.00     0.057 C 
HETATM   11  C11 UNL     1       1.813  -9.960  40.924  1.00  0.00     0.039 C 
HETATM   12  N1  UNL     1       0.809 -10.565  40.451  1.00  0.00    -0.275 N 
ATOM     13  H1  UNL     1       0.065 -10.747  41.125  1.00  0.00     0.193 HD
HETATM   14  C12 UNL     1       2.994  -9.623  40.114  1.00  0.00     0.180 A 
HETATM   15  O4  UNL     1       3.300 -10.630  39.201  1.00  0.00    -0.378 OA
HETATM   16  C13 UNL     1       3.335 -10.154  37.936  1.00  0.00     0.181 A 
HETATM   17  C14 UNL     1       3.125  -8.658  37.943  1.00  0.00     0.084 A 
ENDROOT
BRANCH  12  18
HETATM   18  O3  UNL     1       0.561 -11.007  39.210  1.00  0.00    -0.290 OA
ATOM     19  H3  UNL     1      -0.256 -11.076  38.730  1.00  0.00     0.244 HD
ENDBRANCH  12  18
BRANCH   3  20
HETATM   20  O1  UNL     1       1.284  -6.720  38.642  1.00  0.00    -0.395 OA
ATOM     21  H1  UNL     1       1.819  -5.995  38.342  1.00  0.00     0.210 HD
ENDBRANCH   3  20
BRANCH  17  22
HETATM   22  C15 UNL     1       2.106  -8.317  36.972  1.00  0.00     0.238 C 
HETATM   23  O5  UNL     1       2.228  -8.007  35.807  1.00  0.00    -0.306 OA
ENDBRANCH  17  22
BRANCH   5  24
HETATM   24  O2  UNL     1       1.290  -4.511  41.872  1.00  0.00    -0.395 OA
ATOM     25  H2  UNL     1       0.412  -4.186  41.708  1.00  0.00     0.210 HD
ENDBRANCH   5  24
TORSDOF 4
ENDMDL
