MODEL 1
REMARK VINA RESULT: -8.038162050      0.000      0.000
REMARK  3 active torsions:
REMARK  status: ('A' for Active; 'I' for Inactive)
REMARK    1  A    between atoms: C4_4  and  O1_5 
REMARK    2  A    between atoms: C5_7  and  O2_8 
REMARK    3  A    between atoms: C7_12  and  O3_14 
ROOT
HETATM    1  C1  UNL     1       0.324  -6.507  44.274  1.00  0.00     0.017 C 
HETATM    2  C2  UNL     1       0.507  -6.794  43.005  1.00  0.00    -0.048 C 
HETATM    3  C3  UNL     1       0.489  -5.571  42.150  1.00  0.00     0.072 C 
HETATM    4  C4  UNL     1       1.855  -5.546  41.481  1.00  0.00     0.170 C 
HETATM    5  C5  UNL     1       1.673  -6.281  40.177  1.00  0.00     0.245 C 
HETATM    6  N1  UNL     1       1.596  -7.669  40.265  1.00  0.00    -0.375 N 
HETATM    7  C6  UNL     1       2.256  -8.403  39.221  1.00  0.00     0.157 C 
HETATM    8  C7  UNL     1       2.103  -9.849  39.616  1.00  0.00     0.072 C 
HETATM    9  C8  UNL     1       3.416 -10.555  39.797  1.00  0.00     0.047 C 
HETATM   10  C9  UNL     1       1.294  -9.807  40.893  1.00  0.00     0.067 C 
HETATM   11  C10 UNL     1       1.629  -8.392  41.412  1.00  0.00     0.126 C 
HETATM   12  C11 UNL     1       0.691  -8.180  42.553  1.00  0.00     0.129 C 
HETATM   13  C12 UNL     1       1.261  -8.977  43.720  1.00  0.00     0.216 C 
HETATM   14  O4  UNL     1       0.180  -9.558  44.323  1.00  0.00    -0.352 OA
HETATM   15  C13 UNL     1      -0.839  -9.588  43.423  1.00  0.00     0.158 C 
HETATM   16  C14 UNL     1      -2.101  -9.071  44.117  1.00  0.00     0.078 C 
HETATM   17  C15 UNL     1      -1.140 -11.048  43.098  1.00  0.00     0.078 C 
HETATM   18  O5  UNL     1      -0.533  -8.825  42.339  1.00  0.00    -0.336 OA
ENDROOT
BRANCH   4  19
HETATM   19  O1  UNL     1       2.290  -4.239  41.290  1.00  0.00    -0.391 OA
ATOM     20  H1  UNL     1       3.105  -4.221  40.802  1.00  0.00     0.210 HD
ENDBRANCH   4  19
BRANCH   5  21
HETATM   21  O2  UNL     1       0.529  -5.768  39.568  1.00  0.00    -0.374 OA
ATOM     22  H2  UNL     1      -0.190  -5.876  40.180  1.00  0.00     0.212 HD
ENDBRANCH   5  21
BRANCH   8  23
HETATM   23  O3  UNL     1       1.354 -10.560  38.660  1.00  0.00    -0.389 OA
ATOM     24  H3  UNL     1       1.764 -11.391  38.451  1.00  0.00     0.210 HD
ENDBRANCH   8  23
TORSDOF 3
ENDMDL
MODEL 2
REMARK VINA RESULT: -8.019171499      1.719      4.304
REMARK  3 active torsions:
REMARK  status: ('A' for Active; 'I' for Inactive)
REMARK    1  A    between atoms: C4_4  and  O1_5 
REMARK    2  A    between atoms: C5_7  and  O2_8 
REMARK    3  A    between atoms: C7_12  and  O3_14 
ROOT
HETATM    1  C1  UNL     1       2.551  -9.059  39.419  1.00  0.00     0.017 C 
HETATM    2  C2  UNL     1       2.206  -8.414  40.511  1.00  0.00    -0.048 C 
HETATM    3  C3  UNL     1       2.555  -6.965  40.437  1.00  0.00     0.072 C 
HETATM    4  C4  UNL     1       1.227  -6.239  40.587  1.00  0.00     0.170 C 
HETATM    5  C5  UNL     1       1.082  -5.977  42.065  1.00  0.00     0.245 C 
HETATM    6  N1  UNL     1       0.721  -7.072  42.846  1.00  0.00    -0.375 N 
HETATM    7  C6  UNL     1      -0.203  -6.806  43.913  1.00  0.00     0.157 C 
HETATM    8  C7  UNL     1      -0.491  -8.157  44.514  1.00  0.00     0.072 C 
HETATM    9  C8  UNL     1      -1.946  -8.528  44.468  1.00  0.00     0.047 C 
HETATM   10  C9  UNL     1       0.370  -9.113  43.721  1.00  0.00     0.067 C 
HETATM   11  C10 UNL     1       0.534  -8.337  42.396  1.00  0.00     0.126 C 
HETATM   12  C11 UNL     1       1.563  -9.107  41.636  1.00  0.00     0.129 C 
HETATM   13  C12 UNL     1       0.846 -10.331  41.080  1.00  0.00     0.216 C 
HETATM   14  O4  UNL     1       1.724 -11.367  41.240  1.00  0.00    -0.352 OA
HETATM   15  C13 UNL     1       2.621 -11.016  42.200  1.00  0.00     0.158 C 
HETATM   16  C14 UNL     1       4.024 -11.338  41.681  1.00  0.00     0.078 C 
HETATM   17  C15 UNL     1       2.423 -11.943  43.396  1.00  0.00     0.078 C 
HETATM   18  O5  UNL     1       2.503  -9.692  42.493  1.00  0.00    -0.336 OA
ENDROOT
BRANCH   4  19
HETATM   19  O1  UNL     1       1.217  -5.064  39.843  1.00  0.00    -0.391 OA
ATOM     20  H1  UNL     1       1.808  -4.421  40.217  1.00  0.00     0.210 HD
ENDBRANCH   4  19
BRANCH   5  21
HETATM   21  O2  UNL     1       2.288  -5.438  42.511  1.00  0.00    -0.374 OA
ATOM     22  H2  UNL     1       2.432  -5.759  43.393  1.00  0.00     0.212 HD
ENDBRANCH   5  21
BRANCH   8  23
HETATM   23  O3  UNL     1      -0.069  -8.216  45.856  1.00  0.00    -0.389 OA
ATOM     24  H3  UNL     1      -0.740  -8.599  46.410  1.00  0.00     0.210 HD
ENDBRANCH   8  23
TORSDOF 3
ENDMDL
MODEL 3
REMARK VINA RESULT: -7.959701914      2.786      5.217
REMARK  3 active torsions:
REMARK  status: ('A' for Active; 'I' for Inactive)
REMARK    1  A    between atoms: C4_4  and  O1_5 
REMARK    2  A    between atoms: C5_7  and  O2_8 
REMARK    3  A    between atoms: C7_12  and  O3_14 
ROOT
HETATM    1  C1  UNL     1       0.987  -7.362  42.251  1.00  0.00     0.017 C 
HETATM    2  C2  UNL     1       0.674  -8.159  43.249  1.00  0.00    -0.048 C 
HETATM    3  C3  UNL     1       0.187  -7.399  44.437  1.00  0.00     0.072 C 
HETATM    4  C4  UNL     1      -1.223  -7.915  44.675  1.00  0.00     0.170 C 
HETATM    5  C5  UNL     1      -1.070  -9.054  45.651  1.00  0.00     0.245 C 
HETATM    6  N1  UNL     1      -0.581 -10.248  45.124  1.00  0.00    -0.375 N 
HETATM    7  C6  UNL     1      -1.173 -11.451  45.637  1.00  0.00     0.157 C 
HETATM    8  C7  UNL     1      -0.542 -12.559  44.835  1.00  0.00     0.072 C 
HETATM    9  C8  UNL     1      -1.541 -13.384  44.076  1.00  0.00     0.047 C 
HETATM   10  C9  UNL     1       0.432 -11.853  43.920  1.00  0.00     0.067 C 
HETATM   11  C10 UNL     1      -0.201 -10.447  43.838  1.00  0.00     0.126 C 
HETATM   12  C11 UNL     1       0.822  -9.616  43.137  1.00  0.00     0.129 C 
HETATM   13  C12 UNL     1       0.722  -9.983  41.662  1.00  0.00     0.216 C 
HETATM   14  O4  UNL     1       2.013 -10.047  41.217  1.00  0.00    -0.352 OA
HETATM   15  C13 UNL     1       2.822 -10.225  42.295  1.00  0.00     0.158 C 
HETATM   16  C14 UNL     1       3.982  -9.234  42.188  1.00  0.00     0.078 C 
HETATM   17  C15 UNL     1       3.470 -11.602  42.178  1.00  0.00     0.078 C 
HETATM   18  O5  UNL     1       2.122 -10.033  43.446  1.00  0.00    -0.336 OA
ENDROOT
BRANCH   4  19
HETATM   19  O1  UNL     1      -2.044  -6.908  45.170  1.00  0.00    -0.391 OA
ATOM     20  H1  UNL     1      -2.357  -6.349  44.467  1.00  0.00     0.210 HD
ENDBRANCH   4  19
BRANCH   5  21
HETATM   21  O2  UNL     1      -0.249  -8.607  46.685  1.00  0.00    -0.374 OA
ATOM     22  H2  UNL     1      -0.701  -8.785  47.502  1.00  0.00     0.212 HD
ENDBRANCH   5  21
BRANCH   8  23
HETATM   23  O3  UNL     1       0.200 -13.425  45.661  1.00  0.00    -0.389 OA
ATOM     24  H3  UNL     1       0.835 -13.919  45.156  1.00  0.00     0.210 HD
ENDBRANCH   8  23
TORSDOF 3
ENDMDL
MODEL 4
REMARK VINA RESULT: -7.875550251      2.831      5.718
REMARK  3 active torsions:
REMARK  status: ('A' for Active; 'I' for Inactive)
REMARK    1  A    between atoms: C4_4  and  O1_5 
REMARK    2  A    between atoms: C5_7  and  O2_8 
REMARK    3  A    between atoms: C7_12  and  O3_14 
ROOT
HETATM    1  C1  UNL     1       4.144  -9.180  41.866  1.00  0.00     0.017 C 
HETATM    2  C2  UNL     1       3.078  -9.792  42.332  1.00  0.00    -0.048 C 
HETATM    3  C3  UNL     1       2.803 -11.064  41.603  1.00  0.00     0.072 C 
HETATM    4  C4  UNL     1       2.868 -12.145  42.671  1.00  0.00     0.170 C 
HETATM    5  C5  UNL     1       1.452 -12.297  43.169  1.00  0.00     0.245 C 
HETATM    6  N1  UNL     1       0.995 -11.295  44.023  1.00  0.00    -0.375 N 
HETATM    7  C6  UNL     1       0.167 -11.729  45.114  1.00  0.00     0.157 C 
HETATM    8  C7  UNL     1      -0.091 -10.480  45.916  1.00  0.00     0.072 C 
HETATM    9  C8  UNL     1       0.387 -10.579  47.336  1.00  0.00     0.047 C 
HETATM   10  C9  UNL     1       0.615  -9.386  45.148  1.00  0.00     0.067 C 
HETATM   11  C10 UNL     1       1.695 -10.197  44.400  1.00  0.00     0.126 C 
HETATM   12  C11 UNL     1       2.294  -9.225  43.438  1.00  0.00     0.129 C 
HETATM   13  C12 UNL     1       3.222  -8.339  44.260  1.00  0.00     0.216 C 
HETATM   14  O4  UNL     1       3.031  -7.073  43.778  1.00  0.00    -0.352 OA
HETATM   15  C13 UNL     1       1.829  -7.040  43.143  1.00  0.00     0.158 C 
HETATM   16  C14 UNL     1       2.026  -6.354  41.790  1.00  0.00     0.078 C 
HETATM   17  C15 UNL     1       0.907  -6.108  43.925  1.00  0.00     0.078 C 
HETATM   18  O5  UNL     1       1.345  -8.301  42.984  1.00  0.00    -0.336 OA
ENDROOT
BRANCH   4  19
HETATM   19  O1  UNL     1       3.369 -13.331  42.148  1.00  0.00    -0.391 OA
ATOM     20  H1  UNL     1       2.692 -13.811  41.685  1.00  0.00     0.210 HD
ENDBRANCH   4  19
BRANCH   5  21
HETATM   21  O2  UNL     1       0.627 -12.395  42.050  1.00  0.00    -0.374 OA
ATOM     22  H2  UNL     1       0.186 -11.560  41.950  1.00  0.00     0.212 HD
ENDBRANCH   5  21
BRANCH   8  23
HETATM   23  O3  UNL     1      -1.464 -10.167  45.939  1.00  0.00    -0.389 OA
ATOM     24  H3  UNL     1      -1.735  -9.880  46.803  1.00  0.00     0.210 HD
ENDBRANCH   8  23
TORSDOF 3
ENDMDL
MODEL 5
REMARK VINA RESULT: -7.857885978      2.039      5.229
REMARK  3 active torsions:
REMARK  status: ('A' for Active; 'I' for Inactive)
REMARK    1  A    between atoms: C4_4  and  O1_5 
REMARK    2  A    between atoms: C5_7  and  O2_8 
REMARK    3  A    between atoms: C7_12  and  O3_14 
ROOT
HETATM    1  C1  UNL     1       3.417  -8.243  40.991  1.00  0.00     0.017 C 
HETATM    2  C2  UNL     1       2.340  -8.847  41.439  1.00  0.00    -0.048 C 
HETATM    3  C3  UNL     1       2.202 -10.225  40.884  1.00  0.00     0.072 C 
HETATM    4  C4  UNL     1       2.208 -11.136  42.102  1.00  0.00     0.170 C 
HETATM    5  C5  UNL     1       0.758 -11.303  42.480  1.00  0.00     0.245 C 
HETATM    6  N1  UNL     1       0.168 -10.220  43.129  1.00  0.00    -0.375 N 
HETATM    7  C6  UNL     1      -0.746 -10.544  44.189  1.00  0.00     0.157 C 
HETATM    8  C7  UNL     1      -1.145  -9.212  44.769  1.00  0.00     0.072 C 
HETATM    9  C8  UNL     1      -0.811  -9.077  46.227  1.00  0.00     0.047 C 
HETATM   10  C9  UNL     1      -0.416  -8.197  43.917  1.00  0.00     0.067 C 
HETATM   11  C10 UNL     1       0.773  -9.038  43.404  1.00  0.00     0.126 C 
HETATM   12  C11 UNL     1       1.420  -8.178  42.370  1.00  0.00     0.129 C 
HETATM   13  C12 UNL     1       2.215  -7.128  43.135  1.00  0.00     0.216 C 
HETATM   14  O4  UNL     1       2.015  -5.958  42.455  1.00  0.00    -0.352 OA
HETATM   15  C13 UNL     1       0.885  -6.090  41.711  1.00  0.00     0.158 C 
HETATM   16  C14 UNL     1       1.186  -5.594  40.296  1.00  0.00     0.078 C 
HETATM   17  C15 UNL     1      -0.156  -5.116  42.255  1.00  0.00     0.078 C 
HETATM   18  O5  UNL     1       0.480  -7.389  41.696  1.00  0.00    -0.336 OA
ENDROOT
BRANCH   4  19
HETATM   19  O1  UNL     1       2.817 -12.352  41.810  1.00  0.00    -0.391 OA
ATOM     20  H1  UNL     1       3.695 -12.219  41.473  1.00  0.00     0.210 HD
ENDBRANCH   4  19
BRANCH   5  21
HETATM   21  O2  UNL     1       0.058 -11.611  41.315  1.00  0.00    -0.374 OA
ATOM     22  H2  UNL     1       0.018 -10.820  40.791  1.00  0.00     0.212 HD
ENDBRANCH   5  21
BRANCH   8  23
HETATM   23  O3  UNL     1      -2.526  -8.985  44.615  1.00  0.00    -0.389 OA
ATOM     24  H3  UNL     1      -2.909  -8.647  45.416  1.00  0.00     0.210 HD
ENDBRANCH   8  23
TORSDOF 3
ENDMDL
