MODEL 1
REMARK VINA RESULT: -8.011925390      0.000      0.000
REMARK  6 active torsions:
REMARK  status: ('A' for Active; 'I' for Inactive)
REMARK    1  A    between atoms: C2_2  and  O2_4 
REMARK    2  A    between atoms: O2_4  and  C3_5 
REMARK    3  A    between atoms: C10_12  and  O3_13 
REMARK    4  A    between atoms: C12_16  and  O4_17 
REMARK    5  A    between atoms: C13_19  and  C14_20 
REMARK    6  A    between atoms: C14_20  and  O5_21 
ROOT
HETATM    1  C3  UNL     1       2.582  -9.789  42.549  1.00  0.00     0.156 C 
HETATM    2  C4  UNL     1       2.406 -10.602  43.831  1.00  0.00     0.039 C 
HETATM    3  C5  UNL     1       1.013 -11.134  43.887  1.00  0.00     0.036 C 
HETATM    4  C6  UNL     1       0.504 -11.397  45.260  1.00  0.00    -0.087 C 
HETATM    5  C7  UNL     1       0.597 -12.833  45.725  1.00  0.00     0.043 C 
HETATM    6  C8  UNL     1       0.001 -10.519  46.075  1.00  0.00    -0.022 C 
HETATM    7  C9  UNL     1      -0.165  -9.057  45.778  1.00  0.00     0.059 C 
HETATM    8  C10 UNL     1      -1.327  -8.733  44.934  1.00  0.00     0.124 C 
HETATM    9  C11 UNL     1      -1.146  -7.725  43.867  1.00  0.00     0.066 C 
HETATM   10  C12 UNL     1      -0.235  -6.593  44.147  1.00  0.00     0.151 C 
HETATM   11  C13 UNL     1       1.045  -6.612  43.341  1.00  0.00     0.173 C 
HETATM   12  O6  UNL     1       1.200  -7.851  42.680  1.00  0.00    -0.379 OA
HETATM   13  C15 UNL     1       2.509  -8.310  42.792  1.00  0.00     0.200 C 
ENDROOT
BRANCH   1  14
HETATM   14  O2  UNL     1       3.775 -10.175  41.905  1.00  0.00    -0.314 OA
BRANCH  14  15
HETATM   15  C2  UNL     1       3.847 -11.283  41.076  1.00  0.00     0.255 C 
HETATM   16  C1  UNL     1       4.641 -12.458  41.488  1.00  0.00     0.126 C 
HETATM   17  O1  UNL     1       3.222 -11.239  39.987  1.00  0.00    -0.266 OA
ENDBRANCH  14  15
ENDBRANCH   1  14
BRANCH  11  18
HETATM   18  C14 UNL     1       1.010  -5.577  42.206  1.00  0.00     0.198 C 
BRANCH  18  19
HETATM   19  O5  UNL     1       0.455  -4.386  42.606  1.00  0.00    -0.398 OA
ATOM     20  H5  UNL     1       0.993  -3.936  43.247  1.00  0.00     0.209 HD
ENDBRANCH  18  19
ENDBRANCH  11  18
BRANCH  10  21
HETATM   21  O4  UNL     1       0.018  -6.396  45.508  1.00  0.00    -0.393 OA
ATOM     22  H4  UNL     1       0.760  -6.890  45.834  1.00  0.00     0.210 HD
ENDBRANCH  10  21
BRANCH   8  23
HETATM   23  O3  UNL     1      -2.452  -8.346  45.703  1.00  0.00    -0.395 OA
ATOM     24  H3  UNL     1      -2.520  -7.402  45.785  1.00  0.00     0.210 HD
ENDBRANCH   8  23
TORSDOF 6
ENDMDL
MODEL 2
REMARK VINA RESULT: -7.976821010      0.780      1.021
REMARK  6 active torsions:
REMARK  status: ('A' for Active; 'I' for Inactive)
REMARK    1  A    between atoms: C2_2  and  O2_4 
REMARK    2  A    between atoms: O2_4  and  C3_5 
REMARK    3  A    between atoms: C10_12  and  O3_13 
REMARK    4  A    between atoms: C12_16  and  O4_17 
REMARK    5  A    between atoms: C13_19  and  C14_20 
REMARK    6  A    between atoms: C14_20  and  O5_21 
ROOT
HETATM    1  C3  UNL     1       2.352  -9.678  42.077  1.00  0.00     0.156 C 
HETATM    2  C4  UNL     1       2.350 -10.544  43.336  1.00  0.00     0.039 C 
HETATM    3  C5  UNL     1       0.990 -11.125  43.530  1.00  0.00     0.036 C 
HETATM    4  C6  UNL     1       0.652 -11.456  44.939  1.00  0.00    -0.087 C 
HETATM    5  C7  UNL     1       0.840 -12.905  45.331  1.00  0.00     0.043 C 
HETATM    6  C8  UNL     1       0.220 -10.627  45.843  1.00  0.00    -0.022 C 
HETATM    7  C9  UNL     1      -0.022  -9.162  45.628  1.00  0.00     0.059 C 
HETATM    8  C10 UNL     1      -1.283  -8.845  44.937  1.00  0.00     0.124 C 
HETATM    9  C11 UNL     1      -1.256  -7.793  43.899  1.00  0.00     0.066 C 
HETATM   10  C12 UNL     1      -0.353  -6.641  44.120  1.00  0.00     0.151 C 
HETATM   11  C13 UNL     1       0.825  -6.587  43.172  1.00  0.00     0.173 C 
HETATM   12  O6  UNL     1       0.939  -7.794  42.446  1.00  0.00    -0.379 OA
HETATM   13  C15 UNL     1       2.264  -8.212  42.388  1.00  0.00     0.200 C 
ENDROOT
BRANCH   1  14
HETATM   14  O2  UNL     1       3.474  -9.998  41.286  1.00  0.00    -0.314 OA
BRANCH  14  15
HETATM   15  C2  UNL     1       3.358 -10.593  40.040  1.00  0.00     0.255 C 
HETATM   16  C1  UNL     1       2.689  -9.870  38.940  1.00  0.00     0.126 C 
HETATM   17  O1  UNL     1       3.839 -11.746  39.895  1.00  0.00    -0.266 OA
ENDBRANCH  14  15
ENDBRANCH   1  14
BRANCH  11  18
HETATM   18  C14 UNL     1       0.628  -5.511  42.093  1.00  0.00     0.198 C 
BRANCH  18  19
HETATM   19  O5  UNL     1       0.413  -4.267  42.632  1.00  0.00    -0.398 OA
ATOM     20  H5  UNL     1       1.167  -3.948  43.113  1.00  0.00     0.209 HD
ENDBRANCH  18  19
ENDBRANCH  11  18
BRANCH  10  21
HETATM   21  O4  UNL     1       0.050  -6.488  45.449  1.00  0.00    -0.393 OA
ATOM     22  H4  UNL     1       0.232  -5.588  45.692  1.00  0.00     0.210 HD
ENDBRANCH  10  21
BRANCH   8  23
HETATM   23  O3  UNL     1      -2.322  -8.527  45.845  1.00  0.00    -0.395 OA
ATOM     24  H3  UNL     1      -2.078  -8.712  46.745  1.00  0.00     0.210 HD
ENDBRANCH   8  23
TORSDOF 6
ENDMDL
MODEL 3
REMARK VINA RESULT: -7.625377097      2.253      2.763
REMARK  6 active torsions:
REMARK  status: ('A' for Active; 'I' for Inactive)
REMARK    1  A    between atoms: C2_2  and  O2_4 
REMARK    2  A    between atoms: O2_4  and  C3_5 
REMARK    3  A    between atoms: C10_12  and  O3_13 
REMARK    4  A    between atoms: C12_16  and  O4_17 
REMARK    5  A    between atoms: C13_19  and  C14_20 
REMARK    6  A    between atoms: C14_20  and  O5_21 
ROOT
HETATM    1  C3  UNL     1       2.358  -9.210  40.138  1.00  0.00     0.156 C 
HETATM    2  C4  UNL     1       2.788 -10.231  41.191  1.00  0.00     0.039 C 
HETATM    3  C5  UNL     1       1.586 -10.704  41.936  1.00  0.00     0.036 C 
HETATM    4  C6  UNL     1       1.861 -11.186  43.315  1.00  0.00    -0.087 C 
HETATM    5  C7  UNL     1       1.996 -12.685  43.466  1.00  0.00     0.043 C 
HETATM    6  C8  UNL     1       1.995 -10.448  44.377  1.00  0.00    -0.022 C 
HETATM    7  C9  UNL     1       1.893  -8.951  44.408  1.00  0.00     0.059 C 
HETATM    8  C10 UNL     1       0.515  -8.431  44.391  1.00  0.00     0.124 C 
HETATM    9  C11 UNL     1       0.231  -7.258  43.538  1.00  0.00     0.066 C 
HETATM   10  C12 UNL     1       1.291  -6.234  43.412  1.00  0.00     0.151 C 
HETATM   11  C13 UNL     1       1.925  -6.163  42.040  1.00  0.00     0.173 C 
HETATM   12  O6  UNL     1       1.535  -7.269  41.252  1.00  0.00    -0.379 OA
HETATM   13  C15 UNL     1       2.625  -7.796  40.566  1.00  0.00     0.200 C 
ENDROOT
BRANCH   1  14
HETATM   14  O2  UNL     1       2.957  -9.525  38.902  1.00  0.00    -0.314 OA
BRANCH  14  15
HETATM   15  C2  UNL     1       2.234  -9.603  37.724  1.00  0.00     0.255 C 
HETATM   16  C1  UNL     1       2.703  -8.881  36.524  1.00  0.00     0.126 C 
HETATM   17  O1  UNL     1       1.187 -10.300  37.725  1.00  0.00    -0.266 OA
ENDBRANCH  14  15
ENDBRANCH   1  14
BRANCH  11  18
HETATM   18  C14 UNL     1       1.427  -4.941  41.253  1.00  0.00     0.198 C 
BRANCH  18  19
HETATM   19  O5  UNL     1       2.308  -3.889  41.314  1.00  0.00    -0.398 OA
ATOM     20  H5  UNL     1       2.688  -3.690  40.467  1.00  0.00     0.209 HD
ENDBRANCH  18  19
ENDBRANCH  11  18
BRANCH  10  21
HETATM   21  O4  UNL     1       2.256  -6.295  44.421  1.00  0.00    -0.393 OA
ATOM     22  H4  UNL     1       3.031  -6.789  44.180  1.00  0.00     0.210 HD
ENDBRANCH  10  21
BRANCH   8  23
HETATM   23  O3  UNL     1       0.040  -8.141  45.693  1.00  0.00    -0.395 OA
ATOM     24  H3  UNL     1      -0.118  -7.213  45.816  1.00  0.00     0.210 HD
ENDBRANCH   8  23
TORSDOF 6
ENDMDL
MODEL 4
REMARK VINA RESULT: -7.605505182      2.446      4.866
REMARK  6 active torsions:
REMARK  status: ('A' for Active; 'I' for Inactive)
REMARK    1  A    between atoms: C2_2  and  O2_4 
REMARK    2  A    between atoms: O2_4  and  C3_5 
REMARK    3  A    between atoms: C10_12  and  O3_13 
REMARK    4  A    between atoms: C12_16  and  O4_17 
REMARK    5  A    between atoms: C13_19  and  C14_20 
REMARK    6  A    between atoms: C14_20  and  O5_21 
ROOT
HETATM    1  C3  UNL     1       0.873 -10.433  41.923  1.00  0.00     0.156 C 
HETATM    2  C4  UNL     1       0.918 -10.162  40.419  1.00  0.00     0.039 C 
HETATM    3  C5  UNL     1       2.116  -9.330  40.107  1.00  0.00     0.036 C 
HETATM    4  C6  UNL     1       1.990  -8.497  38.881  1.00  0.00    -0.087 C 
HETATM    5  C7  UNL     1       2.618  -9.076  37.633  1.00  0.00     0.043 C 
HETATM    6  C8  UNL     1       1.400  -7.342  38.792  1.00  0.00    -0.022 C 
HETATM    7  C9  UNL     1       0.727  -6.625  39.925  1.00  0.00     0.059 C 
HETATM    8  C10 UNL     1       1.647  -5.926  40.839  1.00  0.00     0.124 C 
HETATM    9  C11 UNL     1       1.380  -6.017  42.290  1.00  0.00     0.066 C 
HETATM   10  C12 UNL     1      -0.035  -6.046  42.722  1.00  0.00     0.151 C 
HETATM   11  C13 UNL     1      -0.482  -7.373  43.296  1.00  0.00     0.173 C 
HETATM   12  O6  UNL     1       0.489  -8.372  43.057  1.00  0.00    -0.379 OA
HETATM   13  C15 UNL     1      -0.112  -9.554  42.636  1.00  0.00     0.200 C 
ENDROOT
BRANCH   1  14
HETATM   14  O2  UNL     1       0.638 -11.805  42.148  1.00  0.00    -0.314 OA
BRANCH  14  15
HETATM   15  C2  UNL     1       1.454 -12.574  42.960  1.00  0.00     0.255 C 
HETATM   16  C1  UNL     1       1.201 -12.629  44.414  1.00  0.00     0.126 C 
HETATM   17  O1  UNL     1       2.393 -13.207  42.415  1.00  0.00    -0.266 OA
ENDBRANCH  14  15
ENDBRANCH   1  14
BRANCH  11  18
HETATM   18  C14 UNL     1      -0.596  -7.312  44.827  1.00  0.00     0.198 C 
BRANCH  18  19
HETATM   19  O5  UNL     1      -1.815  -6.833  45.238  1.00  0.00    -0.398 OA
ATOM     20  H5  UNL     1      -1.765  -6.401  46.083  1.00  0.00     0.209 HD
ENDBRANCH  18  19
ENDBRANCH  11  18
BRANCH  10  21
HETATM   21  O4  UNL     1      -0.929  -5.578  41.756  1.00  0.00    -0.393 OA
ATOM     22  H4  UNL     1      -0.966  -4.631  41.695  1.00  0.00     0.210 HD
ENDBRANCH  10  21
BRANCH   8  23
HETATM   23  O3  UNL     1       1.781  -4.555  40.511  1.00  0.00    -0.395 OA
ATOM     24  H3  UNL     1       2.640  -4.217  40.736  1.00  0.00     0.210 HD
ENDBRANCH   8  23
TORSDOF 6
ENDMDL
MODEL 5
REMARK VINA RESULT: -7.604314604      1.727      1.948
REMARK  6 active torsions:
REMARK  status: ('A' for Active; 'I' for Inactive)
REMARK    1  A    between atoms: C2_2  and  O2_4 
REMARK    2  A    between atoms: O2_4  and  C3_5 
REMARK    3  A    between atoms: C10_12  and  O3_13 
REMARK    4  A    between atoms: C12_16  and  O4_17 
REMARK    5  A    between atoms: C13_19  and  C14_20 
REMARK    6  A    between atoms: C14_20  and  O5_21 
ROOT
HETATM    1  C3  UNL     1       1.114 -10.054  41.343  1.00  0.00     0.156 C 
HETATM    2  C4  UNL     1       1.584 -10.879  42.541  1.00  0.00     0.039 C 
HETATM    3  C5  UNL     1       0.397 -11.462  43.231  1.00  0.00     0.036 C 
HETATM    4  C6  UNL     1       0.598 -11.750  44.676  1.00  0.00    -0.087 C 
HETATM    5  C7  UNL     1       0.942 -13.185  45.012  1.00  0.00     0.043 C 
HETATM    6  C8  UNL     1       0.510 -10.896  45.652  1.00  0.00    -0.022 C 
HETATM    7  C9  UNL     1       0.180  -9.440  45.499  1.00  0.00     0.059 C 
HETATM    8  C10 UNL     1      -1.251  -9.154  45.303  1.00  0.00     0.124 C 
HETATM    9  C11 UNL     1      -1.621  -8.135  44.298  1.00  0.00     0.066 C 
HETATM   10  C12 UNL     1      -0.720  -6.971  44.144  1.00  0.00     0.151 C 
HETATM   11  C13 UNL     1       0.034  -6.939  42.833  1.00  0.00     0.173 C 
HETATM   12  O6  UNL     1      -0.102  -8.168  42.149  1.00  0.00    -0.379 OA
HETATM   13  C15 UNL     1       1.119  -8.580  41.625  1.00  0.00     0.200 C 
ENDROOT
BRANCH   1  14
HETATM   14  O2  UNL     1       1.878 -10.392  40.208  1.00  0.00    -0.314 OA
BRANCH  14  15
HETATM   15  C2  UNL     1       1.424 -10.179  38.917  1.00  0.00     0.255 C 
HETATM   16  C1  UNL     1       2.012  -9.097  38.101  1.00  0.00     0.126 C 
HETATM   17  O1  UNL     1       0.514 -10.931  38.485  1.00  0.00    -0.266 OA
ENDBRANCH  14  15
ENDBRANCH   1  14
BRANCH  11  18
HETATM   18  C14 UNL     1      -0.560  -5.900  41.869  1.00  0.00     0.198 C 
BRANCH  18  19
HETATM   19  O5  UNL     1      -0.252  -4.614  42.238  1.00  0.00    -0.398 OA
ATOM     20  H5  UNL     1      -0.966  -4.192  42.702  1.00  0.00     0.209 HD
ENDBRANCH  18  19
ENDBRANCH  11  18
BRANCH  10  21
HETATM   21  O4  UNL     1       0.135  -6.772  45.232  1.00  0.00    -0.393 OA
ATOM     22  H4  UNL     1       1.016  -7.099  45.091  1.00  0.00     0.210 HD
ENDBRANCH  10  21
BRANCH   8  23
HETATM   23  O3  UNL     1      -1.896  -8.813  46.518  1.00  0.00    -0.395 OA
ATOM     24  H3  UNL     1      -2.532  -9.468  46.780  1.00  0.00     0.210 HD
ENDBRANCH   8  23
TORSDOF 6
ENDMDL
