MODEL 1
REMARK VINA RESULT: -7.579153729      0.000      0.000
REMARK  4 active torsions:
REMARK  status: ('A' for Active; 'I' for Inactive)
REMARK    1  A    between atoms: C2_2  and  O2_4 
REMARK    2  A    between atoms: O2_4  and  C3_5 
REMARK    3  A    between atoms: C4_6  and  O3_8 
REMARK    4  A    between atoms: C15_22  and  O5_23 
ROOT
HETATM    1  C3  UNL     1       0.421 -11.265  44.135  1.00  0.00     0.230 C 
HETATM    2  C4  UNL     1       1.236 -11.282  42.877  1.00  0.00     0.188 C 
HETATM    3  C5  UNL     1       2.550 -11.942  43.153  1.00  0.00     0.082 C 
HETATM    4  O4  UNL     1       1.387  -9.954  42.464  1.00  0.00    -0.343 OA
HETATM    5  C6  UNL     1       1.505  -9.247  43.633  1.00  0.00     0.185 C 
HETATM    6  C7  UNL     1       1.340  -7.793  43.549  1.00  0.00     0.121 C 
HETATM    7  N1  UNL     1       1.958  -7.090  42.511  1.00  0.00    -0.389 N 
ATOM      8  H1  UNL     1       2.766  -7.418  41.982  1.00  0.00     0.159 HD
HETATM    9  C8  UNL     1       1.361  -5.975  42.326  1.00  0.00    -0.021 C 
HETATM   10  C9  UNL     1       1.749  -4.977  41.308  1.00  0.00     0.062 C 
HETATM   11  C10 UNL     1       0.214  -5.839  43.280  1.00  0.00     0.062 C 
HETATM   12  C11 UNL     1      -0.092  -7.320  43.436  1.00  0.00    -0.016 C 
HETATM   13  C12 UNL     1      -0.778  -7.764  42.188  1.00  0.00     0.018 C 
HETATM   14  C13 UNL     1      -0.798  -7.706  44.667  1.00  0.00     0.014 C 
HETATM   15  C14 UNL     1      -0.772  -9.220  44.732  1.00  0.00     0.044 C 
HETATM   16  C15 UNL     1       0.562  -9.841  44.645  1.00  0.00     0.117 C 
ENDROOT
BRANCH   1  17
HETATM   17  O2  UNL     1      -0.909 -11.635  43.912  1.00  0.00    -0.308 OA
BRANCH  17  18
HETATM   18  C2  UNL     1      -1.440 -12.841  44.276  1.00  0.00     0.255 C 
HETATM   19  C1  UNL     1      -0.820 -13.618  45.406  1.00  0.00     0.126 C 
HETATM   20  O1  UNL     1      -2.445 -13.293  43.663  1.00  0.00    -0.266 OA
ENDBRANCH  17  18
ENDBRANCH   1  17
BRANCH   2  21
HETATM   21  O3  UNL     1       0.552 -12.029  41.930  1.00  0.00    -0.363 OA
ATOM     22  H3  UNL     1       0.233 -12.819  42.352  1.00  0.00     0.213 HD
ENDBRANCH   2  21
BRANCH  16  23
HETATM   23  O5  UNL     1       1.154  -9.832  45.918  1.00  0.00    -0.384 OA
ATOM     24  H5  UNL     1       1.298 -10.719  46.223  1.00  0.00     0.210 HD
ENDBRANCH  16  23
TORSDOF 4
ENDMDL
MODEL 2
REMARK VINA RESULT: -7.565090789      2.726      5.474
REMARK  4 active torsions:
REMARK  status: ('A' for Active; 'I' for Inactive)
REMARK    1  A    between atoms: C2_2  and  O2_4 
REMARK    2  A    between atoms: O2_4  and  C3_5 
REMARK    3  A    between atoms: C4_6  and  O3_8 
REMARK    4  A    between atoms: C15_22  and  O5_23 
ROOT
HETATM    1  C3  UNL     1       1.459  -7.429  41.332  1.00  0.00     0.230 C 
HETATM    2  C4  UNL     1       0.289  -6.766  41.994  1.00  0.00     0.188 C 
HETATM    3  C5  UNL     1       0.636  -5.341  42.291  1.00  0.00     0.082 C 
HETATM    4  O4  UNL     1       0.002  -7.494  43.153  1.00  0.00    -0.343 OA
HETATM    5  C6  UNL     1       1.232  -7.883  43.621  1.00  0.00     0.185 C 
HETATM    6  C7  UNL     1       1.252  -8.942  44.635  1.00  0.00     0.121 C 
HETATM    7  N1  UNL     1       0.340  -8.897  45.694  1.00  0.00    -0.389 N 
ATOM      8  H1  UNL     1      -0.135  -8.056  46.023  1.00  0.00     0.159 HD
HETATM    9  C8  UNL     1       0.189 -10.066  46.188  1.00  0.00    -0.021 C 
HETATM   10  C9  UNL     1      -0.701 -10.388  47.322  1.00  0.00     0.062 C 
HETATM   11  C10 UNL     1       1.036 -11.053  45.443  1.00  0.00     0.062 C 
HETATM   12  C11 UNL     1       1.040 -10.340  44.101  1.00  0.00    -0.016 C 
HETATM   13  C12 UNL     1      -0.301 -10.553  43.482  1.00  0.00     0.018 C 
HETATM   14  C13 UNL     1       2.161 -10.660  43.204  1.00  0.00     0.014 C 
HETATM   15  C14 UNL     1       2.104  -9.669  42.058  1.00  0.00     0.044 C 
HETATM   16  C15 UNL     1       2.095  -8.246  42.444  1.00  0.00     0.117 C 
ENDROOT
BRANCH   1  17
HETATM   17  O2  UNL     1       1.080  -8.205  40.234  1.00  0.00    -0.308 OA
BRANCH  17  18
HETATM   18  C2  UNL     1       1.591  -8.054  38.974  1.00  0.00     0.255 C 
HETATM   19  C1  UNL     1       1.726  -9.254  38.076  1.00  0.00     0.126 C 
HETATM   20  O1  UNL     1       1.947  -6.911  38.576  1.00  0.00    -0.266 OA
ENDBRANCH  17  18
ENDBRANCH   1  17
BRANCH   2  21
HETATM   21  O3  UNL     1      -0.777  -6.791  41.108  1.00  0.00    -0.363 OA
ATOM     22  H3  UNL     1      -1.288  -6.000  41.239  1.00  0.00     0.213 HD
ENDBRANCH   2  21
BRANCH  16  23
HETATM   23  O5  UNL     1       3.416  -7.826  42.668  1.00  0.00    -0.384 OA
ATOM     24  H5  UNL     1       3.507  -7.471  43.544  1.00  0.00     0.210 HD
ENDBRANCH  16  23
TORSDOF 4
ENDMDL
MODEL 3
REMARK VINA RESULT: -7.564310490      1.356      1.395
REMARK  4 active torsions:
REMARK  status: ('A' for Active; 'I' for Inactive)
REMARK    1  A    between atoms: C2_2  and  O2_4 
REMARK    2  A    between atoms: O2_4  and  C3_5 
REMARK    3  A    between atoms: C4_6  and  O3_8 
REMARK    4  A    between atoms: C15_22  and  O5_23 
ROOT
HETATM    1  C3  UNL     1       0.606 -11.338  44.693  1.00  0.00     0.230 C 
HETATM    2  C4  UNL     1       0.934 -11.806  43.307  1.00  0.00     0.188 C 
HETATM    3  C5  UNL     1       2.313 -12.387  43.300  1.00  0.00     0.082 C 
HETATM    4  O4  UNL     1       0.822 -10.699  42.459  1.00  0.00    -0.343 OA
HETATM    5  C6  UNL     1       1.277  -9.647  43.213  1.00  0.00     0.185 C 
HETATM    6  C7  UNL     1       0.972  -8.300  42.724  1.00  0.00     0.121 C 
HETATM    7  N1  UNL     1       1.134  -8.008  41.366  1.00  0.00    -0.389 N 
ATOM      8  H1  UNL     1       1.732  -8.525  40.723  1.00  0.00     0.159 HD
HETATM    9  C8  UNL     1       0.418  -6.996  41.051  1.00  0.00    -0.021 C 
HETATM   10  C9  UNL     1       0.346  -6.411  39.697  1.00  0.00     0.062 C 
HETATM   11  C10 UNL     1      -0.336  -6.505  42.250  1.00  0.00     0.062 C 
HETATM   12  C11 UNL     1      -0.444  -7.836  42.976  1.00  0.00    -0.016 C 
HETATM   13  C12 UNL     1      -1.479  -8.644  42.269  1.00  0.00     0.018 C 
HETATM   14  C13 UNL     1      -0.647  -7.761  44.431  1.00  0.00     0.014 C 
HETATM   15  C14 UNL     1      -0.474  -9.166  44.972  1.00  0.00     0.044 C 
HETATM   16  C15 UNL     1       0.795  -9.833  44.626  1.00  0.00     0.117 C 
ENDROOT
BRANCH   1  17
HETATM   17  O2  UNL     1      -0.683 -11.709  45.087  1.00  0.00    -0.308 OA
BRANCH  17  18
HETATM   18  C2  UNL     1      -0.951 -12.650  46.043  1.00  0.00     0.255 C 
HETATM   19  C1  UNL     1      -1.161 -12.222  47.470  1.00  0.00     0.126 C 
HETATM   20  O1  UNL     1      -1.021 -13.867  45.721  1.00  0.00    -0.266 OA
ENDBRANCH  17  18
ENDBRANCH   1  17
BRANCH   2  21
HETATM   21  O3  UNL     1       0.030 -12.799  42.961  1.00  0.00    -0.363 OA
ATOM     22  H3  UNL     1       0.520 -13.587  42.758  1.00  0.00     0.213 HD
ENDBRANCH   2  21
BRANCH  16  23
HETATM   23  O5  UNL     1       1.787  -9.422  45.530  1.00  0.00    -0.384 OA
ATOM     24  H5  UNL     1       2.613  -9.847  45.333  1.00  0.00     0.210 HD
ENDBRANCH  16  23
TORSDOF 4
ENDMDL
MODEL 4
REMARK VINA RESULT: -7.549199316      3.599      4.562
REMARK  4 active torsions:
REMARK  status: ('A' for Active; 'I' for Inactive)
REMARK    1  A    between atoms: C2_2  and  O2_4 
REMARK    2  A    between atoms: O2_4  and  C3_5 
REMARK    3  A    between atoms: C4_6  and  O3_8 
REMARK    4  A    between atoms: C15_22  and  O5_23 
ROOT
HETATM    1  C3  UNL     1       0.897  -9.682  42.280  1.00  0.00     0.230 C 
HETATM    2  C4  UNL     1       1.496 -11.039  42.063  1.00  0.00     0.188 C 
HETATM    3  C5  UNL     1       2.342 -11.396  43.245  1.00  0.00     0.082 C 
HETATM    4  O4  UNL     1       2.237 -10.981  40.879  1.00  0.00    -0.343 OA
HETATM    5  C6  UNL     1       2.779  -9.720  40.881  1.00  0.00     0.185 C 
HETATM    6  C7  UNL     1       3.333  -9.235  39.614  1.00  0.00     0.121 C 
HETATM    7  N1  UNL     1       4.128 -10.086  38.840  1.00  0.00    -0.389 N 
ATOM      8  H1  UNL     1       4.629 -10.902  39.193  1.00  0.00     0.159 HD
HETATM    9  C8  UNL     1       4.134  -9.690  37.625  1.00  0.00    -0.021 C 
HETATM   10  C9  UNL     1       4.873 -10.354  36.531  1.00  0.00     0.062 C 
HETATM   11  C10 UNL     1       3.279  -8.468  37.477  1.00  0.00     0.062 C 
HETATM   12  C11 UNL     1       2.307  -8.766  38.607  1.00  0.00    -0.016 C 
HETATM   13  C12 UNL     1       1.392  -9.844  38.131  1.00  0.00     0.018 C 
HETATM   14  C13 UNL     1       1.606  -7.607  39.177  1.00  0.00     0.014 C 
HETATM   15  C14 UNL     1       0.899  -8.091  40.428  1.00  0.00     0.044 C 
HETATM   16  C15 UNL     1       1.753  -8.764  41.424  1.00  0.00     0.117 C 
ENDROOT
BRANCH   1  17
HETATM   17  O2  UNL     1      -0.458  -9.638  41.940  1.00  0.00    -0.308 OA
BRANCH  17  18
HETATM   18  C2  UNL     1      -1.463  -9.370  42.828  1.00  0.00     0.255 C 
HETATM   19  C1  UNL     1      -1.287  -8.272  43.842  1.00  0.00     0.126 C 
HETATM   20  O1  UNL     1      -2.527 -10.045  42.791  1.00  0.00    -0.266 OA
ENDBRANCH  17  18
ENDBRANCH   1  17
BRANCH   2  21
HETATM   21  O3  UNL     1       0.460 -11.956  41.964  1.00  0.00    -0.363 OA
ATOM     22  H3  UNL     1       0.454 -12.481  42.756  1.00  0.00     0.213 HD
ENDBRANCH   2  21
BRANCH  16  23
HETATM   23  O5  UNL     1       2.377  -7.791  42.221  1.00  0.00    -0.384 OA
ATOM     24  H5  UNL     1       2.109  -6.920  41.953  1.00  0.00     0.210 HD
ENDBRANCH  16  23
TORSDOF 4
ENDMDL
MODEL 5
REMARK VINA RESULT: -7.548187048      2.012      3.416
REMARK  4 active torsions:
REMARK  status: ('A' for Active; 'I' for Inactive)
REMARK    1  A    between atoms: C2_2  and  O2_4 
REMARK    2  A    between atoms: O2_4  and  C3_5 
REMARK    3  A    between atoms: C4_6  and  O3_8 
REMARK    4  A    between atoms: C15_22  and  O5_23 
ROOT
HETATM    1  C3  UNL     1      -0.222  -9.979  45.203  1.00  0.00     0.230 C 
HETATM    2  C4  UNL     1      -1.408  -9.251  44.647  1.00  0.00     0.188 C 
HETATM    3  C5  UNL     1      -2.396 -10.249  44.130  1.00  0.00     0.082 C 
HETATM    4  O4  UNL     1      -0.937  -8.402  43.640  1.00  0.00    -0.343 OA
HETATM    5  C6  UNL     1       0.076  -9.110  43.046  1.00  0.00     0.185 C 
HETATM    6  C7  UNL     1       0.989  -8.360  42.177  1.00  0.00     0.121 C 
HETATM    7  N1  UNL     1       0.467  -7.435  41.268  1.00  0.00    -0.389 N 
ATOM      8  H1  UNL     1      -0.489  -7.437  40.913  1.00  0.00     0.159 HD
HETATM    9  C8  UNL     1       1.367  -6.585  40.949  1.00  0.00    -0.021 C 
HETATM   10  C9  UNL     1       1.165  -5.465  40.007  1.00  0.00     0.062 C 
HETATM   11  C10 UNL     1       2.643  -6.888  41.674  1.00  0.00     0.062 C 
HETATM   12  C11 UNL     1       2.025  -7.533  42.904  1.00  0.00    -0.016 C 
HETATM   13  C12 UNL     1       1.448  -6.438  43.736  1.00  0.00     0.018 C 
HETATM   14  C13 UNL     1       2.894  -8.451  43.657  1.00  0.00     0.014 C 
HETATM   15  C14 UNL     1       2.015  -9.158  44.668  1.00  0.00     0.044 C 
HETATM   16  C15 UNL     1       0.833  -9.846  44.118  1.00  0.00     0.117 C 
ENDROOT
BRANCH   1  17
HETATM   17  O2  UNL     1       0.193  -9.459  46.432  1.00  0.00    -0.308 OA
BRANCH  17  18
HETATM   18  C2  UNL     1       0.269 -10.187  47.587  1.00  0.00     0.255 C 
HETATM   19  C1  UNL     1      -0.262 -11.595  47.616  1.00  0.00     0.126 C 
HETATM   20  O1  UNL     1       0.783  -9.674  48.618  1.00  0.00    -0.266 OA
ENDBRANCH  17  18
ENDBRANCH   1  17
BRANCH   2  21
HETATM   21  O3  UNL     1      -1.995  -8.534  45.677  1.00  0.00    -0.363 OA
ATOM     22  H3  UNL     1      -2.363  -9.154  46.296  1.00  0.00     0.213 HD
ENDBRANCH   2  21
BRANCH  16  23
HETATM   23  O5  UNL     1       1.219 -11.113  43.650  1.00  0.00    -0.384 OA
ATOM     24  H5  UNL     1       2.082 -11.072  43.257  1.00  0.00     0.210 HD
ENDBRANCH  16  23
TORSDOF 4
ENDMDL
