MODEL 1
REMARK VINA RESULT: -7.253722041      0.000      0.000
REMARK  3 active torsions:
REMARK  status: ('A' for Active; 'I' for Inactive)
REMARK    1  A    between atoms: C4_4  and  C5_5 
REMARK    2  A    between atoms: C9_11  and  O3_13 
REMARK    3  A    between atoms: C11_15  and  C13_17 
ROOT
HETATM    1  C1  UNL     1      11.190  -9.335  27.201  1.00  0.00     0.011 C 
HETATM    2  C2  UNL     1      10.173 -10.362  26.745  1.00  0.00     0.002 C 
HETATM    3  C3  UNL     1       8.894 -10.193  27.537  1.00  0.00     0.029 C 
HETATM    4  C4  UNL     1       7.724 -10.913  26.976  1.00  0.00     0.079 C 
HETATM    5  C6  UNL     1       7.465 -10.439  25.544  1.00  0.00     0.029 C 
HETATM    6  C7  UNL     1       8.708 -10.998  24.866  1.00  0.00     0.009 C 
HETATM    7  C8  UNL     1       8.699 -12.404  25.421  1.00  0.00     0.044 C 
HETATM    8  C9  UNL     1       7.945 -12.371  26.730  1.00  0.00     0.072 C 
HETATM    9  C10 UNL     1       8.630 -13.097  27.831  1.00  0.00     0.047 C 
HETATM   10  C11 UNL     1       9.925 -10.204  25.261  1.00  0.00     0.052 C 
HETATM   11  C12 UNL     1       9.649  -8.758  24.893  1.00  0.00     0.027 C 
ENDROOT
BRANCH  10  12
HETATM   12  C13 UNL     1      11.122 -10.654  24.536  1.00  0.00     0.182 C 
HETATM   13  O4  UNL     1      11.496 -10.044  23.471  1.00  0.00    -0.647 OA
HETATM   14  O5  UNL     1      11.932 -11.718  24.894  1.00  0.00    -0.647 OA
ENDBRANCH  10  12
BRANCH   4  15
HETATM   15  C5  UNL     1       6.535 -10.655  27.794  1.00  0.00     0.184 C 
HETATM   16  O1  UNL     1       6.543 -10.831  29.030  1.00  0.00    -0.647 OA
HETATM   17  O2  UNL     1       5.377 -10.206  27.186  1.00  0.00    -0.647 OA
ENDBRANCH   4  15
BRANCH   8  18
HETATM   18  O3  UNL     1       6.700 -12.962  26.524  1.00  0.00    -0.389 OA
ATOM     19  H3  UNL     1       6.796 -13.897  26.662  1.00  0.00     0.210 HD
ENDBRANCH   8  18
TORSDOF 3
ENDMDL
MODEL 2
REMARK VINA RESULT: -7.103896845      1.508      4.976
REMARK  3 active torsions:
REMARK  status: ('A' for Active; 'I' for Inactive)
REMARK    1  A    between atoms: C4_4  and  C5_5 
REMARK    2  A    between atoms: C9_11  and  O3_13 
REMARK    3  A    between atoms: C11_15  and  C13_17 
ROOT
HETATM    1  C1  UNL     1       8.663 -12.738  26.380  1.00  0.00     0.011 C 
HETATM    2  C2  UNL     1       9.250 -11.350  26.231  1.00  0.00     0.002 C 
HETATM    3  C3  UNL     1      10.698 -11.456  25.802  1.00  0.00     0.029 C 
HETATM    4  C4  UNL     1      11.289 -10.185  25.315  1.00  0.00     0.079 C 
HETATM    5  C6  UNL     1      10.478  -9.660  24.128  1.00  0.00     0.029 C 
HETATM    6  C7  UNL     1       9.182  -9.309  24.846  1.00  0.00     0.009 C 
HETATM    7  C8  UNL     1       9.736  -8.552  26.032  1.00  0.00     0.044 C 
HETATM    8  C9  UNL     1      11.153  -9.030  26.253  1.00  0.00     0.072 C 
HETATM    9  C10 UNL     1      11.464  -9.335  27.674  1.00  0.00     0.047 C 
HETATM   10  C11 UNL     1       8.437 -10.560  25.227  1.00  0.00     0.052 C 
HETATM   11  C12 UNL     1       8.212 -11.349  23.951  1.00  0.00     0.027 C 
ENDROOT
BRANCH  10  12
HETATM   12  C13 UNL     1       7.130 -10.250  25.825  1.00  0.00     0.182 C 
HETATM   13  O4  UNL     1       6.096 -10.117  25.078  1.00  0.00    -0.647 OA
HETATM   14  O5  UNL     1       6.880 -10.076  27.175  1.00  0.00    -0.647 OA
ENDBRANCH  10  12
BRANCH   4  15
HETATM   15  C5  UNL     1      12.676 -10.406  24.893  1.00  0.00     0.184 C 
HETATM   16  O1  UNL     1      13.503 -10.971  25.638  1.00  0.00    -0.647 OA
HETATM   17  O2  UNL     1      13.081  -9.980  23.641  1.00  0.00    -0.647 OA
ENDBRANCH   4  15
BRANCH   8  18
HETATM   18  O3  UNL     1      12.017  -8.025  25.822  1.00  0.00    -0.389 OA
ATOM     19  H3  UNL     1      12.167  -8.150  24.893  1.00  0.00     0.210 HD
ENDBRANCH   8  18
TORSDOF 3
ENDMDL
MODEL 3
REMARK VINA RESULT: -7.046645062      2.456      5.222
REMARK  3 active torsions:
REMARK  status: ('A' for Active; 'I' for Inactive)
REMARK    1  A    between atoms: C4_4  and  C5_5 
REMARK    2  A    between atoms: C9_11  and  O3_13 
REMARK    3  A    between atoms: C11_15  and  C13_17 
ROOT
HETATM    1  C1  UNL     1      11.013  -9.421  27.468  1.00  0.00     0.011 C 
HETATM    2  C2  UNL     1      11.475 -10.230  26.273  1.00  0.00     0.002 C 
HETATM    3  C3  UNL     1      12.476 -11.272  26.725  1.00  0.00     0.029 C 
HETATM    4  C4  UNL     1      12.761 -12.327  25.721  1.00  0.00     0.079 C 
HETATM    5  C6  UNL     1      11.462 -13.045  25.347  1.00  0.00     0.029 C 
HETATM    6  C7  UNL     1      10.749 -11.912  24.622  1.00  0.00     0.009 C 
HETATM    7  C8  UNL     1      11.866 -11.432  23.724  1.00  0.00     0.044 C 
HETATM    8  C9  UNL     1      13.173 -11.819  24.377  1.00  0.00     0.072 C 
HETATM    9  C10 UNL     1      14.176 -10.723  24.400  1.00  0.00     0.047 C 
HETATM   10  C11 UNL     1      10.279 -10.873  25.604  1.00  0.00     0.052 C 
HETATM   11  C12 UNL     1       9.393 -11.583  26.611  1.00  0.00     0.027 C 
ENDROOT
BRANCH  10  12
HETATM   12  C13 UNL     1       9.492  -9.822  24.943  1.00  0.00     0.182 C 
HETATM   13  O4  UNL     1       8.211  -9.852  24.990  1.00  0.00    -0.647 OA
HETATM   14  O5  UNL     1      10.009  -8.748  24.239  1.00  0.00    -0.647 OA
ENDBRANCH  10  12
BRANCH   4  15
HETATM   15  C5  UNL     1      13.711 -13.300  26.270  1.00  0.00     0.184 C 
HETATM   16  O1  UNL     1      14.821 -12.946  26.719  1.00  0.00    -0.647 OA
HETATM   17  O2  UNL     1      13.373 -14.641  26.293  1.00  0.00    -0.647 OA
ENDBRANCH   4  15
BRANCH   8  18
HETATM   18  O3  UNL     1      13.710 -12.889  23.663  1.00  0.00    -0.389 OA
ATOM     19  H3  UNL     1      13.111 -13.621  23.742  1.00  0.00     0.210 HD
ENDBRANCH   8  18
TORSDOF 3
ENDMDL
MODEL 4
REMARK VINA RESULT: -7.023715038      1.336      2.646
REMARK  3 active torsions:
REMARK  status: ('A' for Active; 'I' for Inactive)
REMARK    1  A    between atoms: C4_4  and  C5_5 
REMARK    2  A    between atoms: C9_11  and  O3_13 
REMARK    3  A    between atoms: C11_15  and  C13_17 
ROOT
HETATM    1  C1  UNL     1      10.869 -12.898  24.357  1.00  0.00     0.011 C 
HETATM    2  C2  UNL     1       9.920 -11.814  24.828  1.00  0.00     0.002 C 
HETATM    3  C3  UNL     1       9.172 -12.295  26.053  1.00  0.00     0.029 C 
HETATM    4  C4  UNL     1       8.457 -11.226  26.794  1.00  0.00     0.079 C 
HETATM    5  C6  UNL     1       9.452 -10.150  27.235  1.00  0.00     0.029 C 
HETATM    6  C7  UNL     1       9.826  -9.582  25.872  1.00  0.00     0.009 C 
HETATM    7  C8  UNL     1       8.449  -9.418  25.270  1.00  0.00     0.044 C 
HETATM    8  C9  UNL     1       7.531 -10.398  25.963  1.00  0.00     0.072 C 
HETATM    9  C10 UNL     1       6.667 -11.168  25.030  1.00  0.00     0.047 C 
HETATM   10  C11 UNL     1      10.700 -10.550  25.121  1.00  0.00     0.052 C 
HETATM   11  C12 UNL     1      11.906 -10.832  25.997  1.00  0.00     0.027 C 
ENDROOT
BRANCH  10  12
HETATM   12  C13 UNL     1      11.165  -9.982  23.847  1.00  0.00     0.182 C 
HETATM   13  O4  UNL     1      12.365  -9.544  23.740  1.00  0.00    -0.647 OA
HETATM   14  O5  UNL     1      10.411  -9.862  22.693  1.00  0.00    -0.647 OA
ENDBRANCH  10  12
BRANCH   4  15
HETATM   15  C5  UNL     1       7.799 -11.790  27.977  1.00  0.00     0.184 C 
HETATM   16  O1  UNL     1       7.726 -13.023  28.159  1.00  0.00    -0.647 OA
HETATM   17  O2  UNL     1       7.245 -10.938  28.917  1.00  0.00    -0.647 OA
ENDBRANCH   4  15
BRANCH   8  18
HETATM   18  O3  UNL     1       6.709  -9.679  26.828  1.00  0.00    -0.389 OA
ATOM     19  H3  UNL     1       5.818  -9.982  26.702  1.00  0.00     0.210 HD
ENDBRANCH   8  18
TORSDOF 3
ENDMDL
MODEL 5
REMARK VINA RESULT: -7.003146001      1.432      2.235
REMARK  3 active torsions:
REMARK  status: ('A' for Active; 'I' for Inactive)
REMARK    1  A    between atoms: C4_4  and  C5_5 
REMARK    2  A    between atoms: C9_11  and  O3_13 
REMARK    3  A    between atoms: C11_15  and  C13_17 
ROOT
HETATM    1  C1  UNL     1      12.017 -11.987  25.290  1.00  0.00     0.011 C 
HETATM    2  C2  UNL     1      10.543 -11.636  25.287  1.00  0.00     0.002 C 
HETATM    3  C3  UNL     1       9.868 -12.277  26.481  1.00  0.00     0.029 C 
HETATM    4  C4  UNL     1       8.509 -11.755  26.771  1.00  0.00     0.079 C 
HETATM    5  C6  UNL     1       8.578 -10.246  27.016  1.00  0.00     0.029 C 
HETATM    6  C7  UNL     1       8.950  -9.782  25.614  1.00  0.00     0.009 C 
HETATM    7  C8  UNL     1       7.949 -10.572  24.803  1.00  0.00     0.044 C 
HETATM    8  C9  UNL     1       7.565 -11.788  25.613  1.00  0.00     0.072 C 
HETATM    9  C10 UNL     1       7.572 -13.052  24.832  1.00  0.00     0.047 C 
HETATM   10  C11 UNL     1      10.381 -10.131  25.308  1.00  0.00     0.052 C 
HETATM   11  C12 UNL     1      11.235  -9.494  26.389  1.00  0.00     0.027 C 
ENDROOT
BRANCH  10  12
HETATM   12  C13 UNL     1      10.799  -9.598  24.003  1.00  0.00     0.182 C 
HETATM   13  O4  UNL     1      11.673  -8.661  23.941  1.00  0.00    -0.647 OA
HETATM   14  O5  UNL     1      10.330 -10.018  22.770  1.00  0.00    -0.647 OA
ENDBRANCH  10  12
BRANCH   4  15
HETATM   15  C5  UNL     1       7.962 -12.414  27.962  1.00  0.00     0.184 C 
HETATM   16  O1  UNL     1       8.325 -13.560  28.299  1.00  0.00    -0.647 OA
HETATM   17  O2  UNL     1       7.023 -11.753  28.733  1.00  0.00    -0.647 OA
ENDBRANCH   4  15
BRANCH   8  18
HETATM   18  O3  UNL     1       6.277 -11.586  26.108  1.00  0.00    -0.389 OA
ATOM     19  H3  UNL     1       6.257 -11.902  27.002  1.00  0.00     0.210 HD
ENDBRANCH   8  18
TORSDOF 3
ENDMDL
