MODEL 1
REMARK VINA RESULT: -7.295849975      0.000      0.000
REMARK  5 active torsions:
REMARK  status: ('A' for Active; 'I' for Inactive)
REMARK    1  A    between atoms: C2_2  and  C3_3 
REMARK    2  A    between atoms: C3_3  and  C4_4 
REMARK    3  A    between atoms: C8_8  and  O1_9 
REMARK    4  A    between atoms: C9_11  and  O2_13 
REMARK    5  A    between atoms: C11_15  and  O3_16 
ROOT
HETATM    1  C4  UNL     1      10.666 -13.061  24.082  1.00  0.00     0.002 C 
HETATM    2  C5  UNL     1      12.030 -12.545  24.343  1.00  0.00    -0.006 C 
HETATM    3  C6  UNL     1      13.033 -12.550  23.245  1.00  0.00     0.011 C 
HETATM    4  C7  UNL     1      11.333 -11.260  24.663  1.00  0.00     0.030 C 
HETATM    5  C8  UNL     1      11.979  -9.967  24.499  1.00  0.00     0.160 C 
HETATM    6  C9  UNL     1      11.207  -8.953  25.363  1.00  0.00     0.106 C 
HETATM    7  C10 UNL     1      11.550  -9.150  26.802  1.00  0.00     0.051 C 
HETATM    8  C11 UNL     1       9.751  -8.966  25.056  1.00  0.00     0.154 C 
HETATM    9  C12 UNL     1       9.004 -10.173  25.463  1.00  0.00     0.035 C 
HETATM   10  C13 UNL     1       8.911 -11.265  24.464  1.00  0.00     0.012 C 
HETATM   11  C14 UNL     1      10.212 -11.642  23.799  1.00  0.00    -0.033 C 
HETATM   12  C15 UNL     1      10.171 -11.376  22.361  1.00  0.00     0.016 C 
ENDROOT
BRANCH   1  13
HETATM   13  C3  UNL     1      10.457 -14.093  23.046  1.00  0.00     0.032 C 
BRANCH  13  14
HETATM   14  C2  UNL     1       9.364 -15.003  23.509  1.00  0.00    -0.036 C 
HETATM   15  C1  UNL     1       8.081 -14.738  23.283  1.00  0.00     0.007 C 
ENDBRANCH  13  14
ENDBRANCH   1  13
BRANCH   5  16
HETATM   16  O1  UNL     1      12.059  -9.423  23.252  1.00  0.00    -0.392 OA
ATOM     17  H1  UNL     1      11.708  -8.552  23.107  1.00  0.00     0.210 HD
ENDBRANCH   5  16
BRANCH   6  18
HETATM   18  O2  UNL     1      11.706  -7.692  24.985  1.00  0.00    -0.385 OA
ATOM     19  H2  UNL     1      10.962  -7.232  24.614  1.00  0.00     0.210 HD
ENDBRANCH   6  18
BRANCH   8  20
HETATM   20  O3  UNL     1       9.186  -7.854  25.707  1.00  0.00    -0.392 OA
ATOM     21  H3  UNL     1       9.139  -7.154  25.066  1.00  0.00     0.210 HD
ENDBRANCH   8  20
TORSDOF 5
ENDMDL
MODEL 2
REMARK VINA RESULT: -7.271918701      0.705      1.040
REMARK  5 active torsions:
REMARK  status: ('A' for Active; 'I' for Inactive)
REMARK    1  A    between atoms: C2_2  and  C3_3 
REMARK    2  A    between atoms: C3_3  and  C4_4 
REMARK    3  A    between atoms: C8_8  and  O1_9 
REMARK    4  A    between atoms: C9_11  and  O2_13 
REMARK    5  A    between atoms: C11_15  and  O3_16 
ROOT
HETATM    1  C4  UNL     1      10.716 -13.050  24.013  1.00  0.00     0.002 C 
HETATM    2  C5  UNL     1      12.075 -12.507  24.242  1.00  0.00    -0.006 C 
HETATM    3  C6  UNL     1      13.045 -12.471  23.114  1.00  0.00     0.011 C 
HETATM    4  C7  UNL     1      11.359 -11.244  24.603  1.00  0.00     0.030 C 
HETATM    5  C8  UNL     1      11.970  -9.934  24.442  1.00  0.00     0.160 C 
HETATM    6  C9  UNL     1      11.201  -8.952  25.345  1.00  0.00     0.106 C 
HETATM    7  C10 UNL     1      11.591  -9.164  26.770  1.00  0.00     0.051 C 
HETATM    8  C11 UNL     1       9.737  -8.993  25.081  1.00  0.00     0.154 C 
HETATM    9  C12 UNL     1       9.030 -10.224  25.490  1.00  0.00     0.035 C 
HETATM   10  C13 UNL     1       8.932 -11.302  24.476  1.00  0.00     0.012 C 
HETATM   11  C14 UNL     1      10.221 -11.638  23.766  1.00  0.00    -0.033 C 
HETATM   12  C15 UNL     1      10.131 -11.350  22.335  1.00  0.00     0.016 C 
ENDROOT
BRANCH   1  13
HETATM   13  C3  UNL     1      10.499 -14.070  22.966  1.00  0.00     0.032 C 
BRANCH  13  14
HETATM   14  C2  UNL     1      10.899 -15.400  23.522  1.00  0.00    -0.036 C 
HETATM   15  C1  UNL     1      11.966 -16.059  23.079  1.00  0.00     0.007 C 
ENDBRANCH  13  14
ENDBRANCH   1  13
BRANCH   5  16
HETATM   16  O1  UNL     1      12.000  -9.368  23.202  1.00  0.00    -0.392 OA
ATOM     17  H1  UNL     1      12.842  -9.158  22.814  1.00  0.00     0.210 HD
ENDBRANCH   5  16
BRANCH   6  18
HETATM   18  O2  UNL     1      11.660  -7.673  24.973  1.00  0.00    -0.385 OA
ATOM     19  H2  UNL     1      10.963  -7.304  24.444  1.00  0.00     0.210 HD
ENDBRANCH   6  18
BRANCH   8  20
HETATM   20  O3  UNL     1       9.167  -7.905  25.766  1.00  0.00    -0.392 OA
ATOM     21  H3  UNL     1       8.226  -7.978  25.665  1.00  0.00     0.210 HD
ENDBRANCH   8  20
TORSDOF 5
ENDMDL
MODEL 3
REMARK VINA RESULT: -7.227336815      2.007      3.474
REMARK  5 active torsions:
REMARK  status: ('A' for Active; 'I' for Inactive)
REMARK    1  A    between atoms: C2_2  and  C3_3 
REMARK    2  A    between atoms: C3_3  and  C4_4 
REMARK    3  A    between atoms: C8_8  and  O1_9 
REMARK    4  A    between atoms: C9_11  and  O2_13 
REMARK    5  A    between atoms: C11_15  and  O3_16 
ROOT
HETATM    1  C4  UNL     1       8.860 -12.105  26.626  1.00  0.00     0.002 C 
HETATM    2  C5  UNL     1       9.566 -12.600  25.421  1.00  0.00    -0.006 C 
HETATM    3  C6  UNL     1       8.778 -12.947  24.208  1.00  0.00     0.011 C 
HETATM    4  C7  UNL     1      10.267 -11.279  25.458  1.00  0.00     0.030 C 
HETATM    5  C8  UNL     1      10.795 -10.649  24.259  1.00  0.00     0.160 C 
HETATM    6  C9  UNL     1      11.849  -9.619  24.704  1.00  0.00     0.106 C 
HETATM    7  C10 UNL     1      13.102 -10.320  25.111  1.00  0.00     0.051 C 
HETATM    8  C11 UNL     1      11.301  -8.674  25.715  1.00  0.00     0.154 C 
HETATM    9  C12 UNL     1      11.006  -9.236  27.048  1.00  0.00     0.035 C 
HETATM   10  C13 UNL     1       9.638  -9.770  27.257  1.00  0.00     0.012 C 
HETATM   11  C14 UNL     1       9.131 -10.685  26.168  1.00  0.00    -0.033 C 
HETATM   12  C15 UNL     1       7.965 -10.113  25.495  1.00  0.00     0.016 C 
ENDROOT
BRANCH   1  13
HETATM   13  C3  UNL     1       7.464 -12.514  26.880  1.00  0.00     0.032 C 
BRANCH  13  14
HETATM   14  C2  UNL     1       7.122 -12.153  28.291  1.00  0.00    -0.036 C 
HETATM   15  C1  UNL     1       6.127 -11.322  28.586  1.00  0.00     0.007 C 
ENDBRANCH  13  14
ENDBRANCH   1  13
BRANCH   5  16
HETATM   16  O1  UNL     1       9.939  -9.986  23.431  1.00  0.00    -0.392 OA
ATOM     17  H1  UNL     1       9.197 -10.454  23.066  1.00  0.00     0.210 HD
ENDBRANCH   5  16
BRANCH   6  18
HETATM   18  O2  UNL     1      12.146  -8.872  23.547  1.00  0.00    -0.385 OA
ATOM     19  H2  UNL     1      11.384  -8.967  22.988  1.00  0.00     0.210 HD
ENDBRANCH   6  18
BRANCH   8  20
HETATM   20  O3  UNL     1      12.246  -7.643  25.866  1.00  0.00    -0.392 OA
ATOM     21  H3  UNL     1      11.973  -6.933  25.298  1.00  0.00     0.210 HD
ENDBRANCH   8  20
TORSDOF 5
ENDMDL
MODEL 4
REMARK VINA RESULT: -7.069645021      3.242      5.753
REMARK  5 active torsions:
REMARK  status: ('A' for Active; 'I' for Inactive)
REMARK    1  A    between atoms: C2_2  and  C3_3 
REMARK    2  A    between atoms: C3_3  and  C4_4 
REMARK    3  A    between atoms: C8_8  and  O1_9 
REMARK    4  A    between atoms: C9_11  and  O2_13 
REMARK    5  A    between atoms: C11_15  and  O3_16 
ROOT
HETATM    1  C4  UNL     1      11.134 -14.307  22.751  1.00  0.00     0.002 C 
HETATM    2  C5  UNL     1      11.568 -12.937  22.390  1.00  0.00    -0.006 C 
HETATM    3  C6  UNL     1      11.376 -11.831  23.367  1.00  0.00     0.011 C 
HETATM    4  C7  UNL     1      12.928 -13.548  22.270  1.00  0.00     0.030 C 
HETATM    5  C8  UNL     1      14.145 -12.780  22.480  1.00  0.00     0.160 C 
HETATM    6  C9  UNL     1      15.297 -13.545  21.803  1.00  0.00     0.106 C 
HETATM    7  C10 UNL     1      15.221 -13.370  20.323  1.00  0.00     0.051 C 
HETATM    8  C11 UNL     1      15.365 -14.958  22.267  1.00  0.00     0.154 C 
HETATM    9  C12 UNL     1      14.265 -15.844  21.835  1.00  0.00     0.035 C 
HETATM   10  C13 UNL     1      13.088 -15.929  22.733  1.00  0.00     0.012 C 
HETATM   11  C14 UNL     1      12.547 -14.604  23.213  1.00  0.00    -0.033 C 
HETATM   12  C15 UNL     1      12.669 -14.475  24.664  1.00  0.00     0.016 C 
ENDROOT
BRANCH   1  13
HETATM   13  C3  UNL     1      10.021 -14.497  23.704  1.00  0.00     0.032 C 
BRANCH  13  14
HETATM   14  C2  UNL     1       9.378 -15.816  23.410  1.00  0.00    -0.036 C 
HETATM   15  C1  UNL     1       8.090 -15.918  23.095  1.00  0.00     0.007 C 
ENDBRANCH  13  14
ENDBRANCH   1  13
BRANCH   5  16
HETATM   16  O1  UNL     1      14.552 -12.525  23.756  1.00  0.00    -0.392 OA
ATOM     17  H1  UNL     1      15.473 -12.361  23.920  1.00  0.00     0.210 HD
ENDBRANCH   5  16
BRANCH   6  18
HETATM   18  O2  UNL     1      16.472 -12.902  22.240  1.00  0.00    -0.385 OA
ATOM     19  H2  UNL     1      17.174 -13.513  22.048  1.00  0.00     0.210 HD
ENDBRANCH   6  18
BRANCH   8  20
HETATM   20  O3  UNL     1      16.577 -15.487  21.788  1.00  0.00    -0.392 OA
ATOM     21  H3  UNL     1      16.885 -16.105  22.440  1.00  0.00     0.210 HD
ENDBRANCH   8  20
TORSDOF 5
ENDMDL
MODEL 5
REMARK VINA RESULT: -6.994684350      2.762      5.004
REMARK  5 active torsions:
REMARK  status: ('A' for Active; 'I' for Inactive)
REMARK    1  A    between atoms: C2_2  and  C3_3 
REMARK    2  A    between atoms: C3_3  and  C4_4 
REMARK    3  A    between atoms: C8_8  and  O1_9 
REMARK    4  A    between atoms: C9_11  and  O2_13 
REMARK    5  A    between atoms: C11_15  and  O3_16 
ROOT
HETATM    1  C4  UNL     1      10.097 -13.868  23.006  1.00  0.00     0.002 C 
HETATM    2  C5  UNL     1      10.623 -12.610  22.426  1.00  0.00    -0.006 C 
HETATM    3  C6  UNL     1      10.322 -11.317  23.097  1.00  0.00     0.011 C 
HETATM    4  C7  UNL     1      11.966 -13.230  22.649  1.00  0.00     0.030 C 
HETATM    5  C8  UNL     1      13.161 -12.432  22.869  1.00  0.00     0.160 C 
HETATM    6  C9  UNL     1      14.376 -13.324  22.559  1.00  0.00     0.106 C 
HETATM    7  C10 UNL     1      14.527 -13.479  21.082  1.00  0.00     0.051 C 
HETATM    8  C11 UNL     1      14.331 -14.600  23.324  1.00  0.00     0.154 C 
HETATM    9  C12 UNL     1      13.280 -15.563  22.933  1.00  0.00     0.035 C 
HETATM   10  C13 UNL     1      11.981 -15.451  23.639  1.00  0.00     0.012 C 
HETATM   11  C14 UNL     1      11.416 -14.053  23.731  1.00  0.00    -0.033 C 
HETATM   12  C15 UNL     1      11.325 -13.608  25.120  1.00  0.00     0.016 C 
ENDROOT
BRANCH   1  13
HETATM   13  C3  UNL     1       8.850 -13.847  23.797  1.00  0.00     0.032 C 
BRANCH  13  14
HETATM   14  C2  UNL     1       7.919 -14.868  23.226  1.00  0.00    -0.036 C 
HETATM   15  C1  UNL     1       8.249 -16.153  23.135  1.00  0.00     0.007 C 
ENDBRANCH  13  14
ENDBRANCH   1  13
BRANCH   5  16
HETATM   16  O1  UNL     1      13.382 -11.902  24.106  1.00  0.00    -0.392 OA
ATOM     17  H1  UNL     1      12.926 -12.272  24.853  1.00  0.00     0.210 HD
ENDBRANCH   5  16
BRANCH   6  18
HETATM   18  O2  UNL     1      15.493 -12.599  23.018  1.00  0.00    -0.385 OA
ATOM     19  H2  UNL     1      15.538 -12.776  23.950  1.00  0.00     0.210 HD
ENDBRANCH   6  18
BRANCH   8  20
HETATM   20  O3  UNL     1      15.583 -15.219  23.161  1.00  0.00    -0.392 OA
ATOM     21  H3  UNL     1      15.670 -15.854  23.862  1.00  0.00     0.210 HD
ENDBRANCH   8  20
TORSDOF 5
ENDMDL
