MODEL 1
REMARK VINA RESULT: -7.379991686      0.000      0.000
REMARK  4 active torsions:
REMARK  status: ('A' for Active; 'I' for Inactive)
REMARK       I    between atoms: N1_2  and  C2_4 
REMARK       I    between atoms: C2_4  and  N2_6 
REMARK    1  A    between atoms: N2_6  and  N3_8 
REMARK    2  A    between atoms: C3_10  and  C4_11 
REMARK    3  A    between atoms: C3_10  and  C11_18 
REMARK    4  A    between atoms: C4_11  and  C5_12 
REMARK       I    between atoms: C11_18  and  N4_20 
ROOT
HETATM    1  N3  UNL     1      15.884 -12.886  22.051  1.00  0.00    -0.295 N 
ATOM      2  H3  UNL     1      16.205 -12.019  21.622  1.00  0.00     0.187 HD
HETATM    3  C3  UNL     1      16.290 -13.913  21.416  1.00  0.00     0.093 C 
ENDROOT
BRANCH   3   4
HETATM    4  C4  UNL     1      17.128 -13.604  20.209  1.00  0.00     0.069 C 
BRANCH   4   5
HETATM    5  C5  UNL     1      16.510 -12.678  19.220  1.00  0.00    -0.009 C 
HETATM    6  C6  UNL     1      17.418 -12.153  18.181  1.00  0.00     0.005 C 
HETATM    7  C7  UNL     1      16.696 -11.218  17.203  1.00  0.00     0.000 C 
HETATM    8  C8  UNL     1      15.503 -11.862  16.581  1.00  0.00     0.000 C 
HETATM    9  C9  UNL     1      15.215 -13.229  17.136  1.00  0.00     0.000 C 
HETATM   10  C10 UNL     1      15.238 -13.284  18.636  1.00  0.00     0.005 C 
ENDBRANCH   4   5
ENDBRANCH   3   4
BRANCH   3  11
HETATM   11  C11 UNL     1      16.042 -15.278  21.841  1.00  0.00     0.265 C 
HETATM   12  O2  UNL     1      15.531 -15.422  23.027  1.00  0.00    -0.266 OA
HETATM   13  N4  UNL     1      16.288 -16.458  21.118  1.00  0.00    -0.360 N 
HETATM   14  C12 UNL     1      15.986 -17.765  21.681  1.00  0.00     0.149 C 
ATOM     15  H4  UNL     1      16.687 -16.397  20.181  1.00  0.00     0.162 HD
ENDBRANCH   3  11
BRANCH   1  16
HETATM   16  N2  UNL     1      15.137 -12.661  23.148  1.00  0.00    -0.251 N 
HETATM   17  C2  UNL     1      13.713 -12.494  23.145  1.00  0.00     0.334 C 
HETATM   18  N1  UNL     1      12.941 -12.260  24.289  1.00  0.00    -0.346 N 
HETATM   19  O1  UNL     1      13.136 -12.567  22.030  1.00  0.00    -0.246 OA
HETATM   20  C1  UNL     1      11.506 -12.097  24.256  1.00  0.00     0.151 C 
ATOM     21  H1  UNL     1      13.415 -12.202  25.190  1.00  0.00     0.163 HD
ATOM     22  H2  UNL     1      15.618 -12.604  24.046  1.00  0.00     0.191 HD
ENDBRANCH   1  16
TORSDOF 4
ENDMDL
MODEL 2
REMARK VINA RESULT: -7.361581887      1.924      4.817
REMARK  4 active torsions:
REMARK  status: ('A' for Active; 'I' for Inactive)
REMARK       I    between atoms: N1_2  and  C2_4 
REMARK       I    between atoms: C2_4  and  N2_6 
REMARK    1  A    between atoms: N2_6  and  N3_8 
REMARK    2  A    between atoms: C3_10  and  C4_11 
REMARK    3  A    between atoms: C3_10  and  C11_18 
REMARK    4  A    between atoms: C4_11  and  C5_12 
REMARK       I    between atoms: C11_18  and  N4_20 
ROOT
HETATM    1  N3  UNL     1      16.229 -13.718  22.184  1.00  0.00    -0.295 N 
ATOM      2  H3  UNL     1      16.327 -14.461  22.875  1.00  0.00     0.187 HD
HETATM    3  C3  UNL     1      16.347 -14.154  20.992  1.00  0.00     0.093 C 
ENDROOT
BRANCH   3   4
HETATM    4  C4  UNL     1      16.598 -15.630  20.895  1.00  0.00     0.069 C 
BRANCH   4   5
HETATM    5  C5  UNL     1      15.449 -16.502  21.263  1.00  0.00    -0.009 C 
HETATM    6  C6  UNL     1      14.780 -17.188  20.140  1.00  0.00     0.005 C 
HETATM    7  C7  UNL     1      13.617 -18.070  20.613  1.00  0.00     0.000 C 
HETATM    8  C8  UNL     1      14.039 -19.053  21.652  1.00  0.00     0.000 C 
HETATM    9  C9  UNL     1      15.469 -18.881  22.079  1.00  0.00     0.000 C 
HETATM   10  C10 UNL     1      15.836 -17.458  22.387  1.00  0.00     0.005 C 
ENDBRANCH   4   5
ENDBRANCH   3   4
BRANCH   3  11
HETATM   11  C11 UNL     1      16.183 -13.330  19.810  1.00  0.00     0.265 C 
HETATM   12  O2  UNL     1      15.181 -13.630  19.039  1.00  0.00    -0.266 OA
HETATM   13  N4  UNL     1      16.981 -12.246  19.404  1.00  0.00    -0.360 N 
HETATM   14  C12 UNL     1      16.690 -11.510  18.182  1.00  0.00     0.149 C 
ATOM     15  H4  UNL     1      17.779 -11.971  19.976  1.00  0.00     0.162 HD
ENDBRANCH   3  11
BRANCH   1  16
HETATM   16  N2  UNL     1      16.007 -12.521  22.758  1.00  0.00    -0.251 N 
HETATM   17  C2  UNL     1      14.929 -12.236  23.658  1.00  0.00     0.334 C 
HETATM   18  N1  UNL     1      14.703 -10.989  24.253  1.00  0.00    -0.346 N 
HETATM   19  O1  UNL     1      14.143 -13.183  23.921  1.00  0.00    -0.246 OA
HETATM   20  C1  UNL     1      13.607 -10.730  25.159  1.00  0.00     0.151 C 
ATOM     21  H1  UNL     1      15.343 -10.225  24.036  1.00  0.00     0.163 HD
ATOM     22  H2  UNL     1      16.651 -11.762  22.537  1.00  0.00     0.191 HD
ENDBRANCH   1  16
TORSDOF 4
ENDMDL
MODEL 3
REMARK VINA RESULT: -7.288746514      0.583      1.311
REMARK  4 active torsions:
REMARK  status: ('A' for Active; 'I' for Inactive)
REMARK       I    between atoms: N1_2  and  C2_4 
REMARK       I    between atoms: C2_4  and  N2_6 
REMARK    1  A    between atoms: N2_6  and  N3_8 
REMARK    2  A    between atoms: C3_10  and  C4_11 
REMARK    3  A    between atoms: C3_10  and  C11_18 
REMARK    4  A    between atoms: C4_11  and  C5_12 
REMARK       I    between atoms: C11_18  and  N4_20 
ROOT
HETATM    1  N3  UNL     1      15.680 -12.807  22.233  1.00  0.00    -0.295 N 
ATOM      2  H3  UNL     1      16.080 -11.886  22.055  1.00  0.00     0.187 HD
HETATM    3  C3  UNL     1      16.125 -13.687  21.426  1.00  0.00     0.093 C 
ENDROOT
BRANCH   3   4
HETATM    4  C4  UNL     1      17.114 -13.165  20.424  1.00  0.00     0.069 C 
BRANCH   4   5
HETATM    5  C5  UNL     1      16.682 -13.237  19.001  1.00  0.00    -0.009 C 
HETATM    6  C6  UNL     1      15.225 -13.178  18.769  1.00  0.00     0.005 C 
HETATM    7  C7  UNL     1      14.875 -13.249  17.278  1.00  0.00     0.000 C 
HETATM    8  C8  UNL     1      15.575 -12.200  16.482  1.00  0.00     0.000 C 
HETATM    9  C9  UNL     1      16.545 -11.392  17.297  1.00  0.00     0.000 C 
HETATM   10  C10 UNL     1      17.451 -12.229  18.153  1.00  0.00     0.005 C 
ENDBRANCH   4   5
ENDBRANCH   3   4
BRANCH   3  11
HETATM   11  C11 UNL     1      15.781 -15.095  21.493  1.00  0.00     0.265 C 
HETATM   12  O2  UNL     1      14.512 -15.372  21.502  1.00  0.00    -0.266 OA
HETATM   13  N4  UNL     1      16.661 -16.189  21.548  1.00  0.00    -0.360 N 
HETATM   14  C12 UNL     1      16.164 -17.555  21.614  1.00  0.00     0.149 C 
ATOM     15  H4  UNL     1      17.668 -16.023  21.541  1.00  0.00     0.162 HD
ENDBRANCH   3  11
BRANCH   1  16
HETATM   16  N2  UNL     1      14.813 -12.791  23.263  1.00  0.00    -0.251 N 
HETATM   17  C2  UNL     1      13.399 -12.590  23.136  1.00  0.00     0.334 C 
HETATM   18  N1  UNL     1      12.502 -12.574  24.210  1.00  0.00    -0.346 N 
HETATM   19  O1  UNL     1      12.953 -12.421  21.971  1.00  0.00    -0.246 OA
HETATM   20  C1  UNL     1      11.080 -12.371  24.051  1.00  0.00     0.151 C 
ATOM     21  H1  UNL     1      12.870 -12.713  25.151  1.00  0.00     0.163 HD
ATOM     22  H2  UNL     1      15.188 -12.930  24.201  1.00  0.00     0.191 HD
ENDBRANCH   1  16
TORSDOF 4
ENDMDL
MODEL 4
REMARK VINA RESULT: -7.271761949      2.313      5.541
REMARK  4 active torsions:
REMARK  status: ('A' for Active; 'I' for Inactive)
REMARK       I    between atoms: N1_2  and  C2_4 
REMARK       I    between atoms: C2_4  and  N2_6 
REMARK    1  A    between atoms: N2_6  and  N3_8 
REMARK    2  A    between atoms: C3_10  and  C4_11 
REMARK    3  A    between atoms: C3_10  and  C11_18 
REMARK    4  A    between atoms: C4_11  and  C5_12 
REMARK       I    between atoms: C11_18  and  N4_20 
ROOT
HETATM    1  N3  UNL     1      16.878 -14.002  20.679  1.00  0.00    -0.295 N 
ATOM      2  H3  UNL     1      17.677 -14.407  20.192  1.00  0.00     0.187 HD
HETATM    3  C3  UNL     1      16.385 -14.802  21.539  1.00  0.00     0.093 C 
ENDROOT
BRANCH   3   4
HETATM    4  C4  UNL     1      17.086 -16.127  21.625  1.00  0.00     0.069 C 
BRANCH   4   5
HETATM    5  C5  UNL     1      16.267 -17.312  21.248  1.00  0.00    -0.009 C 
HETATM    6  C6  UNL     1      15.871 -18.198  22.361  1.00  0.00     0.005 C 
HETATM    7  C7  UNL     1      15.024 -19.383  21.881  1.00  0.00     0.000 C 
HETATM    8  C8  UNL     1      13.827 -18.945  21.107  1.00  0.00     0.000 C 
HETATM    9  C9  UNL     1      13.784 -17.461  20.877  1.00  0.00     0.000 C 
HETATM   10  C10 UNL     1      15.083 -16.895  20.382  1.00  0.00     0.005 C 
ENDBRANCH   4   5
ENDBRANCH   3   4
BRANCH   3  11
HETATM   11  C11 UNL     1      15.288 -14.463  22.425  1.00  0.00     0.265 C 
HETATM   12  O2  UNL     1      14.391 -13.658  21.940  1.00  0.00    -0.266 OA
HETATM   13  N4  UNL     1      15.084 -14.905  23.743  1.00  0.00    -0.360 N 
HETATM   14  C12 UNL     1      13.927 -14.474  24.514  1.00  0.00     0.149 C 
ATOM     15  H4  UNL     1      15.760 -15.540  24.168  1.00  0.00     0.162 HD
ENDBRANCH   3  11
BRANCH   1  16
HETATM   16  N2  UNL     1      16.607 -12.753  20.254  1.00  0.00    -0.251 N 
HETATM   17  C2  UNL     1      16.846 -12.276  18.924  1.00  0.00     0.334 C 
HETATM   18  N1  UNL     1      16.562 -10.976  18.487  1.00  0.00    -0.346 N 
HETATM   19  O1  UNL     1      17.344 -13.094  18.108  1.00  0.00    -0.246 OA
HETATM   20  C1  UNL     1      16.812 -10.522  17.138  1.00  0.00     0.151 C 
ATOM     21  H1  UNL     1      16.158 -10.318  19.153  1.00  0.00     0.163 HD
ATOM     22  H2  UNL     1      16.204 -12.101  20.926  1.00  0.00     0.191 HD
ENDBRANCH   1  16
TORSDOF 4
ENDMDL
MODEL 5
REMARK VINA RESULT: -7.264230006      1.610      1.666
REMARK  4 active torsions:
REMARK  status: ('A' for Active; 'I' for Inactive)
REMARK       I    between atoms: N1_2  and  C2_4 
REMARK       I    between atoms: C2_4  and  N2_6 
REMARK    1  A    between atoms: N2_6  and  N3_8 
REMARK    2  A    between atoms: C3_10  and  C4_11 
REMARK    3  A    between atoms: C3_10  and  C11_18 
REMARK    4  A    between atoms: C4_11  and  C5_12 
REMARK       I    between atoms: C11_18  and  N4_20 
ROOT
HETATM    1  N3  UNL     1      15.803 -12.723  22.355  1.00  0.00    -0.295 N 
ATOM      2  H3  UNL     1      16.358 -12.192  21.684  1.00  0.00     0.187 HD
HETATM    3  C3  UNL     1      15.519 -13.888  21.926  1.00  0.00     0.093 C 
ENDROOT
BRANCH   3   4
HETATM    4  C4  UNL     1      16.058 -14.194  20.559  1.00  0.00     0.069 C 
BRANCH   4   5
HETATM    5  C5  UNL     1      15.991 -13.075  19.578  1.00  0.00    -0.009 C 
HETATM    6  C6  UNL     1      17.246 -12.779  18.859  1.00  0.00     0.005 C 
HETATM    7  C7  UNL     1      17.082 -11.622  17.866  1.00  0.00     0.000 C 
HETATM    8  C8  UNL     1      15.968 -11.857  16.903  1.00  0.00     0.000 C 
HETATM    9  C9  UNL     1      15.194 -13.111  17.194  1.00  0.00     0.000 C 
HETATM   10  C10 UNL     1      14.805 -13.253  18.637  1.00  0.00     0.005 C 
ENDBRANCH   4   5
ENDBRANCH   3   4
BRANCH   3  11
HETATM   11  C11 UNL     1      14.800 -14.882  22.701  1.00  0.00     0.265 C 
HETATM   12  O2  UNL     1      13.726 -15.365  22.153  1.00  0.00    -0.266 OA
HETATM   13  N4  UNL     1      15.132 -15.381  23.972  1.00  0.00    -0.360 N 
HETATM   14  C12 UNL     1      14.307 -16.384  24.629  1.00  0.00     0.149 C 
ATOM     15  H4  UNL     1      15.968 -15.034  24.443  1.00  0.00     0.162 HD
ENDBRANCH   3  11
BRANCH   1  16
HETATM   16  N2  UNL     1      15.554 -12.017  23.474  1.00  0.00    -0.251 N 
HETATM   17  C2  UNL     1      14.268 -11.508  23.848  1.00  0.00     0.334 C 
HETATM   18  N1  UNL     1      14.015 -10.775  25.014  1.00  0.00    -0.346 N 
HETATM   19  O1  UNL     1      13.313 -11.749  23.065  1.00  0.00    -0.246 OA
HETATM   20  C1  UNL     1      12.706 -10.276  25.366  1.00  0.00     0.151 C 
ATOM     21  H1  UNL     1      14.793 -10.584  25.644  1.00  0.00     0.163 HD
ATOM     22  H2  UNL     1      16.337 -11.829  24.100  1.00  0.00     0.191 HD
ENDBRANCH   1  16
TORSDOF 4
ENDMDL
