MODEL 1
REMARK VINA RESULT: -7.135510062      0.000      0.000
REMARK  6 active torsions:
REMARK  status: ('A' for Active; 'I' for Inactive)
REMARK    1  A    between atoms: C2_2  and  C3_3 
REMARK    2  A    between atoms: C3_3  and  O1_4 
REMARK    3  A    between atoms: C7_9  and  C8_10 
REMARK    4  A    between atoms: C8_10  and  C9_11 
REMARK    5  A    between atoms: C12_14  and  O2_15 
REMARK    6  A    between atoms: C15_19  and  O3_20 
ROOT
HETATM    1  C3  UNL     1      13.071 -10.845  24.228  1.00  0.00     0.101 C 
HETATM    2  C4  UNL     1      11.783 -11.436  23.738  1.00  0.00     0.045 C 
HETATM    3  C5  UNL     1      10.732 -11.564  24.791  1.00  0.00     0.009 C 
HETATM    4  C6  UNL     1      10.508 -10.230  25.464  1.00  0.00    -0.004 C 
HETATM    5  C7  UNL     1      10.231 -10.355  26.967  1.00  0.00    -0.009 C 
HETATM    6  C13 UNL     1      11.258  -9.301  27.193  1.00  0.00     0.012 C 
HETATM    7  C14 UNL     1      11.786  -9.537  25.811  1.00  0.00     0.022 C 
HETATM    8  C15 UNL     1      12.988 -10.437  25.702  1.00  0.00     0.161 C 
ENDROOT
BRANCH   5   9
HETATM    9  C8  UNL     1       8.800  -9.971  27.231  1.00  0.00     0.012 C 
BRANCH   9  10
HETATM   10  C9  UNL     1       7.813 -11.025  26.855  1.00  0.00     0.015 C 
HETATM   11  C10 UNL     1       7.991 -12.380  27.442  1.00  0.00     0.010 C 
HETATM   12  C11 UNL     1       6.461 -12.420  27.593  1.00  0.00     0.032 C 
HETATM   13  C12 UNL     1       6.556 -10.901  27.728  1.00  0.00     0.122 C 
BRANCH  13  14
HETATM   14  O2  UNL     1       6.938 -10.512  29.003  1.00  0.00    -0.395 OA
ATOM     15  H2  UNL     1       6.233 -10.715  29.606  1.00  0.00     0.210 HD
ENDBRANCH  13  14
ENDBRANCH   9  10
ENDBRANCH   5   9
BRANCH   8  16
HETATM   16  O3  UNL     1      12.958 -11.510  26.548  1.00  0.00    -0.392 OA
ATOM     17  H3  UNL     1      12.210 -12.076  26.398  1.00  0.00     0.210 HD
ENDBRANCH   8  16
BRANCH   1  18
HETATM   18  C2  UNL     1      14.241 -11.676  23.952  1.00  0.00     0.003 C 
HETATM   19  C1  UNL     1      14.108 -12.801  23.275  1.00  0.00     0.010 C 
ENDBRANCH   1  18
BRANCH   1  20
HETATM   20  O1  UNL     1      13.248  -9.629  23.526  1.00  0.00    -0.383 OA
ATOM     21  H1  UNL     1      13.275  -8.934  24.172  1.00  0.00     0.211 HD
ENDBRANCH   1  20
TORSDOF 6
ENDMDL
MODEL 2
REMARK VINA RESULT: -6.984699381      2.774      3.908
REMARK  6 active torsions:
REMARK  status: ('A' for Active; 'I' for Inactive)
REMARK    1  A    between atoms: C2_2  and  C3_3 
REMARK    2  A    between atoms: C3_3  and  O1_4 
REMARK    3  A    between atoms: C7_9  and  C8_10 
REMARK    4  A    between atoms: C8_10  and  C9_11 
REMARK    5  A    between atoms: C12_14  and  O2_15 
REMARK    6  A    between atoms: C15_19  and  O3_20 
ROOT
HETATM    1  C3  UNL     1      13.344 -13.559  22.488  1.00  0.00     0.101 C 
HETATM    2  C4  UNL     1      11.917 -13.591  22.945  1.00  0.00     0.045 C 
HETATM    3  C5  UNL     1      11.711 -13.091  24.336  1.00  0.00     0.009 C 
HETATM    4  C6  UNL     1      12.309 -11.712  24.485  1.00  0.00    -0.004 C 
HETATM    5  C7  UNL     1      12.957 -11.483  25.857  1.00  0.00    -0.009 C 
HETATM    6  C13 UNL     1      14.159 -10.965  25.146  1.00  0.00     0.012 C 
HETATM    7  C14 UNL     1      13.673 -11.606  23.883  1.00  0.00     0.022 C 
HETATM    8  C15 UNL     1      14.268 -12.946  23.545  1.00  0.00     0.161 C 
ENDROOT
BRANCH   5   9
HETATM    9  C8  UNL     1      12.137 -10.477  26.619  1.00  0.00     0.012 C 
BRANCH   9  10
HETATM   10  C9  UNL     1      10.980  -9.934  25.850  1.00  0.00     0.015 C 
HETATM   11  C10 UNL     1       9.920  -9.218  26.608  1.00  0.00     0.010 C 
HETATM   12  C11 UNL     1       9.874  -8.224  25.436  1.00  0.00     0.032 C 
HETATM   13  C12 UNL     1      11.349  -8.574  25.240  1.00  0.00     0.122 C 
BRANCH  13  14
HETATM   14  O2  UNL     1      12.170  -7.896  26.128  1.00  0.00    -0.395 OA
ATOM     15  H2  UNL     1      11.765  -7.064  26.341  1.00  0.00     0.210 HD
ENDBRANCH  13  14
ENDBRANCH   9  10
ENDBRANCH   5   9
BRANCH   8  16
HETATM   16  O3  UNL     1      14.452 -13.763  24.626  1.00  0.00    -0.392 OA
ATOM     17  H3  UNL     1      14.750 -14.632  24.384  1.00  0.00     0.210 HD
ENDBRANCH   8  16
BRANCH   1  18
HETATM   18  C2  UNL     1      13.835 -14.849  22.008  1.00  0.00     0.003 C 
HETATM   19  C1  UNL     1      13.213 -15.962  22.348  1.00  0.00     0.010 C 
ENDBRANCH   1  18
BRANCH   1  20
HETATM   20  O1  UNL     1      13.397 -12.660  21.397  1.00  0.00    -0.383 OA
ATOM     21  H1  UNL     1      13.679 -11.820  21.739  1.00  0.00     0.211 HD
ENDBRANCH   1  20
TORSDOF 6
ENDMDL
MODEL 3
REMARK VINA RESULT: -6.874308796      1.534      6.391
REMARK  6 active torsions:
REMARK  status: ('A' for Active; 'I' for Inactive)
REMARK    1  A    between atoms: C2_2  and  C3_3 
REMARK    2  A    between atoms: C3_3  and  O1_4 
REMARK    3  A    between atoms: C7_9  and  C8_10 
REMARK    4  A    between atoms: C8_10  and  C9_11 
REMARK    5  A    between atoms: C12_14  and  O2_15 
REMARK    6  A    between atoms: C15_19  and  O3_20 
ROOT
HETATM    1  C3  UNL     1       6.586 -11.142  27.841  1.00  0.00     0.101 C 
HETATM    2  C4  UNL     1       7.323 -12.448  27.831  1.00  0.00     0.045 C 
HETATM    3  C5  UNL     1       8.319 -12.578  26.726  1.00  0.00     0.009 C 
HETATM    4  C6  UNL     1       9.271 -11.406  26.747  1.00  0.00    -0.004 C 
HETATM    5  C7  UNL     1       9.674 -10.934  25.344  1.00  0.00    -0.009 C 
HETATM    6  C13 UNL     1       9.349  -9.545  25.773  1.00  0.00     0.012 C 
HETATM    7  C14 UNL     1       8.572 -10.097  26.929  1.00  0.00     0.022 C 
HETATM    8  C15 UNL     1       7.082 -10.199  26.741  1.00  0.00     0.161 C 
ENDROOT
BRANCH   5   9
HETATM    9  C8  UNL     1      11.128 -11.250  25.125  1.00  0.00     0.012 C 
BRANCH   9  10
HETATM   10  C9  UNL     1      11.364 -12.397  24.200  1.00  0.00     0.015 C 
HETATM   11  C10 UNL     1      10.762 -12.326  22.842  1.00  0.00     0.010 C 
HETATM   12  C11 UNL     1      12.072 -12.943  22.324  1.00  0.00     0.032 C 
HETATM   13  C12 UNL     1      12.730 -12.246  23.515  1.00  0.00     0.122 C 
BRANCH  13  14
HETATM   14  O2  UNL     1      12.958 -10.900  23.272  1.00  0.00    -0.395 OA
ATOM     15  H2  UNL     1      13.782 -10.654  23.676  1.00  0.00     0.210 HD
ENDBRANCH  13  14
ENDBRANCH   9  10
ENDBRANCH   5   9
BRANCH   8  16
HETATM   16  O3  UNL     1       6.705 -10.600  25.490  1.00  0.00    -0.392 OA
ATOM     17  H3  UNL     1       7.124 -10.098  24.801  1.00  0.00     0.210 HD
ENDBRANCH   8  16
BRANCH   1  18
HETATM   18  C2  UNL     1       5.133 -11.289  27.827  1.00  0.00     0.003 C 
HETATM   19  C1  UNL     1       4.588 -12.490  27.834  1.00  0.00     0.010 C 
ENDBRANCH   1  18
BRANCH   1  20
HETATM   20  O1  UNL     1       6.929 -10.497  29.052  1.00  0.00    -0.383 OA
ATOM     21  H1  UNL     1       7.827 -10.735  29.252  1.00  0.00     0.211 HD
ENDBRANCH   1  20
TORSDOF 6
ENDMDL
MODEL 4
REMARK VINA RESULT: -6.867526929      2.748      5.804
REMARK  6 active torsions:
REMARK  status: ('A' for Active; 'I' for Inactive)
REMARK    1  A    between atoms: C2_2  and  C3_3 
REMARK    2  A    between atoms: C3_3  and  O1_4 
REMARK    3  A    between atoms: C7_9  and  C8_10 
REMARK    4  A    between atoms: C8_10  and  C9_11 
REMARK    5  A    between atoms: C12_14  and  O2_15 
REMARK    6  A    between atoms: C15_19  and  O3_20 
ROOT
HETATM    1  C3  UNL     1      10.961  -9.409  25.316  1.00  0.00     0.101 C 
HETATM    2  C4  UNL     1      12.154 -10.191  25.777  1.00  0.00     0.045 C 
HETATM    3  C5  UNL     1      12.183 -11.602  25.290  1.00  0.00     0.009 C 
HETATM    4  C6  UNL     1      12.049 -11.633  23.786  1.00  0.00    -0.004 C 
HETATM    5  C7  UNL     1      11.212 -12.817  23.283  1.00  0.00    -0.009 C 
HETATM    6  C13 UNL     1      10.443 -11.852  22.449  1.00  0.00     0.012 C 
HETATM    7  C14 UNL     1      10.972 -10.727  23.284  1.00  0.00     0.022 C 
HETATM    8  C15 UNL     1      10.068 -10.229  24.380  1.00  0.00     0.161 C 
ENDROOT
BRANCH   5   9
HETATM    9  C8  UNL     1      12.114 -13.773  22.550  1.00  0.00     0.012 C 
BRANCH   9  10
HETATM   10  C9  UNL     1      12.240 -15.107  23.206  1.00  0.00     0.015 C 
HETATM   11  C10 UNL     1      13.005 -16.161  22.489  1.00  0.00     0.010 C 
HETATM   12  C11 UNL     1      13.580 -16.554  23.859  1.00  0.00     0.032 C 
HETATM   13  C12 UNL     1      13.386 -15.083  24.227  1.00  0.00     0.122 C 
BRANCH  13  14
HETATM   14  O2  UNL     1      14.404 -14.282  23.733  1.00  0.00    -0.395 OA
ATOM     15  H2  UNL     1      14.141 -13.373  23.811  1.00  0.00     0.210 HD
ENDBRANCH  13  14
ENDBRANCH   9  10
ENDBRANCH   5   9
BRANCH   8  16
HETATM   16  O3  UNL     1       9.385 -11.218  25.030  1.00  0.00    -0.392 OA
ATOM     17  H3  UNL     1       8.725 -11.629  24.484  1.00  0.00     0.210 HD
ENDBRANCH   8  16
BRANCH   1  18
HETATM   18  C2  UNL     1      10.202  -8.799  26.406  1.00  0.00     0.003 C 
HETATM   19  C1  UNL     1      10.388  -9.203  27.648  1.00  0.00     0.010 C 
ENDBRANCH   1  18
BRANCH   1  20
HETATM   20  O1  UNL     1      11.457  -8.356  24.513  1.00  0.00    -0.383 OA
ATOM     21  H1  UNL     1      10.749  -8.082  23.941  1.00  0.00     0.211 HD
ENDBRANCH   1  20
TORSDOF 6
ENDMDL
MODEL 5
REMARK VINA RESULT: -6.866457162      3.738      6.250
REMARK  6 active torsions:
REMARK  status: ('A' for Active; 'I' for Inactive)
REMARK    1  A    between atoms: C2_2  and  C3_3 
REMARK    2  A    between atoms: C3_3  and  O1_4 
REMARK    3  A    between atoms: C7_9  and  C8_10 
REMARK    4  A    between atoms: C8_10  and  C9_11 
REMARK    5  A    between atoms: C12_14  and  O2_15 
REMARK    6  A    between atoms: C15_19  and  O3_20 
ROOT
HETATM    1  C3  UNL     1      14.592 -16.726  22.123  1.00  0.00     0.101 C 
HETATM    2  C4  UNL     1      13.107 -16.775  22.316  1.00  0.00     0.045 C 
HETATM    3  C5  UNL     1      12.546 -15.593  23.035  1.00  0.00     0.009 C 
HETATM    4  C6  UNL     1      12.973 -14.318  22.346  1.00  0.00    -0.004 C 
HETATM    5  C7  UNL     1      13.267 -13.176  23.327  1.00  0.00    -0.009 C 
HETATM    6  C13 UNL     1      14.550 -12.955  22.605  1.00  0.00     0.012 C 
HETATM    7  C14 UNL     1      14.424 -14.314  21.988  1.00  0.00     0.022 C 
HETATM    8  C15 UNL     1      15.194 -15.422  22.654  1.00  0.00     0.161 C 
ENDROOT
BRANCH   5   9
HETATM    9  C8  UNL     1      12.211 -12.116  23.169  1.00  0.00     0.012 C 
BRANCH   9  10
HETATM   10  C9  UNL     1      11.882 -11.398  24.435  1.00  0.00     0.015 C 
HETATM   11  C10 UNL     1      12.921 -11.360  25.499  1.00  0.00     0.010 C 
HETATM   12  C11 UNL     1      12.492  -9.904  25.744  1.00  0.00     0.032 C 
HETATM   13  C12 UNL     1      12.120  -9.892  24.261  1.00  0.00     0.122 C 
BRANCH  13  14
HETATM   14  O2  UNL     1      13.227  -9.709  23.446  1.00  0.00    -0.395 OA
ATOM     15  H2  UNL     1      13.175 -10.321  22.722  1.00  0.00     0.210 HD
ENDBRANCH  13  14
ENDBRANCH   9  10
ENDBRANCH   5   9
BRANCH   8  16
HETATM   16  O3  UNL     1      15.195 -15.356  24.020  1.00  0.00    -0.392 OA
ATOM     17  H3  UNL     1      14.898 -14.516  24.348  1.00  0.00     0.210 HD
ENDBRANCH   8  16
BRANCH   1  18
HETATM   18  C2  UNL     1      15.290 -17.903  22.636  1.00  0.00     0.003 C 
HETATM   19  C1  UNL     1      15.316 -19.017  21.930  1.00  0.00     0.010 C 
ENDBRANCH   1  18
BRANCH   1  20
HETATM   20  O1  UNL     1      14.816 -16.685  20.727  1.00  0.00    -0.383 OA
ATOM     21  H1  UNL     1      14.264 -15.996  20.375  1.00  0.00     0.211 HD
ENDBRANCH   1  20
TORSDOF 6
ENDMDL
