MODEL 1
REMARK VINA RESULT: -6.781490008      0.000      0.000
REMARK  10 active torsions:
REMARK  status: ('A' for Active; 'I' for Inactive)
REMARK       I    between atoms: C2_2  and  N1_4 
REMARK    1  A    between atoms: N1_4  and  C3_6 
REMARK    2  A    between atoms: C4_7  and  O2_8 
REMARK    3  A    between atoms: O2_8  and  N2_9 
REMARK       I    between atoms: N3_12  and  C7_13 
REMARK       I    between atoms: C7_13  and  N4_15 
REMARK    4  A    between atoms: N4_15  and  C8_17 
REMARK    5  A    between atoms: C8_17  and  C9_18 
REMARK    6  A    between atoms: C9_18  and  N5_19 
REMARK    7  A    between atoms: N5_19  and  C10_22 
REMARK    8  A    between atoms: C10_22  and  C11_23 
REMARK    9  A    between atoms: C14_32  and  N9_33 
REMARK   10  A    between atoms: C18_44  and  N13_45 
ROOT
HETATM    1  N2  UNL     1       0.253 -26.484  98.869  1.00  0.00    -0.241 N 
HETATM    2  C5  UNL     1       0.549 -27.750  98.330  1.00  0.00     0.115 C 
HETATM    3  C6  UNL     1       0.974 -27.766  96.905  1.00  0.00     0.175 C 
HETATM    4  N3  UNL     1       1.842 -26.666  96.526  1.00  0.00    -0.320 N 
HETATM    5  C7  UNL     1       2.890 -26.948  95.610  1.00  0.00     0.319 C 
HETATM    6  O3  UNL     1       3.000 -28.123  95.185  1.00  0.00    -0.247 OA
HETATM    7  N4  UNL     1       3.827 -25.992  95.138  1.00  0.00    -0.341 N 
ATOM      8  H4  UNL     1       3.731 -25.040  95.491  1.00  0.00     0.164 HD
HETATM    9  C15 UNL     1       1.587 -25.377  97.087  1.00  0.00     0.126 C 
HETATM   10  C16 UNL     1       0.670 -24.620  96.118  1.00  0.00     0.038 C 
HETATM   11  C17 UNL     1       0.968 -25.364  98.432  1.00  0.00     0.120 C 
ENDROOT
BRANCH   7  12
HETATM   12  C8  UNL     1       4.886 -26.232  94.219  1.00  0.00     0.152 C 
BRANCH  12  13
HETATM   13  C9  UNL     1       4.482 -26.086  92.788  1.00  0.00     0.252 C 
BRANCH  13  14
HETATM   14  N5  UNL     1       3.921 -27.297  92.258  1.00  0.00    -0.067 N 
ATOM     15  H52 UNL     1       4.649 -27.860  91.817  1.00  0.00     0.277 HD
ATOM     16  H51 UNL     1       3.649 -27.922  93.016  1.00  0.00     0.277 HD
BRANCH  14  17
HETATM   17  C10 UNL     1       2.826 -27.105  91.356  1.00  0.00     0.310 C 
BRANCH  17  18
HETATM   18  C11 UNL     1       1.544 -26.848  92.089  1.00  0.00     0.139 A 
HETATM   19  N6  UNL     1       0.924 -27.680  92.965  1.00  0.00    -0.175 N 
HETATM   20  C12 UNL     1      -0.201 -27.105  93.423  1.00  0.00     0.721 A 
ATOM     21  H6  UNL     1       1.263 -28.603  93.236  1.00  0.00     0.185 HD
HETATM   22  N7  UNL     1      -1.191 -27.419  94.271  1.00  0.00    -0.185 N 
HETATM   23  N10 UNL     1      -0.291 -25.891  92.824  1.00  0.00     0.091 N 
HETATM   24  C13 UNL     1      -2.221 -26.624  94.544  1.00  0.00     0.215 A 
ATOM     25  H7  UNL     1      -1.152 -28.325  94.736  1.00  0.00     0.185 HD
HETATM   26  N8  UNL     1      -2.306 -25.413  93.944  1.00  0.00    -0.185 N 
HETATM   27  C14 UNL     1      -1.322 -25.064  93.081  1.00  0.00     0.713 A 
ATOM     28  H8  UNL     1      -3.084 -24.783  94.136  1.00  0.00     0.185 HD
HETATM   29  N11 UNL     1       0.755 -25.760  92.037  1.00  0.00    -0.251 N 
ATOM     30  H11 UNL     1       0.944 -24.939  91.462  1.00  0.00     0.190 HD
BRANCH  27  31
HETATM   31  N9  UNL     1      -1.364 -23.924  92.489  1.00  0.00    -0.232 N 
ATOM     32  H92 UNL     1      -0.978 -23.110  92.966  1.00  0.00     0.174 HD
ATOM     33  H91 UNL     1      -1.777 -23.849  91.560  1.00  0.00     0.174 HD
ENDBRANCH  27  31
ENDBRANCH  17  18
ENDBRANCH  14  17
ENDBRANCH  13  14
ENDBRANCH  12  13
ENDBRANCH   7  12
BRANCH   1  34
HETATM   34  O2  UNL     1      -0.957 -26.325  99.418  1.00  0.00    -0.211 OA
BRANCH  34  35
HETATM   35  C4  UNL     1      -1.840 -25.294  99.295  1.00  0.00     0.215 A 
HETATM   36  C3  UNL     1      -1.965 -24.353 100.318  1.00  0.00     0.131 A 
HETATM   37  C19 UNL     1      -2.863 -23.323 100.172  1.00  0.00     0.163 A 
HETATM   38  N14 UNL     1      -3.583 -23.272  99.046  1.00  0.00    -0.177 N 
HETATM   39  N15 UNL     1      -3.049 -22.329 101.166  1.00  0.00    -0.080 NA
HETATM   40  C18 UNL     1      -3.487 -24.164  98.041  1.00  0.00     0.679 A 
ATOM     41  H14 UNL     1      -4.249 -22.507  98.941  1.00  0.00     0.185 HD
HETATM   42  N12 UNL     1      -2.609 -25.163  98.192  1.00  0.00    -0.166 N 
ATOM     43  H12 UNL     1      -2.517 -25.852  97.446  1.00  0.00     0.186 HD
BRANCH  36  44
HETATM   44  N1  UNL     1      -1.170 -24.460 101.494  1.00  0.00    -0.321 N 
HETATM   45  C2  UNL     1      -1.660 -25.189 102.611  1.00  0.00     0.218 C 
HETATM   46  C1  UNL     1      -0.842 -25.311 103.855  1.00  0.00     0.117 C 
HETATM   47  O1  UNL     1      -2.802 -25.737 102.550  1.00  0.00    -0.274 OA
ATOM     48  H1  UNL     1      -0.254 -24.015 101.535  1.00  0.00     0.169 HD
ENDBRANCH  36  44
BRANCH  40  49
HETATM   49  N13 UNL     1      -4.202 -24.075  96.973  1.00  0.00    -0.234 N 
ATOM     50 2H13 UNL     1      -5.188 -24.335  96.956  1.00  0.00     0.174 HD
ATOM     51 1H13 UNL     1      -3.795 -23.737  96.101  1.00  0.00     0.174 HD
ENDBRANCH  40  49
ENDBRANCH  34  35
ENDBRANCH   1  34
TORSDOF 10
ENDMDL
MODEL 2
REMARK VINA RESULT: -6.766863574      4.085      8.047
REMARK  10 active torsions:
REMARK  status: ('A' for Active; 'I' for Inactive)
REMARK       I    between atoms: C2_2  and  N1_4 
REMARK    1  A    between atoms: N1_4  and  C3_6 
REMARK    2  A    between atoms: C4_7  and  O2_8 
REMARK    3  A    between atoms: O2_8  and  N2_9 
REMARK       I    between atoms: N3_12  and  C7_13 
REMARK       I    between atoms: C7_13  and  N4_15 
REMARK    4  A    between atoms: N4_15  and  C8_17 
REMARK    5  A    between atoms: C8_17  and  C9_18 
REMARK    6  A    between atoms: C9_18  and  N5_19 
REMARK    7  A    between atoms: N5_19  and  C10_22 
REMARK    8  A    between atoms: C10_22  and  C11_23 
REMARK    9  A    between atoms: C14_32  and  N9_33 
REMARK   10  A    between atoms: C18_44  and  N13_45 
ROOT
HETATM    1  N2  UNL     1      -2.588 -24.826  96.236  1.00  0.00    -0.241 N 
HETATM    2  C5  UNL     1      -3.568 -24.567  97.211  1.00  0.00     0.115 C 
HETATM    3  C6  UNL     1      -3.123 -23.765  98.382  1.00  0.00     0.175 C 
HETATM    4  N3  UNL     1      -2.212 -22.684  98.057  1.00  0.00    -0.320 N 
HETATM    5  C7  UNL     1      -2.356 -21.469  98.778  1.00  0.00     0.319 C 
HETATM    6  O3  UNL     1      -3.256 -21.406  99.651  1.00  0.00    -0.247 OA
HETATM    7  N4  UNL     1      -1.551 -20.316  98.585  1.00  0.00    -0.341 N 
ATOM      8  H4  UNL     1      -0.824 -20.376  97.872  1.00  0.00     0.164 HD
HETATM    9  C15 UNL     1      -1.229 -22.907  97.043  1.00  0.00     0.126 C 
HETATM   10  C16 UNL     1       0.048 -23.402  97.734  1.00  0.00     0.038 C 
HETATM   11  C17 UNL     1      -1.597 -23.872  95.982  1.00  0.00     0.120 C 
ENDROOT
BRANCH   7  12
HETATM   12  C8  UNL     1      -1.660 -19.084  99.288  1.00  0.00     0.152 C 
BRANCH  12  13
HETATM   13  C9  UNL     1      -2.518 -18.075  98.599  1.00  0.00     0.252 C 
BRANCH  13  14
HETATM   14  N5  UNL     1      -3.895 -18.479  98.547  1.00  0.00    -0.067 N 
ATOM     15  H52 UNL     1      -3.965 -19.496  98.571  1.00  0.00     0.277 HD
ATOM     16  H51 UNL     1      -4.363 -18.249  99.423  1.00  0.00     0.277 HD
BRANCH  14  17
HETATM   17  C10 UNL     1      -4.631 -17.955  97.437  1.00  0.00     0.310 C 
BRANCH  17  18
HETATM   18  C11 UNL     1      -3.956 -18.256  96.133  1.00  0.00     0.139 A 
HETATM   19  N6  UNL     1      -3.629 -19.481  95.648  1.00  0.00    -0.175 N 
HETATM   20  C12 UNL     1      -3.038 -19.354  94.447  1.00  0.00     0.721 A 
ATOM     21  H6  UNL     1      -3.806 -20.367  96.123  1.00  0.00     0.185 HD
HETATM   22  N7  UNL     1      -2.518 -20.167  93.516  1.00  0.00    -0.185 N 
HETATM   23  N10 UNL     1      -2.992 -18.026  94.174  1.00  0.00     0.091 N 
HETATM   24  C13 UNL     1      -1.977 -19.748  92.376  1.00  0.00     0.215 A 
ATOM     25  H7  UNL     1      -2.537 -21.171  93.694  1.00  0.00     0.185 HD
HETATM   26  N8  UNL     1      -1.934 -18.421  92.108  1.00  0.00    -0.185 N 
HETATM   27  C14 UNL     1      -2.451 -17.572  93.027  1.00  0.00     0.713 A 
ATOM     28  H8  UNL     1      -1.526 -18.072  91.240  1.00  0.00     0.185 HD
HETATM   29  N11 UNL     1      -3.542 -17.394  95.187  1.00  0.00    -0.251 N 
ATOM     30  H11 UNL     1      -3.642 -16.381  95.248  1.00  0.00     0.190 HD
BRANCH  27  31
HETATM   31  N9  UNL     1      -2.430 -16.305  92.813  1.00  0.00    -0.232 N 
ATOM     32  H92 UNL     1      -3.172 -15.891  92.249  1.00  0.00     0.174 HD
ATOM     33  H91 UNL     1      -1.680 -15.736  93.204  1.00  0.00     0.174 HD
ENDBRANCH  27  31
ENDBRANCH  17  18
ENDBRANCH  14  17
ENDBRANCH  13  14
ENDBRANCH  12  13
ENDBRANCH   7  12
BRANCH   1  34
HETATM   34  O2  UNL     1      -2.368 -26.109  95.921  1.00  0.00    -0.211 OA
BRANCH  34  35
HETATM   35  C4  UNL     1      -1.920 -26.655  94.755  1.00  0.00     0.215 A 
HETATM   36  C3  UNL     1      -0.727 -27.378  94.733  1.00  0.00     0.131 A 
HETATM   37  C19 UNL     1      -0.295 -27.918  93.545  1.00  0.00     0.163 A 
HETATM   38  N14 UNL     1      -1.047 -27.722  92.456  1.00  0.00    -0.177 N 
HETATM   39  N15 UNL     1       0.906 -28.664  93.441  1.00  0.00    -0.080 NA
HETATM   40  C18 UNL     1      -2.202 -27.029  92.444  1.00  0.00     0.679 A 
ATOM     41  H14 UNL     1      -0.723 -28.124  91.576  1.00  0.00     0.185 HD
HETATM   42  N12 UNL     1      -2.614 -26.507  93.606  1.00  0.00    -0.166 N 
ATOM     43  H12 UNL     1      -3.486 -25.978  93.624  1.00  0.00     0.186 HD
BRANCH  36  44
HETATM   44  N1  UNL     1       0.030 -27.553  95.926  1.00  0.00    -0.321 N 
HETATM   45  C2  UNL     1       1.081 -26.647  96.233  1.00  0.00     0.218 C 
HETATM   46  C1  UNL     1       1.887 -26.815  97.480  1.00  0.00     0.117 C 
HETATM   47  O1  UNL     1       1.335 -25.691  95.440  1.00  0.00    -0.274 OA
ATOM     48  H1  UNL     1      -0.181 -28.326  96.557  1.00  0.00     0.169 HD
ENDBRANCH  36  44
BRANCH  40  49
HETATM   49  N13 UNL     1      -2.893 -26.866  91.369  1.00  0.00    -0.234 N 
ATOM     50 2H13 UNL     1      -3.437 -27.621  90.952  1.00  0.00     0.174 HD
ATOM     51 1H13 UNL     1      -2.915 -25.961  90.898  1.00  0.00     0.174 HD
ENDBRANCH  40  49
ENDBRANCH  34  35
ENDBRANCH   1  34
TORSDOF 10
ENDMDL
MODEL 3
REMARK VINA RESULT: -6.662849983      1.842      3.714
REMARK  10 active torsions:
REMARK  status: ('A' for Active; 'I' for Inactive)
REMARK       I    between atoms: C2_2  and  N1_4 
REMARK    1  A    between atoms: N1_4  and  C3_6 
REMARK    2  A    between atoms: C4_7  and  O2_8 
REMARK    3  A    between atoms: O2_8  and  N2_9 
REMARK       I    between atoms: N3_12  and  C7_13 
REMARK       I    between atoms: C7_13  and  N4_15 
REMARK    4  A    between atoms: N4_15  and  C8_17 
REMARK    5  A    between atoms: C8_17  and  C9_18 
REMARK    6  A    between atoms: C9_18  and  N5_19 
REMARK    7  A    between atoms: N5_19  and  C10_22 
REMARK    8  A    between atoms: C10_22  and  C11_23 
REMARK    9  A    between atoms: C14_32  and  N9_33 
REMARK   10  A    between atoms: C18_44  and  N13_45 
ROOT
HETATM    1  N2  UNL     1      -1.637 -23.880  96.678  1.00  0.00    -0.241 N 
HETATM    2  C5  UNL     1      -2.045 -25.222  96.574  1.00  0.00     0.115 C 
HETATM    3  C6  UNL     1      -2.039 -25.800  95.204  1.00  0.00     0.175 C 
HETATM    4  N3  UNL     1      -0.915 -25.386  94.384  1.00  0.00    -0.320 N 
HETATM    5  C7  UNL     1      -0.348 -26.356  93.515  1.00  0.00     0.319 C 
HETATM    6  O3  UNL     1      -0.853 -27.505  93.507  1.00  0.00    -0.247 OA
HETATM    7  N4  UNL     1       0.751 -26.119  92.650  1.00  0.00    -0.341 N 
ATOM      8  H4  UNL     1       1.156 -25.183  92.666  1.00  0.00     0.164 HD
HETATM    9  C15 UNL     1      -0.455 -24.038  94.496  1.00  0.00     0.126 C 
HETATM   10  C16 UNL     1      -1.180 -23.209  93.428  1.00  0.00     0.038 C 
HETATM   11  C17 UNL     1      -0.653 -23.390  95.812  1.00  0.00     0.120 C 
ENDROOT
BRANCH   7  12
HETATM   12  C8  UNL     1       1.344 -27.059  91.763  1.00  0.00     0.152 C 
BRANCH  12  13
HETATM   13  C9  UNL     1       2.836 -27.092  91.834  1.00  0.00     0.252 C 
BRANCH  13  14
HETATM   14  N5  UNL     1       3.308 -27.728  93.032  1.00  0.00    -0.067 N 
ATOM     15  H52 UNL     1       2.591 -28.349  93.407  1.00  0.00     0.277 HD
ATOM     16  H51 UNL     1       4.032 -28.410  92.807  1.00  0.00     0.277 HD
BRANCH  14  17
HETATM   17  C10 UNL     1       3.768 -26.830  94.047  1.00  0.00     0.310 C 
BRANCH  17  18
HETATM   18  C11 UNL     1       2.870 -26.846  95.248  1.00  0.00     0.139 A 
HETATM   19  N6  UNL     1       2.080 -27.869  95.661  1.00  0.00    -0.175 N 
HETATM   20  C12 UNL     1       1.423 -27.515  96.779  1.00  0.00     0.721 A 
ATOM     21  H6  UNL     1       1.997 -28.772  95.194  1.00  0.00     0.185 HD
HETATM   22  N7  UNL     1       0.539 -28.073  97.619  1.00  0.00    -0.185 N 
HETATM   23  N10 UNL     1       1.807 -26.247  97.073  1.00  0.00     0.091 N 
HETATM   24  C13 UNL     1       0.039 -27.465  98.690  1.00  0.00     0.215 A 
ATOM     25  H7  UNL     1       0.231 -29.026  97.424  1.00  0.00     0.185 HD
HETATM   26  N8  UNL     1       0.425 -26.199  98.979  1.00  0.00    -0.185 N 
HETATM   27  C14 UNL     1       1.317 -25.605  98.150  1.00  0.00     0.713 A 
ATOM     28  H8  UNL     1       0.057 -25.710  99.794  1.00  0.00     0.185 HD
HETATM   29  N11 UNL     1       2.666 -25.870  96.151  1.00  0.00    -0.251 N 
ATOM     30  H11 UNL     1       3.118 -24.957  96.124  1.00  0.00     0.190 HD
BRANCH  27  31
HETATM   31  N9  UNL     1       1.710 -24.405  98.387  1.00  0.00    -0.232 N 
ATOM     32  H92 UNL     1       2.359 -23.964  97.736  1.00  0.00     0.174 HD
ATOM     33  H91 UNL     1       1.373 -23.914  99.214  1.00  0.00     0.174 HD
ENDBRANCH  27  31
ENDBRANCH  17  18
ENDBRANCH  14  17
ENDBRANCH  13  14
ENDBRANCH  12  13
ENDBRANCH   7  12
BRANCH   1  34
HETATM   34  O2  UNL     1      -2.488 -23.029  97.262  1.00  0.00    -0.211 OA
BRANCH  34  35
HETATM   35  C4  UNL     1      -3.708 -23.265  97.824  1.00  0.00     0.215 A 
HETATM   36  C3  UNL     1      -3.861 -23.221  99.210  1.00  0.00     0.131 A 
HETATM   37  C19 UNL     1      -5.101 -23.463  99.753  1.00  0.00     0.163 A 
HETATM   38  N14 UNL     1      -6.110 -23.734  98.918  1.00  0.00    -0.177 N 
HETATM   39  N15 UNL     1      -5.337 -23.437 101.151  1.00  0.00    -0.080 NA
HETATM   40  C18 UNL     1      -5.994 -23.785  97.577  1.00  0.00     0.679 A 
ATOM     41  H14 UNL     1      -7.028 -23.914  99.324  1.00  0.00     0.185 HD
HETATM   42  N12 UNL     1      -4.784 -23.547  97.058  1.00  0.00    -0.166 N 
ATOM     43  H12 UNL     1      -4.670 -23.579  96.045  1.00  0.00     0.186 HD
BRANCH  36  44
HETATM   44  N1  UNL     1      -2.749 -22.926 100.048  1.00  0.00    -0.321 N 
HETATM   45  C2  UNL     1      -1.936 -23.984 100.538  1.00  0.00     0.218 C 
HETATM   46  C1  UNL     1      -0.765 -23.696 101.419  1.00  0.00     0.117 C 
HETATM   47  O1  UNL     1      -2.211 -25.182 100.225  1.00  0.00    -0.274 OA
ATOM     48  H1  UNL     1      -2.536 -21.960 100.295  1.00  0.00     0.169 HD
ENDBRANCH  36  44
BRANCH  40  49
HETATM   49  N13 UNL     1      -6.996 -24.051  96.811  1.00  0.00    -0.234 N 
ATOM     50 2H13 UNL     1      -6.895 -24.165  95.803  1.00  0.00     0.174 HD
ATOM     51 1H13 UNL     1      -7.934 -24.156  97.200  1.00  0.00     0.174 HD
ENDBRANCH  40  49
ENDBRANCH  34  35
ENDBRANCH   1  34
TORSDOF 10
ENDMDL
MODEL 4
REMARK VINA RESULT: -6.638345533      1.743      2.407
REMARK  10 active torsions:
REMARK  status: ('A' for Active; 'I' for Inactive)
REMARK       I    between atoms: C2_2  and  N1_4 
REMARK    1  A    between atoms: N1_4  and  C3_6 
REMARK    2  A    between atoms: C4_7  and  O2_8 
REMARK    3  A    between atoms: O2_8  and  N2_9 
REMARK       I    between atoms: N3_12  and  C7_13 
REMARK       I    between atoms: C7_13  and  N4_15 
REMARK    4  A    between atoms: N4_15  and  C8_17 
REMARK    5  A    between atoms: C8_17  and  C9_18 
REMARK    6  A    between atoms: C9_18  and  N5_19 
REMARK    7  A    between atoms: N5_19  and  C10_22 
REMARK    8  A    between atoms: C10_22  and  C11_23 
REMARK    9  A    between atoms: C14_32  and  N9_33 
REMARK   10  A    between atoms: C18_44  and  N13_45 
ROOT
HETATM    1  N2  UNL     1      -1.416 -24.560  97.552  1.00  0.00    -0.241 N 
HETATM    2  C5  UNL     1      -1.892 -25.764  97.001  1.00  0.00     0.115 C 
HETATM    3  C6  UNL     1      -1.118 -26.303  95.851  1.00  0.00     0.175 C 
HETATM    4  N3  UNL     1       0.320 -26.156  95.974  1.00  0.00    -0.320 N 
HETATM    5  C7  UNL     1       1.130 -27.218  95.490  1.00  0.00     0.319 C 
HETATM    6  O3  UNL     1       0.554 -28.212  94.986  1.00  0.00    -0.247 OA
HETATM    7  N4  UNL     1       2.548 -27.235  95.534  1.00  0.00    -0.341 N 
ATOM      8  H4  UNL     1       3.006 -26.423  95.948  1.00  0.00     0.164 HD
HETATM    9  C15 UNL     1       0.830 -24.958  96.564  1.00  0.00     0.126 C 
HETATM   10  C16 UNL     1       1.106 -23.961  95.430  1.00  0.00     0.038 C 
HETATM   11  C17 UNL     1      -0.040 -24.304  97.567  1.00  0.00     0.120 C 
ENDROOT
BRANCH   7  12
HETATM   12  C8  UNL     1       3.394 -28.275  95.057  1.00  0.00     0.152 C 
BRANCH  12  13
HETATM   13  C9  UNL     1       4.515 -27.788  94.199  1.00  0.00     0.252 C 
BRANCH  13  14
HETATM   14  N5  UNL     1       4.106 -26.725  93.324  1.00  0.00    -0.067 N 
ATOM     15  H52 UNL     1       3.552 -26.039  93.837  1.00  0.00     0.277 HD
ATOM     16  H51 UNL     1       4.908 -26.150  93.068  1.00  0.00     0.277 HD
BRANCH  14  17
HETATM   17  C10 UNL     1       3.406 -27.151  92.150  1.00  0.00     0.310 C 
BRANCH  17  18
HETATM   18  C11 UNL     1       1.977 -26.697  92.163  1.00  0.00     0.139 A 
HETATM   19  N6  UNL     1       1.529 -25.416  92.161  1.00  0.00    -0.175 N 
HETATM   20  C12 UNL     1       0.185 -25.402  92.171  1.00  0.00     0.721 A 
ATOM     21  H6  UNL     1       2.123 -24.587  92.153  1.00  0.00     0.185 HD
HETATM   22  N7  UNL     1      -0.790 -24.481  92.175  1.00  0.00    -0.185 N 
HETATM   23  N10 UNL     1      -0.218 -26.698  92.180  1.00  0.00     0.091 N 
HETATM   24  C13 UNL     1      -2.088 -24.767  92.186  1.00  0.00     0.215 A 
ATOM     25  H7  UNL     1      -0.517 -23.498  92.170  1.00  0.00     0.185 HD
HETATM   26  N8  UNL     1      -2.485 -26.062  92.194  1.00  0.00    -0.185 N 
HETATM   27  C14 UNL     1      -1.526 -27.018  92.191  1.00  0.00     0.713 A 
ATOM     28  H8  UNL     1      -3.475 -26.308  92.201  1.00  0.00     0.185 HD
HETATM   29  N11 UNL     1       0.861 -27.448  92.175  1.00  0.00    -0.251 N 
ATOM     30  H11 UNL     1       0.854 -28.468  92.178  1.00  0.00     0.190 HD
BRANCH  27  31
HETATM   31  N9  UNL     1      -1.859 -28.259  92.199  1.00  0.00    -0.232 N 
ATOM     32  H92 UNL     1      -2.022 -28.717  93.095  1.00  0.00     0.174 HD
ATOM     33  H91 UNL     1      -1.955 -28.765  91.318  1.00  0.00     0.174 HD
ENDBRANCH  27  31
ENDBRANCH  17  18
ENDBRANCH  14  17
ENDBRANCH  13  14
ENDBRANCH  12  13
ENDBRANCH   7  12
BRANCH   1  34
HETATM   34  O2  UNL     1      -2.280 -23.541  97.622  1.00  0.00    -0.211 OA
BRANCH  34  35
HETATM   35  C4  UNL     1      -3.594 -23.536  97.983  1.00  0.00     0.215 A 
HETATM   36  C3  UNL     1      -3.955 -23.312  99.312  1.00  0.00     0.131 A 
HETATM   37  C19 UNL     1      -5.287 -23.313  99.653  1.00  0.00     0.163 A 
HETATM   38  N14 UNL     1      -6.182 -23.533  98.684  1.00  0.00    -0.177 N 
HETATM   39  N15 UNL     1      -5.733 -23.094 100.980  1.00  0.00    -0.080 NA
HETATM   40  C18 UNL     1      -5.867 -23.753  97.392  1.00  0.00     0.679 A 
ATOM     41  H14 UNL     1      -7.169 -23.534  98.939  1.00  0.00     0.185 HD
HETATM   42  N12 UNL     1      -4.567 -23.749  97.071  1.00  0.00    -0.166 N 
ATOM     43  H12 UNL     1      -4.302 -23.913  96.101  1.00  0.00     0.186 HD
BRANCH  36  44
HETATM   44  N1  UNL     1      -2.955 -23.083 100.300  1.00  0.00    -0.321 N 
HETATM   45  C2  UNL     1      -2.362 -24.187 100.971  1.00  0.00     0.218 C 
HETATM   46  C1  UNL     1      -1.312 -23.967 102.011  1.00  0.00     0.117 C 
HETATM   47  O1  UNL     1      -2.730 -25.366 100.683  1.00  0.00    -0.274 OA
ATOM     48  H1  UNL     1      -2.666 -22.132 100.525  1.00  0.00     0.169 HD
ENDBRANCH  36  44
BRANCH  40  49
HETATM   49  N13 UNL     1      -6.765 -23.961  96.493  1.00  0.00    -0.234 N 
ATOM     50 2H13 UNL     1      -7.613 -23.397  96.430  1.00  0.00     0.174 HD
ATOM     51 1H13 UNL     1      -6.651 -24.707  95.807  1.00  0.00     0.174 HD
ENDBRANCH  40  49
ENDBRANCH  34  35
ENDBRANCH   1  34
TORSDOF 10
ENDMDL
MODEL 5
REMARK VINA RESULT: -6.600634693      2.005      4.350
REMARK  10 active torsions:
REMARK  status: ('A' for Active; 'I' for Inactive)
REMARK       I    between atoms: C2_2  and  N1_4 
REMARK    1  A    between atoms: N1_4  and  C3_6 
REMARK    2  A    between atoms: C4_7  and  O2_8 
REMARK    3  A    between atoms: O2_8  and  N2_9 
REMARK       I    between atoms: N3_12  and  C7_13 
REMARK       I    between atoms: C7_13  and  N4_15 
REMARK    4  A    between atoms: N4_15  and  C8_17 
REMARK    5  A    between atoms: C8_17  and  C9_18 
REMARK    6  A    between atoms: C9_18  and  N5_19 
REMARK    7  A    between atoms: N5_19  and  C10_22 
REMARK    8  A    between atoms: C10_22  and  C11_23 
REMARK    9  A    between atoms: C14_32  and  N9_33 
REMARK   10  A    between atoms: C18_44  and  N13_45 
ROOT
HETATM    1  N2  UNL     1      -1.633 -24.000  96.569  1.00  0.00    -0.241 N 
HETATM    2  C5  UNL     1      -2.031 -25.329  96.334  1.00  0.00     0.115 C 
HETATM    3  C6  UNL     1      -2.003 -25.774  94.915  1.00  0.00     0.175 C 
HETATM    4  N3  UNL     1      -0.872 -25.277  94.153  1.00  0.00    -0.320 N 
HETATM    5  C7  UNL     1      -0.287 -26.157  93.204  1.00  0.00     0.319 C 
HETATM    6  O3  UNL     1      -0.784 -27.302  93.080  1.00  0.00    -0.247 OA
HETATM    7  N4  UNL     1       0.822 -25.832  92.380  1.00  0.00    -0.341 N 
ATOM      8  H4  UNL     1       1.220 -24.899  92.490  1.00  0.00     0.164 HD
HETATM    9  C15 UNL     1      -0.422 -23.943  94.399  1.00  0.00     0.126 C 
HETATM   10  C16 UNL     1      -1.139 -23.020  93.405  1.00  0.00     0.038 C 
HETATM   11  C17 UNL     1      -0.641 -23.424  95.768  1.00  0.00     0.120 C 
ENDROOT
BRANCH   7  12
HETATM   12  C8  UNL     1       1.433 -26.681  91.415  1.00  0.00     0.152 C 
BRANCH  12  13
HETATM   13  C9  UNL     1       2.859 -27.003  91.719  1.00  0.00     0.252 C 
BRANCH  13  14
HETATM   14  N5  UNL     1       3.006 -27.683  92.975  1.00  0.00    -0.067 N 
ATOM     15  H52 UNL     1       2.108 -28.062  93.278  1.00  0.00     0.277 HD
ATOM     16  H51 UNL     1       3.529 -28.549  92.848  1.00  0.00     0.277 HD
BRANCH  14  17
HETATM   17  C10 UNL     1       3.591 -26.897  94.017  1.00  0.00     0.310 C 
BRANCH  17  18
HETATM   18  C11 UNL     1       2.717 -26.854  95.235  1.00  0.00     0.139 A 
HETATM   19  N6  UNL     1       1.885 -27.831  95.677  1.00  0.00    -0.175 N 
HETATM   20  C12 UNL     1       1.268 -27.432  96.801  1.00  0.00     0.721 A 
ATOM     21  H6  UNL     1       1.750 -28.735  95.223  1.00  0.00     0.185 HD
HETATM   22  N7  UNL     1       0.374 -27.935  97.665  1.00  0.00    -0.185 N 
HETATM   23  N10 UNL     1       1.719 -26.181  97.071  1.00  0.00     0.091 N 
HETATM   24  C13 UNL     1      -0.076 -27.289  98.736  1.00  0.00     0.215 A 
ATOM     25  H7  UNL     1       0.016 -28.874  97.488  1.00  0.00     0.185 HD
HETATM   26  N8  UNL     1       0.378 -26.041  99.001  1.00  0.00    -0.185 N 
HETATM   27  C14 UNL     1       1.282 -25.502  98.149  1.00  0.00     0.713 A 
ATOM     28  H8  UNL     1       0.050 -25.524  99.816  1.00  0.00     0.185 HD
HETATM   29  N11 UNL     1       2.578 -25.858  96.129  1.00  0.00    -0.251 N 
ATOM     30  H11 UNL     1       3.074 -24.969  96.082  1.00  0.00     0.190 HD
BRANCH  27  31
HETATM   31  N9  UNL     1       1.738 -24.320  98.362  1.00  0.00    -0.232 N 
ATOM     32  H92 UNL     1       2.169 -24.116  99.264  1.00  0.00     0.174 HD
ATOM     33  H91 UNL     1       1.665 -23.608  97.636  1.00  0.00     0.174 HD
ENDBRANCH  27  31
ENDBRANCH  17  18
ENDBRANCH  14  17
ENDBRANCH  13  14
ENDBRANCH  12  13
ENDBRANCH   7  12
BRANCH   1  34
HETATM   34  O2  UNL     1      -2.497 -23.213  97.221  1.00  0.00    -0.211 OA
BRANCH  34  35
HETATM   35  C4  UNL     1      -2.797 -23.161  98.550  1.00  0.00     0.215 A 
HETATM   36  C3  UNL     1      -4.123 -23.041  98.964  1.00  0.00     0.131 A 
HETATM   37  C19 UNL     1      -4.401 -22.989 100.310  1.00  0.00     0.163 A 
HETATM   38  N14 UNL     1      -3.375 -23.055 101.165  1.00  0.00    -0.177 N 
HETATM   39  N15 UNL     1      -5.722 -22.866 100.810  1.00  0.00    -0.080 NA
HETATM   40  C18 UNL     1      -2.084 -23.171 100.797  1.00  0.00     0.679 A 
ATOM     41  H14 UNL     1      -3.584 -23.016 102.163  1.00  0.00     0.185 HD
HETATM   42  N12 UNL     1      -1.825 -23.222  99.485  1.00  0.00    -0.166 N 
ATOM     43  H12 UNL     1      -0.856 -23.309  99.180  1.00  0.00     0.186 HD
BRANCH  36  44
HETATM   44  N1  UNL     1      -5.174 -22.975  98.005  1.00  0.00    -0.321 N 
HETATM   45  C2  UNL     1      -5.767 -24.174  97.527  1.00  0.00     0.218 C 
HETATM   46  C1  UNL     1      -6.870 -24.126  96.520  1.00  0.00     0.117 C 
HETATM   47  O1  UNL     1      -5.353 -25.293  97.957  1.00  0.00    -0.274 OA
ATOM     48  H1  UNL     1      -5.499 -22.071  97.664  1.00  0.00     0.169 HD
ENDBRANCH  36  44
BRANCH  40  49
HETATM   49  N13 UNL     1      -1.128 -23.231 101.659  1.00  0.00    -0.234 N 
ATOM     50 2H13 UNL     1      -0.161 -23.021 101.413  1.00  0.00     0.174 HD
ATOM     51 1H13 UNL     1      -1.315 -23.496 102.626  1.00  0.00     0.174 HD
ENDBRANCH  40  49
ENDBRANCH  34  35
ENDBRANCH   1  34
TORSDOF 10
ENDMDL
