MODEL 1
REMARK VINA RESULT: -6.894434051      0.000      0.000
REMARK  11 active torsions:
REMARK  status: ('A' for Active; 'I' for Inactive)
REMARK    1  A    between atoms: C2_2  and  N1_3 
REMARK    2  A    between atoms: C2_2  and  C4_8 
REMARK       I    between atoms: C4_8  and  N4_10 
REMARK    3  A    between atoms: N4_10  and  C5_12 
REMARK    4  A    between atoms: C10_18  and  N5_19 
REMARK    5  A    between atoms: N5_19  and  C11_21 
REMARK    6  A    between atoms: C11_21  and  C12_22 
REMARK    7  A    between atoms: C12_22  and  N6_23 
REMARK    8  A    between atoms: N6_23  and  N7_24 
REMARK    9  A    between atoms: N12_36  and  N13_38 
REMARK   10  A    between atoms: C18_41  and  C19_42 
REMARK   11  A    between atoms: C19_42  and  O3_43 
ROOT
HETATM    1  C5  UNL     1       3.246 -26.322  91.846  1.00  0.00     0.037 A 
HETATM    2  C6  UNL     1       3.981 -27.081  92.772  1.00  0.00     0.030 A 
HETATM    3  C7  UNL     1       3.416 -27.375  93.988  1.00  0.00     0.021 A 
HETATM    4  C8  UNL     1       2.153 -26.954  94.342  1.00  0.00     0.050 A 
HETATM    5  C9  UNL     1       1.551 -27.230  95.556  1.00  0.00     0.214 A 
HETATM    6  O2  UNL     1       2.172 -27.896  96.397  1.00  0.00    -0.285 OA
HETATM    7  C10 UNL     1       0.269 -26.770  95.845  1.00  0.00     0.117 A 
HETATM    8  C18 UNL     1      -0.387 -26.034  94.890  1.00  0.00     0.107 A 
HETATM    9  O4  UNL     1       0.216 -25.788  93.738  1.00  0.00    -0.309 OA
HETATM   10  C20 UNL     1       1.422 -26.210  93.443  1.00  0.00     0.092 A 
HETATM   11  C21 UNL     1       2.008 -25.913  92.198  1.00  0.00     0.067 A 
ENDROOT
BRANCH   7  12
HETATM   12  N5  UNL     1      -0.349 -27.037  97.089  1.00  0.00    -0.339 N 
ATOM     13  H5  UNL     1      -1.186 -27.620  97.069  1.00  0.00     0.167 HD
BRANCH  12  14
HETATM   14  C11 UNL     1       0.071 -26.581  98.348  1.00  0.00     0.112 C 
HETATM   15  N12 UNL     1       0.789 -27.325  99.121  1.00  0.00    -0.294 N 
ATOM     16  H12 UNL     1       1.047 -28.257  98.798  1.00  0.00     0.187 HD
BRANCH  14  17
HETATM   17  C12 UNL     1      -0.289 -25.231  98.838  1.00  0.00     0.213 C 
BRANCH  17  18
HETATM   18  N6  UNL     1      -1.342 -25.402  99.850  1.00  0.00    -0.127 NA
BRANCH  18  19
HETATM   19  N7  UNL     1      -2.549 -24.840  99.476  1.00  0.00    -0.239 N 
HETATM   20  C13 UNL     1      -3.494 -25.609  98.757  1.00  0.00     0.211 A 
HETATM   21  N8  UNL     1      -3.226 -26.979  98.402  1.00  0.00    -0.062 NA
HETATM   22  N9  UNL     1      -4.633 -25.114  98.387  1.00  0.00    -0.304 N 
HETATM   23  C14 UNL     1      -4.979 -23.782  98.689  1.00  0.00     0.192 A 
ATOM     24  H9  UNL     1      -5.289 -25.698  97.869  1.00  0.00     0.171 HD
HETATM   25  N10 UNL     1      -6.226 -23.233  98.282  1.00  0.00    -0.063 NA
HETATM   26  N11 UNL     1      -4.154 -23.056  99.337  1.00  0.00    -0.337 N 
HETATM   27  C15 UNL     1      -2.860 -23.472  99.809  1.00  0.00     0.119 A 
ATOM     28  H11 UNL     1      -4.437 -22.097  99.539  1.00  0.00     0.164 HD
HETATM   29  C16 UNL     1      -2.830 -23.261 101.311  1.00  0.00     0.064 C 
HETATM   30  C17 UNL     1      -1.832 -22.534  99.173  1.00  0.00     0.064 C 
ENDBRANCH  18  19
ENDBRANCH  17  18
ENDBRANCH  14  17
BRANCH  15  31
HETATM   31  N13 UNL     1       1.225 -26.908 100.376  1.00  0.00    -0.344 N 
ATOM     32 2H13 UNL     1       0.877 -27.417 101.189  1.00  0.00     0.176 HD
ATOM     33 1H13 UNL     1       1.868 -26.127 100.507  1.00  0.00     0.176 HD
ENDBRANCH  15  31
ENDBRANCH  12  14
ENDBRANCH   7  12
BRANCH   8  34
HETATM   34  C19 UNL     1      -1.777 -25.508  95.140  1.00  0.00     0.231 C 
BRANCH  34  35
HETATM   35  O3  UNL     1      -2.623 -26.575  95.453  1.00  0.00    -0.394 OA
ATOM     36  H3  UNL     1      -3.526 -26.298  95.353  1.00  0.00     0.209 HD
ENDBRANCH  34  35
ENDBRANCH   8  34
BRANCH   1  37
HETATM   37  N4  UNL     1       3.837 -26.040  90.586  1.00  0.00    -0.325 N 
HETATM   38  C4  UNL     1       4.765 -25.055  90.274  1.00  0.00     0.244 C 
HETATM   39  O1  UNL     1       5.208 -24.264  91.125  1.00  0.00    -0.271 OA
ATOM     40  H4  UNL     1       3.542 -26.636  89.812  1.00  0.00     0.169 HD
BRANCH  38  41
HETATM   41  C2  UNL     1       5.279 -24.896  88.887  1.00  0.00     0.172 C 
HETATM   42  C1  UNL     1       5.352 -23.456  88.451  1.00  0.00     0.042 C 
BRANCH  41  43
HETATM   43  N1  UNL     1       6.556 -25.519  88.686  1.00  0.00    -0.354 N 
HETATM   44  C3  UNL     1       6.815 -26.771  88.620  1.00  0.00     0.197 C 
HETATM   45  N2  UNL     1       8.153 -27.206  88.415  1.00  0.00    -0.067 NA
HETATM   46  N3  UNL     1       5.822 -27.792  88.735  1.00  0.00    -0.067 NA
ATOM     47  H1  UNL     1       7.352 -24.889  88.582  1.00  0.00     0.162 HD
ENDBRANCH  41  43
ENDBRANCH  38  41
ENDBRANCH   1  37
TORSDOF 11
ENDMDL
MODEL 2
REMARK VINA RESULT: -6.799760387      1.413      2.013
REMARK  11 active torsions:
REMARK  status: ('A' for Active; 'I' for Inactive)
REMARK    1  A    between atoms: C2_2  and  N1_3 
REMARK    2  A    between atoms: C2_2  and  C4_8 
REMARK       I    between atoms: C4_8  and  N4_10 
REMARK    3  A    between atoms: N4_10  and  C5_12 
REMARK    4  A    between atoms: C10_18  and  N5_19 
REMARK    5  A    between atoms: N5_19  and  C11_21 
REMARK    6  A    between atoms: C11_21  and  C12_22 
REMARK    7  A    between atoms: C12_22  and  N6_23 
REMARK    8  A    between atoms: N6_23  and  N7_24 
REMARK    9  A    between atoms: N12_36  and  N13_38 
REMARK   10  A    between atoms: C18_41  and  C19_42 
REMARK   11  A    between atoms: C19_42  and  O3_43 
ROOT
HETATM    1  C5  UNL     1       4.028 -26.296  92.651  1.00  0.00     0.037 A 
HETATM    2  C6  UNL     1       4.543 -27.067  93.707  1.00  0.00     0.030 A 
HETATM    3  C7  UNL     1       3.726 -27.374  94.767  1.00  0.00     0.021 A 
HETATM    4  C8  UNL     1       2.416 -26.955  94.841  1.00  0.00     0.050 A 
HETATM    5  C9  UNL     1       1.564 -27.244  95.891  1.00  0.00     0.214 A 
HETATM    6  O2  UNL     1       1.986 -27.921  96.839  1.00  0.00    -0.285 OA
HETATM    7  C10 UNL     1       0.249 -26.786  95.898  1.00  0.00     0.117 A 
HETATM    8  C18 UNL     1      -0.184 -26.037  94.831  1.00  0.00     0.107 A 
HETATM    9  O4  UNL     1       0.657 -25.780  93.842  1.00  0.00    -0.309 OA
HETATM   10  C20 UNL     1       1.898 -26.200  93.813  1.00  0.00     0.092 A 
HETATM   11  C21 UNL     1       2.742 -25.889  92.729  1.00  0.00     0.067 A 
ENDROOT
BRANCH   7  12
HETATM   12  N5  UNL     1      -0.626 -27.066  96.974  1.00  0.00    -0.339 N 
ATOM     13  H5  UNL     1      -1.346 -27.769  96.808  1.00  0.00     0.167 HD
BRANCH  12  14
HETATM   14  C11 UNL     1      -0.604 -26.475  98.247  1.00  0.00     0.112 C 
HETATM   15  N12 UNL     1       0.184 -26.911  99.170  1.00  0.00    -0.294 N 
ATOM     16  H12 UNL     1       0.796 -27.699  98.958  1.00  0.00     0.187 HD
BRANCH  14  17
HETATM   17  C12 UNL     1      -1.480 -25.329  98.579  1.00  0.00     0.213 C 
BRANCH  17  18
HETATM   18  N6  UNL     1      -2.664 -25.870  99.263  1.00  0.00    -0.127 NA
BRANCH  18  19
HETATM   19  N7  UNL     1      -3.639 -24.918  99.493  1.00  0.00    -0.239 N 
HETATM   20  C13 UNL     1      -4.373 -24.381  98.409  1.00  0.00     0.211 A 
HETATM   21  N8  UNL     1      -4.126 -24.809  97.056  1.00  0.00    -0.062 NA
HETATM   22  N9  UNL     1      -5.291 -23.484  98.587  1.00  0.00    -0.304 N 
HETATM   23  C14 UNL     1      -5.599 -23.004  99.876  1.00  0.00     0.192 A 
ATOM     24  H9  UNL     1      -5.799 -23.119  97.781  1.00  0.00     0.171 HD
HETATM   25  N10 UNL     1      -6.603 -22.018 100.075  1.00  0.00    -0.063 NA
HETATM   26  N11 UNL     1      -4.960 -23.464 100.879  1.00  0.00    -0.337 N 
HETATM   27  C15 UNL     1      -3.921 -24.457 100.831  1.00  0.00     0.119 A 
ATOM     28  H11 UNL     1      -5.208 -23.095 101.798  1.00  0.00     0.164 HD
HETATM   29  C16 UNL     1      -4.346 -25.611 101.720  1.00  0.00     0.064 C 
HETATM   30  C17 UNL     1      -2.668 -23.822 101.437  1.00  0.00     0.064 C 
ENDBRANCH  18  19
ENDBRANCH  17  18
ENDBRANCH  14  17
BRANCH  15  31
HETATM   31  N13 UNL     1       0.235 -26.352 100.445  1.00  0.00    -0.344 N 
ATOM     32 2H13 UNL     1       0.410 -25.350 100.513  1.00  0.00     0.176 HD
ATOM     33 1H13 UNL     1       0.106 -26.901 101.294  1.00  0.00     0.176 HD
ENDBRANCH  15  31
ENDBRANCH  12  14
ENDBRANCH   7  12
BRANCH   8  34
HETATM   34  C19 UNL     1      -1.594 -25.513  94.777  1.00  0.00     0.231 C 
BRANCH  34  35
HETATM   35  O3  UNL     1      -2.487 -26.575  94.945  1.00  0.00    -0.394 OA
ATOM     36  H3  UNL     1      -2.332 -27.224  94.270  1.00  0.00     0.209 HD
ENDBRANCH  34  35
ENDBRANCH   8  34
BRANCH   1  37
HETATM   37  N4  UNL     1       4.879 -26.001  91.554  1.00  0.00    -0.325 N 
HETATM   38  C4  UNL     1       4.969 -26.663  90.336  1.00  0.00     0.244 C 
HETATM   39  O1  UNL     1       4.264 -27.648  90.059  1.00  0.00    -0.271 OA
ATOM     40  H4  UNL     1       5.503 -25.203  91.676  1.00  0.00     0.169 HD
BRANCH  38  41
HETATM   41  C2  UNL     1       5.930 -26.217  89.291  1.00  0.00     0.172 C 
HETATM   42  C1  UNL     1       6.476 -27.359  88.473  1.00  0.00     0.042 C 
BRANCH  41  43
HETATM   43  N1  UNL     1       5.384 -25.222  88.413  1.00  0.00    -0.354 N 
HETATM   44  C3  UNL     1       5.294 -23.962  88.616  1.00  0.00     0.197 C 
HETATM   45  N2  UNL     1       4.717 -23.125  87.623  1.00  0.00    -0.067 NA
HETATM   46  N3  UNL     1       5.755 -23.318  89.806  1.00  0.00    -0.067 NA
ATOM     47  H1  UNL     1       5.025 -25.560  87.519  1.00  0.00     0.162 HD
ENDBRANCH  41  43
ENDBRANCH  38  41
ENDBRANCH   1  37
TORSDOF 11
ENDMDL
MODEL 3
REMARK VINA RESULT: -6.793869369      1.795      2.536
REMARK  11 active torsions:
REMARK  status: ('A' for Active; 'I' for Inactive)
REMARK    1  A    between atoms: C2_2  and  N1_3 
REMARK    2  A    between atoms: C2_2  and  C4_8 
REMARK       I    between atoms: C4_8  and  N4_10 
REMARK    3  A    between atoms: N4_10  and  C5_12 
REMARK    4  A    between atoms: C10_18  and  N5_19 
REMARK    5  A    between atoms: N5_19  and  C11_21 
REMARK    6  A    between atoms: C11_21  and  C12_22 
REMARK    7  A    between atoms: C12_22  and  N6_23 
REMARK    8  A    between atoms: N6_23  and  N7_24 
REMARK    9  A    between atoms: N12_36  and  N13_38 
REMARK   10  A    between atoms: C18_41  and  C19_42 
REMARK   11  A    between atoms: C19_42  and  O3_43 
ROOT
HETATM    1  C5  UNL     1       4.068 -26.905  91.016  1.00  0.00     0.037 A 
HETATM    2  C6  UNL     1       4.547 -26.761  92.329  1.00  0.00     0.030 A 
HETATM    3  C7  UNL     1       3.656 -26.814  93.372  1.00  0.00     0.021 A 
HETATM    4  C8  UNL     1       2.305 -27.005  93.185  1.00  0.00     0.050 A 
HETATM    5  C9  UNL     1       1.378 -27.064  94.210  1.00  0.00     0.214 A 
HETATM    6  O2  UNL     1       1.767 -26.939  95.381  1.00  0.00    -0.285 OA
HETATM    7  C10 UNL     1       0.025 -27.259  93.947  1.00  0.00     0.117 A 
HETATM    8  C18 UNL     1      -0.369 -27.392  92.638  1.00  0.00     0.107 A 
HETATM    9  O4  UNL     1       0.544 -27.331  91.681  1.00  0.00    -0.309 OA
HETATM   10  C20 UNL     1       1.822 -27.149  91.904  1.00  0.00     0.092 A 
HETATM   11  C21 UNL     1       2.742 -27.093  90.839  1.00  0.00     0.067 A 
ENDROOT
BRANCH   7  12
HETATM   12  N5  UNL     1      -0.932 -27.309  94.987  1.00  0.00    -0.339 N 
ATOM     13  H5  UNL     1      -1.237 -28.236  95.284  1.00  0.00     0.167 HD
BRANCH  12  14
HETATM   14  C11 UNL     1      -1.503 -26.214  95.652  1.00  0.00     0.112 C 
HETATM   15  N12 UNL     1      -2.570 -25.644  95.202  1.00  0.00    -0.294 N 
ATOM     16  H12 UNL     1      -2.994 -26.006  94.349  1.00  0.00     0.187 HD
BRANCH  14  17
HETATM   17  C12 UNL     1      -0.908 -25.670  96.894  1.00  0.00     0.213 C 
BRANCH  17  18
HETATM   18  N6  UNL     1      -1.639 -26.261  98.024  1.00  0.00    -0.127 NA
BRANCH  18  19
HETATM   19  N7  UNL     1      -2.162 -25.315  98.886  1.00  0.00    -0.239 N 
HETATM   20  C13 UNL     1      -3.562 -25.120  98.958  1.00  0.00     0.211 A 
HETATM   21  N8  UNL     1      -4.465 -25.896  98.147  1.00  0.00    -0.062 NA
HETATM   22  N9  UNL     1      -4.087 -24.240  99.751  1.00  0.00    -0.304 N 
HETATM   23  C14 UNL     1      -3.279 -23.436 100.580  1.00  0.00     0.192 A 
ATOM     24  H9  UNL     1      -5.100 -24.128  99.775  1.00  0.00     0.171 HD
HETATM   25  N10 UNL     1      -3.849 -22.466 101.448  1.00  0.00    -0.063 NA
HETATM   26  N11 UNL     1      -2.012 -23.581 100.544  1.00  0.00    -0.337 N 
HETATM   27  C15 UNL     1      -1.296 -24.514  99.716  1.00  0.00     0.119 A 
ATOM     28  H11 UNL     1      -1.458 -22.982 101.156  1.00  0.00     0.164 HD
HETATM   29  C16 UNL     1      -0.462 -25.393 100.630  1.00  0.00     0.064 C 
HETATM   30  C17 UNL     1      -0.345 -23.696  98.841  1.00  0.00     0.064 C 
ENDBRANCH  18  19
ENDBRANCH  17  18
ENDBRANCH  14  17
BRANCH  15  31
HETATM   31  N13 UNL     1      -3.166 -24.555  95.833  1.00  0.00    -0.344 N 
ATOM     32 2H13 UNL     1      -2.691 -23.654  95.768  1.00  0.00     0.176 HD
ATOM     33 1H13 UNL     1      -4.044 -24.626  96.347  1.00  0.00     0.176 HD
ENDBRANCH  15  31
ENDBRANCH  12  14
ENDBRANCH   7  12
BRANCH   8  34
HETATM   34  C19 UNL     1      -1.817 -27.607  92.285  1.00  0.00     0.231 C 
BRANCH  34  35
HETATM   35  O3  UNL     1      -2.495 -26.386  92.359  1.00  0.00    -0.394 OA
ATOM     36  H3  UNL     1      -2.137 -25.872  93.074  1.00  0.00     0.209 HD
ENDBRANCH  34  35
ENDBRANCH   8  34
BRANCH   1  37
HETATM   37  N4  UNL     1       5.003 -26.864  89.948  1.00  0.00    -0.325 N 
HETATM   38  C4  UNL     1       5.448 -25.756  89.240  1.00  0.00     0.244 C 
HETATM   39  O1  UNL     1       5.049 -24.604  89.485  1.00  0.00    -0.271 OA
ATOM     40  H4  UNL     1       5.398 -27.762  89.667  1.00  0.00     0.169 HD
BRANCH  38  41
HETATM   41  C2  UNL     1       6.437 -25.897  88.137  1.00  0.00     0.172 C 
HETATM   42  C1  UNL     1       6.022 -25.172  86.883  1.00  0.00     0.042 C 
BRANCH  41  43
HETATM   43  N1  UNL     1       7.759 -25.481  88.510  1.00  0.00    -0.354 N 
HETATM   44  C3  UNL     1       8.797 -26.213  88.662  1.00  0.00     0.197 C 
HETATM   45  N2  UNL     1      10.032 -25.620  89.039  1.00  0.00    -0.067 NA
HETATM   46  N3  UNL     1       8.803 -27.629  88.464  1.00  0.00    -0.067 NA
ATOM     47  H1  UNL     1       7.886 -24.482  88.674  1.00  0.00     0.162 HD
ENDBRANCH  41  43
ENDBRANCH  38  41
ENDBRANCH   1  37
TORSDOF 11
ENDMDL
MODEL 4
REMARK VINA RESULT: -6.681098898      2.551     10.409
REMARK  11 active torsions:
REMARK  status: ('A' for Active; 'I' for Inactive)
REMARK    1  A    between atoms: C2_2  and  N1_3 
REMARK    2  A    between atoms: C2_2  and  C4_8 
REMARK       I    between atoms: C4_8  and  N4_10 
REMARK    3  A    between atoms: N4_10  and  C5_12 
REMARK    4  A    between atoms: C10_18  and  N5_19 
REMARK    5  A    between atoms: N5_19  and  C11_21 
REMARK    6  A    between atoms: C11_21  and  C12_22 
REMARK    7  A    between atoms: C12_22  and  N6_23 
REMARK    8  A    between atoms: N6_23  and  N7_24 
REMARK    9  A    between atoms: N12_36  and  N13_38 
REMARK   10  A    between atoms: C18_41  and  C19_42 
REMARK   11  A    between atoms: C19_42  and  O3_43 
ROOT
HETATM    1  C5  UNL     1      -1.844 -25.656  97.769  1.00  0.00     0.037 A 
HETATM    2  C6  UNL     1      -0.576 -26.171  98.086  1.00  0.00     0.030 A 
HETATM    3  C7  UNL     1       0.209 -26.673  97.079  1.00  0.00     0.021 A 
HETATM    4  C8  UNL     1      -0.195 -26.695  95.762  1.00  0.00     0.050 A 
HETATM    5  C9  UNL     1       0.568 -27.193  94.722  1.00  0.00     0.214 A 
HETATM    6  O2  UNL     1       1.692 -27.656  94.967  1.00  0.00    -0.285 OA
HETATM    7  C10 UNL     1       0.094 -27.183  93.413  1.00  0.00     0.117 A 
HETATM    8  C18 UNL     1      -1.155 -26.664  93.179  1.00  0.00     0.107 A 
HETATM    9  O4  UNL     1      -1.859 -26.195  94.197  1.00  0.00    -0.309 OA
HETATM   10  C20 UNL     1      -1.434 -26.193  95.437  1.00  0.00     0.092 A 
HETATM   11  C21 UNL     1      -2.235 -25.679  96.475  1.00  0.00     0.067 A 
ENDROOT
BRANCH   7  12
HETATM   12  N5  UNL     1       0.862 -27.702  92.344  1.00  0.00    -0.339 N 
ATOM     13  H5  UNL     1       0.632 -28.644  92.029  1.00  0.00     0.167 HD
BRANCH  12  14
HETATM   14  C11 UNL     1       1.909 -27.051  91.673  1.00  0.00     0.112 C 
HETATM   15  N12 UNL     1       1.681 -26.302  90.648  1.00  0.00    -0.294 N 
ATOM     16  H12 UNL     1       0.718 -26.190  90.331  1.00  0.00     0.187 HD
BRANCH  14  17
HETATM   17  C12 UNL     1       3.315 -27.197  92.115  1.00  0.00     0.213 C 
BRANCH  17  18
HETATM   18  N6  UNL     1       3.660 -25.988  92.877  1.00  0.00    -0.127 NA
BRANCH  18  19
HETATM   19  N7  UNL     1       5.002 -25.918  93.204  1.00  0.00    -0.239 N 
HETATM   20  C13 UNL     1       5.924 -25.351  92.293  1.00  0.00     0.211 A 
HETATM   21  N8  UNL     1       5.492 -24.836  91.018  1.00  0.00    -0.062 NA
HETATM   22  N9  UNL     1       7.188 -25.273  92.564  1.00  0.00    -0.304 N 
HETATM   23  C14 UNL     1       7.700 -25.753  93.787  1.00  0.00     0.192 A 
ATOM     24  H9  UNL     1       7.823 -24.858  91.882  1.00  0.00     0.171 HD
HETATM   25  N10 UNL     1       9.087 -25.673  94.088  1.00  0.00    -0.063 NA
HETATM   26  N11 UNL     1       6.901 -26.271  94.635  1.00  0.00    -0.337 N 
HETATM   27  C15 UNL     1       5.480 -26.422  94.468  1.00  0.00     0.119 A 
ATOM     28  H11 UNL     1       7.305 -26.609  95.509  1.00  0.00     0.164 HD
HETATM   29  C16 UNL     1       4.804 -25.709  95.624  1.00  0.00     0.064 C 
HETATM   30  C17 UNL     1       5.174 -27.917  94.583  1.00  0.00     0.064 C 
ENDBRANCH  18  19
ENDBRANCH  17  18
ENDBRANCH  14  17
BRANCH  15  31
HETATM   31  N13 UNL     1       2.692 -25.641  89.956  1.00  0.00    -0.344 N 
ATOM     32 2H13 UNL     1       3.572 -26.139  89.817  1.00  0.00     0.176 HD
ATOM     33 1H13 UNL     1       2.585 -24.695  89.592  1.00  0.00     0.176 HD
ENDBRANCH  15  31
ENDBRANCH  12  14
ENDBRANCH   7  12
BRANCH   8  34
HETATM   34  C19 UNL     1      -1.726 -26.623  91.786  1.00  0.00     0.231 C 
BRANCH  34  35
HETATM   35  O3  UNL     1      -2.979 -26.003  91.820  1.00  0.00    -0.394 OA
ATOM     36  H3  UNL     1      -3.190 -25.677  90.953  1.00  0.00     0.209 HD
ENDBRANCH  34  35
ENDBRANCH   8  34
BRANCH   1  37
HETATM   37  N4  UNL     1      -2.638 -25.124  98.818  1.00  0.00    -0.325 N 
HETATM   38  C4  UNL     1      -3.816 -25.636  99.347  1.00  0.00     0.244 C 
HETATM   39  O1  UNL     1      -4.331 -26.688  98.930  1.00  0.00    -0.271 OA
ATOM     40  H4  UNL     1      -2.302 -24.256  99.236  1.00  0.00     0.169 HD
BRANCH  38  41
HETATM   41  C2  UNL     1      -4.527 -24.939 100.453  1.00  0.00     0.172 C 
HETATM   42  C1  UNL     1      -3.900 -25.189 101.800  1.00  0.00     0.042 C 
BRANCH  41  43
HETATM   43  N1  UNL     1      -4.648 -23.525 100.240  1.00  0.00    -0.354 N 
HETATM   44  C3  UNL     1      -5.344 -22.924  99.350  1.00  0.00     0.197 C 
HETATM   45  N2  UNL     1      -5.340 -21.504  99.290  1.00  0.00    -0.067 NA
HETATM   46  N3  UNL     1      -6.155 -23.602  98.388  1.00  0.00    -0.067 NA
ATOM     47  H1  UNL     1      -4.116 -22.928 100.874  1.00  0.00     0.162 HD
ENDBRANCH  41  43
ENDBRANCH  38  41
ENDBRANCH   1  37
TORSDOF 11
ENDMDL
MODEL 5
REMARK VINA RESULT: -6.660100802      2.909      9.791
REMARK  11 active torsions:
REMARK  status: ('A' for Active; 'I' for Inactive)
REMARK    1  A    between atoms: C2_2  and  N1_3 
REMARK    2  A    between atoms: C2_2  and  C4_8 
REMARK       I    between atoms: C4_8  and  N4_10 
REMARK    3  A    between atoms: N4_10  and  C5_12 
REMARK    4  A    between atoms: C10_18  and  N5_19 
REMARK    5  A    between atoms: N5_19  and  C11_21 
REMARK    6  A    between atoms: C11_21  and  C12_22 
REMARK    7  A    between atoms: C12_22  and  N6_23 
REMARK    8  A    between atoms: N6_23  and  N7_24 
REMARK    9  A    between atoms: N12_36  and  N13_38 
REMARK   10  A    between atoms: C18_41  and  C19_42 
REMARK   11  A    between atoms: C19_42  and  O3_43 
ROOT
HETATM    1  C5  UNL     1      -1.909 -25.509  97.689  1.00  0.00     0.037 A 
HETATM    2  C6  UNL     1      -0.555 -25.792  97.935  1.00  0.00     0.030 A 
HETATM    3  C7  UNL     1       0.226 -26.252  96.904  1.00  0.00     0.021 A 
HETATM    4  C8  UNL     1      -0.263 -26.449  95.632  1.00  0.00     0.050 A 
HETATM    5  C9  UNL     1       0.493 -26.910  94.570  1.00  0.00     0.214 A 
HETATM    6  O2  UNL     1       1.691 -27.171  94.752  1.00  0.00    -0.285 OA
HETATM    7  C10 UNL     1      -0.069 -27.086  93.308  1.00  0.00     0.117 A 
HETATM    8  C18 UNL     1      -1.400 -26.788  93.143  1.00  0.00     0.107 A 
HETATM    9  O4  UNL     1      -2.095 -26.348  94.180  1.00  0.00    -0.309 OA
HETATM   10  C20 UNL     1      -1.587 -26.174  95.377  1.00  0.00     0.092 A 
HETATM   11  C21 UNL     1      -2.383 -25.703  96.438  1.00  0.00     0.067 A 
ENDROOT
BRANCH   7  12
HETATM   12  N5  UNL     1       0.693 -27.569  92.219  1.00  0.00    -0.339 N 
ATOM     13  H5  UNL     1       0.372 -28.432  91.782  1.00  0.00     0.167 HD
BRANCH  12  14
HETATM   14  C11 UNL     1       1.847 -26.980  91.679  1.00  0.00     0.112 C 
HETATM   15  N12 UNL     1       2.999 -27.553  91.785  1.00  0.00    -0.294 N 
ATOM     16  H12 UNL     1       3.057 -28.447  92.272  1.00  0.00     0.187 HD
BRANCH  14  17
HETATM   17  C12 UNL     1       1.790 -25.684  90.967  1.00  0.00     0.213 C 
BRANCH  17  18
HETATM   18  N6  UNL     1       2.208 -24.645  91.919  1.00  0.00    -0.127 NA
BRANCH  18  19
HETATM   19  N7  UNL     1       1.831 -23.372  91.532  1.00  0.00    -0.239 N 
HETATM   20  C13 UNL     1       2.521 -22.718  90.484  1.00  0.00     0.211 A 
HETATM   21  N8  UNL     1       3.617 -23.355  89.800  1.00  0.00    -0.062 NA
HETATM   22  N9  UNL     1       2.198 -21.524  90.098  1.00  0.00    -0.304 N 
HETATM   23  C14 UNL     1       1.139 -20.824  90.710  1.00  0.00     0.192 A 
ATOM     24  H9  UNL     1       2.718 -21.084  89.339  1.00  0.00     0.171 HD
HETATM   25  N10 UNL     1       0.783 -19.512  90.293  1.00  0.00    -0.063 NA
HETATM   26  N11 UNL     1       0.492 -21.380  91.659  1.00  0.00    -0.337 N 
HETATM   27  C15 UNL     1       0.740 -22.694  92.187  1.00  0.00     0.119 A 
ATOM     28  H11 UNL     1      -0.268 -20.844  92.080  1.00  0.00     0.164 HD
HETATM   29  C16 UNL     1      -0.545 -23.490  92.059  1.00  0.00     0.064 C 
HETATM   30  C17 UNL     1       1.051 -22.525  93.676  1.00  0.00     0.064 C 
ENDBRANCH  18  19
ENDBRANCH  17  18
ENDBRANCH  14  17
BRANCH  15  31
HETATM   31  N13 UNL     1       4.166 -27.001  91.264  1.00  0.00    -0.344 N 
ATOM     32 2H13 UNL     1       4.124 -26.039  90.927  1.00  0.00     0.176 HD
ATOM     33 1H13 UNL     1       5.044 -27.516  91.208  1.00  0.00     0.176 HD
ENDBRANCH  15  31
ENDBRANCH  12  14
ENDBRANCH   7  12
BRANCH   8  34
HETATM   34  C19 UNL     1      -2.068 -26.955  91.804  1.00  0.00     0.231 C 
BRANCH  34  35
HETATM   35  O3  UNL     1      -3.098 -26.017  91.684  1.00  0.00    -0.394 OA
ATOM     36  H3  UNL     1      -3.183 -25.762  90.772  1.00  0.00     0.209 HD
ENDBRANCH  34  35
ENDBRANCH   8  34
BRANCH   1  37
HETATM   37  N4  UNL     1      -2.701 -25.018  98.760  1.00  0.00    -0.325 N 
HETATM   38  C4  UNL     1      -3.819 -25.605  99.339  1.00  0.00     0.244 C 
HETATM   39  O1  UNL     1      -4.273 -26.697  98.956  1.00  0.00    -0.271 OA
ATOM     40  H4  UNL     1      -2.413 -24.122  99.154  1.00  0.00     0.169 HD
BRANCH  38  41
HETATM   41  C2  UNL     1      -4.538 -24.943 100.461  1.00  0.00     0.172 C 
HETATM   42  C1  UNL     1      -3.896 -25.200 101.800  1.00  0.00     0.042 C 
BRANCH  41  43
HETATM   43  N1  UNL     1      -4.693 -23.529 100.273  1.00  0.00    -0.354 N 
HETATM   44  C3  UNL     1      -5.397 -22.929  99.388  1.00  0.00     0.197 C 
HETATM   45  N2  UNL     1      -5.429 -21.509  99.354  1.00  0.00    -0.067 NA
HETATM   46  N3  UNL     1      -6.184 -23.610  98.409  1.00  0.00    -0.067 NA
ATOM     47  H1  UNL     1      -4.181 -22.930 100.921  1.00  0.00     0.162 HD
ENDBRANCH  41  43
ENDBRANCH  38  41
ENDBRANCH   1  37
TORSDOF 11
ENDMDL
