MODEL 1
REMARK VINA RESULT: -5.924016953      0.000      0.000
REMARK  16 active torsions:
REMARK  status: ('A' for Active; 'I' for Inactive)
REMARK    1  A    between atoms: C2_2  and  C3_3 
REMARK    2  A    between atoms: C3_3  and  N1_4 
REMARK    3  A    between atoms: C3_3  and  C4_8 
REMARK    4  A    between atoms: C5_13  and  N4_14 
REMARK    5  A    between atoms: N4_14  and  C6_16 
REMARK    6  A    between atoms: C7_19  and  O2_20 
REMARK    7  A    between atoms: O2_20  and  C8_21 
REMARK    8  A    between atoms: C9_22  and  O3_23 
REMARK    9  A    between atoms: C10_25  and  O4_26 
REMARK   10  A    between atoms: C12_29  and  O6_30 
REMARK   11  A    between atoms: C12_29  and  C13_32 
REMARK   12  A    between atoms: C13_32  and  S1_33 
REMARK   13  A    between atoms: S1_33  and  C14_34 
REMARK   14  A    between atoms: C18_38  and  O7_39 
REMARK   15  A    between atoms: C19_41  and  N6_42 
REMARK   16  A    between atoms: C21_47  and  N7_48 
ROOT
HETATM    1  C6  UNL     1      -1.302 -25.572  93.064  1.00  0.00     0.211 C 
HETATM    2  N5  UNL     1      -0.141 -25.566  93.899  1.00  0.00    -0.373 N 
ATOM      3  H5  UNL     1       0.351 -24.702  94.125  1.00  0.00     0.158 HD
HETATM    4  C7  UNL     1       0.295 -26.826  94.400  1.00  0.00     0.249 C 
HETATM    5  C19 UNL     1       0.463 -27.860  93.341  1.00  0.00     0.233 C 
HETATM    6  C20 UNL     1       0.068 -27.257  92.011  1.00  0.00     0.074 C 
HETATM    7  C21 UNL     1      -1.378 -26.800  92.180  1.00  0.00     0.227 C 
ENDROOT
BRANCH   4   8
HETATM    8  O2  UNL     1      -0.447 -27.278  95.491  1.00  0.00    -0.354 OA
BRANCH   8   9
HETATM    9  C8  UNL     1      -0.353 -26.438  96.593  1.00  0.00     0.192 C 
HETATM   10  C9  UNL     1       0.499 -27.164  97.630  1.00  0.00     0.205 C 
HETATM   11  C10 UNL     1       0.533 -26.158  98.794  1.00  0.00     0.294 C 
HETATM   12  O5  UNL     1      -0.711 -26.225  99.364  1.00  0.00    -0.319 OA
HETATM   13  C12 UNL     1      -1.728 -25.667  98.583  1.00  0.00     0.202 C 
HETATM   14  C18 UNL     1      -1.667 -25.994  97.153  1.00  0.00     0.213 C 
BRANCH  10  15
HETATM   15  O3  UNL     1      -0.210 -28.259  98.067  1.00  0.00    -0.388 OA
ATOM     16  H3  UNL     1       0.018 -28.410  98.976  1.00  0.00     0.210 HD
ENDBRANCH  10  15
BRANCH  11  17
HETATM   17  O4  UNL     1       1.535 -26.473  99.689  1.00  0.00    -0.363 OA
HETATM   18  C11 UNL     1       0.969 -26.559 100.959  1.00  0.00     0.204 C 
ENDBRANCH  11  17
BRANCH  13  19
HETATM   19  O6  UNL     1      -2.897 -26.242  99.125  1.00  0.00    -0.363 OA
ATOM     20  H6  UNL     1      -3.259 -26.726  98.391  1.00  0.00     0.213 HD
ENDBRANCH  13  19
BRANCH  13  21
HETATM   21  C13 UNL     1      -1.763 -24.202  98.933  1.00  0.00     0.146 C 
BRANCH  21  22
HETATM   22  S1  UNL     1      -3.190 -23.595  99.778  1.00  0.00    -0.155 SA
BRANCH  22  23
HETATM   23  C14 UNL     1      -4.513 -22.883  98.855  1.00  0.00    -0.003 C 
HETATM   24  C15 UNL     1      -5.092 -23.826  97.805  1.00  0.00     0.026 C 
HETATM   25  C16 UNL     1      -4.313 -21.536  98.251  1.00  0.00     0.026 C 
HETATM   26  C17 UNL     1      -5.710 -22.696  99.847  1.00  0.00     0.026 C 
ENDBRANCH  22  23
ENDBRANCH  21  22
ENDBRANCH  13  21
BRANCH  14  27
HETATM   27  O7  UNL     1      -2.053 -24.870  96.402  1.00  0.00    -0.387 OA
ATOM     28  H7  UNL     1      -2.164 -24.161  97.024  1.00  0.00     0.210 HD
ENDBRANCH  14  27
ENDBRANCH   8   9
ENDBRANCH   4   8
BRANCH   5  29
HETATM   29  N6  UNL     1       1.837 -28.316  93.190  1.00  0.00    -0.071 N 
ATOM     30  H63 UNL     1       2.453 -27.536  92.960  1.00  0.00     0.274 HD
ATOM     31  H62 UNL     1       2.231 -28.582  94.092  1.00  0.00     0.274 HD
ATOM     32  H61 UNL     1       1.942 -29.071  92.513  1.00  0.00     0.274 HD
ENDBRANCH   5  29
BRANCH   1  33
HETATM   33  N4  UNL     1      -1.128 -24.450  92.124  1.00  0.00    -0.345 N 
ATOM     34  H4  UNL     1      -1.810 -24.313  91.377  1.00  0.00     0.163 HD
BRANCH  33  35
HETATM   35  C5  UNL     1      -0.148 -23.651  92.225  1.00  0.00     0.191 A 
HETATM   36  C4  UNL     1      -0.200 -22.401  92.796  1.00  0.00     0.107 A 
HETATM   37  N2  UNL     1       1.021 -21.854  92.722  1.00  0.00    -0.276 N 
HETATM   38  N3  UNL     1       1.787 -22.758  92.119  1.00  0.00     0.029 NA
ATOM     39  H2  UNL     1       1.304 -20.934  93.058  1.00  0.00     0.184 HD
HETATM   40  O1  UNL     1       1.085 -23.822  91.827  1.00  0.00    -0.204 OA
BRANCH  36  41
HETATM   41  C3  UNL     1      -1.407 -21.793  93.385  1.00  0.00     0.238 C 
BRANCH  41  42
HETATM   42  C2  UNL     1      -1.224 -20.283  93.411  1.00  0.00     0.035 C 
HETATM   43  C1  UNL     1      -2.545 -19.563  93.223  1.00  0.00     0.007 C 
ENDBRANCH  41  42
BRANCH  41  44
HETATM   44  N1  UNL     1      -1.441 -22.203  94.798  1.00  0.00    -0.070 N 
ATOM     45  H13 UNL     1      -2.380 -22.391  95.150  1.00  0.00     0.275 HD
ATOM     46  H12 UNL     1      -1.063 -23.135  94.965  1.00  0.00     0.275 HD
ATOM     47  H11 UNL     1      -0.953 -21.463  95.303  1.00  0.00     0.275 HD
ENDBRANCH  41  44
ENDBRANCH  36  41
ENDBRANCH  33  35
ENDBRANCH   1  33
BRANCH   7  48
HETATM   48  N7  UNL     1      -2.088 -27.885  92.829  1.00  0.00    -0.071 N 
ATOM     49  H73 UNL     1      -1.744 -28.042  93.776  1.00  0.00     0.274 HD
ATOM     50  H72 UNL     1      -3.048 -27.621  93.050  1.00  0.00     0.274 HD
ATOM     51  H71 UNL     1      -2.057 -28.741  92.276  1.00  0.00     0.274 HD
ENDBRANCH   7  48
TORSDOF 16
ENDMDL
MODEL 2
REMARK VINA RESULT: -5.877311612      3.800      7.904
REMARK  16 active torsions:
REMARK  status: ('A' for Active; 'I' for Inactive)
REMARK    1  A    between atoms: C2_2  and  C3_3 
REMARK    2  A    between atoms: C3_3  and  N1_4 
REMARK    3  A    between atoms: C3_3  and  C4_8 
REMARK    4  A    between atoms: C5_13  and  N4_14 
REMARK    5  A    between atoms: N4_14  and  C6_16 
REMARK    6  A    between atoms: C7_19  and  O2_20 
REMARK    7  A    between atoms: O2_20  and  C8_21 
REMARK    8  A    between atoms: C9_22  and  O3_23 
REMARK    9  A    between atoms: C10_25  and  O4_26 
REMARK   10  A    between atoms: C12_29  and  O6_30 
REMARK   11  A    between atoms: C12_29  and  C13_32 
REMARK   12  A    between atoms: C13_32  and  S1_33 
REMARK   13  A    between atoms: S1_33  and  C14_34 
REMARK   14  A    between atoms: C18_38  and  O7_39 
REMARK   15  A    between atoms: C19_41  and  N6_42 
REMARK   16  A    between atoms: C21_47  and  N7_48 
ROOT
HETATM    1  C6  UNL     1      -3.502 -24.140  97.603  1.00  0.00     0.211 C 
HETATM    2  N5  UNL     1      -3.080 -25.479  97.877  1.00  0.00    -0.373 N 
ATOM      3  H5  UNL     1      -3.545 -26.053  98.580  1.00  0.00     0.158 HD
HETATM    4  C7  UNL     1      -1.980 -25.972  97.120  1.00  0.00     0.249 C 
HETATM    5  C19 UNL     1      -0.792 -25.074  97.145  1.00  0.00     0.233 C 
HETATM    6  C20 UNL     1      -1.132 -23.846  97.959  1.00  0.00     0.074 C 
HETATM    7  C21 UNL     1      -2.343 -23.221  97.273  1.00  0.00     0.227 C 
ENDROOT
BRANCH   4   8
HETATM    8  O2  UNL     1      -2.329 -26.381  95.832  1.00  0.00    -0.354 OA
BRANCH   8   9
HETATM    9  C8  UNL     1      -1.256 -26.359  94.950  1.00  0.00     0.192 C 
HETATM   10  C9  UNL     1      -1.714 -25.581  93.718  1.00  0.00     0.205 C 
HETATM   11  C10 UNL     1      -0.467 -25.624  92.818  1.00  0.00     0.294 C 
HETATM   12  O5  UNL     1      -0.417 -26.904  92.333  1.00  0.00    -0.319 OA
HETATM   13  C12 UNL     1      -0.066 -27.863  93.288  1.00  0.00     0.202 C 
HETATM   14  C18 UNL     1      -0.712 -27.706  94.596  1.00  0.00     0.213 C 
BRANCH  10  15
HETATM   15  O3  UNL     1      -2.688 -26.322  93.090  1.00  0.00    -0.388 OA
ATOM     16  H3  UNL     1      -2.278 -26.794  92.374  1.00  0.00     0.210 HD
ENDBRANCH  10  15
BRANCH  11  17
HETATM   17  O4  UNL     1      -0.554 -24.686  91.809  1.00  0.00    -0.363 OA
HETATM   18  C11 UNL     1      -0.859 -23.456  92.389  1.00  0.00     0.204 C 
ENDBRANCH  11  17
BRANCH  13  19
HETATM   19  O6  UNL     1      -0.515 -29.069  92.707  1.00  0.00    -0.363 OA
ATOM     20  H6  UNL     1      -1.404 -29.147  93.035  1.00  0.00     0.213 HD
ENDBRANCH  13  19
BRANCH  13  21
HETATM   21  C13 UNL     1       1.440 -27.917  93.287  1.00  0.00     0.146 C 
BRANCH  21  22
HETATM   22  S1  UNL     1       2.282 -27.296  91.865  1.00  0.00    -0.155 SA
BRANCH  22  23
HETATM   23  C14 UNL     1       3.786 -26.398  92.064  1.00  0.00    -0.003 C 
HETATM   24  C15 UNL     1       3.570 -24.932  92.432  1.00  0.00     0.026 C 
HETATM   25  C16 UNL     1       4.816 -26.489  90.991  1.00  0.00     0.026 C 
HETATM   26  C17 UNL     1       4.493 -26.971  93.338  1.00  0.00     0.026 C 
ENDBRANCH  22  23
ENDBRANCH  21  22
ENDBRANCH  13  21
BRANCH  14  27
HETATM   27  O7  UNL     1       0.204 -28.036  95.610  1.00  0.00    -0.387 OA
ATOM     28  H7  UNL     1       0.682 -27.239  95.804  1.00  0.00     0.210 HD
ENDBRANCH  14  27
ENDBRANCH   8   9
ENDBRANCH   4   8
BRANCH   5  29
HETATM   29  N6  UNL     1       0.373 -25.674  97.778  1.00  0.00    -0.071 N 
ATOM     30  H63 UNL     1       0.212 -25.810  98.777  1.00  0.00     0.274 HD
ATOM     31  H62 UNL     1       0.482 -26.646  97.491  1.00  0.00     0.274 HD
ATOM     32  H61 UNL     1       1.235 -25.152  97.620  1.00  0.00     0.274 HD
ENDBRANCH   5  29
BRANCH   1  33
HETATM   33  N4  UNL     1      -4.037 -23.618  98.874  1.00  0.00    -0.345 N 
ATOM     34  H4  UNL     1      -4.394 -22.663  98.911  1.00  0.00     0.163 HD
BRANCH  33  35
HETATM   35  C5  UNL     1      -4.061 -24.332  99.922  1.00  0.00     0.191 A 
HETATM   36  C4  UNL     1      -3.231 -24.178 101.006  1.00  0.00     0.107 A 
HETATM   37  N2  UNL     1      -3.549 -25.108 101.916  1.00  0.00    -0.276 N 
HETATM   38  N3  UNL     1      -4.550 -25.804 101.387  1.00  0.00     0.029 NA
ATOM     39  H2  UNL     1      -3.114 -25.252 102.827  1.00  0.00     0.184 HD
HETATM   40  O1  UNL     1      -4.848 -25.338 100.202  1.00  0.00    -0.204 OA
BRANCH  36  41
HETATM   41  C3  UNL     1      -2.177 -23.151 101.122  1.00  0.00     0.238 C 
BRANCH  41  42
HETATM   42  C2  UNL     1      -1.158 -23.618 102.150  1.00  0.00     0.035 C 
HETATM   43  C1  UNL     1       0.009 -24.325 101.489  1.00  0.00     0.007 C 
ENDBRANCH  41  42
BRANCH  41  44
HETATM   44  N1  UNL     1      -2.809 -21.962 101.716  1.00  0.00    -0.070 N 
ATOM     45  H13 UNL     1      -3.011 -22.058 102.711  1.00  0.00     0.275 HD
ATOM     46  H12 UNL     1      -2.183 -21.161 101.797  1.00  0.00     0.275 HD
ATOM     47  H11 UNL     1      -3.635 -21.784 101.144  1.00  0.00     0.275 HD
ENDBRANCH  41  44
ENDBRANCH  36  41
ENDBRANCH  33  35
ENDBRANCH   1  33
BRANCH   7  48
HETATM   48  N7  UNL     1      -2.059 -23.206  95.851  1.00  0.00    -0.071 N 
ATOM     49  H73 UNL     1      -2.700 -23.811  95.337  1.00  0.00     0.274 HD
ATOM     50  H72 UNL     1      -2.313 -22.312  95.430  1.00  0.00     0.274 HD
ATOM     51  H71 UNL     1      -1.087 -23.445  95.657  1.00  0.00     0.274 HD
ENDBRANCH   7  48
TORSDOF 16
ENDMDL
MODEL 3
REMARK VINA RESULT: -5.671795613      1.812      2.586
REMARK  16 active torsions:
REMARK  status: ('A' for Active; 'I' for Inactive)
REMARK    1  A    between atoms: C2_2  and  C3_3 
REMARK    2  A    between atoms: C3_3  and  N1_4 
REMARK    3  A    between atoms: C3_3  and  C4_8 
REMARK    4  A    between atoms: C5_13  and  N4_14 
REMARK    5  A    between atoms: N4_14  and  C6_16 
REMARK    6  A    between atoms: C7_19  and  O2_20 
REMARK    7  A    between atoms: O2_20  and  C8_21 
REMARK    8  A    between atoms: C9_22  and  O3_23 
REMARK    9  A    between atoms: C10_25  and  O4_26 
REMARK   10  A    between atoms: C12_29  and  O6_30 
REMARK   11  A    between atoms: C12_29  and  C13_32 
REMARK   12  A    between atoms: C13_32  and  S1_33 
REMARK   13  A    between atoms: S1_33  and  C14_34 
REMARK   14  A    between atoms: C18_38  and  O7_39 
REMARK   15  A    between atoms: C19_41  and  N6_42 
REMARK   16  A    between atoms: C21_47  and  N7_48 
ROOT
HETATM    1  C6  UNL     1      -1.237 -25.233  93.070  1.00  0.00     0.211 C 
HETATM    2  N5  UNL     1      -0.522 -25.029  94.291  1.00  0.00    -0.373 N 
ATOM      3  H5  UNL     1      -0.060 -24.143  94.498  1.00  0.00     0.158 HD
HETATM    4  C7  UNL     1      -0.485 -26.121  95.204  1.00  0.00     0.249 C 
HETATM    5  C19 UNL     1      -0.033 -27.398  94.584  1.00  0.00     0.233 C 
HETATM    6  C20 UNL     1       0.221 -27.157  93.112  1.00  0.00     0.074 C 
HETATM    7  C21 UNL     1      -1.101 -26.649  92.546  1.00  0.00     0.227 C 
ENDROOT
BRANCH   4   8
HETATM    8  O2  UNL     1      -1.655 -26.261  95.952  1.00  0.00    -0.354 OA
BRANCH   8   9
HETATM    9  C8  UNL     1      -1.773 -25.304  96.951  1.00  0.00     0.192 C 
HETATM   10  C9  UNL     1      -2.104 -26.052  98.241  1.00  0.00     0.205 C 
HETATM   11  C10 UNL     1      -2.216 -24.910  99.266  1.00  0.00     0.294 C 
HETATM   12  O5  UNL     1      -3.409 -24.296  98.990  1.00  0.00    -0.319 OA
HETATM   13  C12 UNL     1      -3.412 -23.562  97.800  1.00  0.00     0.202 C 
HETATM   14  C18 UNL     1      -2.759 -24.218  96.661  1.00  0.00     0.213 C 
BRANCH  10  15
HETATM   15  O3  UNL     1      -3.360 -26.594  98.104  1.00  0.00    -0.388 OA
ATOM     16  H3  UNL     1      -3.984 -25.877  98.072  1.00  0.00     0.210 HD
ENDBRANCH  10  15
BRANCH  11  17
HETATM   17  O4  UNL     1      -2.166 -25.398 100.555  1.00  0.00    -0.363 OA
HETATM   18  C11 UNL     1      -3.050 -24.655 101.334  1.00  0.00     0.204 C 
ENDBRANCH  11  17
BRANCH  13  19
HETATM   19  O6  UNL     1      -4.788 -23.428  97.512  1.00  0.00    -0.363 OA
ATOM     20  H6  UNL     1      -5.037 -22.658  98.010  1.00  0.00     0.213 HD
ENDBRANCH  13  19
BRANCH  13  21
HETATM   21  C13 UNL     1      -2.909 -22.188  98.159  1.00  0.00     0.146 C 
BRANCH  21  22
HETATM   22  S1  UNL     1      -4.069 -20.856  98.129  1.00  0.00    -0.155 SA
BRANCH  22  23
HETATM   23  C14 UNL     1      -3.616 -19.322  97.387  1.00  0.00    -0.003 C 
HETATM   24  C15 UNL     1      -4.294 -18.116  98.031  1.00  0.00     0.026 C 
HETATM   25  C16 UNL     1      -3.698 -19.198  95.904  1.00  0.00     0.026 C 
HETATM   26  C17 UNL     1      -2.104 -19.084  97.719  1.00  0.00     0.026 C 
ENDBRANCH  22  23
ENDBRANCH  21  22
ENDBRANCH  13  21
BRANCH  14  27
HETATM   27  O7  UNL     1      -2.069 -23.256  95.903  1.00  0.00    -0.387 OA
ATOM     28  H7  UNL     1      -1.344 -22.964  96.442  1.00  0.00     0.210 HD
ENDBRANCH  14  27
ENDBRANCH   8   9
ENDBRANCH   4   8
BRANCH   5  29
HETATM   29  N6  UNL     1       1.216 -27.899  95.137  1.00  0.00    -0.071 N 
ATOM     30  H63 UNL     1       2.012 -27.559  94.597  1.00  0.00     0.274 HD
ATOM     31  H62 UNL     1       1.419 -27.457  96.033  1.00  0.00     0.274 HD
ATOM     32  H61 UNL     1       1.244 -28.915  95.221  1.00  0.00     0.274 HD
ENDBRANCH   5  29
BRANCH   1  33
HETATM   33  N4  UNL     1      -0.561 -24.398  92.061  1.00  0.00    -0.345 N 
ATOM     34  H4  UNL     1      -0.786 -24.526  91.074  1.00  0.00     0.163 HD
BRANCH  33  35
HETATM   35  C5  UNL     1       0.295 -23.524  92.395  1.00  0.00     0.191 A 
HETATM   36  C4  UNL     1       0.032 -22.187  92.581  1.00  0.00     0.107 A 
HETATM   37  N2  UNL     1       1.174 -21.579  92.926  1.00  0.00    -0.276 N 
HETATM   38  N3  UNL     1       2.101 -22.531  92.948  1.00  0.00     0.029 NA
ATOM     39  H2  UNL     1       1.305 -20.588  93.131  1.00  0.00     0.184 HD
HETATM   40  O1  UNL     1       1.571 -23.684  92.631  1.00  0.00    -0.204 OA
BRANCH  36  41
HETATM   41  C3  UNL     1      -1.293 -21.559  92.421  1.00  0.00     0.238 C 
BRANCH  41  42
HETATM   42  C2  UNL     1      -1.111 -20.217  91.728  1.00  0.00     0.035 C 
HETATM   43  C1  UNL     1      -2.055 -19.173  92.289  1.00  0.00     0.007 C 
ENDBRANCH  41  42
BRANCH  41  44
HETATM   44  N1  UNL     1      -1.772 -21.233  93.774  1.00  0.00    -0.070 N 
ATOM     45  H13 UNL     1      -2.547 -20.569  93.788  1.00  0.00     0.275 HD
ATOM     46  H12 UNL     1      -2.263 -22.000  94.232  1.00  0.00     0.275 HD
ATOM     47  H11 UNL     1      -0.947 -20.912  94.280  1.00  0.00     0.275 HD
ENDBRANCH  41  44
ENDBRANCH  36  41
ENDBRANCH  33  35
ENDBRANCH   1  33
BRANCH   7  48
HETATM   48  N7  UNL     1      -2.142 -27.515  93.064  1.00  0.00    -0.071 N 
ATOM     49  H73 UNL     1      -2.961 -27.519  92.455  1.00  0.00     0.274 HD
ATOM     50  H72 UNL     1      -1.881 -28.498  92.986  1.00  0.00     0.274 HD
ATOM     51  H71 UNL     1      -2.393 -27.272  94.022  1.00  0.00     0.274 HD
ENDBRANCH   7  48
TORSDOF 16
ENDMDL
MODEL 4
REMARK VINA RESULT: -5.665611415      2.414      3.483
REMARK  16 active torsions:
REMARK  status: ('A' for Active; 'I' for Inactive)
REMARK    1  A    between atoms: C2_2  and  C3_3 
REMARK    2  A    between atoms: C3_3  and  N1_4 
REMARK    3  A    between atoms: C3_3  and  C4_8 
REMARK    4  A    between atoms: C5_13  and  N4_14 
REMARK    5  A    between atoms: N4_14  and  C6_16 
REMARK    6  A    between atoms: C7_19  and  O2_20 
REMARK    7  A    between atoms: O2_20  and  C8_21 
REMARK    8  A    between atoms: C9_22  and  O3_23 
REMARK    9  A    between atoms: C10_25  and  O4_26 
REMARK   10  A    between atoms: C12_29  and  O6_30 
REMARK   11  A    between atoms: C12_29  and  C13_32 
REMARK   12  A    between atoms: C13_32  and  S1_33 
REMARK   13  A    between atoms: S1_33  and  C14_34 
REMARK   14  A    between atoms: C18_38  and  O7_39 
REMARK   15  A    between atoms: C19_41  and  N6_42 
REMARK   16  A    between atoms: C21_47  and  N7_48 
ROOT
HETATM    1  C6  UNL     1      -1.485 -24.193  94.495  1.00  0.00     0.211 C 
HETATM    2  N5  UNL     1      -1.078 -24.511  95.828  1.00  0.00    -0.373 N 
ATOM      3  H5  UNL     1      -0.579 -23.838  96.410  1.00  0.00     0.158 HD
HETATM    4  C7  UNL     1      -1.402 -25.814  96.304  1.00  0.00     0.249 C 
HETATM    5  C19 UNL     1      -0.967 -26.905  95.389  1.00  0.00     0.233 C 
HETATM    6  C20 UNL     1      -0.326 -26.284  94.167  1.00  0.00     0.074 C 
HETATM    7  C21 UNL     1      -1.394 -25.381  93.559  1.00  0.00     0.227 C 
ENDROOT
BRANCH   4   8
HETATM    8  O2  UNL     1      -2.729 -25.942  96.715  1.00  0.00    -0.354 OA
BRANCH   8   9
HETATM    9  C8  UNL     1      -3.037 -25.137  97.803  1.00  0.00     0.192 C 
HETATM   10  C9  UNL     1      -3.336 -26.071  98.973  1.00  0.00     0.205 C 
HETATM   11  C10 UNL     1      -3.666 -25.086 100.108  1.00  0.00     0.294 C 
HETATM   12  O5  UNL     1      -4.914 -24.603  99.814  1.00  0.00    -0.319 OA
HETATM   13  C12 UNL     1      -4.948 -23.738  98.716  1.00  0.00     0.202 C 
HETATM   14  C18 UNL     1      -4.145 -24.161  97.563  1.00  0.00     0.213 C 
BRANCH  10  15
HETATM   15  O3  UNL     1      -4.496 -26.751  98.682  1.00  0.00    -0.388 OA
ATOM     16  H3  UNL     1      -4.874 -27.045  99.503  1.00  0.00     0.210 HD
ENDBRANCH  10  15
BRANCH  11  17
HETATM   17  O4  UNL     1      -3.625 -25.715 101.335  1.00  0.00    -0.363 OA
HETATM   18  C11 UNL     1      -4.901 -25.662 101.891  1.00  0.00     0.204 C 
ENDBRANCH  11  17
BRANCH  13  19
HETATM   19  O6  UNL     1      -6.309 -23.750  98.344  1.00  0.00    -0.363 OA
ATOM     20  H6  UNL     1      -6.422 -22.908  97.917  1.00  0.00     0.213 HD
ENDBRANCH  13  19
BRANCH  13  21
HETATM   21  C13 UNL     1      -4.661 -22.363  99.263  1.00  0.00     0.146 C 
BRANCH  21  22
HETATM   22  S1  UNL     1      -3.216 -22.162 100.258  1.00  0.00    -0.155 SA
BRANCH  22  23
HETATM   23  C14 UNL     1      -1.845 -21.247  99.632  1.00  0.00    -0.003 C 
HETATM   24  C15 UNL     1      -0.998 -20.602 100.725  1.00  0.00     0.026 C 
HETATM   25  C16 UNL     1      -2.090 -20.253  98.548  1.00  0.00     0.026 C 
HETATM   26  C17 UNL     1      -0.857 -22.284  98.999  1.00  0.00     0.026 C 
ENDBRANCH  22  23
ENDBRANCH  21  22
ENDBRANCH  13  21
BRANCH  14  27
HETATM   27  O7  UNL     1      -3.551 -23.033  96.971  1.00  0.00    -0.387 OA
ATOM     28  H7  UNL     1      -3.794 -22.291  97.512  1.00  0.00     0.210 HD
ENDBRANCH  14  27
ENDBRANCH   8   9
ENDBRANCH   4   8
BRANCH   5  29
HETATM   29  N6  UNL     1       0.036 -27.784  95.973  1.00  0.00    -0.071 N 
ATOM     30  H63 UNL     1       0.587 -27.289  96.674  1.00  0.00     0.274 HD
ATOM     31  H62 UNL     1      -0.402 -28.488  96.568  1.00  0.00     0.274 HD
ATOM     32  H61 UNL     1       0.642 -28.224  95.281  1.00  0.00     0.274 HD
ENDBRANCH   5  29
BRANCH   1  33
HETATM   33  N4  UNL     1      -0.483 -23.240  93.983  1.00  0.00    -0.345 N 
ATOM     34  H4  UNL     1       0.008 -23.451  93.114  1.00  0.00     0.163 HD
BRANCH  33  35
HETATM   35  C5  UNL     1      -0.219 -22.165  94.602  1.00  0.00     0.191 A 
HETATM   36  C4  UNL     1      -0.780 -20.938  94.334  1.00  0.00     0.107 A 
HETATM   37  N2  UNL     1      -0.262 -20.044  95.186  1.00  0.00    -0.276 N 
HETATM   38  N3  UNL     1       0.591 -20.721  95.949  1.00  0.00     0.029 NA
ATOM     39  H2  UNL     1      -0.477 -19.048  95.239  1.00  0.00     0.184 HD
HETATM   40  O1  UNL     1       0.611 -21.980  95.596  1.00  0.00    -0.204 OA
BRANCH  36  41
HETATM   41  C3  UNL     1      -1.781 -20.681  93.282  1.00  0.00     0.238 C 
BRANCH  41  42
HETATM   42  C2  UNL     1      -1.169 -19.744  92.251  1.00  0.00     0.035 C 
HETATM   43  C1  UNL     1      -2.037 -19.645  91.012  1.00  0.00     0.007 C 
ENDBRANCH  41  42
BRANCH  41  44
HETATM   44  N1  UNL     1      -2.865 -19.909  93.910  1.00  0.00    -0.070 N 
ATOM     45  H13 UNL     1      -2.896 -18.931  93.620  1.00  0.00     0.275 HD
ATOM     46  H12 UNL     1      -3.796 -20.162  93.578  1.00  0.00     0.275 HD
ATOM     47  H11 UNL     1      -2.738 -20.037  94.914  1.00  0.00     0.275 HD
ENDBRANCH  41  44
ENDBRANCH  36  41
ENDBRANCH  33  35
ENDBRANCH   1  33
BRANCH   7  48
HETATM   48  N7  UNL     1      -2.627 -26.142  93.537  1.00  0.00    -0.071 N 
ATOM     49  H73 UNL     1      -2.472 -27.112  93.814  1.00  0.00     0.274 HD
ATOM     50  H72 UNL     1      -3.252 -25.859  94.291  1.00  0.00     0.274 HD
ATOM     51  H71 UNL     1      -3.090 -26.086  92.630  1.00  0.00     0.274 HD
ENDBRANCH   7  48
TORSDOF 16
ENDMDL
MODEL 5
REMARK VINA RESULT: -5.580683636      2.953      5.519
REMARK  16 active torsions:
REMARK  status: ('A' for Active; 'I' for Inactive)
REMARK    1  A    between atoms: C2_2  and  C3_3 
REMARK    2  A    between atoms: C3_3  and  N1_4 
REMARK    3  A    between atoms: C3_3  and  C4_8 
REMARK    4  A    between atoms: C5_13  and  N4_14 
REMARK    5  A    between atoms: N4_14  and  C6_16 
REMARK    6  A    between atoms: C7_19  and  O2_20 
REMARK    7  A    between atoms: O2_20  and  C8_21 
REMARK    8  A    between atoms: C9_22  and  O3_23 
REMARK    9  A    between atoms: C10_25  and  O4_26 
REMARK   10  A    between atoms: C12_29  and  O6_30 
REMARK   11  A    between atoms: C12_29  and  C13_32 
REMARK   12  A    between atoms: C13_32  and  S1_33 
REMARK   13  A    between atoms: S1_33  and  C14_34 
REMARK   14  A    between atoms: C18_38  and  O7_39 
REMARK   15  A    between atoms: C19_41  and  N6_42 
REMARK   16  A    between atoms: C21_47  and  N7_48 
ROOT
HETATM    1  C6  UNL     1       0.280 -27.333  96.815  1.00  0.00     0.211 C 
HETATM    2  N5  UNL     1      -0.436 -26.099  96.726  1.00  0.00    -0.373 N 
ATOM      3  H5  UNL     1      -0.721 -25.710  95.827  1.00  0.00     0.158 HD
HETATM    4  C7  UNL     1      -0.732 -25.439  97.953  1.00  0.00     0.249 C 
HETATM    5  C19 UNL     1       0.459 -25.248  98.826  1.00  0.00     0.233 C 
HETATM    6  C20 UNL     1       1.660 -25.868  98.148  1.00  0.00     0.074 C 
HETATM    7  C21 UNL     1       1.300 -27.335  97.936  1.00  0.00     0.227 C 
ENDROOT
BRANCH   4   8
HETATM    8  O2  UNL     1      -1.823 -25.985  98.629  1.00  0.00    -0.354 OA
BRANCH   8   9
HETATM    9  C8  UNL     1      -2.628 -25.021  99.222  1.00  0.00     0.192 C 
HETATM   10  C9  UNL     1      -3.806 -25.757  99.854  1.00  0.00     0.205 C 
HETATM   11  C10 UNL     1      -4.624 -24.607 100.468  1.00  0.00     0.294 C 
HETATM   12  O5  UNL     1      -5.225 -23.985  99.406  1.00  0.00    -0.319 OA
HETATM   13  C12 UNL     1      -4.346 -23.260  98.597  1.00  0.00     0.202 C 
HETATM   14  C18 UNL     1      -3.073 -23.929  98.302  1.00  0.00     0.213 C 
BRANCH  10  15
HETATM   15  O3  UNL     1      -4.565 -26.289  98.837  1.00  0.00    -0.388 OA
ATOM     16  H3  UNL     1      -5.438 -25.921  98.902  1.00  0.00     0.210 HD
ENDBRANCH  10  15
BRANCH  11  17
HETATM   17  O4  UNL     1      -5.541 -25.087 101.380  1.00  0.00    -0.363 OA
HETATM   18  C11 UNL     1      -4.873 -25.936 102.260  1.00  0.00     0.204 C 
ENDBRANCH  11  17
BRANCH  13  19
HETATM   19  O6  UNL     1      -5.067 -23.116  97.392  1.00  0.00    -0.363 OA
ATOM     20  H6  UNL     1      -4.730 -22.302  97.036  1.00  0.00     0.213 HD
ENDBRANCH  13  19
BRANCH  13  21
HETATM   21  C13 UNL     1      -4.253 -21.887  99.212  1.00  0.00     0.146 C 
BRANCH  21  22
HETATM   22  S1  UNL     1      -4.324 -20.495  98.127  1.00  0.00    -0.155 SA
BRANCH  22  23
HETATM   23  C14 UNL     1      -2.881 -19.516  97.869  1.00  0.00    -0.003 C 
HETATM   24  C15 UNL     1      -2.200 -19.785  96.530  1.00  0.00     0.026 C 
HETATM   25  C16 UNL     1      -1.851 -19.470  98.945  1.00  0.00     0.026 C 
HETATM   26  C17 UNL     1      -3.360 -18.032  97.718  1.00  0.00     0.026 C 
ENDBRANCH  22  23
ENDBRANCH  21  22
ENDBRANCH  13  21
BRANCH  14  27
HETATM   27  O7  UNL     1      -2.038 -22.977  98.295  1.00  0.00    -0.387 OA
ATOM     28  H7  UNL     1      -1.952 -22.686  97.395  1.00  0.00     0.210 HD
ENDBRANCH  14  27
ENDBRANCH   8   9
ENDBRANCH   4   8
BRANCH   5  29
HETATM   29  N6  UNL     1       0.794 -23.849  99.050  1.00  0.00    -0.071 N 
ATOM     30  H63 UNL     1       1.628 -23.589  98.522  1.00  0.00     0.274 HD
ATOM     31  H62 UNL     1       0.112 -23.237  98.601  1.00  0.00     0.274 HD
ATOM     32  H61 UNL     1       0.901 -23.610 100.035  1.00  0.00     0.274 HD
ENDBRANCH   5  29
BRANCH   1  33
HETATM   33  N4  UNL     1       1.085 -27.423  95.583  1.00  0.00    -0.345 N 
ATOM     34  H4  UNL     1       2.064 -27.135  95.604  1.00  0.00     0.163 HD
BRANCH  33  35
HETATM   35  C5  UNL     1       0.585 -27.851  94.499  1.00  0.00     0.191 A 
HETATM   36  C4  UNL     1       1.111 -27.641  93.246  1.00  0.00     0.107 A 
HETATM   37  N2  UNL     1       0.315 -28.239  92.351  1.00  0.00    -0.276 N 
HETATM   38  N3  UNL     1      -0.667 -28.796  93.053  1.00  0.00     0.029 NA
ATOM     39  H2  UNL     1       0.437 -28.263  91.338  1.00  0.00     0.184 HD
HETATM   40  O1  UNL     1      -0.500 -28.561  94.328  1.00  0.00    -0.204 OA
BRANCH  36  41
HETATM   41  C3  UNL     1       2.345 -26.884  92.966  1.00  0.00     0.238 C 
BRANCH  41  42
HETATM   42  C2  UNL     1       2.425 -26.626  91.469  1.00  0.00     0.035 C 
HETATM   43  C1  UNL     1       3.764 -27.057  90.906  1.00  0.00     0.007 C 
ENDBRANCH  41  42
BRANCH  41  44
HETATM   44  N1  UNL     1       3.470 -27.784  93.264  1.00  0.00    -0.070 N 
ATOM     45  H13 UNL     1       3.229 -28.774  93.219  1.00  0.00     0.275 HD
ATOM     46  H12 UNL     1       4.186 -27.802  92.538  1.00  0.00     0.275 HD
ATOM     47  H11 UNL     1       3.817 -27.487  94.176  1.00  0.00     0.275 HD
ENDBRANCH  41  44
ENDBRANCH  36  41
ENDBRANCH  33  35
ENDBRANCH   1  33
BRANCH   7  48
HETATM   48  N7  UNL     1       0.728 -27.812  99.181  1.00  0.00    -0.071 N 
ATOM     49  H73 UNL     1       0.153 -27.095  99.625  1.00  0.00     0.274 HD
ATOM     50  H72 UNL     1       0.006 -28.513  99.014  1.00  0.00     0.274 HD
ATOM     51  H71 UNL     1       1.445 -28.160  99.817  1.00  0.00     0.274 HD
ENDBRANCH   7  48
TORSDOF 16
ENDMDL
