MODEL 1
REMARK VINA RESULT: -7.639299163      0.000      0.000
REMARK  4 active torsions:
REMARK  status: ('A' for Active; 'I' for Inactive)
REMARK    1  A    between atoms: C3_3  and  N1_4 
REMARK    2  A    between atoms: N1_4  and  C4_6 
REMARK    3  A    between atoms: C11_13  and  O1_14 
REMARK    4  A    between atoms: O1_14  and  C12_15 
ROOT
HETATM    1  C1  UNL     1      30.036 -20.752  19.469  1.00  0.00     0.014 C 
HETATM    2  C2  UNL     1      31.155 -21.024  19.077  1.00  0.00    -0.098 C 
HETATM    3  C3  UNL     1      32.511 -21.341  18.625  1.00  0.00     0.213 C 
ENDROOT
BRANCH   3   4
HETATM    4  N1  UNL     1      33.389 -20.176  18.805  1.00  0.00    -0.379 N 
ATOM      5  H1  UNL     1      33.949 -20.086  19.653  1.00  0.00     0.160 HD
BRANCH   4   6
HETATM    6  C4  UNL     1      33.457 -19.198  17.820  1.00  0.00     0.040 A 
HETATM    7  C5  UNL     1      34.101 -19.474  16.612  1.00  0.00     0.030 A 
HETATM    8  C6  UNL     1      34.184 -18.526  15.616  1.00  0.00     0.003 A 
HETATM    9  C7  UNL     1      33.617 -17.289  15.835  1.00  0.00     0.012 A 
HETATM   10  C8  UNL     1      32.972 -16.967  17.007  1.00  0.00    -0.024 A 
HETATM   11  C9  UNL     1      32.423 -15.697  17.158  1.00  0.00     0.015 A 
HETATM   12  C17 UNL     1      32.900 -17.943  18.002  1.00  0.00     0.003 A 
HETATM   13  C10 UNL     1      31.778 -15.373  18.331  1.00  0.00     0.037 A 
HETATM   14  C11 UNL     1      31.694 -16.320  19.326  1.00  0.00     0.070 A 
HETATM   15  C16 UNL     1      32.249 -17.592  19.163  1.00  0.00     0.051 A 
BRANCH  14  16
HETATM   16  O1  UNL     1      31.064 -16.059  20.518  1.00  0.00    -0.344 OA
BRANCH  16  17
HETATM   17  C12 UNL     1      31.575 -15.487  21.664  1.00  0.00     0.156 C 
HETATM   18  C13 UNL     1      30.566 -14.537  22.326  1.00  0.00     0.061 C 
HETATM   19  C14 UNL     1      30.693 -14.750  23.798  1.00  0.00     0.235 C 
HETATM   20  N2  UNL     1      31.863 -15.599  23.944  1.00  0.00    -0.073 N 
HETATM   21  C15 UNL     1      31.770 -16.489  22.798  1.00  0.00     0.264 C 
ATOM     22  H22 UNL     1      32.746 -15.096  24.021  1.00  0.00     0.277 HD
ATOM     23  H21 UNL     1      31.934 -16.072  24.845  1.00  0.00     0.277 HD
ENDBRANCH  16  17
ENDBRANCH  14  16
ENDBRANCH   4   6
ENDBRANCH   3   4
TORSDOF 4
ENDMDL
MODEL 2
REMARK VINA RESULT: -7.614663907      1.430      1.866
REMARK  4 active torsions:
REMARK  status: ('A' for Active; 'I' for Inactive)
REMARK    1  A    between atoms: C3_3  and  N1_4 
REMARK    2  A    between atoms: N1_4  and  C4_6 
REMARK    3  A    between atoms: C11_13  and  O1_14 
REMARK    4  A    between atoms: O1_14  and  C12_15 
ROOT
HETATM    1  C1  UNL     1      33.350 -21.817  18.482  1.00  0.00     0.014 C 
HETATM    2  C2  UNL     1      32.326 -21.177  18.622  1.00  0.00    -0.098 C 
HETATM    3  C3  UNL     1      31.086 -20.411  18.767  1.00  0.00     0.213 C 
ENDROOT
BRANCH   3   4
HETATM    4  N1  UNL     1      30.846 -19.605  17.560  1.00  0.00    -0.379 N 
ATOM      5  H1  UNL     1      30.012 -19.768  16.996  1.00  0.00     0.160 HD
BRANCH   4   6
HETATM    6  C4  UNL     1      31.755 -18.621  17.190  1.00  0.00     0.040 A 
HETATM    7  C5  UNL     1      32.772 -18.923  16.282  1.00  0.00     0.030 A 
HETATM    8  C6  UNL     1      33.688 -17.970  15.895  1.00  0.00     0.003 A 
HETATM    9  C7  UNL     1      33.583 -16.702  16.425  1.00  0.00     0.012 A 
HETATM   10  C8  UNL     1      32.600 -16.353  17.322  1.00  0.00    -0.024 A 
HETATM   11  C9  UNL     1      32.555 -15.053  17.815  1.00  0.00     0.015 A 
HETATM   12  C17 UNL     1      31.683 -17.336  17.700  1.00  0.00     0.003 A 
HETATM   13  C10 UNL     1      31.571 -14.702  18.714  1.00  0.00     0.037 A 
HETATM   14  C11 UNL     1      30.656 -15.655  19.101  1.00  0.00     0.070 A 
HETATM   15  C16 UNL     1      30.711 -16.957  18.599  1.00  0.00     0.051 A 
BRANCH  14  16
HETATM   16  O1  UNL     1      29.652 -15.369  19.993  1.00  0.00    -0.344 OA
BRANCH  16  17
HETATM   17  C12 UNL     1      29.586 -15.640  21.344  1.00  0.00     0.156 C 
HETATM   18  C13 UNL     1      29.553 -17.151  21.621  1.00  0.00     0.061 C 
HETATM   19  C14 UNL     1      30.405 -17.375  22.825  1.00  0.00     0.235 C 
HETATM   20  N2  UNL     1      30.704 -16.041  23.314  1.00  0.00    -0.073 N 
HETATM   21  C15 UNL     1      30.861 -15.268  22.093  1.00  0.00     0.264 C 
ATOM     22  H22 UNL     1      30.018 -15.665  23.969  1.00  0.00     0.277 HD
ATOM     23  H21 UNL     1      31.496 -15.990  23.954  1.00  0.00     0.277 HD
ENDBRANCH  16  17
ENDBRANCH  14  16
ENDBRANCH   4   6
ENDBRANCH   3   4
TORSDOF 4
ENDMDL
MODEL 3
REMARK VINA RESULT: -7.418155355      2.481      6.280
REMARK  4 active torsions:
REMARK  status: ('A' for Active; 'I' for Inactive)
REMARK    1  A    between atoms: C3_3  and  N1_4 
REMARK    2  A    between atoms: N1_4  and  C4_6 
REMARK    3  A    between atoms: C11_13  and  O1_14 
REMARK    4  A    between atoms: O1_14  and  C12_15 
ROOT
HETATM    1  C1  UNL     1      26.846 -14.049  19.065  1.00  0.00     0.014 C 
HETATM    2  C2  UNL     1      27.701 -14.850  19.391  1.00  0.00    -0.098 C 
HETATM    3  C3  UNL     1      28.739 -15.797  19.800  1.00  0.00     0.213 C 
ENDROOT
BRANCH   3   4
HETATM    4  N1  UNL     1      30.017 -15.096  19.994  1.00  0.00    -0.379 N 
ATOM      5  H1  UNL     1      30.317 -14.387  19.324  1.00  0.00     0.160 HD
BRANCH   4   6
HETATM    6  C4  UNL     1      30.815 -15.398  21.091  1.00  0.00     0.040 A 
HETATM    7  C5  UNL     1      30.628 -14.714  22.294  1.00  0.00     0.030 A 
HETATM    8  C6  UNL     1      31.403 -14.990  23.399  1.00  0.00     0.003 A 
HETATM    9  C7  UNL     1      32.375 -15.962  23.295  1.00  0.00     0.012 A 
HETATM   10  C8  UNL     1      32.600 -16.664  22.134  1.00  0.00    -0.024 A 
HETATM   11  C9  UNL     1      33.599 -17.631  22.103  1.00  0.00     0.015 A 
HETATM   12  C17 UNL     1      31.803 -16.367  21.027  1.00  0.00     0.003 A 
HETATM   13  C10 UNL     1      33.826 -18.335  20.940  1.00  0.00     0.037 A 
HETATM   14  C11 UNL     1      33.051 -18.059  19.836  1.00  0.00     0.070 A 
HETATM   15  C16 UNL     1      32.051 -17.085  19.879  1.00  0.00     0.051 A 
BRANCH  14  16
HETATM   16  O1  UNL     1      33.227 -18.725  18.648  1.00  0.00    -0.344 OA
BRANCH  16  17
HETATM   17  C12 UNL     1      32.429 -19.688  18.066  1.00  0.00     0.156 C 
HETATM   18  C13 UNL     1      31.538 -20.392  19.100  1.00  0.00     0.061 C 
HETATM   19  C14 UNL     1      30.211 -20.590  18.445  1.00  0.00     0.235 C 
HETATM   20  N2  UNL     1      30.432 -20.223  17.057  1.00  0.00    -0.073 N 
HETATM   21  C15 UNL     1      31.355 -19.104  17.153  1.00  0.00     0.264 C 
ATOM     22  H22 UNL     1      30.750 -20.987  16.461  1.00  0.00     0.277 HD
ATOM     23  H21 UNL     1      29.581 -20.028  16.529  1.00  0.00     0.277 HD
ENDBRANCH  16  17
ENDBRANCH  14  16
ENDBRANCH   4   6
ENDBRANCH   3   4
TORSDOF 4
ENDMDL
MODEL 4
REMARK VINA RESULT: -7.382973906      3.142      6.544
REMARK  4 active torsions:
REMARK  status: ('A' for Active; 'I' for Inactive)
REMARK    1  A    between atoms: C3_3  and  N1_4 
REMARK    2  A    between atoms: N1_4  and  C4_6 
REMARK    3  A    between atoms: C11_13  and  O1_14 
REMARK    4  A    between atoms: O1_14  and  C12_15 
ROOT
HETATM    1  C1  UNL     1      31.873 -13.257  17.974  1.00  0.00     0.014 C 
HETATM    2  C2  UNL     1      31.543 -14.060  18.826  1.00  0.00    -0.098 C 
HETATM    3  C3  UNL     1      31.168 -15.031  19.855  1.00  0.00     0.213 C 
ENDROOT
BRANCH   3   4
HETATM    4  N1  UNL     1      32.023 -16.224  19.761  1.00  0.00    -0.379 N 
ATOM      5  H1  UNL     1      32.888 -16.275  20.298  1.00  0.00     0.160 HD
BRANCH   4   6
HETATM    6  C4  UNL     1      31.650 -17.281  18.939  1.00  0.00     0.040 A 
HETATM    7  C5  UNL     1      30.447 -17.950  19.172  1.00  0.00     0.030 A 
HETATM    8  C6  UNL     1      30.050 -19.002  18.376  1.00  0.00     0.003 A 
HETATM    9  C7  UNL     1      30.869 -19.386  17.336  1.00  0.00     0.012 A 
HETATM   10  C8  UNL     1      32.064 -18.761  17.065  1.00  0.00    -0.024 A 
HETATM   11  C9  UNL     1      32.839 -19.204  15.998  1.00  0.00     0.015 A 
HETATM   12  C17 UNL     1      32.446 -17.698  17.885  1.00  0.00     0.003 A 
HETATM   13  C10 UNL     1      34.037 -18.579  15.725  1.00  0.00     0.037 A 
HETATM   14  C11 UNL     1      34.434 -17.528  16.521  1.00  0.00     0.070 A 
HETATM   15  C16 UNL     1      33.646 -17.093  17.589  1.00  0.00     0.051 A 
BRANCH  14  16
HETATM   16  O1  UNL     1      35.615 -16.864  16.300  1.00  0.00    -0.344 OA
BRANCH  16  17
HETATM   17  C12 UNL     1      36.907 -17.290  16.530  1.00  0.00     0.156 C 
HETATM   18  C13 UNL     1      37.326 -18.394  15.548  1.00  0.00     0.061 C 
HETATM   19  C14 UNL     1      38.746 -18.114  15.183  1.00  0.00     0.235 C 
HETATM   20  N2  UNL     1      39.152 -17.051  16.087  1.00  0.00    -0.073 N 
HETATM   21  C15 UNL     1      37.954 -16.233  16.194  1.00  0.00     0.264 C 
ATOM     22  H22 UNL     1      39.529 -17.372  16.978  1.00  0.00     0.277 HD
ATOM     23  H21 UNL     1      39.989 -16.544  15.797  1.00  0.00     0.277 HD
ENDBRANCH  16  17
ENDBRANCH  14  16
ENDBRANCH   4   6
ENDBRANCH   3   4
TORSDOF 4
ENDMDL
MODEL 5
REMARK VINA RESULT: -7.374616018      2.189      5.924
REMARK  4 active torsions:
REMARK  status: ('A' for Active; 'I' for Inactive)
REMARK    1  A    between atoms: C3_3  and  N1_4 
REMARK    2  A    between atoms: N1_4  and  C4_6 
REMARK    3  A    between atoms: C11_13  and  O1_14 
REMARK    4  A    between atoms: O1_14  and  C12_15 
ROOT
HETATM    1  C1  UNL     1      35.351 -18.527  21.396  1.00  0.00     0.014 C 
HETATM    2  C2  UNL     1      34.605 -18.101  22.258  1.00  0.00    -0.098 C 
HETATM    3  C3  UNL     1      33.696 -17.609  23.294  1.00  0.00     0.213 C 
ENDROOT
BRANCH   3   4
HETATM    4  N1  UNL     1      32.304 -17.916  22.931  1.00  0.00    -0.379 N 
ATOM      5  H1  UNL     1      31.912 -18.834  23.142  1.00  0.00     0.160 HD
BRANCH   4   6
HETATM    6  C4  UNL     1      31.522 -16.954  22.302  1.00  0.00     0.040 A 
HETATM    7  C5  UNL     1      31.399 -15.682  22.866  1.00  0.00     0.030 A 
HETATM    8  C6  UNL     1      30.632 -14.707  22.266  1.00  0.00     0.003 A 
HETATM    9  C7  UNL     1      29.983 -15.012  21.090  1.00  0.00     0.012 A 
HETATM   10  C8  UNL     1      30.071 -16.248  20.493  1.00  0.00    -0.024 A 
HETATM   11  C9  UNL     1      29.387 -16.484  19.305  1.00  0.00     0.015 A 
HETATM   12  C17 UNL     1      30.853 -17.221  21.119  1.00  0.00     0.003 A 
HETATM   13  C10 UNL     1      29.474 -17.722  18.706  1.00  0.00     0.037 A 
HETATM   14  C11 UNL     1      30.240 -18.696  19.306  1.00  0.00     0.070 A 
HETATM   15  C16 UNL     1      30.922 -18.448  20.499  1.00  0.00     0.051 A 
BRANCH  14  16
HETATM   16  O1  UNL     1      30.367 -19.950  18.759  1.00  0.00    -0.344 OA
BRANCH  16  17
HETATM   17  C12 UNL     1      31.371 -20.449  17.956  1.00  0.00     0.156 C 
HETATM   18  C13 UNL     1      32.136 -19.328  17.236  1.00  0.00     0.061 C 
HETATM   19  C14 UNL     1      33.574 -19.726  17.250  1.00  0.00     0.235 C 
HETATM   20  N2  UNL     1      33.570 -21.092  17.746  1.00  0.00    -0.073 N 
HETATM   21  C15 UNL     1      32.515 -21.077  18.746  1.00  0.00     0.264 C 
ATOM     22  H22 UNL     1      33.463 -21.805  17.026  1.00  0.00     0.277 HD
ATOM     23  H21 UNL     1      34.473 -21.423  18.086  1.00  0.00     0.277 HD
ENDBRANCH  16  17
ENDBRANCH  14  16
ENDBRANCH   4   6
ENDBRANCH   3   4
TORSDOF 4
ENDMDL
