MODEL 1
REMARK VINA RESULT: -8.291993026      0.000      0.000
REMARK  4 active torsions:
REMARK  status: ('A' for Active; 'I' for Inactive)
REMARK    1  A    between atoms: C4_4  and  C5_5 
REMARK    2  A    between atoms: C5_5  and  N1_6 
REMARK    3  A    between atoms: N1_6  and  C6_8 
REMARK    4  A    between atoms: C10_12  and  C11_13 
ROOT
HETATM    1  C6  UNL     1      30.298 -16.165  19.479  1.00  0.00     0.029 A 
HETATM    2  C7  UNL     1      30.269 -14.786  19.512  1.00  0.00     0.029 A 
HETATM    3  C8  UNL     1      31.180 -14.054  18.778  1.00  0.00     0.003 A 
HETATM    4  C9  UNL     1      32.151 -14.643  17.986  1.00  0.00     0.015 A 
HETATM    5  C10 UNL     1      32.175 -16.017  17.958  1.00  0.00     0.009 A 
HETATM    6  C15 UNL     1      31.257 -16.772  18.698  1.00  0.00     0.044 A 
ENDROOT
BRANCH   1   7
HETATM    7  N1  UNL     1      29.363 -16.926  20.233  1.00  0.00    -0.386 N 
ATOM      8  H1  UNL     1      28.715 -17.541  19.742  1.00  0.00     0.160 HD
BRANCH   7   9
HETATM    9  C5  UNL     1      29.306 -16.853  21.673  1.00  0.00     0.158 C 
BRANCH   9  10
HETATM   10  C4  UNL     1      30.678 -16.821  22.237  1.00  0.00    -0.041 A 
HETATM   11  C3  UNL     1      31.474 -17.940  22.259  1.00  0.00     0.009 A 
HETATM   12  C2  UNL     1      32.739 -17.850  22.799  1.00  0.00     0.001 A 
HETATM   13  C1  UNL     1      33.260 -16.689  23.322  1.00  0.00     0.000 A 
HETATM   14  C17 UNL     1      32.429 -15.578  23.284  1.00  0.00     0.001 A 
HETATM   15  C16 UNL     1      31.155 -15.641  22.749  1.00  0.00     0.009 A 
ENDBRANCH   9  10
ENDBRANCH   7   9
ENDBRANCH   1   7
BRANCH   5  16
HETATM   16  C11 UNL     1      33.165 -16.718  17.152  1.00  0.00     0.107 C 
HETATM   17  N2  UNL     1      34.442 -16.521  17.345  1.00  0.00    -0.376 N 
HETATM   18  C12 UNL     1      35.393 -17.236  16.523  1.00  0.00     0.123 C 
ATOM     19  H2  UNL     1      34.763 -15.874  18.064  1.00  0.00     0.161 HD
HETATM   20  C13 UNL     1      34.948 -18.667  16.407  1.00  0.00     0.039 C 
HETATM   21  C14 UNL     1      33.568 -18.813  15.854  1.00  0.00     0.123 C 
HETATM   22  N3  UNL     1      32.746 -17.627  16.142  1.00  0.00    -0.376 N 
ATOM     23  H3  UNL     1      31.885 -17.459  15.622  1.00  0.00     0.161 HD
ENDBRANCH   5  16
TORSDOF 4
ENDMDL
MODEL 2
REMARK VINA RESULT: -8.263442798      0.034      1.055
REMARK  4 active torsions:
REMARK  status: ('A' for Active; 'I' for Inactive)
REMARK    1  A    between atoms: C4_4  and  C5_5 
REMARK    2  A    between atoms: C5_5  and  N1_6 
REMARK    3  A    between atoms: N1_6  and  C6_8 
REMARK    4  A    between atoms: C10_12  and  C11_13 
ROOT
HETATM    1  C6  UNL     1      30.316 -16.177  19.477  1.00  0.00     0.029 A 
HETATM    2  C7  UNL     1      30.280 -14.799  19.501  1.00  0.00     0.029 A 
HETATM    3  C8  UNL     1      31.183 -14.066  18.757  1.00  0.00     0.003 A 
HETATM    4  C9  UNL     1      32.152 -14.655  17.964  1.00  0.00     0.015 A 
HETATM    5  C10 UNL     1      32.184 -16.030  17.944  1.00  0.00     0.009 A 
HETATM    6  C15 UNL     1      31.274 -16.785  18.694  1.00  0.00     0.044 A 
ENDROOT
BRANCH   1   7
HETATM    7  N1  UNL     1      29.390 -16.938  20.241  1.00  0.00    -0.386 N 
ATOM      8  H1  UNL     1      28.757 -17.577  19.760  1.00  0.00     0.160 HD
BRANCH   7   9
HETATM    9  C5  UNL     1      29.320 -16.834  21.678  1.00  0.00     0.158 C 
BRANCH   9  10
HETATM   10  C4  UNL     1      30.687 -16.767  22.252  1.00  0.00    -0.041 A 
HETATM   11  C3  UNL     1      31.200 -15.597  22.755  1.00  0.00     0.009 A 
HETATM   12  C2  UNL     1      32.478 -15.596  23.274  1.00  0.00     0.001 A 
HETATM   13  C1  UNL     1      33.279 -16.713  23.319  1.00  0.00     0.000 A 
HETATM   14  C17 UNL     1      32.729 -17.879  22.802  1.00  0.00     0.001 A 
HETATM   15  C16 UNL     1      31.450 -17.906  22.276  1.00  0.00     0.009 A 
ENDBRANCH   9  10
ENDBRANCH   7   9
ENDBRANCH   1   7
BRANCH   5  16
HETATM   16  C11 UNL     1      33.172 -16.731  17.136  1.00  0.00     0.107 C 
HETATM   17  N2  UNL     1      34.450 -16.521  17.316  1.00  0.00    -0.376 N 
HETATM   18  C12 UNL     1      35.399 -17.236  16.493  1.00  0.00     0.123 C 
ATOM     19  H2  UNL     1      34.772 -15.862  18.025  1.00  0.00     0.161 HD
HETATM   20  C13 UNL     1      34.966 -18.672  16.396  1.00  0.00     0.039 C 
HETATM   21  C14 UNL     1      33.582 -18.836  15.858  1.00  0.00     0.123 C 
HETATM   22  N3  UNL     1      32.753 -17.655  16.140  1.00  0.00    -0.376 N 
ATOM     23  H3  UNL     1      31.885 -17.500  15.627  1.00  0.00     0.161 HD
ENDBRANCH   5  16
TORSDOF 4
ENDMDL
MODEL 3
REMARK VINA RESULT: -8.158782800      1.918      6.352
REMARK  4 active torsions:
REMARK  status: ('A' for Active; 'I' for Inactive)
REMARK    1  A    between atoms: C4_4  and  C5_5 
REMARK    2  A    between atoms: C5_5  and  N1_6 
REMARK    3  A    between atoms: N1_6  and  C6_8 
REMARK    4  A    between atoms: C10_12  and  C11_13 
ROOT
HETATM    1  C6  UNL     1      31.310 -18.498  17.781  1.00  0.00     0.029 A 
HETATM    2  C7  UNL     1      30.739 -19.752  17.807  1.00  0.00     0.029 A 
HETATM    3  C8  UNL     1      30.452 -20.361  19.012  1.00  0.00     0.003 A 
HETATM    4  C9  UNL     1      30.712 -19.765  20.234  1.00  0.00     0.015 A 
HETATM    5  C10 UNL     1      31.281 -18.513  20.202  1.00  0.00     0.009 A 
HETATM    6  C15 UNL     1      31.578 -17.885  18.986  1.00  0.00     0.044 A 
ENDROOT
BRANCH   1   7
HETATM    7  N1  UNL     1      31.609 -17.865  16.544  1.00  0.00    -0.386 N 
ATOM      8  H1  UNL     1      31.060 -18.105  15.719  1.00  0.00     0.160 HD
BRANCH   7   9
HETATM    9  C5  UNL     1      32.668 -16.892  16.422  1.00  0.00     0.158 C 
BRANCH   9  10
HETATM   10  C4  UNL     1      33.962 -17.574  16.174  1.00  0.00    -0.041 A 
HETATM   11  C3  UNL     1      34.021 -18.815  15.589  1.00  0.00     0.009 A 
HETATM   12  C2  UNL     1      35.253 -19.400  15.386  1.00  0.00     0.001 A 
HETATM   13  C1  UNL     1      36.443 -18.805  15.739  1.00  0.00     0.000 A 
HETATM   14  C17 UNL     1      36.346 -17.552  16.328  1.00  0.00     0.001 A 
HETATM   15  C16 UNL     1      35.122 -16.943  16.543  1.00  0.00     0.009 A 
ENDBRANCH   9  10
ENDBRANCH   7   9
ENDBRANCH   1   7
BRANCH   5  16
HETATM   16  C11 UNL     1      31.589 -17.814  21.441  1.00  0.00     0.107 C 
HETATM   17  N2  UNL     1      32.829 -17.597  21.794  1.00  0.00    -0.376 N 
HETATM   18  C12 UNL     1      33.092 -16.900  23.033  1.00  0.00     0.123 C 
ATOM     19  H2  UNL     1      33.598 -17.914  21.205  1.00  0.00     0.161 HD
HETATM   20  C13 UNL     1      32.154 -15.730  23.136  1.00  0.00     0.039 C 
HETATM   21  C14 UNL     1      30.714 -16.119  23.052  1.00  0.00     0.123 C 
HETATM   22  N3  UNL     1      30.537 -17.360  22.283  1.00  0.00    -0.376 N 
ATOM     23  H3  UNL     1      29.668 -17.890  22.352  1.00  0.00     0.161 HD
ENDBRANCH   5  16
TORSDOF 4
ENDMDL
MODEL 4
REMARK VINA RESULT: -8.156723277      1.922      6.442
REMARK  4 active torsions:
REMARK  status: ('A' for Active; 'I' for Inactive)
REMARK    1  A    between atoms: C4_4  and  C5_5 
REMARK    2  A    between atoms: C5_5  and  N1_6 
REMARK    3  A    between atoms: N1_6  and  C6_8 
REMARK    4  A    between atoms: C10_12  and  C11_13 
ROOT
HETATM    1  C6  UNL     1      31.436 -18.498  17.773  1.00  0.00     0.029 A 
HETATM    2  C7  UNL     1      30.813 -19.728  17.781  1.00  0.00     0.029 A 
HETATM    3  C8  UNL     1      30.463 -20.323  18.977  1.00  0.00     0.003 A 
HETATM    4  C9  UNL     1      30.709 -19.735  20.206  1.00  0.00     0.015 A 
HETATM    5  C10 UNL     1      31.330 -18.508  20.191  1.00  0.00     0.009 A 
HETATM    6  C15 UNL     1      31.691 -17.895  18.985  1.00  0.00     0.044 A 
ENDROOT
BRANCH   1   7
HETATM    7  N1  UNL     1      31.800 -17.881  16.545  1.00  0.00    -0.386 N 
ATOM      8  H1  UNL     1      31.317 -18.155  15.690  1.00  0.00     0.160 HD
BRANCH   7   9
HETATM    9  C5  UNL     1      32.833 -16.876  16.475  1.00  0.00     0.158 C 
BRANCH   9  10
HETATM   10  C4  UNL     1      34.149 -17.514  16.225  1.00  0.00    -0.041 A 
HETATM   11  C3  UNL     1      35.326 -16.881  16.539  1.00  0.00     0.009 A 
HETATM   12  C2  UNL     1      36.519 -17.523  16.281  1.00  0.00     0.001 A 
HETATM   13  C1  UNL     1      36.600 -18.778  15.723  1.00  0.00     0.000 A 
HETATM   14  C17 UNL     1      35.391 -19.388  15.418  1.00  0.00     0.001 A 
HETATM   15  C16 UNL     1      34.181 -18.766  15.666  1.00  0.00     0.009 A 
ENDBRANCH   9  10
ENDBRANCH   7   9
ENDBRANCH   1   7
BRANCH   5  16
HETATM   16  C11 UNL     1      31.627 -17.820  21.440  1.00  0.00     0.107 C 
HETATM   17  N2  UNL     1      32.863 -17.605  21.805  1.00  0.00    -0.376 N 
HETATM   18  C12 UNL     1      33.115 -16.918  23.051  1.00  0.00     0.123 C 
ATOM     19  H2  UNL     1      33.638 -17.916  21.219  1.00  0.00     0.161 HD
HETATM   20  C13 UNL     1      32.176 -15.750  23.157  1.00  0.00     0.039 C 
HETATM   21  C14 UNL     1      30.737 -16.140  23.058  1.00  0.00     0.123 C 
HETATM   22  N3  UNL     1      30.567 -17.374  22.277  1.00  0.00    -0.376 N 
ATOM     23  H3  UNL     1      29.698 -17.905  22.334  1.00  0.00     0.161 HD
ENDBRANCH   5  16
TORSDOF 4
ENDMDL
MODEL 5
REMARK VINA RESULT: -8.009655365      1.938      6.355
REMARK  4 active torsions:
REMARK  status: ('A' for Active; 'I' for Inactive)
REMARK    1  A    between atoms: C4_4  and  C5_5 
REMARK    2  A    between atoms: C5_5  and  N1_6 
REMARK    3  A    between atoms: N1_6  and  C6_8 
REMARK    4  A    between atoms: C10_12  and  C11_13 
ROOT
HETATM    1  C6  UNL     1      31.563 -18.542  18.027  1.00  0.00     0.029 A 
HETATM    2  C7  UNL     1      30.318 -18.341  17.468  1.00  0.00     0.029 A 
HETATM    3  C8  UNL     1      29.360 -17.616  18.148  1.00  0.00     0.003 A 
HETATM    4  C9  UNL     1      29.585 -17.063  19.396  1.00  0.00     0.015 A 
HETATM    5  C10 UNL     1      30.828 -17.266  19.948  1.00  0.00     0.009 A 
HETATM    6  C15 UNL     1      31.809 -18.000  19.270  1.00  0.00     0.044 A 
ENDROOT
BRANCH   1   7
HETATM    7  N1  UNL     1      32.555 -19.288  17.333  1.00  0.00    -0.386 N 
ATOM      8  H1  UNL     1      32.969 -20.102  17.786  1.00  0.00     0.160 HD
BRANCH   7   9
HETATM    9  C5  UNL     1      32.991 -18.926  16.007  1.00  0.00     0.158 C 
BRANCH   9  10
HETATM   10  C4  UNL     1      34.386 -18.424  16.047  1.00  0.00    -0.041 A 
HETATM   11  C3  UNL     1      34.686 -17.170  16.521  1.00  0.00     0.009 A 
HETATM   12  C2  UNL     1      36.002 -16.757  16.531  1.00  0.00     0.001 A 
HETATM   13  C1  UNL     1      37.046 -17.538  16.092  1.00  0.00     0.000 A 
HETATM   14  C17 UNL     1      36.707 -18.799  15.620  1.00  0.00     0.001 A 
HETATM   15  C16 UNL     1      35.395 -19.237  15.598  1.00  0.00     0.009 A 
ENDBRANCH   9  10
ENDBRANCH   7   9
ENDBRANCH   1   7
BRANCH   5  16
HETATM   16  C11 UNL     1      31.148 -16.719  21.259  1.00  0.00     0.107 C 
HETATM   17  N2  UNL     1      32.316 -16.935  21.804  1.00  0.00    -0.376 N 
HETATM   18  C12 UNL     1      32.594 -16.374  23.107  1.00  0.00     0.123 C 
ATOM     19  H2  UNL     1      33.020 -17.489  21.318  1.00  0.00     0.161 HD
HETATM   20  C13 UNL     1      32.095 -14.957  23.139  1.00  0.00     0.039 C 
HETATM   21  C14 UNL     1      30.640 -14.838  22.819  1.00  0.00     0.123 C 
HETATM   22  N3  UNL     1      30.186 -15.942  21.961  1.00  0.00    -0.376 N 
ATOM     23  H3  UNL     1      29.191 -16.148  21.868  1.00  0.00     0.161 HD
ENDBRANCH   5  16
TORSDOF 4
ENDMDL
