MODEL 1
REMARK VINA RESULT: -7.059517243      0.000      0.000
REMARK  5 active torsions:
REMARK  status: ('A' for Active; 'I' for Inactive)
REMARK    1  A    between atoms: N1_1  and  C1_4 
REMARK    2  A    between atoms: C3_8  and  C4_9 
REMARK    3  A    between atoms: C8_15  and  S1_16 
REMARK    4  A    between atoms: S1_16  and  C9_17 
REMARK    5  A    between atoms: C9_17  and  C10_18 
ROOT
HETATM    1  C1  UNL     1      29.281 -15.974  21.070  1.00  0.00     0.128 A 
HETATM    2  N2  UNL     1      29.891 -15.365  22.091  1.00  0.00    -0.350 N 
ATOM      3  H2  UNL     1      29.534 -14.464  22.411  1.00  0.00     0.166 HD
HETATM    4  C2  UNL     1      30.963 -15.899  22.714  1.00  0.00     0.099 A 
HETATM    5  C3  UNL     1      31.512 -17.102  22.357  1.00  0.00    -0.009 A 
HETATM    6  C7  UNL     1      30.878 -17.744  21.289  1.00  0.00     0.073 A 
HETATM    7  N3  UNL     1      31.154 -18.917  20.699  1.00  0.00    -0.334 N 
ATOM      8  H3  UNL     1      31.908 -19.558  20.946  1.00  0.00     0.168 HD
HETATM    9  C8  UNL     1      30.248 -19.088  19.724  1.00  0.00     0.145 A 
HETATM   10  N4  UNL     1      29.400 -18.055  19.671  1.00  0.00    -0.332 N 
ATOM     11  H4  UNL     1      28.621 -17.933  19.024  1.00  0.00     0.168 HD
HETATM   12  C13 UNL     1      29.786 -17.200  20.654  1.00  0.00     0.105 A 
ENDROOT
BRANCH   9  13
HETATM   13  S1  UNL     1      30.126 -20.482  18.608  1.00  0.00    -0.093 SA
BRANCH  13  14
HETATM   14  C9  UNL     1      30.925 -20.115  17.036  1.00  0.00     0.087 C 
BRANCH  14  15
HETATM   15  C10 UNL     1      32.123 -19.203  17.310  1.00  0.00    -0.005 A 
HETATM   16  C11 UNL     1      32.990 -18.898  16.139  1.00  0.00     0.006 A 
HETATM   17  C12 UNL     1      32.085 -17.852  16.710  1.00  0.00     0.006 A 
ENDBRANCH  14  15
ENDBRANCH  13  14
ENDBRANCH   9  13
BRANCH   5  18
HETATM   18  C4  UNL     1      32.683 -17.732  22.996  1.00  0.00     0.022 A 
HETATM   19  C5  UNL     1      33.843 -16.885  23.489  1.00  0.00     0.010 A 
HETATM   20  C6  UNL     1      33.997 -17.757  22.304  1.00  0.00     0.010 A 
ENDBRANCH   5  18
BRANCH   1  21
HETATM   21  N1  UNL     1      28.253 -15.474  20.469  1.00  0.00    -0.384 N 
ATOM     22  H12 UNL     1      28.158 -15.588  19.460  1.00  0.00     0.157 HD
ATOM     23  H11 UNL     1      27.517 -14.965  20.960  1.00  0.00     0.157 HD
ENDBRANCH   1  21
TORSDOF 5
ENDMDL
MODEL 2
REMARK VINA RESULT: -7.011370055      2.115      5.474
REMARK  5 active torsions:
REMARK  status: ('A' for Active; 'I' for Inactive)
REMARK    1  A    between atoms: N1_1  and  C1_4 
REMARK    2  A    between atoms: C3_8  and  C4_9 
REMARK    3  A    between atoms: C8_15  and  S1_16 
REMARK    4  A    between atoms: S1_16  and  C9_17 
REMARK    5  A    between atoms: C9_17  and  C10_18 
ROOT
HETATM    1  C1  UNL     1      30.413 -19.990  18.670  1.00  0.00     0.128 A 
HETATM    2  N2  UNL     1      30.966 -20.263  17.485  1.00  0.00    -0.350 N 
ATOM      3  H2  UNL     1      30.789 -21.172  17.057  1.00  0.00     0.166 HD
HETATM    4  C2  UNL     1      31.752 -19.379  16.834  1.00  0.00     0.099 A 
HETATM    5  C3  UNL     1      32.047 -18.136  17.328  1.00  0.00    -0.009 A 
HETATM    6  C7  UNL     1      31.470 -17.844  18.568  1.00  0.00     0.073 A 
HETATM    7  N3  UNL     1      31.550 -16.735  19.319  1.00  0.00    -0.334 N 
ATOM      8  H3  UNL     1      32.072 -15.888  19.096  1.00  0.00     0.168 HD
HETATM    9  C8  UNL     1      30.813 -16.953  20.419  1.00  0.00     0.145 A 
HETATM   10  N4  UNL     1      30.264 -18.172  20.394  1.00  0.00    -0.332 N 
ATOM     11  H4  UNL     1      29.662 -18.588  21.105  1.00  0.00     0.168 HD
HETATM   12  C13 UNL     1      30.670 -18.745  19.232  1.00  0.00     0.105 A 
ENDROOT
BRANCH   9  13
HETATM   13  S1  UNL     1      30.552 -15.814  21.776  1.00  0.00    -0.093 SA
BRANCH  13  14
HETATM   14  C9  UNL     1      32.010 -15.727  22.828  1.00  0.00     0.087 C 
BRANCH  14  15
HETATM   15  C10 UNL     1      32.529 -17.150  23.045  1.00  0.00    -0.005 A 
HETATM   16  C11 UNL     1      33.676 -17.562  22.190  1.00  0.00     0.006 A 
HETATM   17  C12 UNL     1      33.873 -17.285  23.648  1.00  0.00     0.006 A 
ENDBRANCH  14  15
ENDBRANCH  13  14
ENDBRANCH   9  13
BRANCH   5  18
HETATM   18  C4  UNL     1      32.900 -17.132  16.666  1.00  0.00     0.022 A 
HETATM   19  C5  UNL     1      34.204 -17.541  16.004  1.00  0.00     0.010 A 
HETATM   20  C6  UNL     1      34.211 -16.750  17.254  1.00  0.00     0.010 A 
ENDBRANCH   5  18
BRANCH   1  21
HETATM   21  N1  UNL     1      29.657 -20.827  19.300  1.00  0.00    -0.384 N 
ATOM     22  H12 UNL     1      28.787 -21.138  18.869  1.00  0.00     0.157 HD
ATOM     23  H11 UNL     1      29.890 -21.200  20.220  1.00  0.00     0.157 HD
ENDBRANCH   1  21
TORSDOF 5
ENDMDL
MODEL 3
REMARK VINA RESULT: -6.943228482      1.351      1.538
REMARK  5 active torsions:
REMARK  status: ('A' for Active; 'I' for Inactive)
REMARK    1  A    between atoms: N1_1  and  C1_4 
REMARK    2  A    between atoms: C3_8  and  C4_9 
REMARK    3  A    between atoms: C8_15  and  S1_16 
REMARK    4  A    between atoms: S1_16  and  C9_17 
REMARK    5  A    between atoms: C9_17  and  C10_18 
ROOT
HETATM    1  C1  UNL     1      29.506 -16.147  20.584  1.00  0.00     0.128 A 
HETATM    2  N2  UNL     1      29.714 -15.796  21.856  1.00  0.00    -0.350 N 
ATOM      3  H2  UNL     1      29.092 -15.110  22.285  1.00  0.00     0.166 HD
HETATM    4  C2  UNL     1      30.718 -16.316  22.593  1.00  0.00     0.099 A 
HETATM    5  C3  UNL     1      31.602 -17.241  22.106  1.00  0.00    -0.009 A 
HETATM    6  C7  UNL     1      31.390 -17.613  20.775  1.00  0.00     0.073 A 
HETATM    7  N3  UNL     1      32.059 -18.483  20.003  1.00  0.00    -0.334 N 
ATOM      8  H3  UNL     1      32.870 -19.037  20.277  1.00  0.00     0.168 HD
HETATM    9  C8  UNL     1      31.457 -18.486  18.804  1.00  0.00     0.145 A 
HETATM   10  N4  UNL     1      30.421 -17.640  18.785  1.00  0.00    -0.332 N 
ATOM     11  H4  UNL     1      29.797 -17.451  18.000  1.00  0.00     0.168 HD
HETATM   12  C13 UNL     1      30.367 -17.083  20.023  1.00  0.00     0.105 A 
ENDROOT
BRANCH   9  13
HETATM   13  S1  UNL     1      31.918 -19.463  17.377  1.00  0.00    -0.093 SA
BRANCH  13  14
HETATM   14  C9  UNL     1      33.048 -18.549  16.314  1.00  0.00     0.087 C 
BRANCH  14  15
HETATM   15  C10 UNL     1      34.183 -17.999  17.182  1.00  0.00    -0.005 A 
HETATM   16  C11 UNL     1      35.198 -17.169  16.476  1.00  0.00     0.006 A 
HETATM   17  C12 UNL     1      34.206 -16.537  17.401  1.00  0.00     0.006 A 
ENDBRANCH  14  15
ENDBRANCH  13  14
ENDBRANCH   9  13
BRANCH   5  18
HETATM   18  C4  UNL     1      32.718 -17.840  22.861  1.00  0.00     0.022 A 
HETATM   19  C5  UNL     1      33.784 -16.961  23.492  1.00  0.00     0.010 A 
HETATM   20  C6  UNL     1      34.101 -17.804  22.319  1.00  0.00     0.010 A 
ENDBRANCH   5  18
BRANCH   1  21
HETATM   21  N1  UNL     1      28.546 -15.659  19.870  1.00  0.00    -0.384 N 
ATOM     22  H12 UNL     1      27.580 -15.821  20.151  1.00  0.00     0.157 HD
ATOM     23  H11 UNL     1      28.709 -15.109  19.026  1.00  0.00     0.157 HD
ENDBRANCH   1  21
TORSDOF 5
ENDMDL
MODEL 4
REMARK VINA RESULT: -6.934820536      2.083      5.512
REMARK  5 active torsions:
REMARK  status: ('A' for Active; 'I' for Inactive)
REMARK    1  A    between atoms: N1_1  and  C1_4 
REMARK    2  A    between atoms: C3_8  and  C4_9 
REMARK    3  A    between atoms: C8_15  and  S1_16 
REMARK    4  A    between atoms: S1_16  and  C9_17 
REMARK    5  A    between atoms: C9_17  and  C10_18 
ROOT
HETATM    1  C1  UNL     1      30.287 -20.086  18.565  1.00  0.00     0.128 A 
HETATM    2  N2  UNL     1      31.095 -20.443  17.563  1.00  0.00    -0.350 N 
ATOM      3  H2  UNL     1      31.136 -21.425  17.290  1.00  0.00     0.166 HD
HETATM    4  C2  UNL     1      31.860 -19.550  16.899  1.00  0.00     0.099 A 
HETATM    5  C3  UNL     1      31.873 -18.212  17.193  1.00  0.00    -0.009 A 
HETATM    6  C7  UNL     1      31.029 -17.832  18.241  1.00  0.00     0.073 A 
HETATM    7  N3  UNL     1      30.802 -16.622  18.773  1.00  0.00    -0.334 N 
ATOM      8  H3  UNL     1      31.232 -15.743  18.486  1.00  0.00     0.168 HD
HETATM    9  C8  UNL     1      29.902 -16.787  19.755  1.00  0.00     0.145 A 
HETATM   10  N4  UNL     1      29.547 -18.072  19.868  1.00  0.00    -0.332 N 
ATOM     11  H4  UNL     1      28.883 -18.468  20.533  1.00  0.00     0.168 HD
HETATM   12  C13 UNL     1      30.250 -18.742  18.918  1.00  0.00     0.105 A 
ENDROOT
BRANCH   9  13
HETATM   13  S1  UNL     1      29.221 -15.511  20.810  1.00  0.00    -0.093 SA
BRANCH  13  14
HETATM   14  C9  UNL     1      30.252 -15.267  22.266  1.00  0.00     0.087 C 
BRANCH  14  15
HETATM   15  C10 UNL     1      31.591 -15.969  22.027  1.00  0.00    -0.005 A 
HETATM   16  C11 UNL     1      32.534 -15.980  23.179  1.00  0.00     0.006 A 
HETATM   17  C12 UNL     1      31.824 -17.230  22.764  1.00  0.00     0.006 A 
ENDBRANCH  14  15
ENDBRANCH  13  14
ENDBRANCH   9  13
BRANCH   5  18
HETATM   18  C4  UNL     1      32.688 -17.193  16.507  1.00  0.00     0.022 A 
HETATM   19  C5  UNL     1      34.089 -17.522  16.022  1.00  0.00     0.010 A 
HETATM   20  C6  UNL     1      33.884 -16.612  17.170  1.00  0.00     0.010 A 
ENDBRANCH   5  18
BRANCH   1  21
HETATM   21  N1  UNL     1      29.549 -20.931  19.206  1.00  0.00    -0.384 N 
ATOM     22  H12 UNL     1      28.680 -21.257  18.784  1.00  0.00     0.157 HD
ATOM     23  H11 UNL     1      29.796 -21.297  20.125  1.00  0.00     0.157 HD
ENDBRANCH   1  21
TORSDOF 5
ENDMDL
MODEL 5
REMARK VINA RESULT: -6.845867648      1.782      2.141
REMARK  5 active torsions:
REMARK  status: ('A' for Active; 'I' for Inactive)
REMARK    1  A    between atoms: N1_1  and  C1_4 
REMARK    2  A    between atoms: C3_8  and  C4_9 
REMARK    3  A    between atoms: C8_15  and  S1_16 
REMARK    4  A    between atoms: S1_16  and  C9_17 
REMARK    5  A    between atoms: C9_17  and  C10_18 
ROOT
HETATM    1  C1  UNL     1      29.437 -17.226  19.664  1.00  0.00     0.128 A 
HETATM    2  N2  UNL     1      29.241 -16.692  20.873  1.00  0.00    -0.350 N 
ATOM      3  H2  UNL     1      28.389 -16.155  21.042  1.00  0.00     0.166 HD
HETATM    4  C2  UNL     1      30.128 -16.838  21.880  1.00  0.00     0.099 A 
HETATM    5  C3  UNL     1      31.296 -17.540  21.750  1.00  0.00    -0.009 A 
HETATM    6  C7  UNL     1      31.508 -18.102  20.487  1.00  0.00     0.073 A 
HETATM    7  N3  UNL     1      32.530 -18.841  20.030  1.00  0.00    -0.334 N 
ATOM      8  H3  UNL     1      33.357 -19.122  20.555  1.00  0.00     0.168 HD
HETATM    9  C8  UNL     1      32.256 -19.139  18.750  1.00  0.00     0.145 A 
HETATM   10  N4  UNL     1      31.087 -18.609  18.374  1.00  0.00    -0.332 N 
ATOM     11  H4  UNL     1      30.647 -18.683  17.457  1.00  0.00     0.168 HD
HETATM   12  C13 UNL     1      30.604 -17.953  19.461  1.00  0.00     0.105 A 
ENDROOT
BRANCH   9  13
HETATM   13  S1  UNL     1      33.268 -20.109  17.637  1.00  0.00    -0.093 SA
BRANCH  13  14
HETATM   14  C9  UNL     1      34.148 -19.046  16.481  1.00  0.00     0.087 C 
BRANCH  14  15
HETATM   15  C10 UNL     1      34.878 -17.966  17.284  1.00  0.00    -0.005 A 
HETATM   16  C11 UNL     1      35.591 -16.931  16.486  1.00  0.00     0.006 A 
HETATM   17  C12 UNL     1      34.327 -16.595  17.214  1.00  0.00     0.006 A 
ENDBRANCH  14  15
ENDBRANCH  13  14
ENDBRANCH   9  13
BRANCH   5  18
HETATM   18  C4  UNL     1      32.304 -17.730  22.810  1.00  0.00     0.022 A 
HETATM   19  C5  UNL     1      33.102 -16.550  23.338  1.00  0.00     0.010 A 
HETATM   20  C6  UNL     1      33.752 -17.589  22.509  1.00  0.00     0.010 A 
ENDBRANCH   5  18
BRANCH   1  21
HETATM   21  N1  UNL     1      28.593 -17.096  18.695  1.00  0.00    -0.384 N 
ATOM     22  H12 UNL     1      27.780 -17.709  18.652  1.00  0.00     0.157 HD
ATOM     23  H11 UNL     1      28.699 -16.397  17.959  1.00  0.00     0.157 HD
ENDBRANCH   1  21
TORSDOF 5
ENDMDL
