MODEL 1
REMARK VINA RESULT: -9.736361980      0.000      0.000
REMARK  7 active torsions:
REMARK  status: ('A' for Active; 'I' for Inactive)
REMARK    1  A    between atoms: C5_5  and  C6_6 
REMARK    2  A    between atoms: C9_11  and  N2_12 
REMARK    3  A    between atoms: N2_12  and  S1_14 
REMARK    4  A    between atoms: S1_14  and  C10_17 
REMARK    5  A    between atoms: C12_19  and  C13_20 
REMARK    6  A    between atoms: C13_20  and  C14_21 
REMARK    7  A    between atoms: C14_21  and  C15_22 
REMARK       I    between atoms: C15_22  and  N3_24 
ROOT
HETATM    1  S1  UNL     1     -49.080  22.361 -17.266  1.00  0.00     0.263 S 
HETATM    2  O1  UNL     1     -50.336  21.573 -16.948  1.00  0.00    -0.200 OA
HETATM    3  O2  UNL     1     -49.362  23.768 -16.799  1.00  0.00    -0.200 OA
ENDROOT
BRANCH   1   4
HETATM    4  N2  UNL     1     -48.803  22.266 -18.937  1.00  0.00    -0.281 N 
ATOM      5  H2  UNL     1     -49.583  22.080 -19.568  1.00  0.00     0.179 HD
BRANCH   4   6
HETATM    6  C9  UNL     1     -47.504  22.440 -19.464  1.00  0.00     0.044 A 
HETATM    7  C8  UNL     1     -46.934  23.680 -19.628  1.00  0.00     0.062 A 
HETATM    8  C7  UNL     1     -45.643  23.842 -20.158  1.00  0.00     0.062 A 
HETATM    9  N1  UNL     1     -44.893  24.918 -20.408  1.00  0.00    -0.340 N 
HETATM   10  C23 UNL     1     -44.908  22.740 -20.531  1.00  0.00     0.060 A 
HETATM   11  C6  UNL     1     -43.714  24.549 -20.923  1.00  0.00     0.116 A 
ATOM     12  H1  UNL     1     -45.177  25.882 -20.233  1.00  0.00     0.167 HD
HETATM   13  N6  UNL     1     -43.736  23.208 -20.994  1.00  0.00    -0.340 N 
ATOM     14  H6  UNL     1     -42.974  22.629 -21.347  1.00  0.00     0.167 HD
HETATM   15  C22 UNL     1     -45.462  21.488 -20.374  1.00  0.00     0.034 A 
HETATM   16  C21 UNL     1     -46.727  21.343 -19.854  1.00  0.00     0.032 A 
BRANCH  11  17
HETATM   17  C5  UNL     1     -42.620  25.419 -21.329  1.00  0.00     0.008 A 
HETATM   18  C4  UNL     1     -42.712  26.158 -22.488  1.00  0.00     0.016 A 
HETATM   19  C3  UNL     1     -41.665  26.996 -22.885  1.00  0.00     0.007 A 
HETATM   20  C2  UNL     1     -40.519  27.098 -22.123  1.00  0.00    -0.062 A 
HETATM   21  C1  UNL     1     -39.380  27.988 -22.522  1.00  0.00     0.048 C 
HETATM   22  C25 UNL     1     -40.451  26.348 -20.969  1.00  0.00     0.007 A 
HETATM   23  C24 UNL     1     -41.487  25.517 -20.573  1.00  0.00     0.016 A 
ENDBRANCH  11  17
ENDBRANCH   4   6
ENDBRANCH   1   4
BRANCH   1  24
HETATM   24  C10 UNL     1     -47.754  21.726 -16.329  1.00  0.00     0.083 A 
HETATM   25  C11 UNL     1     -47.012  22.524 -15.481  1.00  0.00     0.048 A 
HETATM   26  C12 UNL     1     -45.976  21.980 -14.766  1.00  0.00     0.049 A 
HETATM   27  C18 UNL     1     -45.671  20.607 -14.897  1.00  0.00     0.086 A 
HETATM   28  N4  UNL     1     -44.672  20.012 -14.228  1.00  0.00    -0.309 N 
HETATM   29  C19 UNL     1     -46.387  19.805 -15.724  1.00  0.00     0.070 A 
HETATM   30  S2  UNL     1     -44.731  18.415 -14.727  1.00  0.00     0.068 SA
ATOM     31  H4  UNL     1     -44.024  20.436 -13.564  1.00  0.00     0.176 HD
HETATM   32  N5  UNL     1     -46.026  18.529 -15.781  1.00  0.00    -0.310 N 
ATOM     33  H5  UNL     1     -46.444  17.787 -16.341  1.00  0.00     0.176 HD
HETATM   34  C20 UNL     1     -47.445  20.395 -16.446  1.00  0.00     0.057 A 
BRANCH  26  35
HETATM   35  C13 UNL     1     -45.237  22.850 -13.901  1.00  0.00    -0.054 C 
BRANCH  35  36
HETATM   36  C14 UNL     1     -44.629  23.588 -13.163  1.00  0.00     0.000 C 
BRANCH  36  37
HETATM   37  C15 UNL     1     -43.923  24.480 -12.284  1.00  0.00     0.298 C 
HETATM   38  O3  UNL     1     -42.693  24.288 -12.133  1.00  0.00    -0.258 OA
HETATM   39  N3  UNL     1     -44.545  25.542 -11.602  1.00  0.00    -0.350 N 
HETATM   40  C16 UNL     1     -43.765  26.390 -10.740  1.00  0.00     0.153 C 
HETATM   41  C17 UNL     1     -45.953  25.771 -11.769  1.00  0.00     0.153 C 
ENDBRANCH  36  37
ENDBRANCH  35  36
ENDBRANCH  26  35
ENDBRANCH   1  24
TORSDOF 7
ENDMDL
MODEL 2
REMARK VINA RESULT: -9.557568073      0.881      1.056
REMARK  7 active torsions:
REMARK  status: ('A' for Active; 'I' for Inactive)
REMARK    1  A    between atoms: C5_5  and  C6_6 
REMARK    2  A    between atoms: C9_11  and  N2_12 
REMARK    3  A    between atoms: N2_12  and  S1_14 
REMARK    4  A    between atoms: S1_14  and  C10_17 
REMARK    5  A    between atoms: C12_19  and  C13_20 
REMARK    6  A    between atoms: C13_20  and  C14_21 
REMARK    7  A    between atoms: C14_21  and  C15_22 
REMARK       I    between atoms: C15_22  and  N3_24 
ROOT
HETATM    1  S1  UNL     1     -49.280  22.553 -17.435  1.00  0.00     0.263 S 
HETATM    2  O1  UNL     1     -50.481  21.702 -17.068  1.00  0.00    -0.200 OA
HETATM    3  O2  UNL     1     -49.709  23.979 -17.182  1.00  0.00    -0.200 OA
ENDROOT
BRANCH   1   4
HETATM    4  N2  UNL     1     -48.900  22.260 -19.062  1.00  0.00    -0.281 N 
ATOM      5  H2  UNL     1     -49.633  21.959 -19.705  1.00  0.00     0.179 HD
BRANCH   4   6
HETATM    6  C9  UNL     1     -47.581  22.429 -19.536  1.00  0.00     0.044 A 
HETATM    7  C8  UNL     1     -47.020  23.668 -19.735  1.00  0.00     0.062 A 
HETATM    8  C7  UNL     1     -45.708  23.824 -20.212  1.00  0.00     0.062 A 
HETATM    9  N1  UNL     1     -44.961  24.899 -20.480  1.00  0.00    -0.340 N 
HETATM   10  C23 UNL     1     -44.941  22.717 -20.496  1.00  0.00     0.060 A 
HETATM   11  C6  UNL     1     -43.754  24.524 -20.921  1.00  0.00     0.116 A 
ATOM     12  H1  UNL     1     -45.266  25.865 -20.366  1.00  0.00     0.167 HD
HETATM   13  N6  UNL     1     -43.755  23.180 -20.926  1.00  0.00    -0.340 N 
ATOM     14  H6  UNL     1     -42.970  22.597 -21.215  1.00  0.00     0.167 HD
HETATM   15  C22 UNL     1     -45.485  21.466 -20.303  1.00  0.00     0.034 A 
HETATM   16  C21 UNL     1     -46.772  21.327 -19.835  1.00  0.00     0.032 A 
BRANCH  11  17
HETATM   17  C5  UNL     1     -42.655  25.389 -21.319  1.00  0.00     0.008 A 
HETATM   18  C4  UNL     1     -42.742  26.141 -22.470  1.00  0.00     0.016 A 
HETATM   19  C3  UNL     1     -41.689  26.975 -22.858  1.00  0.00     0.007 A 
HETATM   20  C2  UNL     1     -40.542  27.061 -22.096  1.00  0.00    -0.062 A 
HETATM   21  C1  UNL     1     -39.396  27.946 -22.486  1.00  0.00     0.048 C 
HETATM   22  C25 UNL     1     -40.479  26.299 -20.950  1.00  0.00     0.007 A 
HETATM   23  C24 UNL     1     -41.520  25.471 -20.561  1.00  0.00     0.016 A 
ENDBRANCH  11  17
ENDBRANCH   4   6
ENDBRANCH   1   4
BRANCH   1  24
HETATM   24  C10 UNL     1     -47.961  22.177 -16.360  1.00  0.00     0.083 A 
HETATM   25  C11 UNL     1     -47.459  23.105 -15.469  1.00  0.00     0.048 A 
HETATM   26  C12 UNL     1     -46.418  22.763 -14.644  1.00  0.00     0.049 A 
HETATM   27  C18 UNL     1     -45.863  21.466 -14.706  1.00  0.00     0.086 A 
HETATM   28  N4  UNL     1     -44.845  21.066 -13.929  1.00  0.00    -0.309 N 
HETATM   29  C19 UNL     1     -46.341  20.539 -15.573  1.00  0.00     0.070 A 
HETATM   30  S2  UNL     1     -44.571  19.479 -14.386  1.00  0.00     0.068 SA
ATOM     31  H4  UNL     1     -44.351  21.607 -13.220  1.00  0.00     0.176 HD
HETATM   32  N5  UNL     1     -45.757  19.348 -15.560  1.00  0.00    -0.310 N 
ATOM     33  H5  UNL     1     -45.980  18.536 -16.135  1.00  0.00     0.176 HD
HETATM   34  C20 UNL     1     -47.412  20.922 -16.409  1.00  0.00     0.057 A 
BRANCH  26  35
HETATM   35  C13 UNL     1     -45.933  23.761 -13.738  1.00  0.00    -0.054 C 
BRANCH  35  36
HETATM   36  C14 UNL     1     -45.528  24.592 -12.962  1.00  0.00     0.000 C 
BRANCH  36  37
HETATM   37  C15 UNL     1     -45.038  25.565 -12.023  1.00  0.00     0.298 C 
HETATM   38  O3  UNL     1     -45.847  26.432 -11.615  1.00  0.00    -0.258 OA
HETATM   39  N3  UNL     1     -43.713  25.581 -11.550  1.00  0.00    -0.350 N 
HETATM   40  C16 UNL     1     -43.303  26.590 -10.610  1.00  0.00     0.153 C 
HETATM   41  C17 UNL     1     -42.778  24.592 -12.011  1.00  0.00     0.153 C 
ENDBRANCH  36  37
ENDBRANCH  35  36
ENDBRANCH  26  35
ENDBRANCH   1  24
TORSDOF 7
ENDMDL
MODEL 3
REMARK VINA RESULT: -9.359002433      1.836      2.970
REMARK  7 active torsions:
REMARK  status: ('A' for Active; 'I' for Inactive)
REMARK    1  A    between atoms: C5_5  and  C6_6 
REMARK    2  A    between atoms: C9_11  and  N2_12 
REMARK    3  A    between atoms: N2_12  and  S1_14 
REMARK    4  A    between atoms: S1_14  and  C10_17 
REMARK    5  A    between atoms: C12_19  and  C13_20 
REMARK    6  A    between atoms: C13_20  and  C14_21 
REMARK    7  A    between atoms: C14_21  and  C15_22 
REMARK       I    between atoms: C15_22  and  N3_24 
ROOT
HETATM    1  S1  UNL     1     -47.613  19.964 -17.044  1.00  0.00     0.263 S 
HETATM    2  O1  UNL     1     -46.509  19.237 -16.300  1.00  0.00    -0.200 OA
HETATM    3  O2  UNL     1     -48.873  19.184 -16.751  1.00  0.00    -0.200 OA
ENDROOT
BRANCH   1   4
HETATM    4  N2  UNL     1     -47.219  19.980 -18.694  1.00  0.00    -0.281 N 
ATOM      5  H2  UNL     1     -47.331  19.130 -19.248  1.00  0.00     0.179 HD
BRANCH   4   6
HETATM    6  C9  UNL     1     -46.739  21.157 -19.309  1.00  0.00     0.044 A 
HETATM    7  C8  UNL     1     -45.402  21.473 -19.357  1.00  0.00     0.062 A 
HETATM    8  C7  UNL     1     -44.936  22.650 -19.967  1.00  0.00     0.062 A 
HETATM    9  N1  UNL     1     -43.714  23.162 -20.134  1.00  0.00    -0.340 N 
HETATM   10  C23 UNL     1     -45.827  23.528 -20.541  1.00  0.00     0.060 A 
HETATM   11  C6  UNL     1     -43.789  24.327 -20.790  1.00  0.00     0.116 A 
ATOM     12  H1  UNL     1     -42.850  22.730 -19.810  1.00  0.00     0.167 HD
HETATM   13  N6  UNL     1     -45.092  24.540 -21.034  1.00  0.00    -0.340 N 
ATOM     14  H6  UNL     1     -45.470  25.352 -21.522  1.00  0.00     0.167 HD
HETATM   15  C22 UNL     1     -47.171  23.229 -20.504  1.00  0.00     0.034 A 
HETATM   16  C21 UNL     1     -47.615  22.073 -19.903  1.00  0.00     0.032 A 
BRANCH  11  17
HETATM   17  C5  UNL     1     -42.685  25.196 -21.167  1.00  0.00     0.008 A 
HETATM   18  C4  UNL     1     -42.757  25.955 -22.315  1.00  0.00     0.016 A 
HETATM   19  C3  UNL     1     -41.700  26.793 -22.684  1.00  0.00     0.007 A 
HETATM   20  C2  UNL     1     -40.564  26.876 -21.906  1.00  0.00    -0.062 A 
HETATM   21  C1  UNL     1     -39.415  27.765 -22.275  1.00  0.00     0.048 C 
HETATM   22  C25 UNL     1     -40.516  26.108 -20.763  1.00  0.00     0.007 A 
HETATM   23  C24 UNL     1     -41.561  25.276 -20.394  1.00  0.00     0.016 A 
ENDBRANCH  11  17
ENDBRANCH   4   6
ENDBRANCH   1   4
BRANCH   1  24
HETATM   24  C10 UNL     1     -47.791  21.566 -16.381  1.00  0.00     0.083 A 
HETATM   25  C11 UNL     1     -46.871  22.096 -15.498  1.00  0.00     0.048 A 
HETATM   26  C12 UNL     1     -47.054  23.361 -15.002  1.00  0.00     0.049 A 
HETATM   27  C18 UNL     1     -48.180  24.118 -15.393  1.00  0.00     0.086 A 
HETATM   28  N4  UNL     1     -48.420  25.360 -14.945  1.00  0.00    -0.309 N 
HETATM   29  C19 UNL     1     -49.096  23.617 -16.259  1.00  0.00     0.070 A 
HETATM   30  S2  UNL     1     -49.849  25.804 -15.695  1.00  0.00     0.068 SA
ATOM     31  H4  UNL     1     -47.858  25.909 -14.295  1.00  0.00     0.176 HD
HETATM   32  N5  UNL     1     -50.121  24.402 -16.568  1.00  0.00    -0.310 N 
ATOM     33  H5  UNL     1     -50.898  24.196 -17.195  1.00  0.00     0.176 HD
HETATM   34  C20 UNL     1     -48.880  22.313 -16.751  1.00  0.00     0.057 A 
BRANCH  26  35
HETATM   35  C13 UNL     1     -46.072  23.865 -14.089  1.00  0.00    -0.054 C 
BRANCH  35  36
HETATM   36  C14 UNL     1     -45.251  24.306 -13.320  1.00  0.00     0.000 C 
BRANCH  36  37
HETATM   37  C15 UNL     1     -44.278  24.851 -12.413  1.00  0.00     0.298 C 
HETATM   38  O3  UNL     1     -43.097  24.443 -12.519  1.00  0.00    -0.258 OA
HETATM   39  N3  UNL     1     -44.592  25.810 -11.431  1.00  0.00    -0.350 N 
HETATM   40  C16 UNL     1     -43.558  26.306 -10.563  1.00  0.00     0.153 C 
HETATM   41  C17 UNL     1     -45.941  26.285 -11.302  1.00  0.00     0.153 C 
ENDBRANCH  36  37
ENDBRANCH  35  36
ENDBRANCH  26  35
ENDBRANCH   1  24
TORSDOF 7
ENDMDL
MODEL 4
REMARK VINA RESULT: -9.158125981      2.211      3.400
REMARK  7 active torsions:
REMARK  status: ('A' for Active; 'I' for Inactive)
REMARK    1  A    between atoms: C5_5  and  C6_6 
REMARK    2  A    between atoms: C9_11  and  N2_12 
REMARK    3  A    between atoms: N2_12  and  S1_14 
REMARK    4  A    between atoms: S1_14  and  C10_17 
REMARK    5  A    between atoms: C12_19  and  C13_20 
REMARK    6  A    between atoms: C13_20  and  C14_21 
REMARK    7  A    between atoms: C14_21  and  C15_22 
REMARK       I    between atoms: C15_22  and  N3_24 
ROOT
HETATM    1  S1  UNL     1     -49.063  21.856 -17.109  1.00  0.00     0.263 S 
HETATM    2  O1  UNL     1     -48.118  20.781 -16.606  1.00  0.00    -0.200 OA
HETATM    3  O2  UNL     1     -50.449  21.350 -16.789  1.00  0.00    -0.200 OA
ENDROOT
BRANCH   1   4
HETATM    4  N2  UNL     1     -48.803  22.052 -18.775  1.00  0.00    -0.281 N 
ATOM      5  H2  UNL     1     -49.598  22.037 -19.415  1.00  0.00     0.179 HD
BRANCH   4   6
HETATM    6  C9  UNL     1     -47.499  22.238 -19.284  1.00  0.00     0.044 A 
HETATM    7  C8  UNL     1     -46.952  23.483 -19.480  1.00  0.00     0.062 A 
HETATM    8  C7  UNL     1     -45.656  23.656 -19.992  1.00  0.00     0.062 A 
HETATM    9  N1  UNL     1     -44.924  24.739 -20.265  1.00  0.00    -0.340 N 
HETATM   10  C23 UNL     1     -44.891  22.558 -20.316  1.00  0.00     0.060 A 
HETATM   11  C6  UNL     1     -43.728  24.379 -20.747  1.00  0.00     0.116 A 
ATOM     12  H1  UNL     1     -45.232  25.701 -20.126  1.00  0.00     0.167 HD
HETATM   13  N6  UNL     1     -43.721  23.036 -20.774  1.00  0.00    -0.340 N 
ATOM     14  H6  UNL     1     -42.941  22.463 -21.094  1.00  0.00     0.167 HD
HETATM   15  C22 UNL     1     -45.421  21.300 -20.128  1.00  0.00     0.034 A 
HETATM   16  C21 UNL     1     -46.693  21.145 -19.625  1.00  0.00     0.032 A 
BRANCH  11  17
HETATM   17  C5  UNL     1     -42.646  25.258 -21.162  1.00  0.00     0.008 A 
HETATM   18  C4  UNL     1     -41.499  25.356 -20.406  1.00  0.00     0.016 A 
HETATM   19  C3  UNL     1     -40.454  26.198 -20.799  1.00  0.00     0.007 A 
HETATM   20  C2  UNL     1     -40.553  26.949 -21.952  1.00  0.00    -0.062 A 
HETATM   21  C1  UNL     1     -39.451  27.862 -22.399  1.00  0.00     0.048 C 
HETATM   22  C25 UNL     1     -41.710  26.835 -22.691  1.00  0.00     0.007 A 
HETATM   23  C24 UNL     1     -42.748  26.001 -22.305  1.00  0.00     0.016 A 
ENDBRANCH  11  17
ENDBRANCH   4   6
ENDBRANCH   1   4
BRANCH   1  24
HETATM   24  C10 UNL     1     -48.791  23.324 -16.211  1.00  0.00     0.083 A 
HETATM   25  C11 UNL     1     -47.685  23.488 -15.400  1.00  0.00     0.048 A 
HETATM   26  C12 UNL     1     -47.514  24.661 -14.711  1.00  0.00     0.049 A 
HETATM   27  C18 UNL     1     -48.468  25.697 -14.830  1.00  0.00     0.086 A 
HETATM   28  N4  UNL     1     -48.362  26.868 -14.184  1.00  0.00    -0.309 N 
HETATM   29  C19 UNL     1     -49.561  25.557 -15.620  1.00  0.00     0.070 A 
HETATM   30  S2  UNL     1     -49.719  27.728 -14.656  1.00  0.00     0.068 SA
ATOM     31  H4  UNL     1     -47.622  27.167 -13.548  1.00  0.00     0.176 HD
HETATM   32  N5  UNL     1     -50.400  26.583 -15.669  1.00  0.00    -0.310 N 
ATOM     33  H5  UNL     1     -51.265  26.657 -16.204  1.00  0.00     0.176 HD
HETATM   34  C20 UNL     1     -49.708  24.338 -16.316  1.00  0.00     0.057 A 
BRANCH  26  35
HETATM   35  C13 UNL     1     -46.351  24.782 -13.883  1.00  0.00    -0.054 C 
BRANCH  35  36
HETATM   36  C14 UNL     1     -45.373  24.902 -13.185  1.00  0.00     0.000 C 
BRANCH  36  37
HETATM   37  C15 UNL     1     -44.222  25.053 -12.338  1.00  0.00     0.298 C 
HETATM   38  O3  UNL     1     -43.216  24.351 -12.600  1.00  0.00    -0.258 OA
HETATM   39  N3  UNL     1     -44.178  25.942 -11.248  1.00  0.00    -0.350 N 
HETATM   40  C16 UNL     1     -42.985  26.033 -10.449  1.00  0.00     0.153 C 
HETATM   41  C17 UNL     1     -45.324  26.751 -10.940  1.00  0.00     0.153 C 
ENDBRANCH  36  37
ENDBRANCH  35  36
ENDBRANCH  26  35
ENDBRANCH   1  24
TORSDOF 7
ENDMDL
MODEL 5
REMARK VINA RESULT: -9.121011717      2.012      3.234
REMARK  7 active torsions:
REMARK  status: ('A' for Active; 'I' for Inactive)
REMARK    1  A    between atoms: C5_5  and  C6_6 
REMARK    2  A    between atoms: C9_11  and  N2_12 
REMARK    3  A    between atoms: N2_12  and  S1_14 
REMARK    4  A    between atoms: S1_14  and  C10_17 
REMARK    5  A    between atoms: C12_19  and  C13_20 
REMARK    6  A    between atoms: C13_20  and  C14_21 
REMARK    7  A    between atoms: C14_21  and  C15_22 
REMARK       I    between atoms: C15_22  and  N3_24 
ROOT
HETATM    1  S1  UNL     1     -48.058  21.160 -17.523  1.00  0.00     0.263 S 
HETATM    2  O1  UNL     1     -48.495  19.955 -16.713  1.00  0.00    -0.200 OA
HETATM    3  O2  UNL     1     -49.046  21.256 -18.660  1.00  0.00    -0.200 OA
ENDROOT
BRANCH   1   4
HETATM    4  N2  UNL     1     -46.468  20.893 -18.054  1.00  0.00    -0.281 N 
ATOM      5  H2  UNL     1     -45.911  20.154 -17.626  1.00  0.00     0.179 HD
BRANCH   4   6
HETATM    6  C9  UNL     1     -45.910  21.684 -19.083  1.00  0.00     0.044 A 
HETATM    7  C8  UNL     1     -44.878  22.564 -18.861  1.00  0.00     0.062 A 
HETATM    8  C7  UNL     1     -44.333  23.349 -19.891  1.00  0.00     0.062 A 
HETATM    9  N1  UNL     1     -43.352  24.254 -19.920  1.00  0.00    -0.340 N 
HETATM   10  C23 UNL     1     -44.833  23.251 -21.170  1.00  0.00     0.060 A 
HETATM   11  C6  UNL     1     -43.205  24.735 -21.160  1.00  0.00     0.116 A 
ATOM     12  H1  UNL     1     -42.795  24.537 -19.114  1.00  0.00     0.167 HD
HETATM   13  N6  UNL     1     -44.121  24.111 -21.919  1.00  0.00    -0.340 N 
ATOM     14  H6  UNL     1     -44.257  24.267 -22.917  1.00  0.00     0.167 HD
HETATM   15  C22 UNL     1     -45.868  22.375 -21.413  1.00  0.00     0.034 A 
HETATM   16  C21 UNL     1     -46.392  21.611 -20.395  1.00  0.00     0.032 A 
BRANCH  11  17
HETATM   17  C5  UNL     1     -42.248  25.735 -21.609  1.00  0.00     0.008 A 
HETATM   18  C4  UNL     1     -41.095  25.966 -20.891  1.00  0.00     0.016 A 
HETATM   19  C3  UNL     1     -40.170  26.925 -21.316  1.00  0.00     0.007 A 
HETATM   20  C2  UNL     1     -40.395  27.660 -22.461  1.00  0.00    -0.062 A 
HETATM   21  C1  UNL     1     -39.423  28.695 -22.942  1.00  0.00     0.048 C 
HETATM   22  C25 UNL     1     -41.556  27.411 -23.162  1.00  0.00     0.007 A 
HETATM   23  C24 UNL     1     -42.475  26.461 -22.744  1.00  0.00     0.016 A 
ENDBRANCH  11  17
ENDBRANCH   4   6
ENDBRANCH   1   4
BRANCH   1  24
HETATM   24  C10 UNL     1     -48.205  22.593 -16.543  1.00  0.00     0.083 A 
HETATM   25  C11 UNL     1     -47.237  22.952 -15.625  1.00  0.00     0.048 A 
HETATM   26  C12 UNL     1     -47.397  24.088 -14.874  1.00  0.00     0.049 A 
HETATM   27  C18 UNL     1     -48.550  24.888 -15.040  1.00  0.00     0.086 A 
HETATM   28  N4  UNL     1     -48.769  26.010 -14.338  1.00  0.00    -0.309 N 
HETATM   29  C19 UNL     1     -49.512  24.555 -15.935  1.00  0.00     0.070 A 
HETATM   30  S2  UNL     1     -50.244  26.571 -14.901  1.00  0.00     0.068 SA
ATOM     31  H4  UNL     1     -48.173  26.428 -13.624  1.00  0.00     0.176 HD
HETATM   32  N5  UNL     1     -50.558  25.367 -16.021  1.00  0.00    -0.310 N 
ATOM     33  H5  UNL     1     -51.370  25.278 -16.631  1.00  0.00     0.176 HD
HETATM   34  C20 UNL     1     -49.318  23.380 -16.691  1.00  0.00     0.057 A 
BRANCH  26  35
HETATM   35  C13 UNL     1     -46.366  24.416 -13.936  1.00  0.00    -0.054 C 
BRANCH  35  36
HETATM   36  C14 UNL     1     -45.491  24.705 -13.156  1.00  0.00     0.000 C 
BRANCH  36  37
HETATM   37  C15 UNL     1     -44.444  25.069 -12.240  1.00  0.00     0.298 C 
HETATM   38  O3  UNL     1     -43.348  24.471 -12.349  1.00  0.00    -0.258 OA
HETATM   39  N3  UNL     1     -44.598  26.052 -11.245  1.00  0.00    -0.350 N 
HETATM   40  C16 UNL     1     -43.499  26.357 -10.367  1.00  0.00     0.153 C 
HETATM   41  C17 UNL     1     -45.849  26.744 -11.111  1.00  0.00     0.153 C 
ENDBRANCH  36  37
ENDBRANCH  35  36
ENDBRANCH  26  35
ENDBRANCH   1  24
TORSDOF 7
ENDMDL
