MODEL 1
REMARK VINA RESULT: -9.375429930      0.000      0.000
REMARK  9 active torsions:
REMARK  status: ('A' for Active; 'I' for Inactive)
REMARK    1  A    between atoms: N1_2  and  C3_4 
REMARK    2  A    between atoms: C3_4  and  O1_5 
REMARK    3  A    between atoms: C3_4  and  C4_7 
REMARK    4  A    between atoms: C4_7  and  C5_8 
REMARK    5  A    between atoms: C5_8  and  C6_9 
REMARK    6  A    between atoms: C9_12  and  O2_13 
REMARK    7  A    between atoms: C10_15  and  C11_16 
REMARK    8  A    between atoms: C15_25  and  N3_26 
REMARK    9  A    between atoms: N3_26  and  C16_28 
ROOT
HETATM    1  C11 UNL     1     -47.161  23.447 -15.625  1.00  0.00     0.097 C 
HETATM    2  N2  UNL     1     -47.999  22.499 -15.889  1.00  0.00    -0.273 N 
ATOM      3  H2  UNL     1     -48.960  22.576 -15.556  1.00  0.00     0.179 HD
HETATM    4  S1  UNL     1     -47.527  21.108 -16.790  1.00  0.00     0.265 S 
HETATM    5  O3  UNL     1     -46.751  20.220 -15.853  1.00  0.00    -0.200 OA
HETATM    6  O4  UNL     1     -48.701  20.324 -17.270  1.00  0.00    -0.200 OA
HETATM    7  C12 UNL     1     -46.479  21.600 -18.072  1.00  0.00     0.097 A 
HETATM    8  C13 UNL     1     -46.536  21.033 -19.349  1.00  0.00     0.029 A 
HETATM    9  C14 UNL     1     -45.667  21.469 -20.326  1.00  0.00     0.031 A 
HETATM   10  C15 UNL     1     -44.731  22.455 -20.098  1.00  0.00     0.035 A 
HETATM   11  C22 UNL     1     -44.673  23.016 -18.839  1.00  0.00     0.050 A 
HETATM   12  C23 UNL     1     -45.543  22.585 -17.846  1.00  0.00     0.032 A 
HETATM   13  S2  UNL     1     -45.451  23.340 -16.205  1.00  0.00    -0.070 SA
ENDROOT
BRANCH   1  14
HETATM   14  C10 UNL     1     -47.595  24.606 -14.862  1.00  0.00     0.032 A 
HETATM   15  C9  UNL     1     -48.795  25.223 -15.130  1.00  0.00     0.078 A 
HETATM   16  C8  UNL     1     -49.238  26.319 -14.430  1.00  0.00     0.038 A 
HETATM   17  C7  UNL     1     -48.425  26.793 -13.428  1.00  0.00     0.014 A 
HETATM   18  C6  UNL     1     -47.205  26.202 -13.120  1.00  0.00    -0.035 A 
HETATM   19  C24 UNL     1     -46.795  25.112 -13.838  1.00  0.00     0.028 A 
BRANCH  15  20
HETATM   20  O2  UNL     1     -49.599  24.720 -16.153  1.00  0.00    -0.360 OA
ATOM     21  H2  UNL     1     -49.330  24.865 -17.052  1.00  0.00     0.217 HD
ENDBRANCH  15  20
BRANCH  18  22
HETATM   22  C5  UNL     1     -46.429  26.805 -12.026  1.00  0.00     0.015 C 
BRANCH  22  23
HETATM   23  C4  UNL     1     -45.679  26.122 -11.217  1.00  0.00     0.056 C 
BRANCH  23  24
HETATM   24  C3  UNL     1     -44.269  26.101 -11.005  1.00  0.00     0.137 C 
BRANCH  24  25
HETATM   25  N1  UNL     1     -43.275  25.361 -11.631  1.00  0.00    -0.371 N 
HETATM   26  C1  UNL     1     -41.980  25.098 -10.916  1.00  0.00     0.151 C 
HETATM   27  C2  UNL     1     -43.397  24.808 -12.961  1.00  0.00     0.151 C 
ENDBRANCH  24  25
BRANCH  24  28
HETATM   28  O1  UNL     1     -43.783  26.904 -10.068  1.00  0.00    -0.346 OA
ATOM     29  H1  UNL     1     -44.345  27.653  -9.910  1.00  0.00     0.219 HD
ENDBRANCH  24  28
ENDBRANCH  23  24
ENDBRANCH  22  23
ENDBRANCH  18  22
ENDBRANCH   1  14
BRANCH  10  30
HETATM   30  N3  UNL     1     -43.831  22.913 -21.092  1.00  0.00    -0.339 N 
ATOM     31  H3  UNL     1     -43.389  22.232 -21.709  1.00  0.00     0.167 HD
BRANCH  30  32
HETATM   32  C16 UNL     1     -43.551  24.174 -21.243  1.00  0.00     0.151 A 
HETATM   33  N4  UNL     1     -44.425  24.980 -21.870  1.00  0.00    -0.348 N 
HETATM   34  C17 UNL     1     -44.123  26.284 -22.021  1.00  0.00     0.107 A 
ATOM     35  H4  UNL     1     -45.305  24.609 -22.227  1.00  0.00     0.167 HD
HETATM   36  C18 UNL     1     -42.920  26.759 -21.525  1.00  0.00     0.115 A 
HETATM   37  N5  UNL     1     -42.041  25.970 -20.898  1.00  0.00    -0.313 N 
HETATM   38  C19 UNL     1     -40.845  26.232 -20.357  1.00  0.00     0.115 A 
HETATM   39  C21 UNL     1     -42.354  24.664 -20.753  1.00  0.00     0.156 A 
HETATM   40  C20 UNL     1     -40.375  25.050 -19.846  1.00  0.00     0.107 A 
HETATM   41  N6  UNL     1     -41.311  24.118 -20.101  1.00  0.00    -0.347 N 
ATOM     42  H6  UNL     1     -41.239  23.135 -19.838  1.00  0.00     0.167 HD
ENDBRANCH  30  32
ENDBRANCH  10  30
TORSDOF 9
ENDMDL
MODEL 2
REMARK VINA RESULT: -9.326162134      0.368      1.488
REMARK  9 active torsions:
REMARK  status: ('A' for Active; 'I' for Inactive)
REMARK    1  A    between atoms: N1_2  and  C3_4 
REMARK    2  A    between atoms: C3_4  and  O1_5 
REMARK    3  A    between atoms: C3_4  and  C4_7 
REMARK    4  A    between atoms: C4_7  and  C5_8 
REMARK    5  A    between atoms: C5_8  and  C6_9 
REMARK    6  A    between atoms: C9_12  and  O2_13 
REMARK    7  A    between atoms: C10_15  and  C11_16 
REMARK    8  A    between atoms: C15_25  and  N3_26 
REMARK    9  A    between atoms: N3_26  and  C16_28 
ROOT
HETATM    1  C11 UNL     1     -47.091  23.462 -15.614  1.00  0.00     0.097 C 
HETATM    2  N2  UNL     1     -47.928  22.513 -15.877  1.00  0.00    -0.273 N 
ATOM      3  H2  UNL     1     -48.891  22.592 -15.549  1.00  0.00     0.179 HD
HETATM    4  S1  UNL     1     -47.452  21.118 -16.769  1.00  0.00     0.265 S 
HETATM    5  O3  UNL     1     -46.680  20.235 -15.824  1.00  0.00    -0.200 OA
HETATM    6  O4  UNL     1     -48.624  20.331 -17.250  1.00  0.00    -0.200 OA
HETATM    7  C12 UNL     1     -46.399  21.603 -18.049  1.00  0.00     0.097 A 
HETATM    8  C13 UNL     1     -46.450  21.029 -19.324  1.00  0.00     0.029 A 
HETATM    9  C14 UNL     1     -45.577  21.460 -20.299  1.00  0.00     0.031 A 
HETATM   10  C15 UNL     1     -44.642  22.447 -20.071  1.00  0.00     0.035 A 
HETATM   11  C22 UNL     1     -44.590  23.014 -18.815  1.00  0.00     0.050 A 
HETATM   12  C23 UNL     1     -45.463  22.589 -17.824  1.00  0.00     0.032 A 
HETATM   13  S2  UNL     1     -45.379  23.352 -16.187  1.00  0.00    -0.070 SA
ENDROOT
BRANCH   1  14
HETATM   14  C10 UNL     1     -47.529  24.625 -14.859  1.00  0.00     0.032 A 
HETATM   15  C9  UNL     1     -48.710  25.263 -15.160  1.00  0.00     0.078 A 
HETATM   16  C8  UNL     1     -49.155  26.363 -14.469  1.00  0.00     0.038 A 
HETATM   17  C7  UNL     1     -48.365  26.820 -13.441  1.00  0.00     0.014 A 
HETATM   18  C6  UNL     1     -47.165  26.208 -13.100  1.00  0.00    -0.035 A 
HETATM   19  C24 UNL     1     -46.752  25.114 -13.810  1.00  0.00     0.028 A 
BRANCH  15  20
HETATM   20  O2  UNL     1     -49.492  24.778 -16.209  1.00  0.00    -0.360 OA
ATOM     21  H2  UNL     1     -49.110  24.743 -17.078  1.00  0.00     0.217 HD
ENDBRANCH  15  20
BRANCH  18  22
HETATM   22  C5  UNL     1     -46.412  26.793 -11.980  1.00  0.00     0.015 C 
BRANCH  22  23
HETATM   23  C4  UNL     1     -45.647  26.103 -11.191  1.00  0.00     0.056 C 
BRANCH  23  24
HETATM   24  C3  UNL     1     -44.234  26.085 -11.000  1.00  0.00     0.137 C 
BRANCH  24  25
HETATM   25  N1  UNL     1     -43.248  25.341 -11.635  1.00  0.00    -0.371 N 
HETATM   26  C1  UNL     1     -41.946  25.078 -10.933  1.00  0.00     0.151 C 
HETATM   27  C2  UNL     1     -43.387  24.784 -12.961  1.00  0.00     0.151 C 
ENDBRANCH  24  25
BRANCH  24  28
HETATM   28  O1  UNL     1     -43.735  26.897 -10.078  1.00  0.00    -0.346 OA
ATOM     29  H1  UNL     1     -44.369  27.540  -9.783  1.00  0.00     0.219 HD
ENDBRANCH  24  28
ENDBRANCH  23  24
ENDBRANCH  22  23
ENDBRANCH  18  22
ENDBRANCH   1  14
BRANCH  10  30
HETATM   30  N3  UNL     1     -43.738  22.901 -21.064  1.00  0.00    -0.339 N 
ATOM     31  H3  UNL     1     -43.752  22.458 -21.983  1.00  0.00     0.167 HD
BRANCH  30  32
HETATM   32  C16 UNL     1     -42.891  23.862 -20.842  1.00  0.00     0.151 A 
HETATM   33  N4  UNL     1     -41.694  23.583 -20.297  1.00  0.00    -0.348 N 
HETATM   34  C17 UNL     1     -40.826  24.587 -20.071  1.00  0.00     0.107 A 
ATOM     35  H4  UNL     1     -41.448  22.622 -20.057  1.00  0.00     0.167 HD
HETATM   36  C18 UNL     1     -41.189  25.881 -20.407  1.00  0.00     0.115 A 
HETATM   37  N5  UNL     1     -42.375  26.174 -20.951  1.00  0.00    -0.313 N 
HETATM   38  C19 UNL     1     -42.907  27.340 -21.340  1.00  0.00     0.115 A 
HETATM   39  C21 UNL     1     -43.239  25.160 -21.172  1.00  0.00     0.156 A 
HETATM   40  C20 UNL     1     -44.157  27.060 -21.828  1.00  0.00     0.107 A 
HETATM   41  N6  UNL     1     -44.330  25.731 -21.714  1.00  0.00    -0.347 N 
ATOM     42  H6  UNL     1     -45.171  25.228 -21.997  1.00  0.00     0.167 HD
ENDBRANCH  30  32
ENDBRANCH  10  30
TORSDOF 9
ENDMDL
MODEL 3
REMARK VINA RESULT: -9.159278436      3.854      5.411
REMARK  9 active torsions:
REMARK  status: ('A' for Active; 'I' for Inactive)
REMARK    1  A    between atoms: N1_2  and  C3_4 
REMARK    2  A    between atoms: C3_4  and  O1_5 
REMARK    3  A    between atoms: C3_4  and  C4_7 
REMARK    4  A    between atoms: C4_7  and  C5_8 
REMARK    5  A    between atoms: C5_8  and  C6_9 
REMARK    6  A    between atoms: C9_12  and  O2_13 
REMARK    7  A    between atoms: C10_15  and  C11_16 
REMARK    8  A    between atoms: C15_25  and  N3_26 
REMARK    9  A    between atoms: N3_26  and  C16_28 
ROOT
HETATM    1  C11 UNL     1     -44.277  23.696 -16.846  1.00  0.00     0.097 C 
HETATM    2  N2  UNL     1     -43.295  23.198 -17.525  1.00  0.00    -0.273 N 
ATOM      3  H2  UNL     1     -42.595  22.632 -17.046  1.00  0.00     0.179 HD
HETATM    4  S1  UNL     1     -43.145  23.471 -19.219  1.00  0.00     0.265 S 
HETATM    5  O3  UNL     1     -42.614  24.870 -19.394  1.00  0.00    -0.200 OA
HETATM    6  O4  UNL     1     -42.166  22.544 -19.854  1.00  0.00    -0.200 OA
HETATM    7  C12 UNL     1     -44.713  23.387 -19.941  1.00  0.00     0.097 A 
HETATM    8  C13 UNL     1     -44.937  22.790 -21.186  1.00  0.00     0.029 A 
HETATM    9  C14 UNL     1     -46.212  22.761 -21.707  1.00  0.00     0.031 A 
HETATM   10  C15 UNL     1     -47.294  23.301 -21.045  1.00  0.00     0.035 A 
HETATM   11  C22 UNL     1     -47.076  23.891 -19.818  1.00  0.00     0.050 A 
HETATM   12  C23 UNL     1     -45.796  23.927 -19.282  1.00  0.00     0.032 A 
HETATM   13  S2  UNL     1     -45.536  24.700 -17.669  1.00  0.00    -0.070 SA
ENDROOT
BRANCH   1  14
HETATM   14  C10 UNL     1     -44.371  23.445 -15.417  1.00  0.00     0.032 A 
HETATM   15  C9  UNL     1     -44.907  22.272 -14.937  1.00  0.00     0.078 A 
HETATM   16  C8  UNL     1     -45.011  21.999 -13.595  1.00  0.00     0.038 A 
HETATM   17  C7  UNL     1     -44.552  22.958 -12.723  1.00  0.00     0.014 A 
HETATM   18  C6  UNL     1     -44.002  24.157 -13.161  1.00  0.00    -0.035 A 
HETATM   19  C24 UNL     1     -43.914  24.395 -14.505  1.00  0.00     0.028 A 
BRANCH  15  20
HETATM   20  O2  UNL     1     -45.364  21.317 -15.845  1.00  0.00    -0.360 OA
ATOM     21  H2  UNL     1     -44.807  21.088 -16.579  1.00  0.00     0.217 HD
ENDBRANCH  15  20
BRANCH  18  22
HETATM   22  C5  UNL     1     -43.548  25.099 -12.128  1.00  0.00     0.015 C 
BRANCH  22  23
HETATM   23  C4  UNL     1     -44.347  25.880 -11.467  1.00  0.00     0.056 C 
BRANCH  23  24
HETATM   24  C3  UNL     1     -45.746  26.129 -11.569  1.00  0.00     0.137 C 
BRANCH  24  25
HETATM   25  N1  UNL     1     -46.465  26.870 -12.499  1.00  0.00    -0.371 N 
HETATM   26  C1  UNL     1     -46.862  28.283 -12.179  1.00  0.00     0.151 C 
HETATM   27  C2  UNL     1     -46.871  26.366 -13.791  1.00  0.00     0.151 C 
ENDBRANCH  24  25
BRANCH  24  28
HETATM   28  O1  UNL     1     -46.530  25.582 -10.649  1.00  0.00    -0.346 OA
ATOM     29  H1  UNL     1     -46.623  26.135  -9.882  1.00  0.00     0.219 HD
ENDBRANCH  24  28
ENDBRANCH  23  24
ENDBRANCH  22  23
ENDBRANCH  18  22
ENDBRANCH   1  14
BRANCH  10  30
HETATM   30  N3  UNL     1     -48.611  23.279 -21.568  1.00  0.00    -0.339 N 
ATOM     31  H3  UNL     1     -49.276  22.599 -21.200  1.00  0.00     0.167 HD
BRANCH  30  32
HETATM   32  C16 UNL     1     -48.999  24.096 -22.502  1.00  0.00     0.151 A 
HETATM   33  N4  UNL     1     -49.412  25.333 -22.175  1.00  0.00    -0.348 N 
HETATM   34  C17 UNL     1     -49.812  26.171 -23.151  1.00  0.00     0.107 A 
ATOM     35  H4  UNL     1     -49.423  25.633 -21.200  1.00  0.00     0.167 HD
HETATM   36  C18 UNL     1     -49.786  25.735 -24.466  1.00  0.00     0.115 A 
HETATM   37  N5  UNL     1     -49.376  24.509 -24.806  1.00  0.00    -0.313 N 
HETATM   38  C19 UNL     1     -49.278  23.907 -25.999  1.00  0.00     0.115 A 
HETATM   39  C21 UNL     1     -48.978  23.676 -23.820  1.00  0.00     0.156 A 
HETATM   40  C20 UNL     1     -48.800  22.644 -25.766  1.00  0.00     0.107 A 
HETATM   41  N6  UNL     1     -48.628  22.533 -24.437  1.00  0.00    -0.347 N 
ATOM     42  H6  UNL     1     -48.280  21.699 -23.963  1.00  0.00     0.167 HD
ENDBRANCH  30  32
ENDBRANCH  10  30
TORSDOF 9
ENDMDL
MODEL 4
REMARK VINA RESULT: -9.145532942      3.190      8.060
REMARK  9 active torsions:
REMARK  status: ('A' for Active; 'I' for Inactive)
REMARK    1  A    between atoms: N1_2  and  C3_4 
REMARK    2  A    between atoms: C3_4  and  O1_5 
REMARK    3  A    between atoms: C3_4  and  C4_7 
REMARK    4  A    between atoms: C4_7  and  C5_8 
REMARK    5  A    between atoms: C5_8  and  C6_9 
REMARK    6  A    between atoms: C9_12  and  O2_13 
REMARK    7  A    between atoms: C10_15  and  C11_16 
REMARK    8  A    between atoms: C15_25  and  N3_26 
REMARK    9  A    between atoms: N3_26  and  C16_28 
ROOT
HETATM    1  C11 UNL     1     -45.623  23.142 -19.651  1.00  0.00     0.097 C 
HETATM    2  N2  UNL     1     -44.630  23.877 -20.033  1.00  0.00    -0.273 N 
ATOM      3  H2  UNL     1     -44.736  24.471 -20.855  1.00  0.00     0.179 HD
HETATM    4  S1  UNL     1     -43.132  23.875 -19.182  1.00  0.00     0.265 S 
HETATM    5  O3  UNL     1     -42.406  22.614 -19.573  1.00  0.00    -0.200 OA
HETATM    6  O4  UNL     1     -42.263  25.022 -19.569  1.00  0.00    -0.200 OA
HETATM    7  C12 UNL     1     -43.451  23.817 -17.485  1.00  0.00     0.097 A 
HETATM    8  C13 UNL     1     -42.701  24.544 -16.554  1.00  0.00     0.029 A 
HETATM    9  C14 UNL     1     -43.006  24.450 -15.214  1.00  0.00     0.031 A 
HETATM   10  C15 UNL     1     -44.033  23.661 -14.742  1.00  0.00     0.035 A 
HETATM   11  C22 UNL     1     -44.773  22.943 -15.658  1.00  0.00     0.050 A 
HETATM   12  C23 UNL     1     -44.476  23.029 -17.011  1.00  0.00     0.032 A 
HETATM   13  S2  UNL     1     -45.465  22.083 -18.193  1.00  0.00    -0.070 SA
ENDROOT
BRANCH   1  14
HETATM   14  C10 UNL     1     -46.873  23.170 -20.393  1.00  0.00     0.032 A 
HETATM   15  C9  UNL     1     -46.886  23.045 -21.763  1.00  0.00     0.078 A 
HETATM   16  C8  UNL     1     -48.047  23.065 -22.498  1.00  0.00     0.038 A 
HETATM   17  C7  UNL     1     -49.224  23.220 -21.806  1.00  0.00     0.014 A 
HETATM   18  C6  UNL     1     -49.260  23.350 -20.423  1.00  0.00    -0.035 A 
HETATM   19  C24 UNL     1     -48.085  23.325 -19.723  1.00  0.00     0.028 A 
BRANCH  15  20
HETATM   20  O2  UNL     1     -45.676  22.889 -22.440  1.00  0.00    -0.360 OA
ATOM     21  H2  UNL     1     -45.388  22.010 -22.654  1.00  0.00     0.217 HD
ENDBRANCH  15  20
BRANCH  18  22
HETATM   22  C5  UNL     1     -50.583  23.509 -19.801  1.00  0.00     0.015 C 
BRANCH  22  23
HETATM   23  C4  UNL     1     -51.015  22.766 -18.829  1.00  0.00     0.056 C 
BRANCH  23  24
HETATM   24  C3  UNL     1     -50.721  22.747 -17.434  1.00  0.00     0.137 C 
BRANCH  24  25
HETATM   25  N1  UNL     1     -50.168  23.723 -16.616  1.00  0.00    -0.371 N 
HETATM   26  C1  UNL     1     -48.752  23.579 -16.136  1.00  0.00     0.151 C 
HETATM   27  C2  UNL     1     -50.876  24.904 -16.178  1.00  0.00     0.151 C 
ENDBRANCH  24  25
BRANCH  24  28
HETATM   28  O1  UNL     1     -51.008  21.637 -16.768  1.00  0.00    -0.346 OA
ATOM     29  H1  UNL     1     -50.816  20.855 -17.272  1.00  0.00     0.219 HD
ENDBRANCH  24  28
ENDBRANCH  23  24
ENDBRANCH  22  23
ENDBRANCH  18  22
ENDBRANCH   1  14
BRANCH  10  30
HETATM   30  N3  UNL     1     -44.358  23.554 -13.367  1.00  0.00    -0.339 N 
ATOM     31  H3  UNL     1     -44.975  22.800 -13.063  1.00  0.00     0.167 HD
BRANCH  30  32
HETATM   32  C16 UNL     1     -43.897  24.385 -12.480  1.00  0.00     0.151 A 
HETATM   33  N4  UNL     1     -42.611  24.304 -12.096  1.00  0.00    -0.348 N 
HETATM   34  C17 UNL     1     -42.144  25.170 -11.177  1.00  0.00     0.107 A 
ATOM     35  H4  UNL     1     -41.997  23.594 -12.497  1.00  0.00     0.167 HD
HETATM   36  C18 UNL     1     -43.002  26.123 -10.652  1.00  0.00     0.115 A 
HETATM   37  N5  UNL     1     -44.283  26.216 -11.024  1.00  0.00    -0.313 N 
HETATM   38  C19 UNL     1     -45.257  27.052 -10.642  1.00  0.00     0.115 A 
HETATM   39  C21 UNL     1     -44.741  25.343 -11.946  1.00  0.00     0.156 A 
HETATM   40  C20 UNL     1     -46.379  26.699 -11.345  1.00  0.00     0.107 A 
HETATM   41  N6  UNL     1     -46.036  25.660 -12.128  1.00  0.00    -0.347 N 
ATOM     42  H6  UNL     1     -46.668  25.180 -12.768  1.00  0.00     0.167 HD
ENDBRANCH  30  32
ENDBRANCH  10  30
TORSDOF 9
ENDMDL
MODEL 5
REMARK VINA RESULT: -9.143515986      4.270      9.853
REMARK  9 active torsions:
REMARK  status: ('A' for Active; 'I' for Inactive)
REMARK    1  A    between atoms: N1_2  and  C3_4 
REMARK    2  A    between atoms: C3_4  and  O1_5 
REMARK    3  A    between atoms: C3_4  and  C4_7 
REMARK    4  A    between atoms: C4_7  and  C5_8 
REMARK    5  A    between atoms: C5_8  and  C6_9 
REMARK    6  A    between atoms: C9_12  and  O2_13 
REMARK    7  A    between atoms: C10_15  and  C11_16 
REMARK    8  A    between atoms: C15_25  and  N3_26 
REMARK    9  A    between atoms: N3_26  and  C16_28 
ROOT
HETATM    1  C11 UNL     1     -44.481  24.733 -20.045  1.00  0.00     0.097 C 
HETATM    2  N2  UNL     1     -43.458  25.513 -20.172  1.00  0.00    -0.273 N 
ATOM      3  H2  UNL     1     -43.478  26.250 -20.877  1.00  0.00     0.179 HD
HETATM    4  S1  UNL     1     -42.063  25.333 -19.178  1.00  0.00     0.265 S 
HETATM    5  O3  UNL     1     -41.289  24.157 -19.715  1.00  0.00    -0.200 OA
HETATM    6  O4  UNL     1     -41.165  26.521 -19.247  1.00  0.00    -0.200 OA
HETATM    7  C12 UNL     1     -42.566  24.966 -17.567  1.00  0.00     0.097 A 
HETATM    8  C13 UNL     1     -41.930  25.497 -16.440  1.00  0.00     0.029 A 
HETATM    9  C14 UNL     1     -42.380  25.160 -15.182  1.00  0.00     0.031 A 
HETATM   10  C15 UNL     1     -43.447  24.310 -14.981  1.00  0.00     0.035 A 
HETATM   11  C22 UNL     1     -44.076  23.785 -16.090  1.00  0.00     0.050 A 
HETATM   12  C23 UNL     1     -43.632  24.116 -17.363  1.00  0.00     0.032 A 
HETATM   13  S2  UNL     1     -44.477  23.420 -18.802  1.00  0.00    -0.070 SA
ENDROOT
BRANCH   1  14
HETATM   14  C10 UNL     1     -45.642  24.915 -20.902  1.00  0.00     0.032 A 
HETATM   15  C9  UNL     1     -46.198  26.159 -21.088  1.00  0.00     0.078 A 
HETATM   16  C8  UNL     1     -47.293  26.369 -21.890  1.00  0.00     0.038 A 
HETATM   17  C7  UNL     1     -47.830  25.271 -22.518  1.00  0.00     0.014 A 
HETATM   18  C6  UNL     1     -47.302  23.995 -22.361  1.00  0.00    -0.035 A 
HETATM   19  C24 UNL     1     -46.211  23.822 -21.555  1.00  0.00     0.028 A 
BRANCH  15  20
HETATM   20  O2  UNL     1     -45.632  27.256 -20.438  1.00  0.00    -0.360 OA
ATOM     21  H2  UNL     1     -44.836  27.630 -20.794  1.00  0.00     0.217 HD
ENDBRANCH  15  20
BRANCH  18  22
HETATM   22  C5  UNL     1     -47.968  22.903 -23.088  1.00  0.00     0.015 C 
BRANCH  22  23
HETATM   23  C4  UNL     1     -48.933  23.088 -23.936  1.00  0.00     0.056 C 
BRANCH  23  24
HETATM   24  C3  UNL     1     -48.948  23.232 -25.354  1.00  0.00     0.137 C 
BRANCH  24  25
HETATM   25  N1  UNL     1     -49.353  24.297 -26.147  1.00  0.00    -0.371 N 
HETATM   26  C1  UNL     1     -50.219  25.376 -25.561  1.00  0.00     0.151 C 
HETATM   27  C2  UNL     1     -48.992  24.448 -27.538  1.00  0.00     0.151 C 
ENDBRANCH  24  25
BRANCH  24  28
HETATM   28  O1  UNL     1     -48.513  22.207 -26.073  1.00  0.00    -0.346 OA
ATOM     29  H1  UNL     1     -47.593  22.023 -25.917  1.00  0.00     0.219 HD
ENDBRANCH  24  28
ENDBRANCH  23  24
ENDBRANCH  22  23
ENDBRANCH  18  22
ENDBRANCH   1  14
BRANCH  10  30
HETATM   30  N3  UNL     1     -43.921  23.954 -13.694  1.00  0.00    -0.339 N 
ATOM     31  H3  UNL     1     -44.516  23.131 -13.598  1.00  0.00     0.167 HD
BRANCH  30  32
HETATM   32  C16 UNL     1     -43.623  24.642 -12.632  1.00  0.00     0.151 A 
HETATM   33  N4  UNL     1     -42.398  24.531 -12.089  1.00  0.00    -0.348 N 
HETATM   34  C17 UNL     1     -42.100  25.249 -10.989  1.00  0.00     0.107 A 
ATOM     35  H4  UNL     1     -41.703  23.911 -12.505  1.00  0.00     0.167 HD
HETATM   36  C18 UNL     1     -43.065  26.082 -10.446  1.00  0.00     0.115 A 
HETATM   37  N5  UNL     1     -44.287  26.203 -10.976  1.00  0.00    -0.313 N 
HETATM   38  C19 UNL     1     -45.342  26.942 -10.608  1.00  0.00     0.115 A 
HETATM   39  C21 UNL     1     -44.575  25.479 -12.079  1.00  0.00     0.156 A 
HETATM   40  C20 UNL     1     -46.341  26.680 -11.509  1.00  0.00     0.107 A 
HETATM   41  N6  UNL     1     -45.847  25.790 -12.389  1.00  0.00    -0.347 N 
ATOM     42  H6  UNL     1     -46.364  25.404 -13.179  1.00  0.00     0.167 HD
ENDBRANCH  30  32
ENDBRANCH  10  30
TORSDOF 9
ENDMDL
