MODEL 1
REMARK VINA RESULT: -8.184049479      0.000      0.000
REMARK  7 active torsions:
REMARK  status: ('A' for Active; 'I' for Inactive)
REMARK    1  A    between atoms: C1_2  and  C2_4 
REMARK    2  A    between atoms: C5_7  and  C6_8 
REMARK    3  A    between atoms: C7_9  and  C8_10 
REMARK    4  A    between atoms: N2_16  and  C12_17 
REMARK    5  A    between atoms: C15_20  and  C16_21 
REMARK       I    between atoms: C16_21  and  N3_23 
REMARK    6  A    between atoms: N3_23  and  N4_25 
REMARK    7  A    between atoms: C17_27  and  C18_28 
ROOT
HETATM    1  C8  UNL     1     -48.718  23.772 -16.527  1.00  0.00     0.089 A 
HETATM    2  C9  UNL     1     -50.058  23.883 -16.213  1.00  0.00     0.071 A 
HETATM    3  C10 UNL     1     -51.052  23.570 -17.127  1.00  0.00     0.064 A 
HETATM    4  N1  UNL     1     -52.392  23.596 -17.062  1.00  0.00    -0.350 N 
ATOM      5  H1  UNL     1     -52.956  23.874 -16.259  1.00  0.00     0.166 HD
HETATM    6  C11 UNL     1     -52.854  23.184 -18.262  1.00  0.00     0.189 A 
HETATM    7  N2  UNL     1     -51.827  22.902 -19.075  1.00  0.00    -0.304 N 
HETATM    8  C27 UNL     1     -50.690  23.134 -18.395  1.00  0.00     0.082 A 
HETATM    9  C28 UNL     1     -49.348  23.034 -18.678  1.00  0.00     0.121 A 
HETATM   10  N5  UNL     1     -48.398  23.348 -17.760  1.00  0.00    -0.357 N 
ATOM     11  H5  UNL     1     -47.414  23.258 -18.014  1.00  0.00     0.166 HD
ENDROOT
BRANCH   7  12
HETATM   12  C12 UNL     1     -51.956  22.444 -20.409  1.00  0.00     0.040 A 
HETATM   13  C13 UNL     1     -51.129  22.889 -21.428  1.00  0.00     0.031 A 
HETATM   14  C14 UNL     1     -51.276  22.427 -22.718  1.00  0.00     0.019 A 
HETATM   15  C15 UNL     1     -52.235  21.510 -23.077  1.00  0.00     0.033 A 
HETATM   16  C25 UNL     1     -53.068  21.064 -22.044  1.00  0.00     0.019 A 
HETATM   17  C26 UNL     1     -52.925  21.522 -20.755  1.00  0.00     0.031 A 
BRANCH  15  18
HETATM   18  C16 UNL     1     -52.430  20.994 -24.422  1.00  0.00     0.270 C 
HETATM   19  O3  UNL     1     -53.219  21.580 -25.205  1.00  0.00    -0.266 OA
HETATM   20  N3  UNL     1     -51.776  19.835 -24.943  1.00  0.00    -0.266 N 
ATOM     21  H3  UNL     1     -51.131  19.344 -24.325  1.00  0.00     0.190 HD
BRANCH  20  22
HETATM   22  N4  UNL     1     -51.944  19.340 -26.185  1.00  0.00    -0.308 N 
HETATM   23  C17 UNL     1     -52.717  18.469 -26.632  1.00  0.00     0.118 C 
ATOM     24  H4  UNL     1     -51.327  19.751 -26.886  1.00  0.00     0.186 HD
BRANCH  23  25
HETATM   25  C18 UNL     1     -53.725  17.663 -25.996  1.00  0.00    -0.017 A 
HETATM   26  C19 UNL     1     -54.492  16.778 -26.765  1.00  0.00     0.016 A 
HETATM   27  C20 UNL     1     -55.465  15.987 -26.208  1.00  0.00     0.040 A 
HETATM   28  C21 UNL     1     -55.748  16.012 -24.866  1.00  0.00     0.105 A 
HETATM   29  C22 UNL     1     -55.013  16.869 -24.078  1.00  0.00     0.105 A 
HETATM   30  O5  UNL     1     -56.648  15.345 -24.046  1.00  0.00    -0.323 OA
HETATM   31  C23 UNL     1     -54.027  17.669 -24.653  1.00  0.00     0.052 A 
HETATM   32  O4  UNL     1     -55.477  16.715 -22.775  1.00  0.00    -0.323 OA
HETATM   33  C24 UNL     1     -56.216  15.515 -22.692  1.00  0.00     0.352 C 
ENDBRANCH  23  25
ENDBRANCH  20  22
ENDBRANCH  15  18
ENDBRANCH   7  12
BRANCH   1  34
HETATM   34  C7  UNL     1     -47.697  24.099 -15.572  1.00  0.00    -0.043 C 
HETATM   35  C6  UNL     1     -46.840  24.354 -14.760  1.00  0.00    -0.060 C 
BRANCH  35  36
HETATM   36  C5  UNL     1     -45.832  24.649 -13.772  1.00  0.00     0.018 A 
HETATM   37  C4  UNL     1     -46.120  25.469 -12.698  1.00  0.00     0.022 A 
HETATM   38  C3  UNL     1     -45.147  25.743 -11.760  1.00  0.00     0.020 A 
HETATM   39  C2  UNL     1     -43.859  25.224 -11.839  1.00  0.00     0.040 A 
HETATM   40  C30 UNL     1     -43.578  24.407 -12.912  1.00  0.00     0.020 A 
HETATM   41  C29 UNL     1     -44.548  24.134 -13.847  1.00  0.00     0.022 A 
BRANCH  39  42
HETATM   42  C1  UNL     1     -42.868  25.543 -10.823  1.00  0.00     0.209 C 
HETATM   43  O1  UNL     1     -41.673  25.191 -10.967  1.00  0.00    -0.644 OA
HETATM   44  O2  UNL     1     -43.269  26.242  -9.697  1.00  0.00    -0.644 OA
ENDBRANCH  39  42
ENDBRANCH  35  36
ENDBRANCH   1  34
TORSDOF 7
ENDMDL
MODEL 2
REMARK VINA RESULT: -7.934963895      1.030      1.565
REMARK  7 active torsions:
REMARK  status: ('A' for Active; 'I' for Inactive)
REMARK    1  A    between atoms: C1_2  and  C2_4 
REMARK    2  A    between atoms: C5_7  and  C6_8 
REMARK    3  A    between atoms: C7_9  and  C8_10 
REMARK    4  A    between atoms: N2_16  and  C12_17 
REMARK    5  A    between atoms: C15_20  and  C16_21 
REMARK       I    between atoms: C16_21  and  N3_23 
REMARK    6  A    between atoms: N3_23  and  N4_25 
REMARK    7  A    between atoms: C17_27  and  C18_28 
ROOT
HETATM    1  C8  UNL     1     -48.715  23.648 -16.433  1.00  0.00     0.089 A 
HETATM    2  C9  UNL     1     -50.047  23.830 -16.117  1.00  0.00     0.071 A 
HETATM    3  C10 UNL     1     -51.060  23.543 -17.019  1.00  0.00     0.064 A 
HETATM    4  N1  UNL     1     -52.397  23.634 -16.949  1.00  0.00    -0.350 N 
ATOM      5  H1  UNL     1     -52.942  23.957 -16.150  1.00  0.00     0.166 HD
HETATM    6  C11 UNL     1     -52.884  23.216 -18.136  1.00  0.00     0.189 A 
HETATM    7  N2  UNL     1     -51.875  22.866 -18.946  1.00  0.00    -0.304 N 
HETATM    8  C27 UNL     1     -50.726  23.060 -18.277  1.00  0.00     0.082 A 
HETATM    9  C28 UNL     1     -49.391  22.890 -18.563  1.00  0.00     0.121 A 
HETATM   10  N5  UNL     1     -48.423  23.180 -17.657  1.00  0.00    -0.357 N 
ATOM     11  H5  UNL     1     -47.445  23.038 -17.912  1.00  0.00     0.166 HD
ENDROOT
BRANCH   7  12
HETATM   12  C12 UNL     1     -52.034  22.383 -20.268  1.00  0.00     0.040 A 
HETATM   13  C13 UNL     1     -53.106  21.587 -20.642  1.00  0.00     0.031 A 
HETATM   14  C14 UNL     1     -53.237  21.130 -21.936  1.00  0.00     0.019 A 
HETATM   15  C15 UNL     1     -52.330  21.426 -22.926  1.00  0.00     0.033 A 
HETATM   16  C25 UNL     1     -51.249  22.229 -22.543  1.00  0.00     0.019 A 
HETATM   17  C26 UNL     1     -51.115  22.687 -21.253  1.00  0.00     0.031 A 
BRANCH  15  18
HETATM   18  C16 UNL     1     -52.423  20.967 -24.302  1.00  0.00     0.270 C 
HETATM   19  O3  UNL     1     -51.551  20.187 -24.759  1.00  0.00    -0.266 OA
HETATM   20  N3  UNL     1     -53.463  21.344 -25.208  1.00  0.00    -0.266 N 
ATOM     21  H3  UNL     1     -54.183  21.976 -24.859  1.00  0.00     0.190 HD
BRANCH  20  22
HETATM   22  N4  UNL     1     -53.568  20.932 -26.487  1.00  0.00    -0.308 N 
HETATM   23  C17 UNL     1     -54.041  19.891 -26.986  1.00  0.00     0.118 C 
ATOM     24  H4  UNL     1     -53.193  21.590 -27.171  1.00  0.00     0.186 HD
BRANCH  23  25
HETATM   25  C18 UNL     1     -54.656  18.735 -26.389  1.00  0.00    -0.017 A 
HETATM   26  C19 UNL     1     -55.389  18.874 -25.204  1.00  0.00     0.016 A 
HETATM   27  C20 UNL     1     -55.996  17.805 -24.595  1.00  0.00     0.040 A 
HETATM   28  C21 UNL     1     -55.922  16.533 -25.106  1.00  0.00     0.105 A 
HETATM   29  C22 UNL     1     -55.209  16.358 -26.271  1.00  0.00     0.105 A 
HETATM   30  O5  UNL     1     -56.419  15.297 -24.720  1.00  0.00    -0.323 OA
HETATM   31  C23 UNL     1     -54.596  17.451 -26.883  1.00  0.00     0.052 A 
HETATM   32  O4  UNL     1     -55.279  15.004 -26.585  1.00  0.00    -0.323 OA
HETATM   33  C24 UNL     1     -56.329  14.418 -25.846  1.00  0.00     0.352 C 
ENDBRANCH  23  25
ENDBRANCH  20  22
ENDBRANCH  15  18
ENDBRANCH   7  12
BRANCH   1  34
HETATM   34  C7  UNL     1     -47.675  23.949 -15.490  1.00  0.00    -0.043 C 
HETATM   35  C6  UNL     1     -46.815  24.211 -14.684  1.00  0.00    -0.060 C 
BRANCH  35  36
HETATM   36  C5  UNL     1     -45.796  24.549 -13.720  1.00  0.00     0.018 A 
HETATM   37  C4  UNL     1     -46.037  25.501 -12.749  1.00  0.00     0.022 A 
HETATM   38  C3  UNL     1     -45.055  25.815 -11.833  1.00  0.00     0.020 A 
HETATM   39  C2  UNL     1     -43.804  25.208 -11.836  1.00  0.00     0.040 A 
HETATM   40  C30 UNL     1     -43.570  24.259 -12.807  1.00  0.00     0.020 A 
HETATM   41  C29 UNL     1     -44.549  23.947 -13.720  1.00  0.00     0.022 A 
BRANCH  39  42
HETATM   42  C1  UNL     1     -42.800  25.574 -10.848  1.00  0.00     0.209 C 
HETATM   43  O1  UNL     1     -41.644  25.091 -10.905  1.00  0.00    -0.644 OA
HETATM   44  O2  UNL     1     -43.147  26.464  -9.845  1.00  0.00    -0.644 OA
ENDBRANCH  39  42
ENDBRANCH  35  36
ENDBRANCH   1  34
TORSDOF 7
ENDMDL
MODEL 3
REMARK VINA RESULT: -7.872599639     10.199     12.891
REMARK  7 active torsions:
REMARK  status: ('A' for Active; 'I' for Inactive)
REMARK    1  A    between atoms: C1_2  and  C2_4 
REMARK    2  A    between atoms: C5_7  and  C6_8 
REMARK    3  A    between atoms: C7_9  and  C8_10 
REMARK    4  A    between atoms: N2_16  and  C12_17 
REMARK    5  A    between atoms: C15_20  and  C16_21 
REMARK       I    between atoms: C16_21  and  N3_23 
REMARK    6  A    between atoms: N3_23  and  N4_25 
REMARK    7  A    between atoms: C17_27  and  C18_28 
ROOT
HETATM    1  C8  UNL     1     -47.900  26.557 -14.867  1.00  0.00     0.089 A 
HETATM    2  C9  UNL     1     -47.039  25.723 -14.182  1.00  0.00     0.071 A 
HETATM    3  C10 UNL     1     -45.786  25.397 -14.678  1.00  0.00     0.064 A 
HETATM    4  N1  UNL     1     -44.792  24.626 -14.211  1.00  0.00    -0.350 N 
ATOM      5  H1  UNL     1     -44.789  24.103 -13.336  1.00  0.00     0.166 HD
HETATM    6  C11 UNL     1     -43.795  24.672 -15.121  1.00  0.00     0.189 A 
HETATM    7  N2  UNL     1     -44.149  25.459 -16.146  1.00  0.00    -0.304 N 
HETATM    8  C27 UNL     1     -45.386  25.924 -15.899  1.00  0.00     0.082 A 
HETATM    9  C28 UNL     1     -46.265  26.752 -16.557  1.00  0.00     0.121 A 
HETATM   10  N5  UNL     1     -47.486  27.051 -16.044  1.00  0.00    -0.357 N 
ATOM     11  H5  UNL     1     -48.106  27.670 -16.567  1.00  0.00     0.166 HD
ENDROOT
BRANCH   7  12
HETATM   12  C12 UNL     1     -43.336  25.726 -17.275  1.00  0.00     0.040 A 
HETATM   13  C13 UNL     1     -42.135  26.411 -17.176  1.00  0.00     0.031 A 
HETATM   14  C14 UNL     1     -41.362  26.658 -18.290  1.00  0.00     0.019 A 
HETATM   15  C15 UNL     1     -41.722  26.250 -19.553  1.00  0.00     0.033 A 
HETATM   16  C25 UNL     1     -42.936  25.560 -19.647  1.00  0.00     0.019 A 
HETATM   17  C26 UNL     1     -43.711  25.311 -18.538  1.00  0.00     0.031 A 
BRANCH  15  18
HETATM   18  C16 UNL     1     -40.943  26.488 -20.757  1.00  0.00     0.270 C 
HETATM   19  O3  UNL     1     -41.167  25.807 -21.788  1.00  0.00    -0.266 OA
HETATM   20  N3  UNL     1     -39.906  27.467 -20.865  1.00  0.00    -0.266 N 
ATOM     21  H3  UNL     1     -39.708  28.033 -20.041  1.00  0.00     0.190 HD
BRANCH  20  22
HETATM   22  N4  UNL     1     -39.172  27.703 -21.970  1.00  0.00    -0.308 N 
HETATM   23  C17 UNL     1     -39.345  28.481 -22.930  1.00  0.00     0.118 C 
ATOM     24  H4  UNL     1     -38.320  27.144 -22.033  1.00  0.00     0.186 HD
BRANCH  23  25
HETATM   25  C18 UNL     1     -40.391  29.424 -23.224  1.00  0.00    -0.017 A 
HETATM   26  C19 UNL     1     -40.061  30.704 -23.687  1.00  0.00     0.016 A 
HETATM   27  C20 UNL     1     -41.019  31.639 -23.983  1.00  0.00     0.040 A 
HETATM   28  C21 UNL     1     -42.360  31.383 -23.843  1.00  0.00     0.105 A 
HETATM   29  C22 UNL     1     -42.723  30.134 -23.390  1.00  0.00     0.105 A 
HETATM   30  O5  UNL     1     -43.521  32.112 -24.059  1.00  0.00    -0.323 OA
HETATM   31  C23 UNL     1     -41.742  29.190 -23.093  1.00  0.00     0.052 A 
HETATM   32  O4  UNL     1     -44.114  30.115 -23.334  1.00  0.00    -0.323 OA
HETATM   33  C24 UNL     1     -44.616  31.191 -24.097  1.00  0.00     0.352 C 
ENDBRANCH  23  25
ENDBRANCH  20  22
ENDBRANCH  15  18
ENDBRANCH   7  12
BRANCH   1  34
HETATM   34  C7  UNL     1     -49.195  26.887 -14.343  1.00  0.00    -0.043 C 
HETATM   35  C6  UNL     1     -50.287  27.180 -13.916  1.00  0.00    -0.060 C 
BRANCH  35  36
HETATM   36  C5  UNL     1     -51.582  27.555 -13.405  1.00  0.00     0.018 A 
HETATM   37  C4  UNL     1     -52.086  26.959 -12.265  1.00  0.00     0.022 A 
HETATM   38  C3  UNL     1     -53.326  27.328 -11.787  1.00  0.00     0.020 A 
HETATM   39  C2  UNL     1     -54.115  28.291 -12.407  1.00  0.00     0.040 A 
HETATM   40  C30 UNL     1     -53.606  28.881 -13.542  1.00  0.00     0.020 A 
HETATM   41  C29 UNL     1     -52.370  28.514 -14.019  1.00  0.00     0.022 A 
BRANCH  39  42
HETATM   42  C1  UNL     1     -55.418  28.645 -11.862  1.00  0.00     0.209 C 
HETATM   43  O1  UNL     1     -55.778  29.844 -11.802  1.00  0.00    -0.644 OA
HETATM   44  O2  UNL     1     -56.250  27.632 -11.414  1.00  0.00    -0.644 OA
ENDBRANCH  39  42
ENDBRANCH  35  36
ENDBRANCH   1  34
TORSDOF 7
ENDMDL
MODEL 4
REMARK VINA RESULT: -7.807449181      9.262     12.333
REMARK  7 active torsions:
REMARK  status: ('A' for Active; 'I' for Inactive)
REMARK    1  A    between atoms: C1_2  and  C2_4 
REMARK    2  A    between atoms: C5_7  and  C6_8 
REMARK    3  A    between atoms: C7_9  and  C8_10 
REMARK    4  A    between atoms: N2_16  and  C12_17 
REMARK    5  A    between atoms: C15_20  and  C16_21 
REMARK       I    between atoms: C16_21  and  N3_23 
REMARK    6  A    between atoms: N3_23  and  N4_25 
REMARK    7  A    between atoms: C17_27  and  C18_28 
ROOT
HETATM    1  C8  UNL     1     -43.873  26.303 -18.541  1.00  0.00     0.089 A 
HETATM    2  C9  UNL     1     -43.365  25.619 -17.455  1.00  0.00     0.071 A 
HETATM    3  C10 UNL     1     -44.120  25.392 -16.314  1.00  0.00     0.064 A 
HETATM    4  N1  UNL     1     -43.857  24.770 -15.154  1.00  0.00    -0.350 N 
ATOM      5  H1  UNL     1     -42.981  24.318 -14.893  1.00  0.00     0.166 HD
HETATM    6  C11 UNL     1     -44.972  24.854 -14.399  1.00  0.00     0.189 A 
HETATM    7  N2  UNL     1     -45.926  25.519 -15.066  1.00  0.00    -0.304 N 
HETATM    8  C27 UNL     1     -45.424  25.867 -16.262  1.00  0.00     0.082 A 
HETATM    9  C28 UNL     1     -45.901  26.544 -17.360  1.00  0.00     0.121 A 
HETATM   10  N5  UNL     1     -45.136  26.750 -18.463  1.00  0.00    -0.357 N 
ATOM     11  H5  UNL     1     -45.533  27.258 -19.254  1.00  0.00     0.166 HD
ENDROOT
BRANCH   7  12
HETATM   12  C12 UNL     1     -47.223  25.787 -14.562  1.00  0.00     0.040 A 
HETATM   13  C13 UNL     1     -47.437  26.613 -13.470  1.00  0.00     0.031 A 
HETATM   14  C14 UNL     1     -48.709  26.858 -13.000  1.00  0.00     0.019 A 
HETATM   15  C15 UNL     1     -49.833  26.311 -13.572  1.00  0.00     0.033 A 
HETATM   16  C25 UNL     1     -49.612  25.478 -14.675  1.00  0.00     0.019 A 
HETATM   17  C26 UNL     1     -48.344  25.230 -15.147  1.00  0.00     0.031 A 
BRANCH  15  18
HETATM   18  C16 UNL     1     -51.194  26.538 -13.113  1.00  0.00     0.270 C 
HETATM   19  O3  UNL     1     -52.132  25.844 -13.579  1.00  0.00    -0.266 OA
HETATM   20  N3  UNL     1     -51.563  27.520 -12.142  1.00  0.00    -0.266 N 
ATOM     21  H3  UNL     1     -50.818  28.094 -11.750  1.00  0.00     0.190 HD
BRANCH  20  22
HETATM   22  N4  UNL     1     -52.817  27.748 -11.704  1.00  0.00    -0.308 N 
HETATM   23  C17 UNL     1     -53.804  28.278 -12.255  1.00  0.00     0.118 C 
ATOM     24  H4  UNL     1     -52.992  27.429 -10.751  1.00  0.00     0.186 HD
BRANCH  23  25
HETATM   25  C18 UNL     1     -53.981  28.847 -13.564  1.00  0.00    -0.017 A 
HETATM   26  C19 UNL     1     -53.552  30.157 -13.814  1.00  0.00     0.016 A 
HETATM   27  C20 UNL     1     -53.696  30.746 -15.045  1.00  0.00     0.040 A 
HETATM   28  C21 UNL     1     -54.270  30.092 -16.107  1.00  0.00     0.105 A 
HETATM   29  C22 UNL     1     -54.703  28.802 -15.898  1.00  0.00     0.105 A 
HETATM   30  O5  UNL     1     -54.540  30.425 -17.426  1.00  0.00    -0.323 OA
HETATM   31  C23 UNL     1     -54.552  28.211 -14.644  1.00  0.00     0.052 A 
HETATM   32  O4  UNL     1     -55.238  28.358 -17.104  1.00  0.00    -0.323 OA
HETATM   33  C24 UNL     1     -54.800  29.211 -18.138  1.00  0.00     0.352 C 
ENDBRANCH  23  25
ENDBRANCH  20  22
ENDBRANCH  15  18
ENDBRANCH   7  12
BRANCH   1  34
HETATM   34  C7  UNL     1     -43.081  26.531 -19.717  1.00  0.00    -0.043 C 
HETATM   35  C6  UNL     1     -42.433  26.727 -20.717  1.00  0.00    -0.060 C 
BRANCH  35  36
HETATM   36  C5  UNL     1     -41.674  26.943 -21.925  1.00  0.00     0.018 A 
HETATM   37  C4  UNL     1     -42.206  26.613 -23.156  1.00  0.00     0.022 A 
HETATM   38  C3  UNL     1     -41.470  26.825 -24.303  1.00  0.00     0.020 A 
HETATM   39  C2  UNL     1     -40.189  27.367 -24.284  1.00  0.00     0.040 A 
HETATM   40  C30 UNL     1     -39.665  27.695 -23.054  1.00  0.00     0.020 A 
HETATM   41  C29 UNL     1     -40.399  27.483 -21.910  1.00  0.00     0.022 A 
BRANCH  39  42
HETATM   42  C1  UNL     1     -39.453  27.572 -25.523  1.00  0.00     0.209 C 
HETATM   43  O1  UNL     1     -39.094  26.593 -26.219  1.00  0.00    -0.644 OA
HETATM   44  O2  UNL     1     -39.159  28.867 -25.917  1.00  0.00    -0.644 OA
ENDBRANCH  39  42
ENDBRANCH  35  36
ENDBRANCH   1  34
TORSDOF 7
ENDMDL
MODEL 5
REMARK VINA RESULT: -7.789780059      9.447     12.587
REMARK  7 active torsions:
REMARK  status: ('A' for Active; 'I' for Inactive)
REMARK    1  A    between atoms: C1_2  and  C2_4 
REMARK    2  A    between atoms: C5_7  and  C6_8 
REMARK    3  A    between atoms: C7_9  and  C8_10 
REMARK    4  A    between atoms: N2_16  and  C12_17 
REMARK    5  A    between atoms: C15_20  and  C16_21 
REMARK       I    between atoms: C16_21  and  N3_23 
REMARK    6  A    between atoms: N3_23  and  N4_25 
REMARK    7  A    between atoms: C17_27  and  C18_28 
ROOT
HETATM    1  C8  UNL     1     -43.899  26.390 -18.596  1.00  0.00     0.089 A 
HETATM    2  C9  UNL     1     -43.376  25.720 -17.507  1.00  0.00     0.071 A 
HETATM    3  C10 UNL     1     -44.122  25.490 -16.362  1.00  0.00     0.064 A 
HETATM    4  N1  UNL     1     -43.845  24.879 -15.200  1.00  0.00    -0.350 N 
ATOM      5  H1  UNL     1     -42.961  24.442 -14.940  1.00  0.00     0.166 HD
HETATM    6  C11 UNL     1     -44.958  24.952 -14.439  1.00  0.00     0.189 A 
HETATM    7  N2  UNL     1     -45.925  25.597 -15.106  1.00  0.00    -0.304 N 
HETATM    8  C27 UNL     1     -45.433  25.946 -16.307  1.00  0.00     0.082 A 
HETATM    9  C28 UNL     1     -45.926  26.608 -17.407  1.00  0.00     0.121 A 
HETATM   10  N5  UNL     1     -45.169  26.818 -18.515  1.00  0.00    -0.357 N 
ATOM     11  H5  UNL     1     -45.576  27.315 -19.307  1.00  0.00     0.166 HD
ENDROOT
BRANCH   7  12
HETATM   12  C12 UNL     1     -47.223  25.850 -14.599  1.00  0.00     0.040 A 
HETATM   13  C13 UNL     1     -47.442  26.666 -13.500  1.00  0.00     0.031 A 
HETATM   14  C14 UNL     1     -48.717  26.895 -13.026  1.00  0.00     0.019 A 
HETATM   15  C15 UNL     1     -49.837  26.341 -13.600  1.00  0.00     0.033 A 
HETATM   16  C25 UNL     1     -49.609  25.518 -14.709  1.00  0.00     0.019 A 
HETATM   17  C26 UNL     1     -48.339  25.286 -15.185  1.00  0.00     0.031 A 
BRANCH  15  18
HETATM   18  C16 UNL     1     -51.198  26.552 -13.137  1.00  0.00     0.270 C 
HETATM   19  O3  UNL     1     -52.136  25.877 -13.631  1.00  0.00    -0.266 OA
HETATM   20  N3  UNL     1     -51.570  27.497 -12.130  1.00  0.00    -0.266 N 
ATOM     21  H3  UNL     1     -50.825  28.055 -11.714  1.00  0.00     0.190 HD
BRANCH  20  22
HETATM   22  N4  UNL     1     -52.825  27.708 -11.688  1.00  0.00    -0.308 N 
HETATM   23  C17 UNL     1     -53.804  28.277 -12.213  1.00  0.00     0.118 C 
ATOM     24  H4  UNL     1     -53.008  27.337 -10.756  1.00  0.00     0.186 HD
BRANCH  23  25
HETATM   25  C18 UNL     1     -53.968  28.922 -13.489  1.00  0.00    -0.017 A 
HETATM   26  C19 UNL     1     -54.802  28.344 -14.455  1.00  0.00     0.016 A 
HETATM   27  C20 UNL     1     -54.994  28.918 -15.686  1.00  0.00     0.040 A 
HETATM   28  C21 UNL     1     -54.382  30.091 -16.050  1.00  0.00     0.105 A 
HETATM   29  C22 UNL     1     -53.554  30.688 -15.125  1.00  0.00     0.105 A 
HETATM   30  O5  UNL     1     -54.387  30.881 -17.190  1.00  0.00    -0.323 OA
HETATM   31  C23 UNL     1     -53.366  30.098 -13.876  1.00  0.00     0.052 A 
HETATM   32  O4  UNL     1     -53.060  31.847 -15.717  1.00  0.00    -0.323 OA
HETATM   33  C24 UNL     1     -53.858  32.163 -16.836  1.00  0.00     0.352 C 
ENDBRANCH  23  25
ENDBRANCH  20  22
ENDBRANCH  15  18
ENDBRANCH   7  12
BRANCH   1  34
HETATM   34  C7  UNL     1     -43.117  26.622 -19.777  1.00  0.00    -0.043 C 
HETATM   35  C6  UNL     1     -42.473  26.810 -20.782  1.00  0.00    -0.060 C 
BRANCH  35  36
HETATM   36  C5  UNL     1     -41.711  27.009 -21.990  1.00  0.00     0.018 A 
HETATM   37  C4  UNL     1     -40.479  27.632 -21.947  1.00  0.00     0.022 A 
HETATM   38  C3  UNL     1     -39.760  27.816 -23.110  1.00  0.00     0.020 A 
HETATM   39  C2  UNL     1     -40.221  27.398 -24.353  1.00  0.00     0.040 A 
HETATM   40  C30 UNL     1     -41.450  26.777 -24.389  1.00  0.00     0.020 A 
HETATM   41  C29 UNL     1     -42.167  26.593 -23.230  1.00  0.00     0.022 A 
BRANCH  39  42
HETATM   42  C1  UNL     1     -39.424  27.615 -25.551  1.00  0.00     0.209 C 
HETATM   43  O1  UNL     1     -38.980  26.642 -26.206  1.00  0.00    -0.644 OA
HETATM   44  O2  UNL     1     -39.168  28.916 -25.953  1.00  0.00    -0.644 OA
ENDBRANCH  39  42
ENDBRANCH  35  36
ENDBRANCH   1  34
TORSDOF 7
ENDMDL
