MODEL 1
REMARK VINA RESULT: -10.772736770      0.000      0.000
REMARK  4 active torsions:
REMARK  status: ('A' for Active; 'I' for Inactive)
REMARK    1  A    between atoms: C2_2  and  C17_28 
REMARK    2  A    between atoms: N1_3  and  N2_5 
REMARK       I    between atoms: N2_5  and  C3_7 
REMARK    3  A    between atoms: C3_7  and  C4_9 
REMARK    4  A    between atoms: N4_16  and  C9_17 
ROOT
HETATM    1  N2  UNL     1     -44.916  25.185 -20.215  1.00  0.00    -0.266 N 
ATOM      2  H2  UNL     1     -45.891  25.372 -19.980  1.00  0.00     0.190 HD
HETATM    3  C3  UNL     1     -44.346  23.941 -19.872  1.00  0.00     0.275 C 
HETATM    4  O1  UNL     1     -43.114  23.753 -20.177  1.00  0.00    -0.266 OA
ENDROOT
BRANCH   1   5
HETATM    5  N1  UNL     1     -44.155  26.185 -20.882  1.00  0.00    -0.302 N 
HETATM    6  C2  UNL     1     -44.060  27.381 -20.441  1.00  0.00     0.032 C 
HETATM    7  C1  UNL     1     -44.748  27.793 -19.200  1.00  0.00     0.070 C 
ATOM      8  H1  UNL     1     -43.668  25.938 -21.743  1.00  0.00     0.186 HD
BRANCH   6   9
HETATM    9  C17 UNL     1     -43.258  28.341 -21.163  1.00  0.00    -0.010 A 
HETATM   10  C18 UNL     1     -43.327  29.686 -20.855  1.00  0.00     0.014 A 
HETATM   11  C19 UNL     1     -42.577  30.587 -21.571  1.00  0.00     0.014 A 
HETATM   12  C20 UNL     1     -41.760  30.152 -22.589  1.00  0.00    -0.009 A 
HETATM   13  C21 UNL     1     -41.005  31.048 -23.323  1.00  0.00     0.017 A 
HETATM   14  C28 UNL     1     -41.683  28.782 -22.910  1.00  0.00     0.055 A 
HETATM   15  C22 UNL     1     -40.198  30.634 -24.341  1.00  0.00     0.050 A 
HETATM   16  C23 UNL     1     -40.161  29.290 -24.611  1.00  0.00     0.115 A 
HETATM   17  N6  UNL     1     -39.343  28.931 -25.637  1.00  0.00    -0.346 N 
HETATM   18  N7  UNL     1     -40.878  28.348 -23.927  1.00  0.00    -0.263 N 
HETATM   19  C24 UNL     1     -39.235  27.649 -25.984  1.00  0.00     0.012 A 
ATOM     20  H6  UNL     1     -38.814  29.643 -26.140  1.00  0.00     0.167 HD
HETATM   21  C25 UNL     1     -38.343  27.227 -27.113  1.00  0.00     0.068 C 
HETATM   22  C26 UNL     1     -39.949  26.693 -25.306  1.00  0.00     0.099 A 
HETATM   23  C27 UNL     1     -40.795  27.064 -24.245  1.00  0.00     0.255 A 
HETATM   24  O3  UNL     1     -41.412  26.166 -23.671  1.00  0.00    -0.268 OA
HETATM   25  C29 UNL     1     -42.436  27.890 -22.190  1.00  0.00     0.044 A 
ENDBRANCH   6   9
ENDBRANCH   1   5
BRANCH   3  26
HETATM   26  C4  UNL     1     -45.091  22.889 -19.196  1.00  0.00     0.103 A 
HETATM   27  C5  UNL     1     -45.304  23.073 -17.827  1.00  0.00     0.057 A 
HETATM   28  C6  UNL     1     -46.026  22.144 -17.132  1.00  0.00     0.086 A 
HETATM   29  C7  UNL     1     -46.528  21.036 -17.814  1.00  0.00     0.081 A 
HETATM   30  N4  UNL     1     -46.383  22.064 -15.844  1.00  0.00    -0.255 N 
HETATM   31  C8  UNL     1     -47.202  20.286 -16.876  1.00  0.00     0.139 A 
HETATM   32  N5  UNL     1     -46.340  20.833 -19.120  1.00  0.00    -0.320 N 
HETATM   33  N3  UNL     1     -47.091  20.930 -15.728  1.00  0.00    -0.302 N 
ATOM     34  H3  UNL     1     -47.498  20.602 -14.851  1.00  0.00     0.186 HD
HETATM   35  C16 UNL     1     -45.617  21.773 -19.792  1.00  0.00     0.261 A 
ATOM     36  H5  UNL     1     -46.720  20.013 -19.593  1.00  0.00     0.169 HD
HETATM   37  O2  UNL     1     -45.428  21.595 -21.025  1.00  0.00    -0.267 OA
BRANCH  30  38
HETATM   38  C9  UNL     1     -46.129  22.945 -14.755  1.00  0.00     0.057 A 
HETATM   39  C10 UNL     1     -45.181  22.578 -13.799  1.00  0.00     0.032 A 
HETATM   40  C11 UNL     1     -44.880  23.424 -12.741  1.00  0.00     0.009 A 
HETATM   41  C12 UNL     1     -45.498  24.647 -12.590  1.00  0.00    -0.062 A 
HETATM   42  C13 UNL     1     -45.170  25.573 -11.467  1.00  0.00     0.048 C 
HETATM   43  C14 UNL     1     -46.447  25.024 -13.537  1.00  0.00     0.009 A 
HETATM   44  C15 UNL     1     -46.737  24.167 -14.590  1.00  0.00     0.032 A 
ENDBRANCH  30  38
ENDBRANCH   3  26
TORSDOF 4
ENDMDL
MODEL 2
REMARK VINA RESULT: -10.627727389      1.215      1.717
REMARK  4 active torsions:
REMARK  status: ('A' for Active; 'I' for Inactive)
REMARK    1  A    between atoms: C2_2  and  C17_28 
REMARK    2  A    between atoms: N1_3  and  N2_5 
REMARK       I    between atoms: N2_5  and  C3_7 
REMARK    3  A    between atoms: C3_7  and  C4_9 
REMARK    4  A    between atoms: N4_16  and  C9_17 
ROOT
HETATM    1  N2  UNL     1     -44.377  25.604 -19.543  1.00  0.00    -0.266 N 
ATOM      2  H2  UNL     1     -45.397  25.569 -19.550  1.00  0.00     0.190 HD
HETATM    3  C3  UNL     1     -43.660  24.704 -18.728  1.00  0.00     0.275 C 
HETATM    4  O1  UNL     1     -42.379  24.789 -18.742  1.00  0.00    -0.266 OA
ENDROOT
BRANCH   1   5
HETATM    5  N1  UNL     1     -43.706  26.559 -20.355  1.00  0.00    -0.302 N 
HETATM    6  C2  UNL     1     -43.747  27.813 -20.114  1.00  0.00     0.032 C 
HETATM    7  C1  UNL     1     -44.508  28.344 -18.963  1.00  0.00     0.070 C 
ATOM      8  H1  UNL     1     -43.172  26.230 -21.160  1.00  0.00     0.186 HD
BRANCH   6   9
HETATM    9  C17 UNL     1     -43.029  28.725 -20.973  1.00  0.00    -0.010 A 
HETATM   10  C18 UNL     1     -43.137  30.090 -20.793  1.00  0.00     0.014 A 
HETATM   11  C19 UNL     1     -42.467  30.942 -21.638  1.00  0.00     0.014 A 
HETATM   12  C20 UNL     1     -41.693  30.438 -22.657  1.00  0.00    -0.009 A 
HETATM   13  C21 UNL     1     -41.019  31.284 -23.520  1.00  0.00     0.017 A 
HETATM   14  C28 UNL     1     -41.576  29.047 -22.847  1.00  0.00     0.055 A 
HETATM   15  C22 UNL     1     -40.255  30.800 -24.540  1.00  0.00     0.050 A 
HETATM   16  C23 UNL     1     -40.177  29.438 -24.679  1.00  0.00     0.115 A 
HETATM   17  N6  UNL     1     -39.405  29.009 -25.713  1.00  0.00    -0.346 N 
HETATM   18  N7  UNL     1     -40.814  28.544 -23.864  1.00  0.00    -0.263 N 
HETATM   19  C24 UNL     1     -39.262  27.703 -25.941  1.00  0.00     0.012 A 
ATOM     20  H6  UNL     1     -38.935  29.685 -26.315  1.00  0.00     0.167 HD
HETATM   21  C25 UNL     1     -38.420  27.204 -27.075  1.00  0.00     0.068 C 
HETATM   22  C26 UNL     1     -39.896  26.794 -25.130  1.00  0.00     0.099 A 
HETATM   23  C27 UNL     1     -40.695  27.238 -24.060  1.00  0.00     0.255 A 
HETATM   24  O3  UNL     1     -41.240  26.379 -23.365  1.00  0.00    -0.268 OA
HETATM   25  C29 UNL     1     -42.249  28.204 -21.999  1.00  0.00     0.044 A 
ENDBRANCH   6   9
ENDBRANCH   1   5
BRANCH   3  26
HETATM   26  C4  UNL     1     -44.306  23.707 -17.888  1.00  0.00     0.103 A 
HETATM   27  C5  UNL     1     -44.246  23.936 -16.511  1.00  0.00     0.057 A 
HETATM   28  C6  UNL     1     -44.861  23.061 -15.660  1.00  0.00     0.086 A 
HETATM   29  C7  UNL     1     -45.533  21.962 -16.196  1.00  0.00     0.081 A 
HETATM   30  N4  UNL     1     -44.969  23.031 -14.326  1.00  0.00    -0.255 N 
HETATM   31  C8  UNL     1     -46.047  21.271 -15.123  1.00  0.00     0.139 A 
HETATM   32  N5  UNL     1     -45.608  21.718 -17.507  1.00  0.00    -0.320 N 
HETATM   33  N3  UNL     1     -45.691  21.937 -14.039  1.00  0.00    -0.302 N 
ATOM     34  H3  UNL     1     -45.937  21.652 -13.090  1.00  0.00     0.186 HD
HETATM   35  C16 UNL     1     -44.986  22.604 -18.335  1.00  0.00     0.261 A 
ATOM     36  H5  UNL     1     -46.107  20.906 -17.871  1.00  0.00     0.169 HD
HETATM   37  O2  UNL     1     -45.044  22.386 -19.575  1.00  0.00    -0.267 OA
BRANCH  30  38
HETATM   38  C9  UNL     1     -44.473  23.925 -13.335  1.00  0.00     0.057 A 
HETATM   39  C10 UNL     1     -45.360  24.812 -12.723  1.00  0.00     0.032 A 
HETATM   40  C11 UNL     1     -44.924  25.676 -11.729  1.00  0.00     0.009 A 
HETATM   41  C12 UNL     1     -43.610  25.695 -11.309  1.00  0.00    -0.062 A 
HETATM   42  C13 UNL     1     -43.132  26.607 -10.229  1.00  0.00     0.048 C 
HETATM   43  C14 UNL     1     -42.715  24.817 -11.913  1.00  0.00     0.009 A 
HETATM   44  C15 UNL     1     -43.167  23.958 -12.906  1.00  0.00     0.032 A 
ENDBRANCH  30  38
ENDBRANCH   3  26
TORSDOF 4
ENDMDL
MODEL 3
REMARK VINA RESULT: -10.098640560      2.257      3.368
REMARK  4 active torsions:
REMARK  status: ('A' for Active; 'I' for Inactive)
REMARK    1  A    between atoms: C2_2  and  C17_28 
REMARK    2  A    between atoms: N1_3  and  N2_5 
REMARK       I    between atoms: N2_5  and  C3_7 
REMARK    3  A    between atoms: C3_7  and  C4_9 
REMARK    4  A    between atoms: N4_16  and  C9_17 
ROOT
HETATM    1  N2  UNL     1     -43.226  24.538 -19.910  1.00  0.00    -0.266 N 
ATOM      2  H2  UNL     1     -42.997  23.574 -20.151  1.00  0.00     0.190 HD
HETATM    3  C3  UNL     1     -44.014  24.797 -18.769  1.00  0.00     0.275 C 
HETATM    4  O1  UNL     1     -44.288  26.023 -18.508  1.00  0.00    -0.266 OA
ENDROOT
BRANCH   1   5
HETATM    5  N1  UNL     1     -42.747  25.597 -20.730  1.00  0.00    -0.302 N 
HETATM    6  C2  UNL     1     -41.525  25.971 -20.721  1.00  0.00     0.032 C 
HETATM    7  C1  UNL     1     -40.534  25.315 -19.843  1.00  0.00     0.070 C 
ATOM      8  H1  UNL     1     -43.403  26.075 -21.348  1.00  0.00     0.186 HD
BRANCH   6   9
HETATM    9  C17 UNL     1     -41.105  27.044 -21.592  1.00  0.00    -0.010 A 
HETATM   10  C18 UNL     1     -39.767  27.227 -21.884  1.00  0.00     0.014 A 
HETATM   11  C19 UNL     1     -39.385  28.269 -22.693  1.00  0.00     0.014 A 
HETATM   12  C20 UNL     1     -40.329  29.127 -23.208  1.00  0.00    -0.009 A 
HETATM   13  C21 UNL     1     -39.958  30.186 -24.017  1.00  0.00     0.017 A 
HETATM   14  C28 UNL     1     -41.696  28.947 -22.916  1.00  0.00     0.055 A 
HETATM   15  C22 UNL     1     -40.880  31.049 -24.529  1.00  0.00     0.050 A 
HETATM   16  C23 UNL     1     -42.196  30.828 -24.212  1.00  0.00     0.115 A 
HETATM   17  N6  UNL     1     -43.074  31.720 -24.745  1.00  0.00    -0.346 N 
HETATM   18  N7  UNL     1     -42.635  29.803 -23.420  1.00  0.00    -0.263 N 
HETATM   19  C24 UNL     1     -44.378  31.599 -24.498  1.00  0.00     0.012 A 
ATOM     20  H6  UNL     1     -42.735  32.480 -25.333  1.00  0.00     0.167 HD
HETATM   21  C25 UNL     1     -45.367  32.569 -25.070  1.00  0.00     0.068 C 
HETATM   22  C26 UNL     1     -44.833  30.574 -23.705  1.00  0.00     0.099 A 
HETATM   23  C27 UNL     1     -43.925  29.652 -23.154  1.00  0.00     0.255 A 
HETATM   24  O3  UNL     1     -44.387  28.752 -22.450  1.00  0.00    -0.268 OA
HETATM   25  C29 UNL     1     -42.068  27.904 -22.108  1.00  0.00     0.044 A 
ENDBRANCH   6   9
ENDBRANCH   1   5
BRANCH   3  26
HETATM   26  C4  UNL     1     -44.518  23.745 -17.899  1.00  0.00     0.103 A 
HETATM   27  C5  UNL     1     -44.402  23.980 -16.526  1.00  0.00     0.057 A 
HETATM   28  C6  UNL     1     -44.885  23.053 -15.647  1.00  0.00     0.086 A 
HETATM   29  C7  UNL     1     -45.482  21.896 -16.149  1.00  0.00     0.081 A 
HETATM   30  N4  UNL     1     -44.914  23.013 -14.308  1.00  0.00    -0.255 N 
HETATM   31  C8  UNL     1     -45.869  21.161 -15.051  1.00  0.00     0.139 A 
HETATM   32  N5  UNL     1     -45.608  21.645 -17.454  1.00  0.00    -0.320 N 
HETATM   33  N3  UNL     1     -45.515  21.858 -13.986  1.00  0.00    -0.302 N 
ATOM     34  H3  UNL     1     -45.680  21.552 -13.027  1.00  0.00     0.186 HD
HETATM   35  C16 UNL     1     -45.117  22.584 -18.312  1.00  0.00     0.261 A 
ATOM     36  H5  UNL     1     -46.050  20.791 -17.794  1.00  0.00     0.169 HD
HETATM   37  O2  UNL     1     -45.225  22.361 -19.548  1.00  0.00    -0.267 OA
BRANCH  30  38
HETATM   38  C9  UNL     1     -44.447  23.950 -13.343  1.00  0.00     0.057 A 
HETATM   39  C10 UNL     1     -45.372  24.781 -12.709  1.00  0.00     0.032 A 
HETATM   40  C11 UNL     1     -44.962  25.683 -11.738  1.00  0.00     0.009 A 
HETATM   41  C12 UNL     1     -43.640  25.797 -11.364  1.00  0.00    -0.062 A 
HETATM   42  C13 UNL     1     -43.189  26.751 -10.308  1.00  0.00     0.048 C 
HETATM   43  C14 UNL     1     -42.707  24.975 -11.989  1.00  0.00     0.009 A 
HETATM   44  C15 UNL     1     -43.133  24.076 -12.959  1.00  0.00     0.032 A 
ENDBRANCH  30  38
ENDBRANCH   3  26
TORSDOF 4
ENDMDL
MODEL 4
REMARK VINA RESULT: -9.598225270      6.384     11.209
REMARK  4 active torsions:
REMARK  status: ('A' for Active; 'I' for Inactive)
REMARK    1  A    between atoms: C2_2  and  C17_28 
REMARK    2  A    between atoms: N1_3  and  N2_5 
REMARK       I    between atoms: N2_5  and  C3_7 
REMARK    3  A    between atoms: C3_7  and  C4_9 
REMARK    4  A    between atoms: N4_16  and  C9_17 
ROOT
HETATM    1  N2  UNL     1     -48.720  23.515 -20.310  1.00  0.00    -0.266 N 
ATOM      2  H2  UNL     1     -49.664  23.879 -20.175  1.00  0.00     0.190 HD
HETATM    3  C3  UNL     1     -48.244  23.293 -21.619  1.00  0.00     0.275 C 
HETATM    4  O1  UNL     1     -47.056  22.826 -21.743  1.00  0.00    -0.266 OA
ENDROOT
BRANCH   1   5
HETATM    5  N1  UNL     1     -47.908  23.241 -19.175  1.00  0.00    -0.302 N 
HETATM    6  C2  UNL     1     -48.343  22.594 -18.162  1.00  0.00     0.032 C 
HETATM    7  C1  UNL     1     -49.733  22.093 -18.117  1.00  0.00     0.070 C 
ATOM      8  H1  UNL     1     -46.944  23.573 -19.169  1.00  0.00     0.186 HD
BRANCH   6   9
HETATM    9  C17 UNL     1     -47.459  22.339 -17.049  1.00  0.00    -0.010 A 
HETATM   10  C18 UNL     1     -46.810  21.125 -16.933  1.00  0.00     0.014 A 
HETATM   11  C19 UNL     1     -45.994  20.891 -15.853  1.00  0.00     0.014 A 
HETATM   12  C20 UNL     1     -45.823  21.861 -14.893  1.00  0.00    -0.009 A 
HETATM   13  C21 UNL     1     -45.011  21.637 -13.796  1.00  0.00     0.017 A 
HETATM   14  C28 UNL     1     -46.481  23.103 -15.003  1.00  0.00     0.055 A 
HETATM   15  C22 UNL     1     -44.838  22.585 -12.831  1.00  0.00     0.050 A 
HETATM   16  C23 UNL     1     -45.502  23.775 -12.989  1.00  0.00     0.115 A 
HETATM   17  N6  UNL     1     -45.298  24.683 -11.997  1.00  0.00    -0.346 N 
HETATM   18  N7  UNL     1     -46.319  24.065 -14.046  1.00  0.00    -0.263 N 
HETATM   19  C24 UNL     1     -45.898  25.873 -12.051  1.00  0.00     0.012 A 
ATOM     20  H6  UNL     1     -44.688  24.455 -11.214  1.00  0.00     0.167 HD
HETATM   21  C25 UNL     1     -45.693  26.891 -10.970  1.00  0.00     0.068 C 
HETATM   22  C26 UNL     1     -46.721  26.177 -13.106  1.00  0.00     0.099 A 
HETATM   23  C27 UNL     1     -46.932  25.238 -14.132  1.00  0.00     0.255 A 
HETATM   24  O3  UNL     1     -47.679  25.564 -15.055  1.00  0.00    -0.268 OA
HETATM   25  C29 UNL     1     -47.294  23.327 -16.085  1.00  0.00     0.044 A 
ENDBRANCH   6   9
ENDBRANCH   1   5
BRANCH   3  26
HETATM   26  C4  UNL     1     -49.038  23.568 -22.807  1.00  0.00     0.103 A 
HETATM   27  C5  UNL     1     -50.035  22.634 -23.105  1.00  0.00     0.057 A 
HETATM   28  C6  UNL     1     -50.844  22.843 -24.186  1.00  0.00     0.086 A 
HETATM   29  C7  UNL     1     -50.649  23.986 -24.962  1.00  0.00     0.081 A 
HETATM   30  N4  UNL     1     -51.860  22.136 -24.698  1.00  0.00    -0.255 N 
HETATM   31  C8  UNL     1     -51.594  23.932 -25.962  1.00  0.00     0.139 A 
HETATM   32  N5  UNL     1     -49.706  24.895 -24.701  1.00  0.00    -0.320 N 
HETATM   33  N3  UNL     1     -52.287  22.825 -25.767  1.00  0.00    -0.302 N 
ATOM     34  H3  UNL     1     -53.060  22.527 -26.363  1.00  0.00     0.186 HD
HETATM   35  C16 UNL     1     -48.911  24.665 -23.619  1.00  0.00     0.261 A 
ATOM     36  H5  UNL     1     -49.587  25.722 -25.285  1.00  0.00     0.169 HD
HETATM   37  O2  UNL     1     -48.014  25.511 -23.361  1.00  0.00    -0.267 OA
BRANCH  30  38
HETATM   38  C9  UNL     1     -52.449  20.913 -24.267  1.00  0.00     0.057 A 
HETATM   39  C10 UNL     1     -53.417  20.948 -23.263  1.00  0.00     0.032 A 
HETATM   40  C11 UNL     1     -54.039  19.783 -22.839  1.00  0.00     0.009 A 
HETATM   41  C12 UNL     1     -53.728  18.554 -23.384  1.00  0.00    -0.062 A 
HETATM   42  C13 UNL     1     -54.402  17.296 -22.950  1.00  0.00     0.048 C 
HETATM   43  C14 UNL     1     -52.763  18.505 -24.386  1.00  0.00     0.009 A 
HETATM   44  C15 UNL     1     -52.150  19.681 -24.800  1.00  0.00     0.032 A 
ENDBRANCH  30  38
ENDBRANCH   3  26
TORSDOF 4
ENDMDL
MODEL 5
REMARK VINA RESULT: -9.245862567      2.673     10.801
REMARK  4 active torsions:
REMARK  status: ('A' for Active; 'I' for Inactive)
REMARK    1  A    between atoms: C2_2  and  C17_28 
REMARK    2  A    between atoms: N1_3  and  N2_5 
REMARK       I    between atoms: N2_5  and  C3_7 
REMARK    3  A    between atoms: C3_7  and  C4_9 
REMARK    4  A    between atoms: N4_16  and  C9_17 
ROOT
HETATM    1  N2  UNL     1     -41.161  26.336 -19.690  1.00  0.00    -0.266 N 
ATOM      2  H2  UNL     1     -40.141  26.367 -19.709  1.00  0.00     0.190 HD
HETATM    3  C3  UNL     1     -41.894  27.057 -20.655  1.00  0.00     0.275 C 
HETATM    4  O1  UNL     1     -43.174  26.999 -20.589  1.00  0.00    -0.266 OA
ENDROOT
BRANCH   1   5
HETATM    5  N1  UNL     1     -41.818  25.567 -18.690  1.00  0.00    -0.302 N 
HETATM    6  C2  UNL     1     -42.035  26.016 -17.513  1.00  0.00     0.032 C 
HETATM    7  C1  UNL     1     -41.607  27.376 -17.125  1.00  0.00     0.070 C 
ATOM      8  H1  UNL     1     -42.126  24.622 -18.920  1.00  0.00     0.186 HD
BRANCH   6   9
HETATM    9  C17 UNL     1     -42.721  25.185 -16.552  1.00  0.00    -0.010 A 
HETATM   10  C18 UNL     1     -42.476  25.327 -15.200  1.00  0.00     0.014 A 
HETATM   11  C19 UNL     1     -43.118  24.508 -14.303  1.00  0.00     0.014 A 
HETATM   12  C20 UNL     1     -44.001  23.552 -14.749  1.00  0.00    -0.009 A 
HETATM   13  C21 UNL     1     -44.649  22.715 -13.858  1.00  0.00     0.017 A 
HETATM   14  C28 UNL     1     -44.257  23.400 -16.126  1.00  0.00     0.055 A 
HETATM   15  C22 UNL     1     -45.519  21.757 -14.284  1.00  0.00     0.050 A 
HETATM   16  C23 UNL     1     -45.732  21.652 -15.635  1.00  0.00     0.115 A 
HETATM   17  N6  UNL     1     -46.606  20.679 -16.007  1.00  0.00    -0.346 N 
HETATM   18  N7  UNL     1     -45.128  22.444 -16.572  1.00  0.00    -0.263 N 
HETATM   19  C24 UNL     1     -46.882  20.490 -17.297  1.00  0.00     0.012 A 
ATOM     20  H6  UNL     1     -47.049  20.094 -15.299  1.00  0.00     0.167 HD
HETATM   21  C25 UNL     1     -47.840  19.422 -17.733  1.00  0.00     0.068 C 
HETATM   22  C26 UNL     1     -46.284  21.278 -18.248  1.00  0.00     0.099 A 
HETATM   23  C27 UNL     1     -45.379  22.285 -17.864  1.00  0.00     0.255 A 
HETATM   24  O3  UNL     1     -44.871  22.963 -18.758  1.00  0.00    -0.268 OA
HETATM   25  C29 UNL     1     -43.611  24.221 -17.014  1.00  0.00     0.044 A 
ENDBRANCH   6   9
ENDBRANCH   1   5
BRANCH   3  26
HETATM   26  C4  UNL     1     -41.262  27.850 -21.700  1.00  0.00     0.103 A 
HETATM   27  C5  UNL     1     -42.084  28.779 -22.343  1.00  0.00     0.057 A 
HETATM   28  C6  UNL     1     -41.552  29.584 -23.310  1.00  0.00     0.086 A 
HETATM   29  C7  UNL     1     -40.200  29.452 -23.627  1.00  0.00     0.081 A 
HETATM   30  N4  UNL     1     -42.088  30.545 -24.074  1.00  0.00    -0.255 N 
HETATM   31  C8  UNL     1     -39.950  30.376 -24.617  1.00  0.00     0.139 A 
HETATM   32  N5  UNL     1     -39.391  28.574 -23.030  1.00  0.00    -0.320 N 
HETATM   33  N3  UNL     1     -41.091  31.000 -24.849  1.00  0.00    -0.302 N 
ATOM     34  H3  UNL     1     -41.202  31.743 -25.539  1.00  0.00     0.186 HD
HETATM   35  C16 UNL     1     -39.944  27.782 -22.069  1.00  0.00     0.261 A 
ATOM     36  H5  UNL     1     -38.405  28.499 -23.281  1.00  0.00     0.169 HD
HETATM   37  O2  UNL     1     -39.195  26.945 -21.497  1.00  0.00    -0.267 OA
BRANCH  30  38
HETATM   38  C9  UNL     1     -43.416  31.059 -24.123  1.00  0.00     0.057 A 
HETATM   39  C10 UNL     1     -43.819  31.777 -25.249  1.00  0.00     0.032 A 
HETATM   40  C11 UNL     1     -45.114  32.265 -25.350  1.00  0.00     0.009 A 
HETATM   41  C12 UNL     1     -46.045  32.065 -24.353  1.00  0.00    -0.062 A 
HETATM   42  C13 UNL     1     -47.445  32.569 -24.457  1.00  0.00     0.048 C 
HETATM   43  C14 UNL     1     -45.654  31.352 -23.223  1.00  0.00     0.009 A 
HETATM   44  C15 UNL     1     -44.355  30.870 -23.137  1.00  0.00     0.032 A 
ENDBRANCH  30  38
ENDBRANCH   3  26
TORSDOF 4
ENDMDL
