MODEL 1
REMARK VINA RESULT: -9.427399480      0.000      0.000
REMARK  4 active torsions:
REMARK  status: ('A' for Active; 'I' for Inactive)
REMARK    1  A    between atoms: N2_6  and  C3_8 
REMARK    2  A    between atoms: C6_11  and  S1_12 
REMARK    3  A    between atoms: S1_12  and  C7_15 
REMARK    4  A    between atoms: C18_32  and  C19_33 
ROOT
HETATM    1  C3  UNL     1     -42.961  25.323 -19.521  1.00  0.00     0.034 A 
HETATM    2  C4  UNL     1     -43.739  25.406 -20.664  1.00  0.00     0.031 A 
HETATM    3  C5  UNL     1     -43.625  26.543 -21.433  1.00  0.00     0.026 A 
HETATM    4  C6  UNL     1     -42.778  27.578 -21.105  1.00  0.00     0.064 A 
HETATM    5  C15 UNL     1     -42.020  27.460 -19.963  1.00  0.00     0.026 A 
HETATM    6  C16 UNL     1     -42.096  26.332 -19.147  1.00  0.00     0.031 A 
ENDROOT
BRANCH   1   7
HETATM    7  N2  UNL     1     -43.055  24.185 -18.719  1.00  0.00    -0.337 N 
HETATM    8  C2  UNL     1     -43.808  23.966 -17.723  1.00  0.00     0.152 C 
HETATM    9  N1  UNL     1     -44.770  24.790 -17.118  1.00  0.00    -0.302 N 
HETATM   10  S2  UNL     1     -43.837  22.450 -16.784  1.00  0.00    -0.048 SA
HETATM   11  C1  UNL     1     -45.617  24.201 -16.198  1.00  0.00     0.264 C 
ATOM     12  H1  UNL     1     -44.842  25.781 -17.347  1.00  0.00     0.171 HD
HETATM   13  O1  UNL     1     -46.545  24.823 -15.564  1.00  0.00    -0.267 OA
HETATM   14  C17 UNL     1     -45.415  22.782 -15.957  1.00  0.00     0.077 C 
HETATM   15  C18 UNL     1     -46.162  21.929 -15.288  1.00  0.00     0.036 C 
ATOM     16  H2  UNL     1     -42.429  23.420 -18.972  1.00  0.00     0.168 HD
BRANCH  15  17
HETATM   17  C19 UNL     1     -45.826  20.530 -15.136  1.00  0.00    -0.032 A 
HETATM   18  C20 UNL     1     -46.413  19.607 -15.969  1.00  0.00     0.014 A 
HETATM   19  C21 UNL     1     -46.132  18.255 -15.900  1.00  0.00     0.040 A 
HETATM   20  C22 UNL     1     -45.224  17.814 -14.957  1.00  0.00     0.105 A 
HETATM   21  C23 UNL     1     -44.611  18.716 -14.101  1.00  0.00     0.105 A 
HETATM   22  O6  UNL     1     -44.754  16.542 -14.662  1.00  0.00    -0.323 OA
HETATM   23  C24 UNL     1     -44.920  20.076 -14.200  1.00  0.00     0.051 A 
HETATM   24  O5  UNL     1     -43.771  17.964 -13.292  1.00  0.00    -0.323 OA
HETATM   25  C25 UNL     1     -43.724  16.613 -13.695  1.00  0.00     0.352 C 
ENDBRANCH  15  17
ENDBRANCH   1   7
BRANCH   4  26
HETATM   26  S1  UNL     1     -42.669  28.987 -22.090  1.00  0.00     0.208 S 
HETATM   27  O2  UNL     1     -44.006  29.285 -22.756  1.00  0.00    -0.217 OA
HETATM   28  O3  UNL     1     -42.290  30.216 -21.296  1.00  0.00    -0.217 OA
BRANCH  26  29
HETATM   29  C7  UNL     1     -41.492  28.844 -23.372  1.00  0.00     0.080 A 
HETATM   30  C8  UNL     1     -40.885  29.972 -23.925  1.00  0.00     0.113 A 
HETATM   31  N3  UNL     1     -39.983  29.849 -24.912  1.00  0.00    -0.350 N 
HETATM   32  C9  UNL     1     -39.606  28.671 -25.426  1.00  0.00     0.118 A 
ATOM     33  H3  UNL     1     -39.562  30.698 -25.291  1.00  0.00     0.166 HD
HETATM   34  N4  UNL     1     -38.701  28.531 -26.421  1.00  0.00    -0.309 N 
HETATM   35  C13 UNL     1     -40.181  27.516 -24.910  1.00  0.00     0.010 A 
HETATM   36  C10 UNL     1     -38.326  27.351 -26.938  1.00  0.00     0.246 A 
ATOM     37  H4  UNL     1     -38.277  29.376 -26.803  1.00  0.00     0.170 HD
HETATM   38  O4  UNL     1     -37.482  27.341 -27.853  1.00  0.00    -0.268 OA
HETATM   39  C11 UNL     1     -38.876  26.164 -26.451  1.00  0.00     0.075 A 
HETATM   40  C12 UNL     1     -39.800  26.308 -25.435  1.00  0.00     0.021 A 
HETATM   41  C14 UNL     1     -41.117  27.623 -23.888  1.00  0.00     0.040 A 
ENDBRANCH  26  29
ENDBRANCH   4  26
TORSDOF 4
ENDMDL
MODEL 2
REMARK VINA RESULT: -9.354387406      3.181     12.302
REMARK  4 active torsions:
REMARK  status: ('A' for Active; 'I' for Inactive)
REMARK    1  A    between atoms: N2_6  and  C3_8 
REMARK    2  A    between atoms: C6_11  and  S1_12 
REMARK    3  A    between atoms: S1_12  and  C7_15 
REMARK    4  A    between atoms: C18_32  and  C19_33 
ROOT
HETATM    1  C3  UNL     1     -42.912  25.978 -16.850  1.00  0.00     0.034 A 
HETATM    2  C4  UNL     1     -44.290  25.904 -16.732  1.00  0.00     0.031 A 
HETATM    3  C5  UNL     1     -44.804  25.063 -15.770  1.00  0.00     0.026 A 
HETATM    4  C6  UNL     1     -44.004  24.309 -14.940  1.00  0.00     0.064 A 
HETATM    5  C15 UNL     1     -42.640  24.409 -15.086  1.00  0.00     0.026 A 
HETATM    6  C16 UNL     1     -42.065  25.244 -16.044  1.00  0.00     0.031 A 
ENDROOT
BRANCH   1   7
HETATM    7  N2  UNL     1     -42.360  26.819 -17.817  1.00  0.00    -0.337 N 
HETATM    8  C2  UNL     1     -42.151  26.597 -19.048  1.00  0.00     0.152 C 
HETATM    9  N1  UNL     1     -42.405  25.449 -19.816  1.00  0.00    -0.302 N 
HETATM   10  S2  UNL     1     -41.442  27.772 -20.187  1.00  0.00    -0.048 SA
HETATM   11  C1  UNL     1     -42.304  25.574 -21.189  1.00  0.00     0.264 C 
ATOM     12  H1  UNL     1     -42.652  24.561 -19.380  1.00  0.00     0.171 HD
HETATM   13  O1  UNL     1     -42.507  24.617 -22.021  1.00  0.00    -0.267 OA
HETATM   14  C17 UNL     1     -41.945  26.890 -21.689  1.00  0.00     0.077 C 
HETATM   15  C18 UNL     1     -41.948  27.351 -22.922  1.00  0.00     0.036 C 
ATOM     16  H2  UNL     1     -42.085  27.744 -17.486  1.00  0.00     0.168 HD
BRANCH  15  17
HETATM   17  C19 UNL     1     -41.561  28.701 -23.266  1.00  0.00    -0.032 A 
HETATM   18  C20 UNL     1     -42.531  29.670 -23.368  1.00  0.00     0.014 A 
HETATM   19  C21 UNL     1     -42.241  30.987 -23.674  1.00  0.00     0.040 A 
HETATM   20  C22 UNL     1     -40.923  31.344 -23.886  1.00  0.00     0.105 A 
HETATM   21  C23 UNL     1     -39.919  30.394 -23.792  1.00  0.00     0.105 A 
HETATM   22  O6  UNL     1     -40.344  32.565 -24.202  1.00  0.00    -0.323 OA
HETATM   23  C24 UNL     1     -40.249  29.072 -23.480  1.00  0.00     0.051 A 
HETATM   24  O5  UNL     1     -38.733  31.065 -24.056  1.00  0.00    -0.323 OA
HETATM   25  C25 UNL     1     -38.933  32.456 -24.186  1.00  0.00     0.352 C 
ENDBRANCH  15  17
ENDBRANCH   1   7
BRANCH   4  26
HETATM   26  S1  UNL     1     -44.686  23.264 -13.752  1.00  0.00     0.208 S 
HETATM   27  O2  UNL     1     -43.676  22.962 -12.654  1.00  0.00    -0.217 OA
HETATM   28  O3  UNL     1     -45.898  23.869 -13.082  1.00  0.00    -0.217 OA
BRANCH  26  29
HETATM   29  C7  UNL     1     -45.197  21.724 -14.400  1.00  0.00     0.080 A 
HETATM   30  C8  UNL     1     -44.631  20.529 -13.954  1.00  0.00     0.113 A 
HETATM   31  N3  UNL     1     -45.031  19.352 -14.462  1.00  0.00    -0.350 N 
HETATM   32  C9  UNL     1     -45.973  19.236 -15.407  1.00  0.00     0.118 A 
ATOM     33  H3  UNL     1     -44.592  18.500 -14.111  1.00  0.00     0.166 HD
HETATM   34  N4  UNL     1     -46.384  18.059 -15.930  1.00  0.00    -0.309 N 
HETATM   35  C13 UNL     1     -46.568  20.397 -15.886  1.00  0.00     0.010 A 
HETATM   36  C10 UNL     1     -47.326  17.944 -16.878  1.00  0.00     0.246 A 
ATOM     37  H4  UNL     1     -45.950  17.204 -15.582  1.00  0.00     0.170 HD
HETATM   38  O4  UNL     1     -47.627  16.806 -17.286  1.00  0.00    -0.268 OA
HETATM   39  C11 UNL     1     -47.952  19.082 -17.388  1.00  0.00     0.075 A 
HETATM   40  C12 UNL     1     -47.532  20.284 -16.854  1.00  0.00     0.021 A 
HETATM   41  C14 UNL     1     -46.169  21.626 -15.372  1.00  0.00     0.040 A 
ENDBRANCH  26  29
ENDBRANCH   4  26
TORSDOF 4
ENDMDL
MODEL 3
REMARK VINA RESULT: -9.245904779      6.847      9.136
REMARK  4 active torsions:
REMARK  status: ('A' for Active; 'I' for Inactive)
REMARK    1  A    between atoms: N2_6  and  C3_8 
REMARK    2  A    between atoms: C6_11  and  S1_12 
REMARK    3  A    between atoms: S1_12  and  C7_15 
REMARK    4  A    between atoms: C18_32  and  C19_33 
ROOT
HETATM    1  C3  UNL     1     -48.067  25.667 -19.753  1.00  0.00     0.034 A 
HETATM    2  C4  UNL     1     -47.303  25.129 -20.776  1.00  0.00     0.031 A 
HETATM    3  C5  UNL     1     -47.900  24.977 -22.007  1.00  0.00     0.026 A 
HETATM    4  C6  UNL     1     -49.208  25.336 -22.246  1.00  0.00     0.064 A 
HETATM    5  C15 UNL     1     -49.936  25.868 -21.208  1.00  0.00     0.026 A 
HETATM    6  C16 UNL     1     -49.382  26.044 -19.940  1.00  0.00     0.031 A 
ENDROOT
BRANCH   1   7
HETATM    7  N2  UNL     1     -47.491  25.832 -18.493  1.00  0.00    -0.337 N 
HETATM    8  C2  UNL     1     -47.557  25.077 -17.477  1.00  0.00     0.152 C 
HETATM    9  N1  UNL     1     -48.222  23.854 -17.300  1.00  0.00    -0.302 N 
HETATM   10  S2  UNL     1     -46.758  25.402 -15.916  1.00  0.00    -0.048 SA
HETATM   11  C1  UNL     1     -47.918  23.129 -16.163  1.00  0.00     0.264 C 
ATOM     12  H1  UNL     1     -48.902  23.515 -17.981  1.00  0.00     0.171 HD
HETATM   13  O1  UNL     1     -48.443  21.995 -15.865  1.00  0.00    -0.267 OA
HETATM   14  C17 UNL     1     -46.935  23.718 -15.270  1.00  0.00     0.077 C 
HETATM   15  C18 UNL     1     -46.325  23.193 -14.228  1.00  0.00     0.036 C 
ATOM     16  H2  UNL     1     -46.939  26.681 -18.373  1.00  0.00     0.168 HD
BRANCH  15  17
HETATM   17  C19 UNL     1     -45.358  23.913 -13.429  1.00  0.00    -0.032 A 
HETATM   18  C20 UNL     1     -44.021  23.791 -13.728  1.00  0.00     0.014 A 
HETATM   19  C21 UNL     1     -43.036  24.461 -13.025  1.00  0.00     0.040 A 
HETATM   20  C22 UNL     1     -43.410  25.285 -11.981  1.00  0.00     0.105 A 
HETATM   21  C23 UNL     1     -44.748  25.432 -11.652  1.00  0.00     0.105 A 
HETATM   22  O6  UNL     1     -42.657  26.067 -11.116  1.00  0.00    -0.323 OA
HETATM   23  C24 UNL     1     -45.717  24.740 -12.385  1.00  0.00     0.051 A 
HETATM   24  O5  UNL     1     -44.783  26.312 -10.580  1.00  0.00    -0.323 OA
HETATM   25  C25 UNL     1     -43.507  26.843 -10.293  1.00  0.00     0.352 C 
ENDBRANCH  15  17
ENDBRANCH   1   7
BRANCH   4  26
HETATM   26  S1  UNL     1     -49.921  25.123 -23.800  1.00  0.00     0.208 S 
HETATM   27  O2  UNL     1     -51.345  25.662 -23.819  1.00  0.00    -0.217 OA
HETATM   28  O3  UNL     1     -49.162  25.850 -24.886  1.00  0.00    -0.217 OA
BRANCH  26  29
HETATM   29  C7  UNL     1     -50.011  23.450 -24.295  1.00  0.00     0.080 A 
HETATM   30  C8  UNL     1     -48.948  22.835 -24.957  1.00  0.00     0.113 A 
HETATM   31  N3  UNL     1     -49.031  21.549 -25.335  1.00  0.00    -0.350 N 
HETATM   32  C9  UNL     1     -50.105  20.780 -25.112  1.00  0.00     0.118 A 
ATOM     33  H3  UNL     1     -48.233  21.135 -25.818  1.00  0.00     0.166 HD
HETATM   34  N4  UNL     1     -50.204  19.485 -25.487  1.00  0.00    -0.309 N 
HETATM   35  C13 UNL     1     -51.192  21.346 -24.455  1.00  0.00     0.010 A 
HETATM   36  C10 UNL     1     -51.281  18.716 -25.266  1.00  0.00     0.246 A 
ATOM     37  H4  UNL     1     -49.409  19.066 -25.970  1.00  0.00     0.170 HD
HETATM   38  O4  UNL     1     -51.261  17.534 -25.656  1.00  0.00    -0.268 OA
HETATM   39  C11 UNL     1     -52.395  19.241 -24.609  1.00  0.00     0.075 A 
HETATM   40  C12 UNL     1     -52.294  20.564 -24.226  1.00  0.00     0.021 A 
HETATM   41  C14 UNL     1     -51.125  22.676 -24.056  1.00  0.00     0.040 A 
ENDBRANCH  26  29
ENDBRANCH   4  26
TORSDOF 4
ENDMDL
MODEL 4
REMARK VINA RESULT: -9.227530090      3.050     12.310
REMARK  4 active torsions:
REMARK  status: ('A' for Active; 'I' for Inactive)
REMARK    1  A    between atoms: N2_6  and  C3_8 
REMARK    2  A    between atoms: C6_11  and  S1_12 
REMARK    3  A    between atoms: S1_12  and  C7_15 
REMARK    4  A    between atoms: C18_32  and  C19_33 
ROOT
HETATM    1  C3  UNL     1     -46.052  25.038 -19.619  1.00  0.00     0.034 A 
HETATM    2  C4  UNL     1     -46.374  25.185 -18.280  1.00  0.00     0.031 A 
HETATM    3  C5  UNL     1     -47.171  24.220 -17.705  1.00  0.00     0.026 A 
HETATM    4  C6  UNL     1     -47.646  23.136 -18.408  1.00  0.00     0.064 A 
HETATM    5  C15 UNL     1     -47.306  23.022 -19.736  1.00  0.00     0.026 A 
HETATM    6  C16 UNL     1     -46.502  23.970 -20.369  1.00  0.00     0.031 A 
ENDROOT
BRANCH   1   7
HETATM    7  N2  UNL     1     -45.248  26.000 -20.232  1.00  0.00    -0.337 N 
HETATM    8  C2  UNL     1     -43.984  26.058 -20.308  1.00  0.00     0.152 C 
HETATM    9  N1  UNL     1     -43.006  25.186 -19.804  1.00  0.00    -0.302 N 
HETATM   10  S2  UNL     1     -43.074  27.348 -21.137  1.00  0.00    -0.048 SA
HETATM   11  C1  UNL     1     -41.710  25.366 -20.249  1.00  0.00     0.264 C 
ATOM     12  H1  UNL     1     -43.242  24.450 -19.138  1.00  0.00     0.171 HD
HETATM   13  O1  UNL     1     -40.710  24.649 -19.881  1.00  0.00    -0.267 OA
HETATM   14  C17 UNL     1     -41.502  26.448 -21.197  1.00  0.00     0.077 C 
HETATM   15  C18 UNL     1     -40.439  26.742 -21.916  1.00  0.00     0.036 C 
ATOM     16  H2  UNL     1     -45.750  26.765 -20.683  1.00  0.00     0.168 HD
BRANCH  15  17
HETATM   17  C19 UNL     1     -40.384  27.864 -22.828  1.00  0.00    -0.032 A 
HETATM   18  C20 UNL     1     -39.943  27.659 -24.114  1.00  0.00     0.014 A 
HETATM   19  C21 UNL     1     -39.879  28.674 -25.051  1.00  0.00     0.040 A 
HETATM   20  C22 UNL     1     -40.272  29.945 -24.680  1.00  0.00     0.105 A 
HETATM   21  C23 UNL     1     -40.723  30.189 -23.392  1.00  0.00     0.105 A 
HETATM   22  O6  UNL     1     -40.317  31.136 -25.392  1.00  0.00    -0.323 OA
HETATM   23  C24 UNL     1     -40.775  29.138 -22.471  1.00  0.00     0.051 A 
HETATM   24  O5  UNL     1     -41.036  31.540 -23.346  1.00  0.00    -0.323 OA
HETATM   25  C25 UNL     1     -40.925  32.149 -24.614  1.00  0.00     0.352 C 
ENDBRANCH  15  17
ENDBRANCH   1   7
BRANCH   4  26
HETATM   26  S1  UNL     1     -48.647  21.953 -17.653  1.00  0.00     0.208 S 
HETATM   27  O2  UNL     1     -49.452  22.572 -16.518  1.00  0.00    -0.217 OA
HETATM   28  O3  UNL     1     -49.640  21.342 -18.615  1.00  0.00    -0.217 OA
BRANCH  26  29
HETATM   29  C7  UNL     1     -47.746  20.626 -16.964  1.00  0.00     0.080 A 
HETATM   30  C8  UNL     1     -48.018  19.305 -17.321  1.00  0.00     0.113 A 
HETATM   31  N3  UNL     1     -47.319  18.292 -16.781  1.00  0.00    -0.350 N 
HETATM   32  C9  UNL     1     -46.338  18.466 -15.886  1.00  0.00     0.118 A 
ATOM     33  H3  UNL     1     -47.549  17.341 -17.067  1.00  0.00     0.166 HD
HETATM   34  N4  UNL     1     -45.628  17.458 -15.332  1.00  0.00    -0.309 N 
HETATM   35  C13 UNL     1     -46.027  19.764 -15.496  1.00  0.00     0.010 A 
HETATM   36  C10 UNL     1     -44.646  17.632 -14.435  1.00  0.00     0.246 A 
ATOM     37  H4  UNL     1     -45.852  16.503 -15.615  1.00  0.00     0.170 HD
HETATM   38  O4  UNL     1     -44.058  16.628 -13.991  1.00  0.00    -0.268 OA
HETATM   39  C11 UNL     1     -44.299  18.917 -14.014  1.00  0.00     0.075 A 
HETATM   40  C12 UNL     1     -45.025  19.946 -14.579  1.00  0.00     0.021 A 
HETATM   41  C14 UNL     1     -46.739  20.825 -16.044  1.00  0.00     0.040 A 
ENDBRANCH  26  29
ENDBRANCH   4  26
TORSDOF 4
ENDMDL
MODEL 5
REMARK VINA RESULT: -8.819260839      6.182      8.945
REMARK  4 active torsions:
REMARK  status: ('A' for Active; 'I' for Inactive)
REMARK    1  A    between atoms: N2_6  and  C3_8 
REMARK    2  A    between atoms: C6_11  and  S1_12 
REMARK    3  A    between atoms: S1_12  and  C7_15 
REMARK    4  A    between atoms: C18_32  and  C19_33 
ROOT
HETATM    1  C3  UNL     1     -48.991  23.871 -17.968  1.00  0.00     0.034 A 
HETATM    2  C4  UNL     1     -48.664  22.525 -17.962  1.00  0.00     0.031 A 
HETATM    3  C5  UNL     1     -47.658  22.108 -18.805  1.00  0.00     0.026 A 
HETATM    4  C6  UNL     1     -46.982  22.972 -19.636  1.00  0.00     0.064 A 
HETATM    5  C15 UNL     1     -47.333  24.302 -19.616  1.00  0.00     0.026 A 
HETATM    6  C16 UNL     1     -48.344  24.779 -18.782  1.00  0.00     0.031 A 
ENDROOT
BRANCH   1   7
HETATM    7  N2  UNL     1     -50.007  24.324 -17.127  1.00  0.00    -0.337 N 
HETATM    8  C2  UNL     1     -49.919  24.892 -15.997  1.00  0.00     0.152 C 
HETATM    9  N1  UNL     1     -48.786  25.237 -15.243  1.00  0.00    -0.302 N 
HETATM   10  S2  UNL     1     -51.309  25.437 -15.021  1.00  0.00    -0.048 SA
HETATM   11  C1  UNL     1     -48.979  26.070 -14.158  1.00  0.00     0.264 C 
ATOM     12  H1  UNL     1     -47.859  24.887 -15.486  1.00  0.00     0.171 HD
HETATM   13  O1  UNL     1     -48.042  26.473 -13.376  1.00  0.00    -0.267 OA
HETATM   14  C17 UNL     1     -50.346  26.501 -13.915  1.00  0.00     0.077 C 
HETATM   15  C18 UNL     1     -50.804  27.416 -13.087  1.00  0.00     0.036 C 
ATOM     16  H2  UNL     1     -50.956  24.179 -17.471  1.00  0.00     0.168 HD
BRANCH  15  17
HETATM   17  C19 UNL     1     -52.209  27.737 -12.958  1.00  0.00    -0.032 A 
HETATM   18  C20 UNL     1     -52.784  28.597 -13.864  1.00  0.00     0.014 A 
HETATM   19  C21 UNL     1     -54.123  28.939 -13.821  1.00  0.00     0.040 A 
HETATM   20  C22 UNL     1     -54.914  28.397 -12.827  1.00  0.00     0.105 A 
HETATM   21  C23 UNL     1     -54.369  27.526 -11.896  1.00  0.00     0.105 A 
HETATM   22  O6  UNL     1     -56.263  28.555 -12.541  1.00  0.00    -0.323 OA
HETATM   23  C24 UNL     1     -53.011  27.202 -11.971  1.00  0.00     0.051 A 
HETATM   24  O5  UNL     1     -55.410  27.168 -11.052  1.00  0.00    -0.323 OA
HETATM   25  C25 UNL     1     -56.647  27.681 -11.496  1.00  0.00     0.352 C 
ENDBRANCH  15  17
ENDBRANCH   1   7
BRANCH   4  26
HETATM   26  S1  UNL     1     -45.733  22.410 -20.682  1.00  0.00     0.208 S 
HETATM   27  O2  UNL     1     -45.399  20.953 -20.389  1.00  0.00    -0.217 OA
HETATM   28  O3  UNL     1     -46.126  22.486 -22.139  1.00  0.00    -0.217 OA
BRANCH  26  29
HETATM   29  C7  UNL     1     -44.244  23.308 -20.523  1.00  0.00     0.080 A 
HETATM   30  C8  UNL     1     -43.307  22.986 -19.540  1.00  0.00     0.113 A 
HETATM   31  N3  UNL     1     -42.167  23.686 -19.427  1.00  0.00    -0.350 N 
HETATM   32  C9  UNL     1     -41.849  24.715 -20.224  1.00  0.00     0.118 A 
ATOM     33  H3  UNL     1     -41.508  23.421 -18.695  1.00  0.00     0.166 HD
HETATM   34  N4  UNL     1     -40.706  25.431 -20.121  1.00  0.00    -0.309 N 
HETATM   35  C13 UNL     1     -42.748  25.076 -21.220  1.00  0.00     0.010 A 
HETATM   36  C10 UNL     1     -40.389  26.462 -20.917  1.00  0.00     0.246 A 
ATOM     37  H4  UNL     1     -40.043  25.169 -19.391  1.00  0.00     0.170 HD
HETATM   38  O4  UNL     1     -39.307  27.050 -20.732  1.00  0.00    -0.268 OA
HETATM   39  C11 UNL     1     -41.261  26.861 -21.932  1.00  0.00     0.075 A 
HETATM   40  C12 UNL     1     -42.428  26.130 -22.037  1.00  0.00     0.021 A 
HETATM   41  C14 UNL     1     -43.934  24.363 -21.353  1.00  0.00     0.040 A 
ENDBRANCH  26  29
ENDBRANCH   4  26
TORSDOF 4
ENDMDL
