MODEL 1
REMARK VINA RESULT: -9.638723230      0.000      0.000
REMARK  2 active torsions:
REMARK  status: ('A' for Active; 'I' for Inactive)
REMARK    1  A    between atoms: C1_2  and  C2_4 
REMARK    2  A    between atoms: C2_4  and  C3_5 
ROOT
HETATM    1  C3  UNL     1      13.838  -9.797  33.564  1.00  0.00     0.095 C 
HETATM    2  C4  UNL     1      14.827  -8.805  33.043  1.00  0.00     0.015 C 
HETATM    3  C5  UNL     1      15.699  -9.469  31.971  1.00  0.00     0.001 C 
HETATM    4  C6  UNL     1      15.932  -8.500  30.818  1.00  0.00     0.000 C 
HETATM    5  C7  UNL     1      17.278  -7.888  30.997  1.00  0.00     0.000 C 
HETATM    6  C8  UNL     1      17.289  -6.389  30.852  1.00  0.00     0.000 C 
HETATM    7  C9  UNL     1      16.352  -5.698  31.797  1.00  0.00     0.000 C 
HETATM    8  C10 UNL     1      16.487  -4.204  31.568  1.00  0.00     0.000 C 
HETATM    9  C11 UNL     1      17.219  -3.561  32.746  1.00  0.00     0.000 C 
HETATM   10  C12 UNL     1      16.299  -2.588  33.456  1.00  0.00     0.000 C 
HETATM   11  C13 UNL     1      15.459  -3.285  34.514  1.00  0.00     0.000 C 
HETATM   12  C14 UNL     1      14.047  -3.434  34.039  1.00  0.00     0.000 C 
HETATM   13  C15 UNL     1      13.067  -3.596  35.193  1.00  0.00     0.000 C 
HETATM   14  C16 UNL     1      13.355  -4.867  35.932  1.00  0.00     0.002 C 
HETATM   15  C17 UNL     1      12.369  -5.970  35.612  1.00  0.00     0.027 C 
HETATM   16  C18 UNL     1      12.988  -7.019  34.684  1.00  0.00     0.178 C 
HETATM   17  O3  UNL     1      12.728  -8.298  35.175  1.00  0.00    -0.321 OA
HETATM   18  C19 UNL     1      13.457  -9.438  34.951  1.00  0.00     0.263 C 
HETATM   19  O4  UNL     1      13.825 -10.207  35.874  1.00  0.00    -0.265 OA
ENDROOT
BRANCH   1  20
HETATM   20  C2  UNL     1      12.632  -9.870  32.651  1.00  0.00     0.128 C 
BRANCH  20  21
HETATM   21  C1  UNL     1      11.821 -11.072  32.906  1.00  0.00     0.173 C 
HETATM   22  O1  UNL     1      12.412 -12.099  33.325  1.00  0.00    -0.648 OA
HETATM   23  O2  UNL     1      10.465 -11.082  32.698  1.00  0.00    -0.648 OA
ENDBRANCH  20  21
ENDBRANCH   1  20
TORSDOF 2
ENDMDL
MODEL 2
REMARK VINA RESULT: -9.183280823      3.806      7.407
REMARK  2 active torsions:
REMARK  status: ('A' for Active; 'I' for Inactive)
REMARK    1  A    between atoms: C1_2  and  C2_4 
REMARK    2  A    between atoms: C2_4  and  C3_5 
ROOT
HETATM    1  C3  UNL     1      15.287  -3.831  32.646  1.00  0.00     0.095 C 
HETATM    2  C4  UNL     1      14.978  -5.188  33.190  1.00  0.00     0.015 C 
HETATM    3  C5  UNL     1      13.809  -5.087  34.178  1.00  0.00     0.001 C 
HETATM    4  C6  UNL     1      12.866  -6.269  33.988  1.00  0.00     0.000 C 
HETATM    5  C7  UNL     1      13.175  -7.278  35.039  1.00  0.00     0.000 C 
HETATM    6  C8  UNL     1      13.319  -8.681  34.512  1.00  0.00     0.000 C 
HETATM    7  C9  UNL     1      14.367  -8.806  33.447  1.00  0.00     0.000 C 
HETATM    8  C10 UNL     1      14.430 -10.264  33.033  1.00  0.00     0.000 C 
HETATM    9  C11 UNL     1      15.718 -10.900  33.557  1.00  0.00     0.000 C 
HETATM   10  C12 UNL     1      16.590 -11.333  32.395  1.00  0.00     0.000 C 
HETATM   11  C13 UNL     1      17.485 -10.200  31.916  1.00  0.00     0.000 C 
HETATM   12  C14 UNL     1      16.972  -9.647  30.623  1.00  0.00     0.000 C 
HETATM   13  C15 UNL     1      18.062  -8.937  29.831  1.00  0.00     0.000 C 
HETATM   14  C16 UNL     1      18.548  -7.741  30.591  1.00  0.00     0.002 C 
HETATM   15  C17 UNL     1      18.011  -6.436  30.041  1.00  0.00     0.027 C 
HETATM   16  C18 UNL     1      16.907  -5.867  30.935  1.00  0.00     0.178 C 
HETATM   17  O3  UNL     1      17.141  -4.512  31.172  1.00  0.00    -0.321 OA
HETATM   18  C19 UNL     1      16.712  -3.770  32.243  1.00  0.00     0.263 C 
HETATM   19  O4  UNL     1      17.475  -3.028  32.911  1.00  0.00    -0.265 OA
ENDROOT
BRANCH   1  20
HETATM   20  C2  UNL     1      14.362  -3.500  31.493  1.00  0.00     0.128 C 
BRANCH  20  21
HETATM   21  C1  UNL     1      14.025  -2.068  31.452  1.00  0.00     0.173 C 
HETATM   22  O1  UNL     1      12.811  -1.755  31.367  1.00  0.00    -0.648 OA
HETATM   23  O2  UNL     1      14.994  -1.098  31.505  1.00  0.00    -0.648 OA
ENDBRANCH  20  21
ENDBRANCH   1  20
TORSDOF 2
ENDMDL
MODEL 3
REMARK VINA RESULT: -9.124014403      3.738      7.451
REMARK  2 active torsions:
REMARK  status: ('A' for Active; 'I' for Inactive)
REMARK    1  A    between atoms: C1_2  and  C2_4 
REMARK    2  A    between atoms: C2_4  and  C3_5 
ROOT
HETATM    1  C3  UNL     1      15.408  -3.471  32.439  1.00  0.00     0.095 C 
HETATM    2  C4  UNL     1      14.955  -4.682  33.189  1.00  0.00     0.015 C 
HETATM    3  C5  UNL     1      13.824  -4.294  34.148  1.00  0.00     0.001 C 
HETATM    4  C6  UNL     1      12.748  -5.373  34.145  1.00  0.00     0.000 C 
HETATM    5  C7  UNL     1      12.957  -6.235  35.342  1.00  0.00     0.000 C 
HETATM    6  C8  UNL     1      12.931  -7.711  35.041  1.00  0.00     0.000 C 
HETATM    7  C9  UNL     1      13.938  -8.121  34.009  1.00  0.00     0.000 C 
HETATM    8  C10 UNL     1      13.826  -9.623  33.828  1.00  0.00     0.000 C 
HETATM    9  C11 UNL     1      15.041 -10.315  34.446  1.00  0.00     0.000 C 
HETATM   10  C12 UNL     1      15.836 -11.021  33.366  1.00  0.00     0.000 C 
HETATM   11  C13 UNL     1      16.847 -10.089  32.716  1.00  0.00     0.000 C 
HETATM   12  C14 UNL     1      16.378  -9.687  31.352  1.00  0.00     0.000 C 
HETATM   13  C15 UNL     1      17.528  -9.240  30.459  1.00  0.00     0.000 C 
HETATM   14  C16 UNL     1      18.161  -8.005  31.022  1.00  0.00     0.002 C 
HETATM   15  C17 UNL     1      17.768  -6.749  30.275  1.00  0.00     0.027 C 
HETATM   16  C18 UNL     1      16.752  -5.923  31.069  1.00  0.00     0.178 C 
HETATM   17  O3  UNL     1      17.145  -4.585  31.091  1.00  0.00    -0.321 OA
HETATM   18  C19 UNL     1      16.824  -3.640  32.032  1.00  0.00     0.263 C 
HETATM   19  O4  UNL     1      17.679  -2.897  32.575  1.00  0.00    -0.265 OA
ENDROOT
BRANCH   1  20
HETATM   20  C2  UNL     1      14.507  -3.218  31.248  1.00  0.00     0.128 C 
BRANCH  20  21
HETATM   21  C1  UNL     1      14.191  -1.790  31.092  1.00  0.00     0.173 C 
HETATM   22  O1  UNL     1      14.963  -0.957  31.629  1.00  0.00    -0.648 OA
HETATM   23  O2  UNL     1      13.092  -1.369  30.386  1.00  0.00    -0.648 OA
ENDBRANCH  20  21
ENDBRANCH   1  20
TORSDOF 2
ENDMDL
MODEL 4
REMARK VINA RESULT: -8.947460398      3.340      5.590
REMARK  2 active torsions:
REMARK  status: ('A' for Active; 'I' for Inactive)
REMARK    1  A    between atoms: C1_2  and  C2_4 
REMARK    2  A    between atoms: C2_4  and  C3_5 
ROOT
HETATM    1  C3  UNL     1      17.002  -7.711  30.403  1.00  0.00     0.095 C 
HETATM    2  C4  UNL     1      15.912  -7.712  31.425  1.00  0.00     0.015 C 
HETATM    3  C5  UNL     1      15.345  -9.130  31.565  1.00  0.00     0.001 C 
HETATM    4  C6  UNL     1      15.078  -9.440  33.033  1.00  0.00     0.000 C 
HETATM    5  C7  UNL     1      13.624  -9.240  33.288  1.00  0.00     0.000 C 
HETATM    6  C8  UNL     1      13.329  -8.415  34.513  1.00  0.00     0.000 C 
HETATM    7  C9  UNL     1      13.970  -7.061  34.481  1.00  0.00     0.000 C 
HETATM    8  C10 UNL     1      13.568  -6.331  35.749  1.00  0.00     0.000 C 
HETATM    9  C11 UNL     1      12.568  -5.223  35.417  1.00  0.00     0.000 C 
HETATM   10  C12 UNL     1      13.167  -3.871  35.750  1.00  0.00     0.000 C 
HETATM   11  C13 UNL     1      13.981  -3.320  34.590  1.00  0.00     0.000 C 
HETATM   12  C14 UNL     1      15.445  -3.437  34.882  1.00  0.00     0.000 C 
HETATM   13  C15 UNL     1      16.272  -2.448  34.072  1.00  0.00     0.000 C 
HETATM   14  C16 UNL     1      16.151  -2.757  32.612  1.00  0.00     0.002 C 
HETATM   15  C17 UNL     1      17.374  -3.453  32.054  1.00  0.00     0.027 C 
HETATM   16  C18 UNL     1      17.112  -4.944  31.827  1.00  0.00     0.178 C 
HETATM   17  O3  UNL     1      17.557  -5.314  30.558  1.00  0.00    -0.321 OA
HETATM   18  C19 UNL     1      17.111  -6.364  29.794  1.00  0.00     0.263 C 
HETATM   19  O4  UNL     1      16.786  -6.241  28.587  1.00  0.00    -0.265 OA
ENDROOT
BRANCH   1  20
HETATM   20  C2  UNL     1      18.310  -8.155  31.024  1.00  0.00     0.128 C 
BRANCH  20  21
HETATM   21  C1  UNL     1      18.806  -9.405  30.427  1.00  0.00     0.173 C 
HETATM   22  O1  UNL     1      18.865  -9.471  29.173  1.00  0.00    -0.648 OA
HETATM   23  O2  UNL     1      19.195 -10.468  31.201  1.00  0.00    -0.648 OA
ENDBRANCH  20  21
ENDBRANCH   1  20
TORSDOF 2
ENDMDL
MODEL 5
REMARK VINA RESULT: -8.754508373      2.538      6.070
REMARK  2 active torsions:
REMARK  status: ('A' for Active; 'I' for Inactive)
REMARK    1  A    between atoms: C1_2  and  C2_4 
REMARK    2  A    between atoms: C2_4  and  C3_5 
ROOT
HETATM    1  C3  UNL     1      13.577  -5.003  33.110  1.00  0.00     0.095 C 
HETATM    2  C4  UNL     1      14.585  -5.785  32.332  1.00  0.00     0.015 C 
HETATM    3  C5  UNL     1      15.347  -4.843  31.392  1.00  0.00     0.001 C 
HETATM    4  C6  UNL     1      16.826  -5.213  31.376  1.00  0.00     0.000 C 
HETATM    5  C7  UNL     1      17.083  -6.027  30.155  1.00  0.00     0.000 C 
HETATM    6  C8  UNL     1      17.869  -7.284  30.416  1.00  0.00     0.000 C 
HETATM    7  C9  UNL     1      17.224  -8.183  31.428  1.00  0.00     0.000 C 
HETATM    8  C10 UNL     1      18.097  -9.416  31.570  1.00  0.00     0.000 C 
HETATM    9  C11 UNL     1      17.408 -10.619  30.924  1.00  0.00     0.000 C 
HETATM   10  C12 UNL     1      17.098 -11.663  31.978  1.00  0.00     0.000 C 
HETATM   11  C13 UNL     1      15.756 -11.403  32.644  1.00  0.00     0.000 C 
HETATM   12  C14 UNL     1      15.959 -10.855  34.022  1.00  0.00     0.000 C 
HETATM   13  C15 UNL     1      14.749 -11.090  34.917  1.00  0.00     0.000 C 
HETATM   14  C16 UNL     1      13.566 -10.344  34.382  1.00  0.00     0.002 C 
HETATM   15  C17 UNL     1      13.260  -9.085  35.165  1.00  0.00     0.027 C 
HETATM   16  C18 UNL     1      13.699  -7.832  34.402  1.00  0.00     0.178 C 
HETATM   17  O3  UNL     1      12.671  -6.889  34.413  1.00  0.00    -0.321 OA
HETATM   18  C19 UNL     1      12.454  -5.888  33.500  1.00  0.00     0.263 C 
HETATM   19  O4  UNL     1      11.334  -5.678  32.969  1.00  0.00    -0.265 OA
ENDROOT
BRANCH   1  20
HETATM   20  C2  UNL     1      14.226  -4.354  34.314  1.00  0.00     0.128 C 
BRANCH  20  21
HETATM   21  C1  UNL     1      14.353  -2.896  34.151  1.00  0.00     0.173 C 
HETATM   22  O1  UNL     1      13.298  -2.229  34.011  1.00  0.00    -0.648 OA
HETATM   23  O2  UNL     1      15.577  -2.277  34.151  1.00  0.00    -0.648 OA
ENDBRANCH  20  21
ENDBRANCH   1  20
TORSDOF 2
ENDMDL
