MODEL 1
REMARK VINA RESULT: -9.458064251      0.000      0.000
REMARK  3 active torsions:
REMARK  status: ('A' for Active; 'I' for Inactive)
REMARK    1  A    between atoms: C2_2  and  C4_4 
REMARK    2  A    between atoms: C13_13  and  O1_14 
REMARK    3  A    between atoms: O1_14  and  C14_15 
ROOT
HETATM    1  C4  UNL     1      14.376  -8.609  34.311  1.00  0.00     0.059 C 
HETATM    2  C5  UNL     1      13.189  -7.729  34.329  1.00  0.00     0.013 C 
HETATM    3  C6  UNL     1      13.284  -6.441  35.050  1.00  0.00     0.007 C 
HETATM    4  C7  UNL     1      14.566  -5.724  35.044  1.00  0.00     0.005 C 
HETATM    5  C8  UNL     1      15.745  -6.490  34.525  1.00  0.00     0.060 C 
HETATM    6  C9  UNL     1      16.024  -6.354  33.082  1.00  0.00     0.013 C 
HETATM    7  C10 UNL     1      15.098  -5.526  32.282  1.00  0.00     0.006 C 
HETATM    8  C11 UNL     1      14.549  -4.312  32.952  1.00  0.00    -0.004 C 
HETATM    9  C12 UNL     1      13.155  -4.066  32.356  1.00  0.00     0.038 C 
HETATM   10  C13 UNL     1      12.507  -2.843  32.913  1.00  0.00     0.135 C 
HETATM   11  C15 UNL     1      13.318  -2.273  34.054  1.00  0.00     0.033 C 
HETATM   12  C16 UNL     1      13.534  -3.428  35.038  1.00  0.00     0.012 C 
HETATM   13  C17 UNL     1      14.554  -4.333  34.432  1.00  0.00    -0.036 C 
HETATM   14  C18 UNL     1      15.891  -3.709  34.888  1.00  0.00     0.016 C 
HETATM   15  C19 UNL     1      15.534  -7.918  34.974  1.00  0.00     0.136 C 
HETATM   16  O4  UNL     1      16.222  -8.470  35.790  1.00  0.00    -0.297 OA
ENDROOT
BRANCH  10  17
HETATM   17  O1  UNL     1      12.361  -1.804  31.933  1.00  0.00    -0.290 OA
BRANCH  17  18
HETATM   18  C14 UNL     1      13.324  -1.585  30.960  1.00  0.00     0.333 C 
HETATM   19  O2  UNL     1      12.936  -1.745  29.755  1.00  0.00    -0.624 OA
HETATM   20  O3  UNL     1      14.629  -1.214  31.270  1.00  0.00    -0.624 OA
ENDBRANCH  17  18
ENDBRANCH  10  17
BRANCH   1  21
HETATM   21  C2  UNL     1      14.174  -9.953  34.966  1.00  0.00    -0.011 C 
HETATM   22  C1  UNL     1      12.763 -10.230  35.347  1.00  0.00     0.010 C 
HETATM   23  C3  UNL     1      14.650 -11.066  34.065  1.00  0.00     0.010 C 
ENDBRANCH   1  21
TORSDOF 3
ENDMDL
MODEL 2
REMARK VINA RESULT: -9.191977628      1.454      2.235
REMARK  3 active torsions:
REMARK  status: ('A' for Active; 'I' for Inactive)
REMARK    1  A    between atoms: C2_2  and  C4_4 
REMARK    2  A    between atoms: C13_13  and  O1_14 
REMARK    3  A    between atoms: O1_14  and  C14_15 
ROOT
HETATM    1  C4  UNL     1      15.005  -9.350  33.462  1.00  0.00     0.059 C 
HETATM    2  C5  UNL     1      14.337  -8.594  32.382  1.00  0.00     0.013 C 
HETATM    3  C6  UNL     1      13.176  -7.749  32.735  1.00  0.00     0.007 C 
HETATM    4  C7  UNL     1      13.168  -7.072  34.039  1.00  0.00     0.005 C 
HETATM    5  C8  UNL     1      14.222  -7.507  35.012  1.00  0.00     0.060 C 
HETATM    6  C9  UNL     1      15.487  -6.748  34.981  1.00  0.00     0.013 C 
HETATM    7  C10 UNL     1      15.616  -5.675  33.973  1.00  0.00     0.006 C 
HETATM    8  C11 UNL     1      14.383  -4.889  33.683  1.00  0.00    -0.004 C 
HETATM    9  C12 UNL     1      14.477  -4.439  32.217  1.00  0.00     0.038 C 
HETATM   10  C13 UNL     1      13.315  -3.598  31.806  1.00  0.00     0.135 C 
HETATM   11  C15 UNL     1      12.260  -3.565  32.889  1.00  0.00     0.033 C 
HETATM   12  C16 UNL     1      11.948  -5.029  33.219  1.00  0.00     0.012 C 
HETATM   13  C17 UNL     1      13.101  -5.554  34.007  1.00  0.00    -0.036 C 
HETATM   14  C18 UNL     1      12.742  -5.162  35.456  1.00  0.00     0.016 C 
HETATM   15  C19 UNL     1      14.396  -8.992  34.788  1.00  0.00     0.136 C 
HETATM   16  O4  UNL     1      14.079  -9.830  35.589  1.00  0.00    -0.297 OA
ENDROOT
BRANCH  10  17
HETATM   17  O1  UNL     1      13.690  -2.238  31.536  1.00  0.00    -0.290 OA
BRANCH  17  18
HETATM   18  C14 UNL     1      14.859  -1.693  32.045  1.00  0.00     0.333 C 
HETATM   19  O2  UNL     1      14.789  -1.260  33.243  1.00  0.00    -0.624 OA
HETATM   20  O3  UNL     1      16.034  -1.621  31.303  1.00  0.00    -0.624 OA
ENDBRANCH  17  18
ENDBRANCH  10  17
BRANCH   1  21
HETATM   21  C2  UNL     1      14.964 -10.849  33.299  1.00  0.00    -0.011 C 
HETATM   22  C1  UNL     1      13.701 -11.355  32.698  1.00  0.00     0.010 C 
HETATM   23  C3  UNL     1      16.119 -11.328  32.452  1.00  0.00     0.010 C 
ENDBRANCH   1  21
TORSDOF 3
ENDMDL
MODEL 3
REMARK VINA RESULT: -9.037707908      2.593      6.748
REMARK  3 active torsions:
REMARK  status: ('A' for Active; 'I' for Inactive)
REMARK    1  A    between atoms: C2_2  and  C4_4 
REMARK    2  A    between atoms: C13_13  and  O1_14 
REMARK    3  A    between atoms: O1_14  and  C14_15 
ROOT
HETATM    1  C4  UNL     1      14.683  -4.353  33.306  1.00  0.00     0.059 C 
HETATM    2  C5  UNL     1      14.550  -5.410  32.282  1.00  0.00     0.013 C 
HETATM    3  C6  UNL     1      15.424  -6.599  32.386  1.00  0.00     0.007 C 
HETATM    4  C7  UNL     1      15.779  -7.095  33.723  1.00  0.00     0.005 C 
HETATM    5  C8  UNL     1      15.439  -6.193  34.871  1.00  0.00     0.060 C 
HETATM    6  C9  UNL     1      14.117  -6.405  35.492  1.00  0.00     0.013 C 
HETATM    7  C10 UNL     1      13.241  -7.437  34.901  1.00  0.00     0.006 C 
HETATM    8  C11 UNL     1      13.918  -8.663  34.388  1.00  0.00    -0.004 C 
HETATM    9  C12 UNL     1      13.069  -9.183  33.218  1.00  0.00     0.038 C 
HETATM   10  C13 UNL     1      13.616 -10.444  32.637  1.00  0.00     0.135 C 
HETATM   11  C15 UNL     1      14.965 -10.775  33.233  1.00  0.00     0.033 C 
HETATM   12  C16 UNL     1      15.826  -9.520  33.052  1.00  0.00     0.012 C 
HETATM   13  C17 UNL     1      15.350  -8.516  34.048  1.00  0.00    -0.036 C 
HETATM   14  C18 UNL     1      16.155  -8.872  35.316  1.00  0.00     0.016 C 
HETATM   15  C19 UNL     1      15.657  -4.786  34.364  1.00  0.00     0.136 C 
HETATM   16  O4  UNL     1      16.530  -4.062  34.760  1.00  0.00    -0.297 OA
ENDROOT
BRANCH  10  17
HETATM   17  O1  UNL     1      12.759 -11.572  32.868  1.00  0.00    -0.290 OA
BRANCH  17  18
HETATM   18  C14 UNL     1      11.897 -11.619  33.954  1.00  0.00     0.333 C 
HETATM   19  O2  UNL     1      10.661 -11.455  33.684  1.00  0.00    -0.624 OA
HETATM   20  O3  UNL     1      12.345 -11.830  35.254  1.00  0.00    -0.624 OA
ENDBRANCH  17  18
ENDBRANCH  10  17
BRANCH   1  21
HETATM   21  C2  UNL     1      15.113  -3.009  32.771  1.00  0.00    -0.011 C 
HETATM   22  C1  UNL     1      15.008  -2.889  31.292  1.00  0.00     0.010 C 
HETATM   23  C3  UNL     1      14.305  -1.899  33.398  1.00  0.00     0.010 C 
ENDBRANCH   1  21
TORSDOF 3
ENDMDL
MODEL 4
REMARK VINA RESULT: -8.996362156      2.766      6.892
REMARK  3 active torsions:
REMARK  status: ('A' for Active; 'I' for Inactive)
REMARK    1  A    between atoms: C2_2  and  C4_4 
REMARK    2  A    between atoms: C13_13  and  O1_14 
REMARK    3  A    between atoms: O1_14  and  C14_15 
ROOT
HETATM    1  C4  UNL     1      14.520  -4.502  33.977  1.00  0.00     0.059 C 
HETATM    2  C5  UNL     1      15.724  -5.357  33.948  1.00  0.00     0.013 C 
HETATM    3  C6  UNL     1      15.728  -6.588  34.768  1.00  0.00     0.007 C 
HETATM    4  C7  UNL     1      14.467  -7.326  34.935  1.00  0.00     0.005 C 
HETATM    5  C8  UNL     1      13.227  -6.621  34.475  1.00  0.00     0.060 C 
HETATM    6  C9  UNL     1      12.820  -6.870  33.078  1.00  0.00     0.013 C 
HETATM    7  C10 UNL     1      13.687  -7.740  32.258  1.00  0.00     0.006 C 
HETATM    8  C11 UNL     1      14.324  -8.890  32.960  1.00  0.00    -0.004 C 
HETATM    9  C12 UNL     1      15.663  -9.157  32.255  1.00  0.00     0.038 C 
HETATM   10  C13 UNL     1      16.388 -10.324  32.837  1.00  0.00     0.135 C 
HETATM   11  C15 UNL     1      15.700 -10.820  34.089  1.00  0.00     0.033 C 
HETATM   12  C16 UNL     1      15.549  -9.597  35.001  1.00  0.00     0.012 C 
HETATM   13  C17 UNL     1      14.456  -8.758  34.428  1.00  0.00    -0.036 C 
HETATM   14  C18 UNL     1      13.183  -9.368  35.053  1.00  0.00     0.016 C 
HETATM   15  C19 UNL     1      13.446  -5.159  34.795  1.00  0.00     0.136 C 
HETATM   16  O4  UNL     1      12.823  -4.559  35.629  1.00  0.00    -0.297 OA
ENDROOT
BRANCH  10  17
HETATM   17  O1  UNL     1      16.467 -11.431  31.927  1.00  0.00    -0.290 OA
BRANCH  17  18
HETATM   18  C14 UNL     1      17.656 -11.770  31.299  1.00  0.00     0.333 C 
HETATM   19  O2  UNL     1      17.759 -11.410  30.080  1.00  0.00    -0.624 OA
HETATM   20  O3  UNL     1      18.675 -12.458  31.952  1.00  0.00    -0.624 OA
ENDBRANCH  17  18
ENDBRANCH  10  17
BRANCH   1  21
HETATM   21  C2  UNL     1      14.750  -3.108  34.510  1.00  0.00    -0.011 C 
HETATM   22  C1  UNL     1      16.177  -2.806  34.804  1.00  0.00     0.010 C 
HETATM   23  C3  UNL     1      14.234  -2.072  33.542  1.00  0.00     0.010 C 
ENDBRANCH   1  21
TORSDOF 3
ENDMDL
MODEL 5
REMARK VINA RESULT: -8.964389925      1.781      6.799
REMARK  3 active torsions:
REMARK  status: ('A' for Active; 'I' for Inactive)
REMARK    1  A    between atoms: C2_2  and  C4_4 
REMARK    2  A    between atoms: C13_13  and  O1_14 
REMARK    3  A    between atoms: O1_14  and  C14_15 
ROOT
HETATM    1  C4  UNL     1      12.676  -2.478  31.455  1.00  0.00     0.059 C 
HETATM    2  C5  UNL     1      12.539  -3.941  31.295  1.00  0.00     0.013 C 
HETATM    3  C6  UNL     1      13.728  -4.786  31.541  1.00  0.00     0.007 C 
HETATM    4  C7  UNL     1      14.675  -4.379  32.588  1.00  0.00     0.005 C 
HETATM    5  C8  UNL     1      14.492  -2.998  33.140  1.00  0.00     0.060 C 
HETATM    6  C9  UNL     1      13.622  -2.885  34.327  1.00  0.00     0.013 C 
HETATM    7  C10 UNL     1      12.979  -4.118  34.825  1.00  0.00     0.006 C 
HETATM    8  C11 UNL     1      13.788  -5.368  34.733  1.00  0.00    -0.004 C 
HETATM    9  C12 UNL     1      12.797  -6.527  34.544  1.00  0.00     0.038 C 
HETATM   10  C13 UNL     1      13.479  -7.852  34.482  1.00  0.00     0.135 C 
HETATM   11  C15 UNL     1      14.981  -7.687  34.436  1.00  0.00     0.033 C 
HETATM   12  C16 UNL     1      15.265  -6.728  33.274  1.00  0.00     0.012 C 
HETATM   13  C17 UNL     1      14.875  -5.362  33.730  1.00  0.00    -0.036 C 
HETATM   14  C18 UNL     1      16.147  -4.855  34.444  1.00  0.00     0.016 C 
HETATM   15  C19 UNL     1      14.046  -2.147  31.973  1.00  0.00     0.136 C 
HETATM   16  O4  UNL     1      14.717  -1.277  31.488  1.00  0.00    -0.297 OA
ENDROOT
BRANCH  10  17
HETATM   17  O1  UNL     1      13.176  -8.679  35.616  1.00  0.00    -0.290 OA
BRANCH  17  18
HETATM   18  C14 UNL     1      12.990 -10.047  35.487  1.00  0.00     0.333 C 
HETATM   19  O2  UNL     1      13.917 -10.778  35.969  1.00  0.00    -0.624 OA
HETATM   20  O3  UNL     1      11.866 -10.593  34.873  1.00  0.00    -0.624 OA
ENDBRANCH  17  18
ENDBRANCH  10  17
BRANCH   1  21
HETATM   21  C2  UNL     1      12.428  -1.681  30.198  1.00  0.00    -0.011 C 
HETATM   22  C1  UNL     1      12.683  -2.441  28.944  1.00  0.00     0.010 C 
HETATM   23  C3  UNL     1      11.010  -1.165  30.161  1.00  0.00     0.010 C 
ENDBRANCH   1  21
TORSDOF 3
ENDMDL
