MODEL 1
REMARK VINA RESULT: -7.512932838      0.000      0.000
REMARK  20 active torsions:
REMARK  status: ('A' for Active; 'I' for Inactive)
REMARK    1  A    between atoms: C2_2  and  O1_3 
REMARK    2  A    between atoms: C2_2  and  N1_5 
REMARK    3  A    between atoms: N1_5  and  N2_6 
REMARK    4  A    between atoms: N2_6  and  S1_8 
REMARK    5  A    between atoms: S1_8  and  C3_10 
REMARK    6  A    between atoms: C3_10  and  C4_11 
REMARK    7  A    between atoms: C4_11  and  C5_12 
REMARK    8  A    between atoms: N5_20  and  C9_21 
REMARK    9  A    between atoms: C10_22  and  O3_23 
REMARK   10  A    between atoms: C11_25  and  O4_26 
REMARK   11  A    between atoms: C12_28  and  C13_29 
REMARK   12  A    between atoms: C13_29  and  O5_30 
REMARK   13  A    between atoms: C14_32  and  N6_33 
REMARK   14  A    between atoms: C15_38  and  C16_39 
REMARK   15  A    between atoms: C16_39  and  O6_40 
REMARK   16  A    between atoms: C16_39  and  O7_42 
REMARK   17  A    between atoms: C17_44  and  C18_45 
REMARK   18  A    between atoms: C18_45  and  C19_46 
REMARK   19  A    between atoms: C19_46  and  N9_47 
REMARK   20  A    between atoms: C20_50  and  N10_51 
ROOT
HETATM    1  C9  UNL     1      56.948  43.682  57.711  1.00  0.00     0.172 C 
HETATM    2  C10 UNL     1      57.010  42.283  58.289  1.00  0.00     0.176 C 
HETATM    3  C11 UNL     1      55.896  41.509  57.580  1.00  0.00     0.161 C 
HETATM    4  C12 UNL     1      55.333  42.437  56.539  1.00  0.00     0.091 C 
HETATM    5  C14 UNL     1      56.276  43.579  56.383  1.00  0.00     0.049 C 
ENDROOT
BRANCH   1   6
HETATM    6  N5  UNL     1      58.151  44.433  57.790  1.00  0.00    -0.314 N 
HETATM    7  C6  UNL     1      59.370  43.940  57.489  1.00  0.00     0.141 A 
HETATM    8  N3  UNL     1      59.812  42.719  57.071  1.00  0.00    -0.330 N 
HETATM    9  C7  UNL     1      60.323  44.921  57.657  1.00  0.00     0.122 A 
HETATM   10  C5  UNL     1      61.080  42.422  56.819  1.00  0.00     0.085 A 
ATOM     11  H3  UNL     1      59.118  41.983  56.941  1.00  0.00     0.168 HD
HETATM   12  N11 UNL     1      62.015  43.376  56.982  1.00  0.00    -0.330 N 
HETATM   13  C20 UNL     1      61.639  44.624  57.400  1.00  0.00     0.131 A 
ATOM     14  H11 UNL     1      62.997  43.170  56.795  1.00  0.00     0.168 HD
HETATM   15  N4  UNL     1      59.636  46.002  58.064  1.00  0.00    -0.346 N 
HETATM   16  C8  UNL     1      58.327  45.713  58.146  1.00  0.00     0.186 A 
ATOM     17  H4  UNL     1      60.049  46.909  58.279  1.00  0.00     0.167 HD
BRANCH  10  18
HETATM   18  C4  UNL     1      61.517  41.065  56.360  1.00  0.00     0.091 C 
BRANCH  18  19
HETATM   19  C3  UNL     1      61.267  40.907  54.879  1.00  0.00     0.140 C 
BRANCH  19  20
HETATM   20  S1  UNL     1      59.853  39.864  54.628  1.00  0.00     0.126 S 
HETATM   21  O2  UNL     1      58.603  40.253  55.675  1.00  0.00    -0.235 OA
BRANCH  20  22
HETATM   22  N2  UNL     1      59.273  39.975  53.023  1.00  0.00    -0.250 N 
ATOM     23  H2  UNL     1      59.882  39.958  52.206  1.00  0.00     0.193 HD
BRANCH  22  24
HETATM   24  N1  UNL     1      57.889  40.090  52.941  1.00  0.00    -0.102 NA
BRANCH  24  25
HETATM   25  C2  UNL     1      57.562  40.483  51.583  1.00  0.00     0.227 C 
HETATM   26  C1  UNL     1      56.156  40.973  51.445  1.00  0.00     0.060 C 
BRANCH  25  27
HETATM   27  O1  UNL     1      58.463  41.459  51.169  1.00  0.00    -0.378 OA
ATOM     28  H1  UNL     1      58.680  41.345  50.252  1.00  0.00     0.211 HD
ENDBRANCH  25  27
ENDBRANCH  24  25
ENDBRANCH  22  24
ENDBRANCH  20  22
ENDBRANCH  19  20
ENDBRANCH  18  19
ENDBRANCH  10  18
BRANCH  13  29
HETATM   29  N10 UNL     1      62.526  45.535  57.556  1.00  0.00    -0.383 N 
ATOM     30 2H10 UNL     1      62.252  46.454  57.903  1.00  0.00     0.157 HD
ATOM     31 1H10 UNL     1      63.498  45.326  57.331  1.00  0.00     0.157 HD
ENDBRANCH  13  29
ENDBRANCH   1   6
BRANCH   2  32
HETATM   32  O3  UNL     1      56.780  42.242  59.663  1.00  0.00    -0.391 OA
ATOM     33  H3  UNL     1      57.367  42.798  60.161  1.00  0.00     0.210 HD
ENDBRANCH   2  32
BRANCH   5  34
HETATM   34  N6  UNL     1      57.007  43.764  55.197  1.00  0.00    -0.237 N 
HETATM   35  N7  UNL     1      57.702  42.798  54.548  1.00  0.00    -0.235 N 
HETATM   36  N8  UNL     1      58.295  43.191  53.484  1.00  0.00    -0.282 N 
ATOM     37  H7  UNL     1      57.748  41.835  54.880  1.00  0.00     0.209 HD
HETATM   38  C15 UNL     1      58.044  44.476  53.330  1.00  0.00     0.119 A 
ATOM     39  H8  UNL     1      58.863  42.613  52.866  1.00  0.00     0.188 HD
HETATM   40  C17 UNL     1      57.239  44.834  54.397  1.00  0.00     0.141 A 
BRANCH  38  41
HETATM   41  C16 UNL     1      58.542  45.327  52.220  1.00  0.00     0.309 C 
BRANCH  41  42
HETATM   42  O6  UNL     1      58.553  44.601  51.029  1.00  0.00    -0.366 OA
ATOM     43  H6  UNL     1      58.099  43.775  51.146  1.00  0.00     0.213 HD
ENDBRANCH  41  42
BRANCH  41  44
HETATM   44  O7  UNL     1      59.876  45.708  52.458  1.00  0.00    -0.366 OA
ATOM     45  H7  UNL     1      60.396  44.952  52.706  1.00  0.00     0.213 HD
ENDBRANCH  41  44
ENDBRANCH  38  41
BRANCH  40  46
HETATM   46  C18 UNL     1      56.750  46.138  54.597  1.00  0.00    -0.022 C 
BRANCH  46  47
HETATM   47  C19 UNL     1      56.356  47.244  54.752  1.00  0.00     0.010 C 
BRANCH  47  48
HETATM   48  N9  UNL     1      55.869  48.541  54.932  1.00  0.00    -0.359 N 
ATOM     49  H92 UNL     1      55.621  47.599  55.233  1.00  0.00     0.166 HD
ATOM     50  H91 UNL     1      55.526  49.494  55.053  1.00  0.00     0.166 HD
ENDBRANCH  47  48
ENDBRANCH  46  47
ENDBRANCH  40  46
ENDBRANCH   5  34
BRANCH   3  51
HETATM   51  O4  UNL     1      54.991  41.047  58.504  1.00  0.00    -0.392 OA
ATOM     52  H4  UNL     1      55.424  40.456  59.109  1.00  0.00     0.210 HD
ENDBRANCH   3  51
BRANCH   4  53
HETATM   53  C13 UNL     1      54.825  41.784  55.305  1.00  0.00     0.177 C 
BRANCH  53  54
HETATM   54  O5  UNL     1      55.623  40.687  54.927  1.00  0.00    -0.400 OA
ATOM     55  H5  UNL     1      56.049  40.832  54.090  1.00  0.00     0.209 HD
ENDBRANCH  53  54
ENDBRANCH   4  53
TORSDOF 20
ENDMDL
MODEL 2
REMARK VINA RESULT: -7.497649113      3.150      6.987
REMARK  20 active torsions:
REMARK  status: ('A' for Active; 'I' for Inactive)
REMARK    1  A    between atoms: C2_2  and  O1_3 
REMARK    2  A    between atoms: C2_2  and  N1_5 
REMARK    3  A    between atoms: N1_5  and  N2_6 
REMARK    4  A    between atoms: N2_6  and  S1_8 
REMARK    5  A    between atoms: S1_8  and  C3_10 
REMARK    6  A    between atoms: C3_10  and  C4_11 
REMARK    7  A    between atoms: C4_11  and  C5_12 
REMARK    8  A    between atoms: N5_20  and  C9_21 
REMARK    9  A    between atoms: C10_22  and  O3_23 
REMARK   10  A    between atoms: C11_25  and  O4_26 
REMARK   11  A    between atoms: C12_28  and  C13_29 
REMARK   12  A    between atoms: C13_29  and  O5_30 
REMARK   13  A    between atoms: C14_32  and  N6_33 
REMARK   14  A    between atoms: C15_38  and  C16_39 
REMARK   15  A    between atoms: C16_39  and  O6_40 
REMARK   16  A    between atoms: C16_39  and  O7_42 
REMARK   17  A    between atoms: C17_44  and  C18_45 
REMARK   18  A    between atoms: C18_45  and  C19_46 
REMARK   19  A    between atoms: C19_46  and  N9_47 
REMARK   20  A    between atoms: C20_50  and  N10_51 
ROOT
HETATM    1  C9  UNL     1      56.949  42.399  54.884  1.00  0.00     0.172 C 
HETATM    2  C10 UNL     1      55.734  42.343  53.981  1.00  0.00     0.176 C 
HETATM    3  C11 UNL     1      56.272  41.912  52.615  1.00  0.00     0.161 C 
HETATM    4  C12 UNL     1      57.731  41.608  52.811  1.00  0.00     0.091 C 
HETATM    5  C14 UNL     1      57.988  41.518  54.276  1.00  0.00     0.049 C 
ENDROOT
BRANCH   1   6
HETATM    6  N5  UNL     1      56.690  42.258  56.274  1.00  0.00    -0.314 N 
HETATM    7  C6  UNL     1      57.482  42.758  57.243  1.00  0.00     0.141 A 
HETATM    8  N3  UNL     1      58.647  43.468  57.232  1.00  0.00    -0.330 N 
HETATM    9  C7  UNL     1      56.950  42.460  58.479  1.00  0.00     0.122 A 
HETATM   10  C5  UNL     1      59.288  43.882  58.316  1.00  0.00     0.085 A 
ATOM     11  H3  UNL     1      59.053  43.697  56.324  1.00  0.00     0.168 HD
HETATM   12  N11 UNL     1      58.774  43.593  59.525  1.00  0.00    -0.330 N 
HETATM   13  C20 UNL     1      57.607  42.883  59.609  1.00  0.00     0.131 A 
ATOM     14  H11 UNL     1      59.251  43.901  60.373  1.00  0.00     0.168 HD
HETATM   15  N4  UNL     1      55.827  41.772  58.212  1.00  0.00    -0.346 N 
HETATM   16  C8  UNL     1      55.666  41.647  56.885  1.00  0.00     0.186 A 
ATOM     17  H4  UNL     1      55.190  41.399  58.916  1.00  0.00     0.167 HD
BRANCH  10  18
HETATM   18  C4  UNL     1      60.567  44.660  58.251  1.00  0.00     0.091 C 
BRANCH  18  19
HETATM   19  C3  UNL     1      60.322  46.102  58.631  1.00  0.00     0.140 C 
BRANCH  19  20
HETATM   20  S1  UNL     1      61.588  46.638  59.754  1.00  0.00     0.126 S 
HETATM   21  O2  UNL     1      62.050  48.221  59.456  1.00  0.00    -0.235 OA
BRANCH  20  22
HETATM   22  N2  UNL     1      61.071  46.519  61.379  1.00  0.00    -0.250 N 
ATOM     23  H2  UNL     1      61.271  47.229  62.083  1.00  0.00     0.193 HD
BRANCH  22  24
HETATM   24  N1  UNL     1      60.351  45.359  61.649  1.00  0.00    -0.102 NA
BRANCH  24  25
HETATM   25  C2  UNL     1      59.096  45.754  62.263  1.00  0.00     0.227 C 
HETATM   26  C1  UNL     1      58.296  46.676  61.401  1.00  0.00     0.060 C 
BRANCH  25  27
HETATM   27  O1  UNL     1      58.366  44.610  62.567  1.00  0.00    -0.378 OA
ATOM     28  H1  UNL     1      57.940  44.700  63.411  1.00  0.00     0.211 HD
ENDBRANCH  25  27
ENDBRANCH  24  25
ENDBRANCH  22  24
ENDBRANCH  20  22
ENDBRANCH  19  20
ENDBRANCH  18  19
ENDBRANCH  10  18
BRANCH  13  29
HETATM   29  N10 UNL     1      57.113  42.606  60.758  1.00  0.00    -0.383 N 
ATOM     30 2H10 UNL     1      56.516  43.285  61.230  1.00  0.00     0.157 HD
ATOM     31 1H10 UNL     1      57.325  41.704  61.185  1.00  0.00     0.157 HD
ENDBRANCH  13  29
ENDBRANCH   1   6
BRANCH   2  32
HETATM   32  O3  UNL     1      55.092  43.573  53.843  1.00  0.00    -0.391 OA
ATOM     33  H3  UNL     1      54.365  43.552  53.231  1.00  0.00     0.210 HD
ENDBRANCH   2  32
BRANCH   5  34
HETATM   34  N6  UNL     1      58.334  40.298  54.881  1.00  0.00    -0.237 N 
HETATM   35  N7  UNL     1      57.463  39.309  55.201  1.00  0.00    -0.235 N 
HETATM   36  N8  UNL     1      57.999  38.284  55.749  1.00  0.00    -0.282 N 
ATOM     37  H7  UNL     1      56.462  39.377  55.020  1.00  0.00     0.209 HD
HETATM   38  C15 UNL     1      59.295  38.504  55.843  1.00  0.00     0.119 A 
ATOM     39  H8  UNL     1      57.509  37.445  56.058  1.00  0.00     0.188 HD
HETATM   40  C17 UNL     1      59.505  39.760  55.301  1.00  0.00     0.141 A 
BRANCH  38  41
HETATM   41  C16 UNL     1      60.291  37.566  56.419  1.00  0.00     0.309 C 
BRANCH  41  42
HETATM   42  O6  UNL     1      61.091  37.036  55.406  1.00  0.00    -0.366 OA
ATOM     43  H6  UNL     1      61.757  36.470  55.779  1.00  0.00     0.213 HD
ENDBRANCH  41  42
BRANCH  41  44
HETATM   44  O7  UNL     1      59.641  36.470  57.017  1.00  0.00    -0.366 OA
ATOM     45  H7  UNL     1      59.232  35.927  56.354  1.00  0.00     0.213 HD
ENDBRANCH  41  44
ENDBRANCH  38  41
BRANCH  40  46
HETATM   46  C18 UNL     1      60.773  40.366  55.217  1.00  0.00    -0.022 C 
BRANCH  46  47
HETATM   47  C19 UNL     1      61.848  40.855  55.139  1.00  0.00     0.010 C 
BRANCH  47  48
HETATM   48  N9  UNL     1      63.127  41.412  55.060  1.00  0.00    -0.359 N 
ATOM     49  H92 UNL     1      62.665  40.668  55.581  1.00  0.00     0.166 HD
ATOM     50  H91 UNL     1      64.054  41.831  54.989  1.00  0.00     0.166 HD
ENDBRANCH  47  48
ENDBRANCH  46  47
ENDBRANCH  40  46
ENDBRANCH   5  34
BRANCH   3  51
HETATM   51  O4  UNL     1      55.995  42.881  51.681  1.00  0.00    -0.392 OA
ATOM     52  H4  UNL     1      56.789  43.113  51.214  1.00  0.00     0.210 HD
ENDBRANCH   3  51
BRANCH   4  53
HETATM   53  C13 UNL     1      58.286  40.537  51.943  1.00  0.00     0.177 C 
BRANCH  53  54
HETATM   54  O5  UNL     1      57.338  40.081  51.005  1.00  0.00    -0.400 OA
ATOM     55  H5  UNL     1      57.687  39.382  50.463  1.00  0.00     0.209 HD
ENDBRANCH  53  54
ENDBRANCH   4  53
TORSDOF 20
ENDMDL
MODEL 3
REMARK VINA RESULT: -7.425215587      2.753      6.027
REMARK  20 active torsions:
REMARK  status: ('A' for Active; 'I' for Inactive)
REMARK    1  A    between atoms: C2_2  and  O1_3 
REMARK    2  A    between atoms: C2_2  and  N1_5 
REMARK    3  A    between atoms: N1_5  and  N2_6 
REMARK    4  A    between atoms: N2_6  and  S1_8 
REMARK    5  A    between atoms: S1_8  and  C3_10 
REMARK    6  A    between atoms: C3_10  and  C4_11 
REMARK    7  A    between atoms: C4_11  and  C5_12 
REMARK    8  A    between atoms: N5_20  and  C9_21 
REMARK    9  A    between atoms: C10_22  and  O3_23 
REMARK   10  A    between atoms: C11_25  and  O4_26 
REMARK   11  A    between atoms: C12_28  and  C13_29 
REMARK   12  A    between atoms: C13_29  and  O5_30 
REMARK   13  A    between atoms: C14_32  and  N6_33 
REMARK   14  A    between atoms: C15_38  and  C16_39 
REMARK   15  A    between atoms: C16_39  and  O6_40 
REMARK   16  A    between atoms: C16_39  and  O7_42 
REMARK   17  A    between atoms: C17_44  and  C18_45 
REMARK   18  A    between atoms: C18_45  and  C19_46 
REMARK   19  A    between atoms: C19_46  and  N9_47 
REMARK   20  A    between atoms: C20_50  and  N10_51 
ROOT
HETATM    1  C9  UNL     1      56.778  43.024  54.928  1.00  0.00     0.172 C 
HETATM    2  C10 UNL     1      55.521  43.113  54.088  1.00  0.00     0.176 C 
HETATM    3  C11 UNL     1      55.958  42.729  52.672  1.00  0.00     0.161 C 
HETATM    4  C12 UNL     1      57.398  42.309  52.775  1.00  0.00     0.091 C 
HETATM    5  C14 UNL     1      57.717  42.109  54.216  1.00  0.00     0.049 C 
ENDROOT
BRANCH   1   6
HETATM    6  N5  UNL     1      56.575  42.816  56.318  1.00  0.00    -0.314 N 
HETATM    7  C6  UNL     1      57.466  43.161  57.270  1.00  0.00     0.141 A 
HETATM    8  N3  UNL     1      58.700  43.741  57.236  1.00  0.00    -0.330 N 
HETATM    9  C7  UNL     1      56.967  42.837  58.513  1.00  0.00     0.122 A 
HETATM   10  C5  UNL     1      59.437  44.008  58.305  1.00  0.00     0.085 A 
ATOM     11  H3  UNL     1      59.082  43.987  56.323  1.00  0.00     0.168 HD
HETATM   12  N11 UNL     1      58.956  43.694  59.521  1.00  0.00    -0.330 N 
HETATM   13  C20 UNL     1      57.723  43.109  59.627  1.00  0.00     0.131 A 
ATOM     14  H11 UNL     1      59.506  43.890  60.358  1.00  0.00     0.168 HD
HETATM   15  N4  UNL     1      55.763  42.293  58.269  1.00  0.00    -0.346 N 
HETATM   16  C8  UNL     1      55.522  42.277  56.949  1.00  0.00     0.186 A 
ATOM     17  H4  UNL     1      55.125  41.943  58.984  1.00  0.00     0.167 HD
BRANCH  10  18
HETATM   18  C4  UNL     1      60.789  44.648  58.216  1.00  0.00     0.091 C 
BRANCH  18  19
HETATM   19  C3  UNL     1      60.758  46.026  58.834  1.00  0.00     0.140 C 
BRANCH  19  20
HETATM   20  S1  UNL     1      60.783  47.249  57.548  1.00  0.00     0.126 S 
HETATM   21  O2  UNL     1      61.886  46.861  56.346  1.00  0.00    -0.235 OA
BRANCH  20  22
HETATM   22  N2  UNL     1      59.242  47.433  56.832  1.00  0.00    -0.250 N 
ATOM     23  H2  UNL     1      58.523  48.056  57.201  1.00  0.00     0.193 HD
BRANCH  22  24
HETATM   24  N1  UNL     1      59.061  46.651  55.695  1.00  0.00    -0.102 NA
BRANCH  24  25
HETATM   25  C2  UNL     1      58.967  47.546  54.557  1.00  0.00     0.227 C 
HETATM   26  C1  UNL     1      58.387  48.876  54.914  1.00  0.00     0.060 C 
BRANCH  25  27
HETATM   27  O1  UNL     1      60.232  47.696  53.999  1.00  0.00    -0.378 OA
ATOM     28  H1  UNL     1      60.852  47.109  54.414  1.00  0.00     0.211 HD
ENDBRANCH  25  27
ENDBRANCH  24  25
ENDBRANCH  22  24
ENDBRANCH  20  22
ENDBRANCH  19  20
ENDBRANCH  18  19
ENDBRANCH  10  18
BRANCH  13  29
HETATM   29  N10 UNL     1      57.260  42.807  60.784  1.00  0.00    -0.383 N 
ATOM     30 2H10 UNL     1      56.983  41.847  60.983  1.00  0.00     0.157 HD
ATOM     31 1H10 UNL     1      57.175  43.538  61.490  1.00  0.00     0.157 HD
ENDBRANCH  13  29
ENDBRANCH   1   6
BRANCH   2  32
HETATM   32  O3  UNL     1      54.966  44.392  54.055  1.00  0.00    -0.391 OA
ATOM     33  H3  UNL     1      55.084  44.832  53.221  1.00  0.00     0.210 HD
ENDBRANCH   2  32
BRANCH   5  34
HETATM   34  N6  UNL     1      57.998  40.832  54.730  1.00  0.00    -0.237 N 
HETATM   35  N7  UNL     1      57.139  39.784  54.733  1.00  0.00    -0.235 N 
HETATM   36  N8  UNL     1      57.606  38.713  55.256  1.00  0.00    -0.282 N 
ATOM     37  H7  UNL     1      56.196  39.843  54.350  1.00  0.00     0.209 HD
HETATM   38  C15 UNL     1      58.839  38.959  55.653  1.00  0.00     0.119 A 
ATOM     39  H8  UNL     1      57.112  37.826  55.349  1.00  0.00     0.188 HD
HETATM   40  C17 UNL     1      59.084  40.281  55.325  1.00  0.00     0.141 A 
BRANCH  38  41
HETATM   41  C16 UNL     1      59.745  37.986  56.314  1.00  0.00     0.309 C 
BRANCH  41  42
HETATM   42  O6  UNL     1      60.642  37.461  55.384  1.00  0.00    -0.366 OA
ATOM     43  H6  UNL     1      61.461  37.239  55.811  1.00  0.00     0.213 HD
ENDBRANCH  41  42
BRANCH  41  44
HETATM   44  O7  UNL     1      59.009  36.891  56.807  1.00  0.00    -0.366 OA
ATOM     45  H7  UNL     1      59.595  36.239  57.174  1.00  0.00     0.213 HD
ENDBRANCH  41  44
ENDBRANCH  38  41
BRANCH  40  46
HETATM   46  C18 UNL     1      60.304  40.932  55.589  1.00  0.00    -0.022 C 
BRANCH  46  47
HETATM   47  C19 UNL     1      61.336  41.461  55.826  1.00  0.00     0.010 C 
BRANCH  47  48
HETATM   48  N9  UNL     1      62.566  42.066  56.100  1.00  0.00    -0.359 N 
ATOM     49  H92 UNL     1      62.133  41.153  56.235  1.00  0.00     0.166 HD
ATOM     50  H91 UNL     1      63.457  42.522  56.292  1.00  0.00     0.166 HD
ENDBRANCH  47  48
ENDBRANCH  46  47
ENDBRANCH  40  46
ENDBRANCH   5  34
BRANCH   3  51
HETATM   51  O4  UNL     1      55.711  43.772  51.812  1.00  0.00    -0.392 OA
ATOM     52  H4  UNL     1      55.503  43.433  50.949  1.00  0.00     0.210 HD
ENDBRANCH   3  51
BRANCH   4  53
HETATM   53  C13 UNL     1      57.828  41.256  51.817  1.00  0.00     0.177 C 
BRANCH  53  54
HETATM   54  O5  UNL     1      57.380  41.524  50.509  1.00  0.00    -0.400 OA
ATOM     55  H5  UNL     1      58.001  42.055  50.025  1.00  0.00     0.209 HD
ENDBRANCH  53  54
ENDBRANCH   4  53
TORSDOF 20
ENDMDL
MODEL 4
REMARK VINA RESULT: -7.382203971      3.134      6.502
REMARK  20 active torsions:
REMARK  status: ('A' for Active; 'I' for Inactive)
REMARK    1  A    between atoms: C2_2  and  O1_3 
REMARK    2  A    between atoms: C2_2  and  N1_5 
REMARK    3  A    between atoms: N1_5  and  N2_6 
REMARK    4  A    between atoms: N2_6  and  S1_8 
REMARK    5  A    between atoms: S1_8  and  C3_10 
REMARK    6  A    between atoms: C3_10  and  C4_11 
REMARK    7  A    between atoms: C4_11  and  C5_12 
REMARK    8  A    between atoms: N5_20  and  C9_21 
REMARK    9  A    between atoms: C10_22  and  O3_23 
REMARK   10  A    between atoms: C11_25  and  O4_26 
REMARK   11  A    between atoms: C12_28  and  C13_29 
REMARK   12  A    between atoms: C13_29  and  O5_30 
REMARK   13  A    between atoms: C14_32  and  N6_33 
REMARK   14  A    between atoms: C15_38  and  C16_39 
REMARK   15  A    between atoms: C16_39  and  O6_40 
REMARK   16  A    between atoms: C16_39  and  O7_42 
REMARK   17  A    between atoms: C17_44  and  C18_45 
REMARK   18  A    between atoms: C18_45  and  C19_46 
REMARK   19  A    between atoms: C19_46  and  N9_47 
REMARK   20  A    between atoms: C20_50  and  N10_51 
ROOT
HETATM    1  C9  UNL     1      57.654  42.457  55.919  1.00  0.00     0.172 C 
HETATM    2  C10 UNL     1      56.496  42.972  55.090  1.00  0.00     0.176 C 
HETATM    3  C11 UNL     1      56.852  42.618  53.644  1.00  0.00     0.161 C 
HETATM    4  C12 UNL     1      58.116  41.806  53.707  1.00  0.00     0.091 C 
HETATM    5  C14 UNL     1      58.324  41.390  55.122  1.00  0.00     0.049 C 
ENDROOT
BRANCH   1   6
HETATM    6  N5  UNL     1      57.360  42.183  57.282  1.00  0.00    -0.314 N 
HETATM    7  C6  UNL     1      57.726  42.978  58.308  1.00  0.00     0.141 A 
HETATM    8  N3  UNL     1      58.414  44.154  58.386  1.00  0.00    -0.330 N 
HETATM    9  C7  UNL     1      57.282  42.439  59.495  1.00  0.00     0.122 A 
HETATM   10  C5  UNL     1      58.678  44.799  59.513  1.00  0.00     0.085 A 
ATOM     11  H3  UNL     1      58.749  44.565  57.515  1.00  0.00     0.168 HD
HETATM   12  N11 UNL     1      58.247  44.278  60.676  1.00  0.00    -0.330 N 
HETATM   13  C20 UNL     1      57.550  43.100  60.670  1.00  0.00     0.131 A 
ATOM     14  H11 UNL     1      58.439  44.757  61.557  1.00  0.00     0.168 HD
HETATM   15  N4  UNL     1      56.647  41.309  59.144  1.00  0.00    -0.346 N 
HETATM   16  C8  UNL     1      56.691  41.149  57.812  1.00  0.00     0.186 A 
ATOM     17  H4  UNL     1      56.197  40.666  59.794  1.00  0.00     0.167 HD
BRANCH  10  18
HETATM   18  C4  UNL     1      59.438  46.089  59.548  1.00  0.00     0.091 C 
BRANCH  18  19
HETATM   19  C3  UNL     1      60.922  45.821  59.630  1.00  0.00     0.140 C 
BRANCH  19  20
HETATM   20  S1  UNL     1      61.636  45.965  58.011  1.00  0.00     0.126 S 
HETATM   21  O2  UNL     1      61.152  44.713  57.007  1.00  0.00    -0.235 OA
BRANCH  20  22
HETATM   22  N2  UNL     1      61.214  47.448  57.272  1.00  0.00    -0.250 N 
ATOM     23  H2  UNL     1      61.346  48.354  57.721  1.00  0.00     0.193 HD
BRANCH  22  24
HETATM   24  N1  UNL     1      60.672  47.300  55.999  1.00  0.00    -0.102 NA
BRANCH  24  25
HETATM   25  C2  UNL     1      59.228  47.372  56.126  1.00  0.00     0.227 C 
HETATM   26  C1  UNL     1      58.611  48.334  55.163  1.00  0.00     0.060 C 
BRANCH  25  27
HETATM   27  O1  UNL     1      58.698  46.097  55.953  1.00  0.00    -0.378 OA
ATOM     28  H1  UNL     1      58.735  45.607  56.765  1.00  0.00     0.211 HD
ENDBRANCH  25  27
ENDBRANCH  24  25
ENDBRANCH  22  24
ENDBRANCH  20  22
ENDBRANCH  19  20
ENDBRANCH  18  19
ENDBRANCH  10  18
BRANCH  13  29
HETATM   29  N10 UNL     1      57.137  42.599  61.775  1.00  0.00    -0.383 N 
ATOM     30 2H10 UNL     1      56.550  41.765  61.765  1.00  0.00     0.157 HD
ATOM     31 1H10 UNL     1      57.405  43.045  62.652  1.00  0.00     0.157 HD
ENDBRANCH  13  29
ENDBRANCH   1   6
BRANCH   2  32
HETATM   32  O3  UNL     1      56.319  44.352  55.183  1.00  0.00    -0.391 OA
ATOM     33  H3  UNL     1      55.468  44.601  55.525  1.00  0.00     0.210 HD
ENDBRANCH   2  32
BRANCH   5  34
HETATM   34  N6  UNL     1      58.226  40.042  55.507  1.00  0.00    -0.237 N 
HETATM   35  N7  UNL     1      57.066  39.363  55.689  1.00  0.00    -0.235 N 
HETATM   36  N8  UNL     1      57.212  38.142  56.043  1.00  0.00    -0.282 N 
ATOM     37  H7  UNL     1      56.150  39.791  55.554  1.00  0.00     0.209 HD
HETATM   38  C15 UNL     1      58.505  37.896  56.130  1.00  0.00     0.119 A 
ATOM     39  H8  UNL     1      56.462  37.476  56.225  1.00  0.00     0.188 HD
HETATM   40  C17 UNL     1      59.137  39.081  55.795  1.00  0.00     0.141 A 
BRANCH  38  41
HETATM   41  C16 UNL     1      59.114  36.597  56.511  1.00  0.00     0.309 C 
BRANCH  41  42
HETATM   42  O6  UNL     1      59.974  36.158  55.504  1.00  0.00    -0.366 OA
ATOM     43  H6  UNL     1      60.805  36.613  55.564  1.00  0.00     0.213 HD
ENDBRANCH  41  42
BRANCH  41  44
HETATM   44  O7  UNL     1      58.119  35.608  56.634  1.00  0.00    -0.366 OA
ATOM     45  H7  UNL     1      57.962  35.194  55.794  1.00  0.00     0.213 HD
ENDBRANCH  41  44
ENDBRANCH  38  41
BRANCH  40  46
HETATM   46  C18 UNL     1      60.536  39.232  55.770  1.00  0.00    -0.022 C 
BRANCH  46  47
HETATM   47  C19 UNL     1      61.715  39.341  55.736  1.00  0.00     0.010 C 
BRANCH  47  48
HETATM   48  N9  UNL     1      63.108  39.447  55.709  1.00  0.00    -0.359 N 
ATOM     49  H92 UNL     1      62.361  39.556  56.394  1.00  0.00     0.166 HD
ATOM     50  H91 UNL     1      64.124  39.521  55.671  1.00  0.00     0.166 HD
ENDBRANCH  47  48
ENDBRANCH  46  47
ENDBRANCH  40  46
ENDBRANCH   5  34
BRANCH   3  51
HETATM   51  O4  UNL     1      56.930  43.765  52.891  1.00  0.00    -0.392 OA
ATOM     52  H4  UNL     1      57.710  43.742  52.351  1.00  0.00     0.210 HD
ENDBRANCH   3  51
BRANCH   4  53
HETATM   53  C13 UNL     1      58.266  40.771  52.651  1.00  0.00     0.177 C 
BRANCH  53  54
HETATM   54  O5  UNL     1      58.399  41.345  51.371  1.00  0.00    -0.400 OA
ATOM     55  H5  UNL     1      59.241  41.144  50.979  1.00  0.00     0.209 HD
ENDBRANCH  53  54
ENDBRANCH   4  53
TORSDOF 20
ENDMDL
MODEL 5
REMARK VINA RESULT: -7.320225898      3.212      6.483
REMARK  20 active torsions:
REMARK  status: ('A' for Active; 'I' for Inactive)
REMARK    1  A    between atoms: C2_2  and  O1_3 
REMARK    2  A    between atoms: C2_2  and  N1_5 
REMARK    3  A    between atoms: N1_5  and  N2_6 
REMARK    4  A    between atoms: N2_6  and  S1_8 
REMARK    5  A    between atoms: S1_8  and  C3_10 
REMARK    6  A    between atoms: C3_10  and  C4_11 
REMARK    7  A    between atoms: C4_11  and  C5_12 
REMARK    8  A    between atoms: N5_20  and  C9_21 
REMARK    9  A    between atoms: C10_22  and  O3_23 
REMARK   10  A    between atoms: C11_25  and  O4_26 
REMARK   11  A    between atoms: C12_28  and  C13_29 
REMARK   12  A    between atoms: C13_29  and  O5_30 
REMARK   13  A    between atoms: C14_32  and  N6_33 
REMARK   14  A    between atoms: C15_38  and  C16_39 
REMARK   15  A    between atoms: C16_39  and  O6_40 
REMARK   16  A    between atoms: C16_39  and  O7_42 
REMARK   17  A    between atoms: C17_44  and  C18_45 
REMARK   18  A    between atoms: C18_45  and  C19_46 
REMARK   19  A    between atoms: C19_46  and  N9_47 
REMARK   20  A    between atoms: C20_50  and  N10_51 
ROOT
HETATM    1  C9  UNL     1      57.612  42.039  55.704  1.00  0.00     0.172 C 
HETATM    2  C10 UNL     1      56.485  42.609  54.870  1.00  0.00     0.176 C 
HETATM    3  C11 UNL     1      56.808  42.204  53.430  1.00  0.00     0.161 C 
HETATM    4  C12 UNL     1      58.018  41.314  53.504  1.00  0.00     0.091 C 
HETATM    5  C14 UNL     1      58.208  40.914  54.926  1.00  0.00     0.049 C 
ENDROOT
BRANCH   1   6
HETATM    6  N5  UNL     1      57.310  41.812  57.074  1.00  0.00    -0.314 N 
HETATM    7  C6  UNL     1      57.628  42.665  58.068  1.00  0.00     0.141 A 
HETATM    8  N3  UNL     1      58.265  43.871  58.103  1.00  0.00    -0.330 N 
HETATM    9  C7  UNL     1      57.189  42.161  59.273  1.00  0.00     0.122 A 
HETATM   10  C5  UNL     1      58.486  44.576  59.204  1.00  0.00     0.085 A 
ATOM     11  H3  UNL     1      58.595  44.258  57.219  1.00  0.00     0.168 HD
HETATM   12  N11 UNL     1      58.060  44.088  60.384  1.00  0.00    -0.330 N 
HETATM   13  C20 UNL     1      57.413  42.882  60.420  1.00  0.00     0.131 A 
ATOM     14  H11 UNL     1      58.219  44.612  61.244  1.00  0.00     0.168 HD
HETATM   15  N4  UNL     1      56.607  40.990  58.963  1.00  0.00    -0.346 N 
HETATM   16  C8  UNL     1      56.678  40.775  57.640  1.00  0.00     0.186 A 
ATOM     17  H4  UNL     1      56.175  40.358  59.636  1.00  0.00     0.167 HD
BRANCH  10  18
HETATM   18  C4  UNL     1      59.191  45.897  59.191  1.00  0.00     0.091 C 
BRANCH  18  19
HETATM   19  C3  UNL     1      59.754  46.177  57.818  1.00  0.00     0.140 C 
BRANCH  19  20
HETATM   20  S1  UNL     1      61.523  46.042  57.869  1.00  0.00     0.126 S 
HETATM   21  O2  UNL     1      62.106  46.127  59.439  1.00  0.00    -0.235 OA
BRANCH  20  22
HETATM   22  N2  UNL     1      62.057  44.576  57.170  1.00  0.00    -0.250 N 
ATOM     23  H2  UNL     1      63.042  44.336  57.056  1.00  0.00     0.193 HD
BRANCH  22  24
HETATM   24  N1  UNL     1      61.018  43.741  56.769  1.00  0.00    -0.102 NA
BRANCH  24  25
HETATM   25  C2  UNL     1      61.578  42.423  56.537  1.00  0.00     0.227 C 
HETATM   26  C1  UNL     1      60.947  41.368  57.387  1.00  0.00     0.060 C 
BRANCH  25  27
HETATM   27  O1  UNL     1      61.444  42.111  55.188  1.00  0.00    -0.378 OA
ATOM     28  H1  UNL     1      60.527  42.080  54.941  1.00  0.00     0.211 HD
ENDBRANCH  25  27
ENDBRANCH  24  25
ENDBRANCH  22  24
ENDBRANCH  20  22
ENDBRANCH  19  20
ENDBRANCH  18  19
ENDBRANCH  10  18
BRANCH  13  29
HETATM   29  N10 UNL     1      57.005  42.413  61.541  1.00  0.00    -0.383 N 
ATOM     30 2H10 UNL     1      56.006  42.370  61.738  1.00  0.00     0.157 HD
ATOM     31 1H10 UNL     1      57.691  42.088  62.221  1.00  0.00     0.157 HD
ENDBRANCH  13  29
ENDBRANCH   1   6
BRANCH   2  32
HETATM   32  O3  UNL     1      56.397  44.000  54.935  1.00  0.00    -0.391 OA
ATOM     33  H3  UNL     1      56.059  44.317  55.765  1.00  0.00     0.210 HD
ENDBRANCH   2  32
BRANCH   5  34
HETATM   34  N6  UNL     1      58.026  39.584  55.340  1.00  0.00    -0.237 N 
HETATM   35  N7  UNL     1      56.833  39.015  55.642  1.00  0.00    -0.235 N 
HETATM   36  N8  UNL     1      56.902  37.788  55.999  1.00  0.00    -0.282 N 
ATOM     37  H7  UNL     1      55.951  39.524  55.589  1.00  0.00     0.209 HD
HETATM   38  C15 UNL     1      58.170  37.426  55.966  1.00  0.00     0.119 A 
ATOM     39  H8  UNL     1      56.116  37.195  56.263  1.00  0.00     0.188 HD
HETATM   40  C17 UNL     1      58.871  38.546  55.554  1.00  0.00     0.141 A 
BRANCH  38  41
HETATM   41  C16 UNL     1      58.694  36.080  56.308  1.00  0.00     0.309 C 
BRANCH  41  42
HETATM   42  O6  UNL     1      59.521  35.615  55.285  1.00  0.00    -0.366 OA
ATOM     43  H6  UNL     1      60.241  36.220  55.149  1.00  0.00     0.213 HD
ENDBRANCH  41  42
BRANCH  41  44
HETATM   44  O7  UNL     1      57.636  35.154  56.405  1.00  0.00    -0.366 OA
ATOM     45  H7  UNL     1      57.702  34.506  55.714  1.00  0.00     0.213 HD
ENDBRANCH  41  44
ENDBRANCH  38  41
BRANCH  40  46
HETATM   46  C18 UNL     1      60.269  38.569  55.393  1.00  0.00    -0.022 C 
BRANCH  46  47
HETATM   47  C19 UNL     1      61.447  38.568  55.270  1.00  0.00     0.010 C 
BRANCH  47  48
HETATM   48  N9  UNL     1      62.836  38.593  55.122  1.00  0.00    -0.359 N 
ATOM     49  H92 UNL     1      62.021  38.920  54.603  1.00  0.00     0.166 HD
ATOM     50  H91 UNL     1      63.851  38.601  55.030  1.00  0.00     0.166 HD
ENDBRANCH  47  48
ENDBRANCH  46  47
ENDBRANCH  40  46
ENDBRANCH   5  34
BRANCH   3  51
HETATM   51  O4  UNL     1      56.954  43.328  52.653  1.00  0.00    -0.392 OA
ATOM     52  H4  UNL     1      57.874  43.548  52.577  1.00  0.00     0.210 HD
ENDBRANCH   3  51
BRANCH   4  53
HETATM   53  C13 UNL     1      58.095  40.250  52.469  1.00  0.00     0.177 C 
BRANCH  53  54
HETATM   54  O5  UNL     1      59.076  40.535  51.498  1.00  0.00    -0.400 OA
ATOM     55  H5  UNL     1      58.886  41.340  51.031  1.00  0.00     0.209 HD
ENDBRANCH  53  54
ENDBRANCH   4  53
TORSDOF 20
ENDMDL
