MODEL 1
REMARK VINA RESULT: -10.176546767      0.000      0.000
REMARK  14 active torsions:
REMARK  status: ('A' for Active; 'I' for Inactive)
REMARK    1  A    between atoms: N5_15  and  C6_16 
REMARK    2  A    between atoms: C7_18  and  N6_19 
REMARK    3  A    between atoms: C8_22  and  C9_23 
REMARK    4  A    between atoms: C9_23  and  O2_24 
REMARK    5  A    between atoms: C9_23  and  N8_26 
REMARK    6  A    between atoms: N8_26  and  C10_28 
REMARK    7  A    between atoms: C10_28  and  C11_29 
REMARK    8  A    between atoms: C10_28  and  C12_32 
REMARK    9  A    between atoms: C12_32  and  O4_33 
REMARK   10  A    between atoms: C12_32  and  C13_35 
REMARK   11  A    between atoms: C13_35  and  N10_36 
REMARK   12  A    between atoms: C16_51  and  O5_52 
REMARK   13  A    between atoms: C17_54  and  N16_55 
REMARK   14  A    between atoms: C18_59  and  O6_60 
ROOT
HETATM    1  N6  UNL     1      58.382  44.735  57.892  1.00  0.00    -0.239 N 
HETATM    2  N7  UNL     1      58.594  45.545  56.826  1.00  0.00    -0.279 N 
ATOM      3  H7  UNL     1      58.557  45.244  55.853  1.00  0.00     0.188 HD
HETATM    4  C8  UNL     1      58.855  46.777  57.219  1.00  0.00     0.147 A 
HETATM    5  N11 UNL     1      58.811  46.773  58.534  1.00  0.00    -0.323 N 
ATOM      6  H11 UNL     1      58.968  47.577  59.141  1.00  0.00     0.169 HD
HETATM    7  C14 UNL     1      58.522  45.510  58.942  1.00  0.00     0.173 A 
HETATM    8  C15 UNL     1      58.425  45.164  60.336  1.00  0.00     0.180 A 
HETATM    9  N12 UNL     1      58.601  45.984  61.368  1.00  0.00    -0.264 N 
ATOM     10  H12 UNL     1      58.836  46.974  61.289  1.00  0.00     0.186 HD
HETATM   11  N13 UNL     1      58.429  45.339  62.520  1.00  0.00    -0.005 NA
HETATM   12  N14 UNL     1      58.140  44.084  62.179  1.00  0.00    -0.225 N 
ATOM     13  H14 UNL     1      57.949  43.323  62.831  1.00  0.00     0.205 HD
HETATM   14  N15 UNL     1      58.139  43.985  60.864  1.00  0.00    -0.268 N 
ATOM     15  H15 UNL     1      57.947  43.133  60.336  1.00  0.00     0.190 HD
ENDROOT
BRANCH   1  16
HETATM   16  C7  UNL     1      58.094  43.356  57.718  1.00  0.00     0.279 C 
HETATM   17  O1  UNL     1      59.251  42.613  57.673  1.00  0.00    -0.335 OA
HETATM   18  C6  UNL     1      59.046  41.248  57.533  1.00  0.00     0.264 C 
HETATM   19  C18 UNL     1      57.668  40.828  57.180  1.00  0.00     0.200 C 
HETATM   20  C17 UNL     1      56.679  41.346  58.148  1.00  0.00     0.249 C 
HETATM   21  C16 UNL     1      57.051  42.743  58.591  1.00  0.00     0.202 C 
BRANCH  18  22
HETATM   22  N5  UNL     1      60.036  40.692  56.579  1.00  0.00    -0.297 N 
HETATM   23  C3  UNL     1      60.409  39.418  56.408  1.00  0.00     0.142 A 
HETATM   24  N3  UNL     1      60.020  38.280  57.017  1.00  0.00    -0.336 N 
HETATM   25  C4  UNL     1      61.357  39.321  55.422  1.00  0.00     0.122 A 
HETATM   26  C2  UNL     1      60.510  37.064  56.710  1.00  0.00     0.183 A 
ATOM     27  H3  UNL     1      59.315  38.343  57.752  1.00  0.00     0.168 HD
HETATM   28  N2  UNL     1      61.442  36.972  55.740  1.00  0.00    -0.337 N 
HETATM   29  C1  UNL     1      61.861  38.084  55.104  1.00  0.00     0.131 A 
ATOM     30  H2  UNL     1      61.830  36.062  55.488  1.00  0.00     0.168 HD
HETATM   31  N1  UNL     1      62.745  37.990  54.163  1.00  0.00    -0.383 N 
ATOM     32  H12 UNL     1      63.119  37.071  53.926  1.00  0.00     0.157 HD
ATOM     33  H11 UNL     1      63.061  38.832  53.681  1.00  0.00     0.157 HD
HETATM   34  N4  UNL     1      61.563  40.584  54.985  1.00  0.00    -0.346 N 
HETATM   35  C5  UNL     1      60.759  41.396  55.695  1.00  0.00     0.188 A 
ATOM     36  H4  UNL     1      62.211  40.870  54.251  1.00  0.00     0.167 HD
ENDBRANCH  18  22
BRANCH  19  37
HETATM   37  O6  UNL     1      57.325  41.005  55.837  1.00  0.00    -0.389 OA
ATOM     38  H6  UNL     1      56.398  41.133  55.675  1.00  0.00     0.210 HD
ENDBRANCH  19  37
BRANCH  20  39
HETATM   39  N16 UNL     1      55.320  41.340  57.607  1.00  0.00    -0.070 N 
ATOM     40 3H16 UNL     1      54.982  42.283  57.413  1.00  0.00     0.274 HD
ATOM     41 2H16 UNL     1      55.289  40.972  56.656  1.00  0.00     0.274 HD
ATOM     42 1H16 UNL     1      54.698  40.831  58.235  1.00  0.00     0.274 HD
ENDBRANCH  20  39
BRANCH  21  43
HETATM   43  O5  UNL     1      55.858  43.486  58.442  1.00  0.00    -0.389 OA
ATOM     44  H5  UNL     1      55.742  43.679  57.519  1.00  0.00     0.210 HD
ENDBRANCH  21  43
ENDBRANCH   1  16
BRANCH   4  45
HETATM   45  C9  UNL     1      59.184  47.887  56.302  1.00  0.00     0.284 C 
BRANCH  45  46
HETATM   46  O2  UNL     1      59.963  47.264  55.268  1.00  0.00    -0.370 OA
ATOM     47  H2  UNL     1      60.172  47.977  54.676  1.00  0.00     0.212 HD
ENDBRANCH  45  46
BRANCH  45  48
HETATM   48  N8  UNL     1      58.151  48.546  55.647  1.00  0.00    -0.376 N 
ATOM     49  H8  UNL     1      57.713  49.339  56.115  1.00  0.00     0.157 HD
BRANCH  48  50
HETATM   50  C10 UNL     1      57.679  48.182  54.382  1.00  0.00     0.199 C 
BRANCH  50  51
HETATM   51  C11 UNL     1      56.434  47.395  54.345  1.00  0.00     0.256 C 
HETATM   52  N9  UNL     1      56.364  46.368  53.361  1.00  0.00    -0.060 NA
HETATM   53  O3  UNL     1      55.446  47.535  55.084  1.00  0.00    -0.274 OA
ENDBRANCH  50  51
BRANCH  50  54
HETATM   54  C12 UNL     1      57.408  49.452  53.548  1.00  0.00     0.174 C 
BRANCH  54  55
HETATM   55  O4  UNL     1      56.234  49.300  52.855  1.00  0.00    -0.391 OA
ATOM     56  H4  UNL     1      55.835  50.151  52.719  1.00  0.00     0.210 HD
ENDBRANCH  54  55
BRANCH  54  57
HETATM   57  C13 UNL     1      58.529  49.733  52.597  1.00  0.00     0.263 C 
BRANCH  57  58
HETATM   58  N10 UNL     1      59.512  48.676  52.565  1.00  0.00    -0.077 N 
ATOM     59 3H10 UNL     1      60.458  49.055  52.608  1.00  0.00     0.274 HD
ATOM     60 2H10 UNL     1      59.507  48.145  53.436  1.00  0.00     0.274 HD
ATOM     61 1H10 UNL     1      59.402  48.060  51.759  1.00  0.00     0.274 HD
ENDBRANCH  57  58
ENDBRANCH  54  57
ENDBRANCH  50  54
ENDBRANCH  48  50
ENDBRANCH  45  48
ENDBRANCH   4  45
TORSDOF 14
ENDMDL
MODEL 2
REMARK VINA RESULT: -10.133379598      2.527      7.632
REMARK  14 active torsions:
REMARK  status: ('A' for Active; 'I' for Inactive)
REMARK    1  A    between atoms: N5_15  and  C6_16 
REMARK    2  A    between atoms: C7_18  and  N6_19 
REMARK    3  A    between atoms: C8_22  and  C9_23 
REMARK    4  A    between atoms: C9_23  and  O2_24 
REMARK    5  A    between atoms: C9_23  and  N8_26 
REMARK    6  A    between atoms: N8_26  and  C10_28 
REMARK    7  A    between atoms: C10_28  and  C11_29 
REMARK    8  A    between atoms: C10_28  and  C12_32 
REMARK    9  A    between atoms: C12_32  and  O4_33 
REMARK   10  A    between atoms: C12_32  and  C13_35 
REMARK   11  A    between atoms: C13_35  and  N10_36 
REMARK   12  A    between atoms: C16_51  and  O5_52 
REMARK   13  A    between atoms: C17_54  and  N16_55 
REMARK   14  A    between atoms: C18_59  and  O6_60 
ROOT
HETATM    1  N6  UNL     1      58.205  42.853  55.467  1.00  0.00    -0.239 N 
HETATM    2  N7  UNL     1      58.976  42.225  54.545  1.00  0.00    -0.279 N 
ATOM      3  H7  UNL     1      59.682  42.685  53.971  1.00  0.00     0.188 HD
HETATM    4  C8  UNL     1      58.688  40.939  54.491  1.00  0.00     0.147 A 
HETATM    5  N11 UNL     1      57.737  40.726  55.375  1.00  0.00    -0.323 N 
ATOM      6  H11 UNL     1      57.298  39.828  55.577  1.00  0.00     0.169 HD
HETATM    7  C14 UNL     1      57.443  41.910  55.971  1.00  0.00     0.173 A 
HETATM    8  C15 UNL     1      56.419  42.022  56.976  1.00  0.00     0.180 A 
HETATM    9  N12 UNL     1      55.653  41.037  57.438  1.00  0.00    -0.264 N 
ATOM     10  H12 UNL     1      55.699  40.069  57.120  1.00  0.00     0.186 HD
HETATM   11  N13 UNL     1      54.815  41.486  58.371  1.00  0.00    -0.005 NA
HETATM   12  N14 UNL     1      55.080  42.787  58.482  1.00  0.00    -0.225 N 
ATOM     13  H14 UNL     1      54.610  43.434  59.116  1.00  0.00     0.205 HD
HETATM   14  N15 UNL     1      56.045  43.103  57.641  1.00  0.00    -0.268 N 
ATOM     15  H15 UNL     1      56.442  44.036  57.521  1.00  0.00     0.190 HD
ENDROOT
BRANCH   1  16
HETATM   16  C7  UNL     1      58.326  44.248  55.697  1.00  0.00     0.279 C 
HETATM   17  O1  UNL     1      59.540  44.549  56.271  1.00  0.00    -0.335 OA
HETATM   18  C6  UNL     1      59.741  45.901  56.501  1.00  0.00     0.264 C 
HETATM   19  C18 UNL     1      58.549  46.772  56.361  1.00  0.00     0.200 C 
HETATM   20  C17 UNL     1      57.918  46.619  55.033  1.00  0.00     0.249 C 
HETATM   21  C16 UNL     1      57.971  45.175  54.584  1.00  0.00     0.202 C 
BRANCH  18  22
HETATM   22  N5  UNL     1      60.391  46.090  57.820  1.00  0.00    -0.297 N 
HETATM   23  C3  UNL     1      60.083  45.525  58.994  1.00  0.00     0.142 A 
HETATM   24  N3  UNL     1      59.127  44.639  59.339  1.00  0.00    -0.336 N 
HETATM   25  C4  UNL     1      60.927  45.967  59.979  1.00  0.00     0.122 A 
HETATM   26  C2  UNL     1      58.961  44.170  60.590  1.00  0.00     0.183 A 
ATOM     27  H3  UNL     1      58.494  44.305  58.612  1.00  0.00     0.168 HD
HETATM   28  N2  UNL     1      59.794  44.607  61.558  1.00  0.00    -0.337 N 
HETATM   29  C1  UNL     1      60.764  45.493  61.257  1.00  0.00     0.131 A 
ATOM     30  H2  UNL     1      59.690  44.267  62.514  1.00  0.00     0.168 HD
HETATM   31  N1  UNL     1      61.570  45.898  62.185  1.00  0.00    -0.383 N 
ATOM     32  H12 UNL     1      61.449  45.546  63.134  1.00  0.00     0.157 HD
ATOM     33  H11 UNL     1      62.305  46.569  61.958  1.00  0.00     0.157 HD
HETATM   34  N4  UNL     1      61.774  46.833  59.376  1.00  0.00    -0.346 N 
HETATM   35  C5  UNL     1      61.435  46.894  58.076  1.00  0.00     0.188 A 
ATOM     36  H4  UNL     1      62.533  47.345  59.825  1.00  0.00     0.167 HD
ENDBRANCH  18  22
BRANCH  19  37
HETATM   37  O6  UNL     1      57.663  46.734  57.441  1.00  0.00    -0.389 OA
ATOM     38  H6  UNL     1      57.654  45.913  57.921  1.00  0.00     0.210 HD
ENDBRANCH  19  37
BRANCH  20  39
HETATM   39  N16 UNL     1      56.536  47.094  55.019  1.00  0.00    -0.070 N 
ATOM     40 3H16 UNL     1      56.227  47.346  54.080  1.00  0.00     0.274 HD
ATOM     41 2H16 UNL     1      55.870  46.342  55.198  1.00  0.00     0.274 HD
ATOM     42 1H16 UNL     1      56.427  47.865  55.678  1.00  0.00     0.274 HD
ENDBRANCH  20  39
BRANCH  21  43
HETATM   43  O5  UNL     1      56.648  44.889  54.176  1.00  0.00    -0.389 OA
ATOM     44  H5  UNL     1      56.689  44.377  53.376  1.00  0.00     0.210 HD
ENDBRANCH  21  43
ENDBRANCH   1  16
BRANCH   4  45
HETATM   45  C9  UNL     1      59.314  39.990  53.549  1.00  0.00     0.284 C 
BRANCH  45  46
HETATM   46  O2  UNL     1      59.145  40.611  52.265  1.00  0.00    -0.370 OA
ATOM     47  H2  UNL     1      59.448  39.954  51.649  1.00  0.00     0.212 HD
ENDBRANCH  45  46
BRANCH  45  48
HETATM   48  N8  UNL     1      60.674  39.729  53.663  1.00  0.00    -0.376 N 
ATOM     49  H8  UNL     1      61.273  39.942  52.865  1.00  0.00     0.157 HD
BRANCH  48  50
HETATM   50  C10 UNL     1      61.267  39.190  54.809  1.00  0.00     0.199 C 
BRANCH  50  51
HETATM   51  C11 UNL     1      61.943  37.891  54.651  1.00  0.00     0.256 C 
HETATM   52  N9  UNL     1      61.627  36.892  55.616  1.00  0.00    -0.060 NA
HETATM   53  O3  UNL     1      62.755  37.579  53.765  1.00  0.00    -0.274 OA
ENDBRANCH  50  51
BRANCH  50  54
HETATM   54  C12 UNL     1      62.335  40.166  55.345  1.00  0.00     0.174 C 
BRANCH  54  55
HETATM   55  O4  UNL     1      63.443  39.460  55.735  1.00  0.00    -0.391 OA
ATOM     56  H4  UNL     1      63.359  39.221  56.650  1.00  0.00     0.210 HD
ENDBRANCH  54  55
BRANCH  54  57
HETATM   57  C13 UNL     1      61.814  40.972  56.493  1.00  0.00     0.263 C 
BRANCH  57  58
HETATM   58  N10 UNL     1      61.933  42.396  56.276  1.00  0.00    -0.077 N 
ATOM     59 3H10 UNL     1      62.430  42.842  57.047  1.00  0.00     0.274 HD
ATOM     60 2H10 UNL     1      62.587  42.597  55.520  1.00  0.00     0.274 HD
ATOM     61 1H10 UNL     1      61.033  42.846  56.112  1.00  0.00     0.274 HD
ENDBRANCH  57  58
ENDBRANCH  54  57
ENDBRANCH  50  54
ENDBRANCH  48  50
ENDBRANCH  45  48
ENDBRANCH   4  45
TORSDOF 14
ENDMDL
MODEL 3
REMARK VINA RESULT: -10.022679578      2.488      5.049
REMARK  14 active torsions:
REMARK  status: ('A' for Active; 'I' for Inactive)
REMARK    1  A    between atoms: N5_15  and  C6_16 
REMARK    2  A    between atoms: C7_18  and  N6_19 
REMARK    3  A    between atoms: C8_22  and  C9_23 
REMARK    4  A    between atoms: C9_23  and  O2_24 
REMARK    5  A    between atoms: C9_23  and  N8_26 
REMARK    6  A    between atoms: N8_26  and  C10_28 
REMARK    7  A    between atoms: C10_28  and  C11_29 
REMARK    8  A    between atoms: C10_28  and  C12_32 
REMARK    9  A    between atoms: C12_32  and  O4_33 
REMARK   10  A    between atoms: C12_32  and  C13_35 
REMARK   11  A    between atoms: C13_35  and  N10_36 
REMARK   12  A    between atoms: C16_51  and  O5_52 
REMARK   13  A    between atoms: C17_54  and  N16_55 
REMARK   14  A    between atoms: C18_59  and  O6_60 
ROOT
HETATM    1  N6  UNL     1      58.018  44.527  57.975  1.00  0.00    -0.239 N 
HETATM    2  N7  UNL     1      58.018  45.076  59.214  1.00  0.00    -0.279 N 
ATOM      3  H7  UNL     1      57.872  44.555  60.078  1.00  0.00     0.188 HD
HETATM    4  C8  UNL     1      58.233  46.376  59.151  1.00  0.00     0.147 A 
HETATM    5  N11 UNL     1      58.375  46.676  57.878  1.00  0.00    -0.323 N 
ATOM      6  H11 UNL     1      58.555  47.605  57.497  1.00  0.00     0.169 HD
HETATM    7  C14 UNL     1      58.239  45.532  57.158  1.00  0.00     0.173 A 
HETATM    8  C15 UNL     1      58.319  45.523  55.721  1.00  0.00     0.180 A 
HETATM    9  N12 UNL     1      58.520  46.576  54.934  1.00  0.00    -0.264 N 
ATOM     10  H12 UNL     1      58.638  47.533  55.265  1.00  0.00     0.186 HD
HETATM   11  N13 UNL     1      58.547  46.211  53.653  1.00  0.00    -0.005 NA
HETATM   12  N14 UNL     1      58.355  44.893  53.660  1.00  0.00    -0.225 N 
ATOM     13  H14 UNL     1      58.320  44.296  52.834  1.00  0.00     0.205 HD
HETATM   14  N15 UNL     1      58.219  44.485  54.907  1.00  0.00    -0.268 N 
ATOM     15  H15 UNL     1      58.061  43.519  55.198  1.00  0.00     0.190 HD
ENDROOT
BRANCH   1  16
HETATM   16  C7  UNL     1      57.796  43.138  57.788  1.00  0.00     0.279 C 
HETATM   17  O1  UNL     1      58.987  42.454  57.716  1.00  0.00    -0.335 OA
HETATM   18  C6  UNL     1      58.848  41.083  57.561  1.00  0.00     0.264 C 
HETATM   19  C18 UNL     1      57.488  40.599  57.222  1.00  0.00     0.200 C 
HETATM   20  C17 UNL     1      56.488  41.055  58.211  1.00  0.00     0.249 C 
HETATM   21  C16 UNL     1      56.797  42.463  58.666  1.00  0.00     0.202 C 
BRANCH  18  22
HETATM   22  N5  UNL     1      59.851  40.589  56.587  1.00  0.00    -0.297 N 
HETATM   23  C3  UNL     1      60.304  39.341  56.412  1.00  0.00     0.142 A 
HETATM   24  N3  UNL     1      60.005  38.183  57.034  1.00  0.00    -0.336 N 
HETATM   25  C4  UNL     1      61.233  39.302  55.405  1.00  0.00     0.122 A 
HETATM   26  C2  UNL     1      60.567  37.000  56.720  1.00  0.00     0.183 A 
ATOM     27  H3  UNL     1      59.314  38.203  57.784  1.00  0.00     0.168 HD
HETATM   28  N2  UNL     1      61.481  36.965  55.728  1.00  0.00    -0.337 N 
HETATM   29  C1  UNL     1      61.810  38.100  55.079  1.00  0.00     0.131 A 
ATOM     30  H2  UNL     1      61.922  36.082  55.471  1.00  0.00     0.168 HD
HETATM   31  N1  UNL     1      62.677  38.059  54.119  1.00  0.00    -0.383 N 
ATOM     32  H12 UNL     1      63.105  37.166  53.877  1.00  0.00     0.157 HD
ATOM     33  H11 UNL     1      62.926  38.918  53.627  1.00  0.00     0.157 HD
HETATM   34  N4  UNL     1      61.345  40.574  54.959  1.00  0.00    -0.346 N 
HETATM   35  C5  UNL     1      60.506  41.334  55.684  1.00  0.00     0.188 A 
ATOM     36  H4  UNL     1      61.956  40.898  54.209  1.00  0.00     0.167 HD
ENDBRANCH  18  22
BRANCH  19  37
HETATM   37  O6  UNL     1      57.118  40.775  55.886  1.00  0.00    -0.389 OA
ATOM     38  H6  UNL     1      56.315  41.266  55.756  1.00  0.00     0.210 HD
ENDBRANCH  19  37
BRANCH  20  39
HETATM   39  N16 UNL     1      55.124  40.988  57.688  1.00  0.00    -0.070 N 
ATOM     40 3H16 UNL     1      54.942  41.719  57.000  1.00  0.00     0.274 HD
ATOM     41 2H16 UNL     1      54.984  40.178  57.085  1.00  0.00     0.274 HD
ATOM     42 1H16 UNL     1      54.456  41.013  58.458  1.00  0.00     0.274 HD
ENDBRANCH  20  39
BRANCH  21  43
HETATM   43  O5  UNL     1      55.566  43.148  58.543  1.00  0.00    -0.389 OA
ATOM     44  H5  UNL     1      55.189  43.239  59.410  1.00  0.00     0.210 HD
ENDBRANCH  21  43
ENDBRANCH   1  16
BRANCH   4  45
HETATM   45  C9  UNL     1      58.238  47.273  60.324  1.00  0.00     0.284 C 
BRANCH  45  46
HETATM   46  O2  UNL     1      57.411  46.595  61.284  1.00  0.00    -0.370 OA
ATOM     47  H2  UNL     1      58.021  46.055  61.773  1.00  0.00     0.212 HD
ENDBRANCH  45  46
BRANCH  45  48
HETATM   48  N8  UNL     1      59.441  47.520  60.975  1.00  0.00    -0.376 N 
ATOM     49  H8  UNL     1      59.893  48.422  60.825  1.00  0.00     0.157 HD
BRANCH  48  50
HETATM   50  C10 UNL     1      60.065  46.601  61.824  1.00  0.00     0.199 C 
BRANCH  50  51
HETATM   51  C11 UNL     1      59.204  45.565  62.421  1.00  0.00     0.256 C 
HETATM   52  N9  UNL     1      58.548  45.911  63.636  1.00  0.00    -0.060 NA
HETATM   53  O3  UNL     1      58.992  44.427  61.971  1.00  0.00    -0.274 OA
ENDBRANCH  50  51
BRANCH  50  54
HETATM   54  C12 UNL     1      61.166  45.848  61.049  1.00  0.00     0.174 C 
BRANCH  54  55
HETATM   55  O4  UNL     1      62.119  45.400  61.928  1.00  0.00    -0.391 OA
ATOM     56  H4  UNL     1      62.903  45.161  61.448  1.00  0.00     0.210 HD
ENDBRANCH  54  55
BRANCH  54  57
HETATM   57  C13 UNL     1      61.801  46.721  60.012  1.00  0.00     0.263 C 
BRANCH  57  58
HETATM   58  N10 UNL     1      61.881  46.084  58.718  1.00  0.00    -0.077 N 
ATOM     59 3H10 UNL     1      62.815  45.712  58.551  1.00  0.00     0.274 HD
ATOM     60 2H10 UNL     1      61.352  45.212  58.706  1.00  0.00     0.274 HD
ATOM     61 1H10 UNL     1      61.591  46.698  57.957  1.00  0.00     0.274 HD
ENDBRANCH  57  58
ENDBRANCH  54  57
ENDBRANCH  50  54
ENDBRANCH  48  50
ENDBRANCH  45  48
ENDBRANCH   4  45
TORSDOF 14
ENDMDL
MODEL 4
REMARK VINA RESULT: -9.928960125      1.452      1.928
REMARK  14 active torsions:
REMARK  status: ('A' for Active; 'I' for Inactive)
REMARK    1  A    between atoms: N5_15  and  C6_16 
REMARK    2  A    between atoms: C7_18  and  N6_19 
REMARK    3  A    between atoms: C8_22  and  C9_23 
REMARK    4  A    between atoms: C9_23  and  O2_24 
REMARK    5  A    between atoms: C9_23  and  N8_26 
REMARK    6  A    between atoms: N8_26  and  C10_28 
REMARK    7  A    between atoms: C10_28  and  C11_29 
REMARK    8  A    between atoms: C10_28  and  C12_32 
REMARK    9  A    between atoms: C12_32  and  O4_33 
REMARK   10  A    between atoms: C12_32  and  C13_35 
REMARK   11  A    between atoms: C13_35  and  N10_36 
REMARK   12  A    between atoms: C16_51  and  O5_52 
REMARK   13  A    between atoms: C17_54  and  N16_55 
REMARK   14  A    between atoms: C18_59  and  O6_60 
ROOT
HETATM    1  N6  UNL     1      58.072  44.170  58.097  1.00  0.00    -0.239 N 
HETATM    2  N7  UNL     1      58.301  45.012  57.060  1.00  0.00    -0.279 N 
ATOM      3  H7  UNL     1      58.122  44.787  56.081  1.00  0.00     0.188 HD
HETATM    4  C8  UNL     1      58.787  46.161  57.487  1.00  0.00     0.147 A 
HETATM    5  N11 UNL     1      58.873  46.073  58.797  1.00  0.00    -0.323 N 
ATOM      6  H11 UNL     1      59.211  46.802  59.426  1.00  0.00     0.169 HD
HETATM    7  C14 UNL     1      58.432  44.842  59.167  1.00  0.00     0.173 A 
HETATM    8  C15 UNL     1      58.421  44.420  60.542  1.00  0.00     0.180 A 
HETATM    9  N12 UNL     1      58.822  45.132  61.592  1.00  0.00    -0.264 N 
ATOM     10  H12 UNL     1      59.198  46.078  61.540  1.00  0.00     0.186 HD
HETATM   11  N13 UNL     1      58.666  44.441  62.720  1.00  0.00    -0.005 NA
HETATM   12  N14 UNL     1      58.154  43.270  62.346  1.00  0.00    -0.225 N 
ATOM     13  H14 UNL     1      57.912  42.502  62.973  1.00  0.00     0.205 HD
HETATM   14  N15 UNL     1      58.008  43.263  61.035  1.00  0.00    -0.268 N 
ATOM     15  H15 UNL     1      57.635  42.488  60.486  1.00  0.00     0.190 HD
ENDROOT
BRANCH   1  16
HETATM   16  C7  UNL     1      57.557  42.865  57.884  1.00  0.00     0.279 C 
HETATM   17  O1  UNL     1      58.554  41.921  57.979  1.00  0.00    -0.335 OA
HETATM   18  C6  UNL     1      58.119  40.616  57.808  1.00  0.00     0.264 C 
HETATM   19  C18 UNL     1      56.742  40.449  57.285  1.00  0.00     0.200 C 
HETATM   20  C17 UNL     1      55.753  41.157  58.125  1.00  0.00     0.249 C 
HETATM   21  C16 UNL     1      56.320  42.471  58.617  1.00  0.00     0.202 C 
BRANCH  18  22
HETATM   22  N5  UNL     1      59.100  39.869  56.983  1.00  0.00    -0.297 N 
HETATM   23  C3  UNL     1      60.300  40.268  56.544  1.00  0.00     0.142 A 
HETATM   24  N3  UNL     1      60.975  41.423  56.705  1.00  0.00    -0.336 N 
HETATM   25  C4  UNL     1      60.897  39.278  55.806  1.00  0.00     0.122 A 
HETATM   26  C2  UNL     1      62.195  41.654  56.183  1.00  0.00     0.183 A 
ATOM     27  H3  UNL     1      60.538  42.165  57.252  1.00  0.00     0.168 HD
HETATM   28  N2  UNL     1      62.780  40.678  55.457  1.00  0.00    -0.337 N 
HETATM   29  C1  UNL     1      62.140  39.506  55.271  1.00  0.00     0.131 A 
ATOM     30  H2  UNL     1      63.704  40.827  55.051  1.00  0.00     0.168 HD
HETATM   31  N1  UNL     1      62.711  38.567  54.588  1.00  0.00    -0.383 N 
ATOM     32  H12 UNL     1      63.635  38.736  54.191  1.00  0.00     0.157 HD
ATOM     33  H11 UNL     1      62.227  37.679  54.447  1.00  0.00     0.157 HD
HETATM   34  N4  UNL     1      60.022  38.246  55.800  1.00  0.00    -0.346 N 
HETATM   35  C5  UNL     1      58.946  38.622  56.514  1.00  0.00     0.188 A 
ATOM     36  H4  UNL     1      60.155  37.346  55.339  1.00  0.00     0.167 HD
ENDBRANCH  18  22
BRANCH  19  37
HETATM   37  O6  UNL     1      56.606  40.660  55.910  1.00  0.00    -0.389 OA
ATOM     38  H6  UNL     1      56.037  40.043  55.466  1.00  0.00     0.210 HD
ENDBRANCH  19  37
BRANCH  20  39
HETATM   39  N16 UNL     1      54.494  41.391  57.419  1.00  0.00    -0.070 N 
ATOM     40 3H16 UNL     1      53.986  42.191  57.797  1.00  0.00     0.274 HD
ATOM     41 2H16 UNL     1      54.646  41.745  56.474  1.00  0.00     0.274 HD
ATOM     42 1H16 UNL     1      53.931  40.542  57.423  1.00  0.00     0.274 HD
ENDBRANCH  20  39
BRANCH  21  43
HETATM   43  O5  UNL     1      55.312  43.417  58.323  1.00  0.00    -0.389 OA
ATOM     44  H5  UNL     1      55.073  43.857  59.131  1.00  0.00     0.210 HD
ENDBRANCH  21  43
ENDBRANCH   1  16
BRANCH   4  45
HETATM   45  C9  UNL     1      59.193  47.270  56.600  1.00  0.00     0.284 C 
BRANCH  45  46
HETATM   46  O2  UNL     1      60.533  46.931  56.210  1.00  0.00    -0.370 OA
ATOM     47  H2  UNL     1      60.590  45.996  56.369  1.00  0.00     0.212 HD
ENDBRANCH  45  46
BRANCH  45  48
HETATM   48  N8  UNL     1      58.497  47.469  55.414  1.00  0.00    -0.376 N 
ATOM     49  H8  UNL     1      57.586  47.924  55.461  1.00  0.00     0.157 HD
BRANCH  48  50
HETATM   50  C10 UNL     1      58.978  47.081  54.159  1.00  0.00     0.199 C 
BRANCH  50  51
HETATM   51  C11 UNL     1      58.318  45.923  53.531  1.00  0.00     0.256 C 
HETATM   52  N9  UNL     1      58.855  44.642  53.847  1.00  0.00    -0.060 NA
HETATM   53  O3  UNL     1      57.345  45.950  52.761  1.00  0.00    -0.274 OA
ENDBRANCH  50  51
BRANCH  50  54
HETATM   54  C12 UNL     1      58.826  48.251  53.164  1.00  0.00     0.174 C 
BRANCH  54  55
HETATM   55  O4  UNL     1      60.067  48.658  52.747  1.00  0.00    -0.391 OA
ATOM     56  H4  UNL     1      60.050  48.812  51.810  1.00  0.00     0.210 HD
ENDBRANCH  54  55
BRANCH  54  57
HETATM   57  C13 UNL     1      58.092  49.401  53.779  1.00  0.00     0.263 C 
BRANCH  57  58
HETATM   58  N10 UNL     1      58.548  50.681  53.289  1.00  0.00    -0.077 N 
ATOM     59 3H10 UNL     1      59.566  50.731  53.291  1.00  0.00     0.274 HD
ATOM     60 2H10 UNL     1      58.381  50.769  52.286  1.00  0.00     0.274 HD
ATOM     61 1H10 UNL     1      58.142  51.465  53.799  1.00  0.00     0.274 HD
ENDBRANCH  57  58
ENDBRANCH  54  57
ENDBRANCH  50  54
ENDBRANCH  48  50
ENDBRANCH  45  48
ENDBRANCH   4  45
TORSDOF 14
ENDMDL
MODEL 5
REMARK VINA RESULT: -9.892810837      2.679      5.473
REMARK  14 active torsions:
REMARK  status: ('A' for Active; 'I' for Inactive)
REMARK    1  A    between atoms: N5_15  and  C6_16 
REMARK    2  A    between atoms: C7_18  and  N6_19 
REMARK    3  A    between atoms: C8_22  and  C9_23 
REMARK    4  A    between atoms: C9_23  and  O2_24 
REMARK    5  A    between atoms: C9_23  and  N8_26 
REMARK    6  A    between atoms: N8_26  and  C10_28 
REMARK    7  A    between atoms: C10_28  and  C11_29 
REMARK    8  A    between atoms: C10_28  and  C12_32 
REMARK    9  A    between atoms: C12_32  and  O4_33 
REMARK   10  A    between atoms: C12_32  and  C13_35 
REMARK   11  A    between atoms: C13_35  and  N10_36 
REMARK   12  A    between atoms: C16_51  and  O5_52 
REMARK   13  A    between atoms: C17_54  and  N16_55 
REMARK   14  A    between atoms: C18_59  and  O6_60 
ROOT
HETATM    1  N6  UNL     1      57.783  44.040  57.493  1.00  0.00    -0.239 N 
HETATM    2  N7  UNL     1      57.843  44.832  58.592  1.00  0.00    -0.279 N 
ATOM      3  H7  UNL     1      57.647  44.519  59.542  1.00  0.00     0.188 HD
HETATM    4  C8  UNL     1      58.190  46.062  58.264  1.00  0.00     0.147 A 
HETATM    5  N11 UNL     1      58.358  46.074  56.959  1.00  0.00    -0.323 N 
ATOM      6  H11 UNL     1      58.632  46.880  56.398  1.00  0.00     0.169 HD
HETATM    7  C14 UNL     1      58.104  44.825  56.490  1.00  0.00     0.173 A 
HETATM    8  C15 UNL     1      58.177  44.509  55.088  1.00  0.00     0.180 A 
HETATM    9  N12 UNL     1      58.483  45.349  54.103  1.00  0.00    -0.264 N 
ATOM     10  H12 UNL     1      58.700  46.338  54.231  1.00  0.00     0.186 HD
HETATM   11  N13 UNL     1      58.469  44.725  52.927  1.00  0.00    -0.005 NA
HETATM   12  N14 UNL     1      58.143  43.464  53.203  1.00  0.00    -0.225 N 
ATOM     13  H14 UNL     1      58.045  42.714  52.518  1.00  0.00     0.205 HD
HETATM   14  N15 UNL     1      57.969  43.340  54.505  1.00  0.00    -0.268 N 
ATOM     15  H15 UNL     1      57.714  42.477  54.987  1.00  0.00     0.190 HD
ENDROOT
BRANCH   1  16
HETATM   16  C7  UNL     1      57.419  42.672  57.594  1.00  0.00     0.279 C 
HETATM   17  O1  UNL     1      58.531  41.863  57.553  1.00  0.00    -0.335 OA
HETATM   18  C6  UNL     1      58.254  40.509  57.674  1.00  0.00     0.264 C 
HETATM   19  C18 UNL     1      56.828  40.120  57.552  1.00  0.00     0.200 C 
HETATM   20  C17 UNL     1      55.982  40.852  58.517  1.00  0.00     0.249 C 
HETATM   21  C16 UNL     1      56.461  42.279  58.668  1.00  0.00     0.202 C 
BRANCH  18  22
HETATM   22  N5  UNL     1      59.102  39.741  56.730  1.00  0.00    -0.297 N 
HETATM   23  C3  UNL     1      60.268  40.094  56.175  1.00  0.00     0.142 A 
HETATM   24  N3  UNL     1      61.016  41.210  56.292  1.00  0.00    -0.336 N 
HETATM   25  C4  UNL     1      60.731  39.100  55.353  1.00  0.00     0.122 A 
HETATM   26  C2  UNL     1      62.184  41.397  55.649  1.00  0.00     0.183 A 
ATOM     27  H3  UNL     1      60.678  41.955  56.903  1.00  0.00     0.168 HD
HETATM   28  N2  UNL     1      62.637  40.416  54.841  1.00  0.00    -0.337 N 
HETATM   29  C1  UNL     1      61.921  39.283  54.694  1.00  0.00     0.131 A 
ATOM     30  H2  UNL     1      63.519  40.532  54.342  1.00  0.00     0.168 HD
HETATM   31  N1  UNL     1      62.367  38.339  53.929  1.00  0.00    -0.383 N 
ATOM     32  H12 UNL     1      63.252  38.475  53.440  1.00  0.00     0.157 HD
ATOM     33  H11 UNL     1      61.826  37.481  53.818  1.00  0.00     0.157 HD
HETATM   34  N4  UNL     1      59.808  38.113  55.414  1.00  0.00    -0.346 N 
HETATM   35  C5  UNL     1      58.834  38.518  56.248  1.00  0.00     0.188 A 
ATOM     36  H4  UNL     1      59.845  37.222  54.918  1.00  0.00     0.167 HD
ENDBRANCH  18  22
BRANCH  19  37
HETATM   37  O6  UNL     1      56.338  40.090  56.243  1.00  0.00    -0.389 OA
ATOM     38  H6  UNL     1      55.730  39.383  56.061  1.00  0.00     0.210 HD
ENDBRANCH  19  37
BRANCH  20  39
HETATM   39  N16 UNL     1      54.570  40.839  58.135  1.00  0.00    -0.070 N 
ATOM     40 3H16 UNL     1      54.389  40.203  57.358  1.00  0.00     0.274 HD
ATOM     41 2H16 UNL     1      53.987  40.385  58.838  1.00  0.00     0.274 HD
ATOM     42 1H16 UNL     1      54.256  41.788  57.934  1.00  0.00     0.274 HD
ENDBRANCH  20  39
BRANCH  21  43
HETATM   43  O5  UNL     1      55.290  43.058  58.522  1.00  0.00    -0.389 OA
ATOM     44  H5  UNL     1      54.608  42.673  59.059  1.00  0.00     0.210 HD
ENDBRANCH  21  43
ENDBRANCH   1  16
BRANCH   4  45
HETATM   45  C9  UNL     1      58.290  47.178  59.226  1.00  0.00     0.284 C 
BRANCH  45  46
HETATM   46  O2  UNL     1      56.977  47.259  59.804  1.00  0.00    -0.370 OA
ATOM     47  H2  UNL     1      56.455  46.668  59.273  1.00  0.00     0.212 HD
ENDBRANCH  45  46
BRANCH  45  48
HETATM   48  N8  UNL     1      59.165  47.062  60.300  1.00  0.00    -0.376 N 
ATOM     49  H8  UNL     1      59.327  47.885  60.879  1.00  0.00     0.157 HD
BRANCH  48  50
HETATM   50  C10 UNL     1      59.835  45.879  60.629  1.00  0.00     0.199 C 
BRANCH  50  51
HETATM   51  C11 UNL     1      61.273  45.999  60.928  1.00  0.00     0.256 C 
HETATM   52  N9  UNL     1      62.053  46.739  59.995  1.00  0.00    -0.060 NA
HETATM   53  O3  UNL     1      61.869  45.525  61.908  1.00  0.00    -0.274 OA
ENDBRANCH  50  51
BRANCH  50  54
HETATM   54  C12 UNL     1      59.188  45.252  61.882  1.00  0.00     0.174 C 
BRANCH  54  55
HETATM   55  O4  UNL     1      58.134  44.461  61.504  1.00  0.00    -0.391 OA
ATOM     56  H4  UNL     1      57.920  44.634  60.596  1.00  0.00     0.210 HD
ENDBRANCH  54  55
BRANCH  54  57
HETATM   57  C13 UNL     1      58.719  46.303  62.840  1.00  0.00     0.263 C 
BRANCH  57  58
HETATM   58  N10 UNL     1      58.354  45.761  64.128  1.00  0.00    -0.077 N 
ATOM     59 3H10 UNL     1      58.299  44.743  64.095  1.00  0.00     0.274 HD
ATOM     60 2H10 UNL     1      59.118  45.862  64.797  1.00  0.00     0.274 HD
ATOM     61 1H10 UNL     1      57.491  46.162  64.495  1.00  0.00     0.274 HD
ENDBRANCH  57  58
ENDBRANCH  54  57
ENDBRANCH  50  54
ENDBRANCH  48  50
ENDBRANCH  45  48
ENDBRANCH   4  45
TORSDOF 14
ENDMDL
