MODEL 1
REMARK VINA RESULT: -8.883542118      0.000      0.000
REMARK  18 active torsions:
REMARK  status: ('A' for Active; 'I' for Inactive)
REMARK    1  A    between atoms: C2_2  and  O1_4 
REMARK    2  A    between atoms: C2_2  and  C4_6 
REMARK    3  A    between atoms: N1_8  and  C6_9 
REMARK    4  A    between atoms: C7_10  and  N2_11 
REMARK    5  A    between atoms: C8_15  and  O2_16 
REMARK    6  A    between atoms: C9_18  and  N3_19 
REMARK    7  A    between atoms: C10_22  and  C11_23 
REMARK       I    between atoms: C11_23  and  N5_25 
REMARK       I    between atoms: N5_25  and  C12_27 
REMARK    8  A    between atoms: C14_35  and  N10_36 
REMARK    9  A    between atoms: N10_36  and  C15_37 
REMARK   10  A    between atoms: N10_36  and  C17_41 
REMARK   11  A    between atoms: C15_37  and  C16_38 
REMARK   12  A    between atoms: C16_38  and  O4_39 
REMARK   13  A    between atoms: C17_41  and  C18_42 
REMARK   14  A    between atoms: C18_42  and  O5_43 
REMARK   15  A    between atoms: C19_45  and  O6_46 
REMARK   16  A    between atoms: C20_48  and  O7_49 
REMARK   17  A    between atoms: C21_51  and  N11_52 
REMARK   18  A    between atoms: N11_52  and  N12_54 
ROOT
HETATM    1  C11 UNL     1      57.928  48.973  53.806  1.00  0.00     0.293 C 
HETATM    2  O3  UNL     1      56.957  48.827  53.008  1.00  0.00    -0.264 OA
HETATM    3  N5  UNL     1      58.737  50.115  53.736  1.00  0.00    -0.294 N 
ATOM      4  H5  UNL     1      59.512  50.182  54.396  1.00  0.00     0.172 HD
HETATM    5  C12 UNL     1      58.568  51.172  52.830  1.00  0.00     0.204 C 
HETATM    6  N6  UNL     1      57.465  51.170  51.919  1.00  0.00    -0.062 NA
HETATM    7  N7  UNL     1      59.378  52.200  52.793  1.00  0.00    -0.267 N 
ATOM      8  H7  UNL     1      60.170  52.270  53.432  1.00  0.00     0.180 HD
HETATM    9  C13 UNL     1      59.121  53.195  51.851  1.00  0.00     0.184 C 
HETATM   10  N8  UNL     1      58.931  54.027  51.077  1.00  0.00    -0.172 NA
ENDROOT
BRANCH   1  11
HETATM   11  C10 UNL     1      58.196  47.924  54.806  1.00  0.00     0.204 A 
HETATM   12  N4  UNL     1      57.952  46.625  54.778  1.00  0.00    -0.263 N 
HETATM   13  N3  UNL     1      58.327  46.042  55.930  1.00  0.00    -0.112 N 
ATOM     14  H4  UNL     1      57.536  46.132  53.988  1.00  0.00     0.189 HD
HETATM   15  C14 UNL     1      58.824  46.998  56.713  1.00  0.00     0.699 A 
HETATM   16  N9  UNL     1      58.741  48.181  56.002  1.00  0.00    -0.168 N 
ATOM     17  H9  UNL     1      59.044  49.097  56.334  1.00  0.00     0.186 HD
BRANCH  13  18
HETATM   18  C9  UNL     1      58.182  44.641  56.211  1.00  0.00     0.188 C 
HETATM   19  C8  UNL     1      58.218  43.875  54.874  1.00  0.00     0.178 C 
HETATM   20  C7  UNL     1      57.697  42.483  55.085  1.00  0.00     0.240 C 
HETATM   21  C6  UNL     1      58.090  41.847  56.356  1.00  0.00     0.171 C 
HETATM   22  C20 UNL     1      59.031  42.590  57.230  1.00  0.00     0.175 C 
HETATM   23  C19 UNL     1      59.284  44.016  56.987  1.00  0.00     0.177 C 
BRANCH  19  24
HETATM   24  O2  UNL     1      59.498  43.788  54.359  1.00  0.00    -0.391 OA
ATOM     25  H2  UNL     1      59.939  44.616  54.510  1.00  0.00     0.210 HD
ENDBRANCH  19  24
BRANCH  20  26
HETATM   26  N2  UNL     1      58.199  41.694  53.969  1.00  0.00    -0.070 N 
ATOM     27  H23 UNL     1      58.590  40.802  54.273  1.00  0.00     0.274 HD
ATOM     28  H22 UNL     1      57.446  41.331  53.384  1.00  0.00     0.274 HD
ATOM     29  H21 UNL     1      58.869  42.246  53.435  1.00  0.00     0.274 HD
ENDBRANCH  20  26
BRANCH  21  30
HETATM   30  N1  UNL     1      58.686  40.508  56.134  1.00  0.00    -0.181 N 
HETATM   31  C5  UNL     1      59.980  40.272  55.855  1.00  0.00     0.138 A 
HETATM   32  C4  UNL     1      60.138  38.916  55.747  1.00  0.00     0.076 A 
HETATM   33  N13 UNL     1      58.955  38.315  55.955  1.00  0.00    -0.190 N 
HETATM   34  C21 UNL     1      58.093  39.313  56.187  1.00  0.00     0.699 A 
ATOM     35  H13 UNL     1      58.756  37.315  55.940  1.00  0.00     0.184 HD
BRANCH  32  36
HETATM   36  C2  UNL     1      61.388  38.144  55.458  1.00  0.00     0.094 C 
HETATM   37  C1  UNL     1      62.592  38.766  56.083  1.00  0.00     0.052 C 
HETATM   38  C3  UNL     1      61.245  36.705  55.918  1.00  0.00     0.052 C 
BRANCH  36  39
HETATM   39  O1  UNL     1      61.567  38.099  54.068  1.00  0.00    -0.384 OA
ATOM     40  H1  UNL     1      61.268  37.258  53.744  1.00  0.00     0.211 HD
ENDBRANCH  36  39
ENDBRANCH  32  36
BRANCH  34  41
HETATM   41  N11 UNL     1      56.693  39.139  56.465  1.00  0.00    -0.138 N 
ATOM     42  H11 UNL     1      56.092  38.570  55.867  1.00  0.00     0.205 HD
BRANCH  41  43
HETATM   43  N12 UNL     1      56.201  39.788  57.595  1.00  0.00    -0.331 N 
ATOM     44 2H12 UNL     1      56.495  39.506  58.530  1.00  0.00     0.177 HD
ATOM     45 1H12 UNL     1      55.541  40.547  57.429  1.00  0.00     0.177 HD
ENDBRANCH  41  43
ENDBRANCH  34  41
ENDBRANCH  21  30
BRANCH  22  46
HETATM   46  O7  UNL     1      58.677  42.413  58.591  1.00  0.00    -0.391 OA
ATOM     47  H7  UNL     1      59.214  42.967  59.144  1.00  0.00     0.210 HD
ENDBRANCH  22  46
BRANCH  23  48
HETATM   48  O6  UNL     1      60.543  44.255  56.408  1.00  0.00    -0.391 OA
ATOM     49  H6  UNL     1      60.575  45.086  55.950  1.00  0.00     0.210 HD
ENDBRANCH  23  48
ENDBRANCH  13  18
BRANCH  15  50
HETATM   50  N10 UNL     1      59.336  46.996  58.018  1.00  0.00    -0.212 N 
BRANCH  50  51
HETATM   51  C15 UNL     1      58.380  46.945  59.105  1.00  0.00     0.167 C 
BRANCH  51  52
HETATM   52  C16 UNL     1      59.027  46.923  60.474  1.00  0.00     0.184 C 
BRANCH  52  53
HETATM   53  O4  UNL     1      57.999  46.584  61.369  1.00  0.00    -0.399 OA
ATOM     54  H4  UNL     1      57.348  47.270  61.280  1.00  0.00     0.209 HD
ENDBRANCH  52  53
ENDBRANCH  51  52
ENDBRANCH  50  51
BRANCH  50  55
HETATM   55  C17 UNL     1      60.717  47.085  58.337  1.00  0.00     0.167 C 
BRANCH  55  56
HETATM   56  C18 UNL     1      61.688  47.356  57.258  1.00  0.00     0.184 C 
BRANCH  56  57
HETATM   57  O5  UNL     1      62.349  46.242  56.828  1.00  0.00    -0.399 OA
ATOM     58  H5  UNL     1      62.715  45.723  57.533  1.00  0.00     0.209 HD
ENDBRANCH  56  57
ENDBRANCH  55  56
ENDBRANCH  50  55
ENDBRANCH  15  50
ENDBRANCH   1  11
TORSDOF 18
ENDMDL
MODEL 2
REMARK VINA RESULT: -8.598677880      1.297      1.878
REMARK  18 active torsions:
REMARK  status: ('A' for Active; 'I' for Inactive)
REMARK    1  A    between atoms: C2_2  and  O1_4 
REMARK    2  A    between atoms: C2_2  and  C4_6 
REMARK    3  A    between atoms: N1_8  and  C6_9 
REMARK    4  A    between atoms: C7_10  and  N2_11 
REMARK    5  A    between atoms: C8_15  and  O2_16 
REMARK    6  A    between atoms: C9_18  and  N3_19 
REMARK    7  A    between atoms: C10_22  and  C11_23 
REMARK       I    between atoms: C11_23  and  N5_25 
REMARK       I    between atoms: N5_25  and  C12_27 
REMARK    8  A    between atoms: C14_35  and  N10_36 
REMARK    9  A    between atoms: N10_36  and  C15_37 
REMARK   10  A    between atoms: N10_36  and  C17_41 
REMARK   11  A    between atoms: C15_37  and  C16_38 
REMARK   12  A    between atoms: C16_38  and  O4_39 
REMARK   13  A    between atoms: C17_41  and  C18_42 
REMARK   14  A    between atoms: C18_42  and  O5_43 
REMARK   15  A    between atoms: C19_45  and  O6_46 
REMARK   16  A    between atoms: C20_48  and  O7_49 
REMARK   17  A    between atoms: C21_51  and  N11_52 
REMARK   18  A    between atoms: N11_52  and  N12_54 
ROOT
HETATM    1  C11 UNL     1      57.802  48.568  53.967  1.00  0.00     0.293 C 
HETATM    2  O3  UNL     1      56.796  48.400  53.220  1.00  0.00    -0.264 OA
HETATM    3  N5  UNL     1      58.591  49.721  53.846  1.00  0.00    -0.294 N 
ATOM      4  H5  UNL     1      59.396  49.806  54.466  1.00  0.00     0.172 HD
HETATM    5  C12 UNL     1      58.361  50.765  52.939  1.00  0.00     0.204 C 
HETATM    6  N6  UNL     1      57.215  50.739  52.084  1.00  0.00    -0.062 NA
HETATM    7  N7  UNL     1      59.154  51.804  52.851  1.00  0.00    -0.267 N 
ATOM      8  H7  UNL     1      59.976  51.892  53.449  1.00  0.00     0.180 HD
HETATM    9  C13 UNL     1      58.836  52.786  51.913  1.00  0.00     0.184 C 
HETATM   10  N8  UNL     1      58.595  53.607  51.141  1.00  0.00    -0.172 NA
ENDROOT
BRANCH   1  11
HETATM   11  C10 UNL     1      58.136  47.534  54.964  1.00  0.00     0.204 A 
HETATM   12  N4  UNL     1      57.975  46.223  54.929  1.00  0.00    -0.263 N 
HETATM   13  N3  UNL     1      58.384  45.660  56.080  1.00  0.00    -0.112 N 
ATOM     14  H4  UNL     1      57.592  45.708  54.136  1.00  0.00     0.189 HD
HETATM   15  C14 UNL     1      58.818  46.641  56.867  1.00  0.00     0.699 A 
HETATM   16  N9  UNL     1      58.661  47.820  56.161  1.00  0.00    -0.168 N 
ATOM     17  H9  UNL     1      58.904  48.752  56.498  1.00  0.00     0.186 HD
BRANCH  13  18
HETATM   18  C9  UNL     1      58.328  44.251  56.353  1.00  0.00     0.188 C 
HETATM   19  C8  UNL     1      58.227  43.502  55.010  1.00  0.00     0.178 C 
HETATM   20  C7  UNL     1      57.790  42.088  55.262  1.00  0.00     0.240 C 
HETATM   21  C6  UNL     1      58.361  41.453  56.464  1.00  0.00     0.171 C 
HETATM   22  C20 UNL     1      59.374  42.224  57.228  1.00  0.00     0.175 C 
HETATM   23  C19 UNL     1      59.541  43.662  56.978  1.00  0.00     0.177 C 
BRANCH  19  24
HETATM   24  O2  UNL     1      59.436  43.471  54.340  1.00  0.00    -0.391 OA
ATOM     25  H2  UNL     1      59.328  43.912  53.505  1.00  0.00     0.210 HD
ENDBRANCH  19  24
BRANCH  20  26
HETATM   26  N2  UNL     1      58.180  41.331  54.080  1.00  0.00    -0.070 N 
ATOM     27  H23 UNL     1      59.179  41.403  53.889  1.00  0.00     0.274 HD
ATOM     28  H22 UNL     1      58.132  40.324  54.234  1.00  0.00     0.274 HD
ATOM     29  H21 UNL     1      57.614  41.626  53.284  1.00  0.00     0.274 HD
ENDBRANCH  20  26
BRANCH  21  30
HETATM   30  N1  UNL     1      58.975  40.142  56.149  1.00  0.00    -0.181 N 
HETATM   31  C5  UNL     1      58.437  38.944  56.437  1.00  0.00     0.138 A 
HETATM   32  C4  UNL     1      59.290  37.983  55.965  1.00  0.00     0.076 A 
HETATM   33  N13 UNL     1      60.350  38.577  55.392  1.00  0.00    -0.190 N 
HETATM   34  C21 UNL     1      60.127  39.891  55.522  1.00  0.00     0.699 A 
ATOM     35  H13 UNL     1      61.151  38.125  54.952  1.00  0.00     0.184 HD
BRANCH  32  36
HETATM   36  C2  UNL     1      59.142  36.495  56.025  1.00  0.00     0.094 C 
HETATM   37  C1  UNL     1      58.111  35.991  55.070  1.00  0.00     0.052 C 
HETATM   38  C3  UNL     1      60.473  35.815  55.762  1.00  0.00     0.052 C 
BRANCH  36  39
HETATM   39  O1  UNL     1      58.767  36.141  57.329  1.00  0.00    -0.384 OA
ATOM     40  H1  UNL     1      59.506  36.277  57.911  1.00  0.00     0.211 HD
ENDBRANCH  36  39
ENDBRANCH  32  36
BRANCH  34  41
HETATM   41  N11 UNL     1      61.008  40.923  55.047  1.00  0.00    -0.138 N 
ATOM     42  H11 UNL     1      60.769  41.508  54.245  1.00  0.00     0.205 HD
BRANCH  41  43
HETATM   43  N12 UNL     1      62.205  41.081  55.740  1.00  0.00    -0.331 N 
ATOM     44 2H12 UNL     1      62.814  40.284  55.922  1.00  0.00     0.177 HD
ATOM     45 1H12 UNL     1      62.429  42.028  56.047  1.00  0.00     0.177 HD
ENDBRANCH  41  43
ENDBRANCH  34  41
ENDBRANCH  21  30
BRANCH  22  46
HETATM   46  O7  UNL     1      59.198  42.018  58.619  1.00  0.00    -0.391 OA
ATOM     47  H7  UNL     1      59.816  42.546  59.109  1.00  0.00     0.210 HD
ENDBRANCH  22  46
BRANCH  23  48
HETATM   48  O6  UNL     1      60.708  43.956  56.253  1.00  0.00    -0.391 OA
ATOM     49  H6  UNL     1      61.343  44.433  56.774  1.00  0.00     0.210 HD
ENDBRANCH  23  48
ENDBRANCH  13  18
BRANCH  15  50
HETATM   50  N10 UNL     1      59.326  46.665  58.173  1.00  0.00    -0.212 N 
BRANCH  50  51
HETATM   51  C15 UNL     1      58.367  46.664  59.259  1.00  0.00     0.167 C 
BRANCH  51  52
HETATM   52  C16 UNL     1      59.005  46.803  60.625  1.00  0.00     0.184 C 
BRANCH  52  53
HETATM   53  O4  UNL     1      58.002  46.454  61.544  1.00  0.00    -0.399 OA
ATOM     54  H4  UNL     1      57.970  47.170  62.168  1.00  0.00     0.209 HD
ENDBRANCH  52  53
ENDBRANCH  51  52
ENDBRANCH  50  51
BRANCH  50  55
HETATM   55  C17 UNL     1      60.708  46.736  58.494  1.00  0.00     0.167 C 
BRANCH  55  56
HETATM   56  C18 UNL     1      61.669  47.144  57.448  1.00  0.00     0.184 C 
BRANCH  56  57
HETATM   57  O5  UNL     1      62.326  46.094  56.874  1.00  0.00    -0.399 OA
ATOM     58  H5  UNL     1      62.987  46.359  56.246  1.00  0.00     0.209 HD
ENDBRANCH  56  57
ENDBRANCH  55  56
ENDBRANCH  50  55
ENDBRANCH  15  50
ENDBRANCH   1  11
TORSDOF 18
ENDMDL
MODEL 3
REMARK VINA RESULT: -8.444742111      1.760      2.389
REMARK  18 active torsions:
REMARK  status: ('A' for Active; 'I' for Inactive)
REMARK    1  A    between atoms: C2_2  and  O1_4 
REMARK    2  A    between atoms: C2_2  and  C4_6 
REMARK    3  A    between atoms: N1_8  and  C6_9 
REMARK    4  A    between atoms: C7_10  and  N2_11 
REMARK    5  A    between atoms: C8_15  and  O2_16 
REMARK    6  A    between atoms: C9_18  and  N3_19 
REMARK    7  A    between atoms: C10_22  and  C11_23 
REMARK       I    between atoms: C11_23  and  N5_25 
REMARK       I    between atoms: N5_25  and  C12_27 
REMARK    8  A    between atoms: C14_35  and  N10_36 
REMARK    9  A    between atoms: N10_36  and  C15_37 
REMARK   10  A    between atoms: N10_36  and  C17_41 
REMARK   11  A    between atoms: C15_37  and  C16_38 
REMARK   12  A    between atoms: C16_38  and  O4_39 
REMARK   13  A    between atoms: C17_41  and  C18_42 
REMARK   14  A    between atoms: C18_42  and  O5_43 
REMARK   15  A    between atoms: C19_45  and  O6_46 
REMARK   16  A    between atoms: C20_48  and  O7_49 
REMARK   17  A    between atoms: C21_51  and  N11_52 
REMARK   18  A    between atoms: N11_52  and  N12_54 
ROOT
HETATM    1  C11 UNL     1      57.759  48.512  53.674  1.00  0.00     0.293 C 
HETATM    2  O3  UNL     1      58.645  48.855  52.838  1.00  0.00    -0.264 OA
HETATM    3  N5  UNL     1      56.465  49.045  53.594  1.00  0.00    -0.294 N 
ATOM      4  H5  UNL     1      55.789  48.743  54.295  1.00  0.00     0.172 HD
HETATM    5  C12 UNL     1      56.027  49.961  52.626  1.00  0.00     0.204 C 
HETATM    6  N6  UNL     1      56.905  50.378  51.577  1.00  0.00    -0.062 NA
HETATM    7  N7  UNL     1      54.811  50.448  52.623  1.00  0.00    -0.267 N 
ATOM      8  H7  UNL     1      54.131  50.173  53.331  1.00  0.00     0.180 HD
HETATM    9  C13 UNL     1      54.478  51.355  51.617  1.00  0.00     0.184 C 
HETATM   10  N8  UNL     1      54.183  52.110  50.798  1.00  0.00    -0.172 NA
ENDROOT
BRANCH   1  11
HETATM   11  C10 UNL     1      58.108  47.549  54.733  1.00  0.00     0.204 A 
HETATM   12  N4  UNL     1      57.956  46.237  54.786  1.00  0.00    -0.263 N 
HETATM   13  N3  UNL     1      58.380  45.753  55.968  1.00  0.00    -0.112 N 
ATOM     14  H4  UNL     1      57.570  45.668  54.033  1.00  0.00     0.189 HD
HETATM   15  C14 UNL     1      58.813  46.787  56.685  1.00  0.00     0.699 A 
HETATM   16  N9  UNL     1      58.642  47.916  55.904  1.00  0.00    -0.168 N 
ATOM     17  H9  UNL     1      58.882  48.869  56.176  1.00  0.00     0.186 HD
BRANCH  13  18
HETATM   18  C9  UNL     1      58.335  44.365  56.334  1.00  0.00     0.188 C 
HETATM   19  C8  UNL     1      58.429  43.523  55.047  1.00  0.00     0.178 C 
HETATM   20  C7  UNL     1      58.010  42.112  55.346  1.00  0.00     0.240 C 
HETATM   21  C6  UNL     1      58.445  41.586  56.653  1.00  0.00     0.171 C 
HETATM   22  C20 UNL     1      59.328  42.448  57.477  1.00  0.00     0.175 C 
HETATM   23  C19 UNL     1      59.478  43.871  57.146  1.00  0.00     0.177 C 
BRANCH  19  24
HETATM   24  O2  UNL     1      59.713  43.497  54.536  1.00  0.00    -0.391 OA
ATOM     25  H2  UNL     1      59.781  44.161  53.861  1.00  0.00     0.210 HD
ENDBRANCH  19  24
BRANCH  20  26
HETATM   26  N2  UNL     1      58.570  41.294  54.279  1.00  0.00    -0.070 N 
ATOM     27  H23 UNL     1      59.590  41.324  54.266  1.00  0.00     0.274 HD
ATOM     28  H22 UNL     1      58.456  40.296  54.458  1.00  0.00     0.274 HD
ATOM     29  H21 UNL     1      58.165  41.573  53.386  1.00  0.00     0.274 HD
ENDBRANCH  20  26
BRANCH  21  30
HETATM   30  N1  UNL     1      59.137  40.283  56.512  1.00  0.00    -0.181 N 
HETATM   31  C5  UNL     1      58.531  39.083  56.480  1.00  0.00     0.138 A 
HETATM   32  C4  UNL     1      59.504  38.133  56.314  1.00  0.00     0.076 A 
HETATM   33  N13 UNL     1      60.702  38.736  56.247  1.00  0.00    -0.190 N 
HETATM   34  C21 UNL     1      60.443  40.043  56.371  1.00  0.00     0.699 A 
ATOM     35  H13 UNL     1      61.613  38.293  56.126  1.00  0.00     0.184 HD
BRANCH  32  36
HETATM   36  C2  UNL     1      59.347  36.648  56.206  1.00  0.00     0.094 C 
HETATM   37  C1  UNL     1      58.299  36.262  55.215  1.00  0.00     0.052 C 
HETATM   38  C3  UNL     1      60.670  35.997  55.847  1.00  0.00     0.052 C 
BRANCH  36  39
HETATM   39  O1  UNL     1      58.990  36.150  57.467  1.00  0.00    -0.384 OA
ATOM     40  H1  UNL     1      59.245  36.778  58.132  1.00  0.00     0.211 HD
ENDBRANCH  36  39
ENDBRANCH  32  36
BRANCH  34  41
HETATM   41  N11 UNL     1      61.438  41.082  56.355  1.00  0.00    -0.138 N 
ATOM     42  H11 UNL     1      61.827  41.468  57.216  1.00  0.00     0.205 HD
BRANCH  41  43
HETATM   43  N12 UNL     1      61.841  41.531  55.101  1.00  0.00    -0.331 N 
ATOM     44 2H12 UNL     1      62.456  42.340  55.008  1.00  0.00     0.177 HD
ATOM     45 1H12 UNL     1      61.490  41.011  54.298  1.00  0.00     0.177 HD
ENDBRANCH  41  43
ENDBRANCH  34  41
ENDBRANCH  21  30
BRANCH  22  46
HETATM   46  O7  UNL     1      58.985  42.330  58.847  1.00  0.00    -0.391 OA
ATOM     47  H7  UNL     1      59.160  41.449  59.154  1.00  0.00     0.210 HD
ENDBRANCH  22  46
BRANCH  23  48
HETATM   48  O6  UNL     1      60.717  44.163  56.551  1.00  0.00    -0.391 OA
ATOM     49  H6  UNL     1      60.731  45.028  56.158  1.00  0.00     0.210 HD
ENDBRANCH  23  48
ENDBRANCH  13  18
BRANCH  15  50
HETATM   50  N10 UNL     1      59.333  46.901  57.982  1.00  0.00    -0.212 N 
BRANCH  50  51
HETATM   51  C15 UNL     1      58.385  46.925  59.077  1.00  0.00     0.167 C 
BRANCH  51  52
HETATM   52  C16 UNL     1      59.004  46.579  60.415  1.00  0.00     0.184 C 
BRANCH  52  53
HETATM   53  O4  UNL     1      57.938  46.576  61.331  1.00  0.00    -0.399 OA
ATOM     54  H4  UNL     1      57.907  45.693  61.680  1.00  0.00     0.209 HD
ENDBRANCH  52  53
ENDBRANCH  51  52
ENDBRANCH  50  51
BRANCH  50  55
HETATM   55  C17 UNL     1      60.714  47.039  58.282  1.00  0.00     0.167 C 
BRANCH  55  56
HETATM   56  C18 UNL     1      61.653  47.401  57.200  1.00  0.00     0.184 C 
BRANCH  56  57
HETATM   57  O5  UNL     1      62.366  46.341  56.720  1.00  0.00    -0.399 OA
ATOM     58  H5  UNL     1      62.867  46.543  55.939  1.00  0.00     0.209 HD
ENDBRANCH  56  57
ENDBRANCH  55  56
ENDBRANCH  50  55
ENDBRANCH  15  50
ENDBRANCH   1  11
TORSDOF 18
ENDMDL
MODEL 4
REMARK VINA RESULT: -8.443660006      1.363      2.576
REMARK  18 active torsions:
REMARK  status: ('A' for Active; 'I' for Inactive)
REMARK    1  A    between atoms: C2_2  and  O1_4 
REMARK    2  A    between atoms: C2_2  and  C4_6 
REMARK    3  A    between atoms: N1_8  and  C6_9 
REMARK    4  A    between atoms: C7_10  and  N2_11 
REMARK    5  A    between atoms: C8_15  and  O2_16 
REMARK    6  A    between atoms: C9_18  and  N3_19 
REMARK    7  A    between atoms: C10_22  and  C11_23 
REMARK       I    between atoms: C11_23  and  N5_25 
REMARK       I    between atoms: N5_25  and  C12_27 
REMARK    8  A    between atoms: C14_35  and  N10_36 
REMARK    9  A    between atoms: N10_36  and  C15_37 
REMARK   10  A    between atoms: N10_36  and  C17_41 
REMARK   11  A    between atoms: C15_37  and  C16_38 
REMARK   12  A    between atoms: C16_38  and  O4_39 
REMARK   13  A    between atoms: C17_41  and  C18_42 
REMARK   14  A    between atoms: C18_42  and  O5_43 
REMARK   15  A    between atoms: C19_45  and  O6_46 
REMARK   16  A    between atoms: C20_48  and  O7_49 
REMARK   17  A    between atoms: C21_51  and  N11_52 
REMARK   18  A    between atoms: N11_52  and  N12_54 
ROOT
HETATM    1  C11 UNL     1      57.679  48.373  53.949  1.00  0.00     0.293 C 
HETATM    2  O3  UNL     1      56.644  48.081  53.284  1.00  0.00    -0.264 OA
HETATM    3  N5  UNL     1      58.379  49.559  53.686  1.00  0.00    -0.294 N 
ATOM      4  H5  UNL     1      59.212  49.745  54.244  1.00  0.00     0.172 HD
HETATM    5  C12 UNL     1      58.025  50.508  52.716  1.00  0.00     0.204 C 
HETATM    6  N6  UNL     1      56.834  50.339  51.942  1.00  0.00    -0.062 NA
HETATM    7  N7  UNL     1      58.738  51.584  52.496  1.00  0.00    -0.267 N 
ATOM      8  H7  UNL     1      59.587  51.773  53.030  1.00  0.00     0.180 HD
HETATM    9  C13 UNL     1      58.298  52.463  51.507  1.00  0.00     0.184 C 
HETATM   10  N8  UNL     1      57.957  53.200  50.690  1.00  0.00    -0.172 NA
ENDROOT
BRANCH   1  11
HETATM   11  C10 UNL     1      58.141  47.448  54.999  1.00  0.00     0.204 A 
HETATM   12  N4  UNL     1      58.104  46.128  55.060  1.00  0.00    -0.263 N 
HETATM   13  N3  UNL     1      58.602  45.689  56.230  1.00  0.00    -0.112 N 
ATOM     14  H4  UNL     1      57.745  45.525  54.321  1.00  0.00     0.189 HD
HETATM   15  C14 UNL     1      58.967  46.760  56.931  1.00  0.00     0.699 A 
HETATM   16  N9  UNL     1      58.676  47.866  56.153  1.00  0.00    -0.168 N 
ATOM     17  H9  UNL     1      58.842  48.838  56.415  1.00  0.00     0.186 HD
BRANCH  13  18
HETATM   18  C9  UNL     1      58.688  44.304  56.601  1.00  0.00     0.188 C 
HETATM   19  C8  UNL     1      58.674  43.457  55.313  1.00  0.00     0.178 C 
HETATM   20  C7  UNL     1      58.381  42.027  55.663  1.00  0.00     0.240 C 
HETATM   21  C6  UNL     1      59.006  41.539  56.907  1.00  0.00     0.171 C 
HETATM   22  C20 UNL     1      59.929  42.460  57.615  1.00  0.00     0.175 C 
HETATM   23  C19 UNL     1      59.950  43.887  57.266  1.00  0.00     0.177 C 
BRANCH  19  24
HETATM   24  O2  UNL     1      59.885  43.504  54.648  1.00  0.00    -0.391 OA
ATOM     25  H2  UNL     1      59.894  44.277  54.095  1.00  0.00     0.210 HD
ENDBRANCH  19  24
BRANCH  20  26
HETATM   26  N2  UNL     1      58.855  41.234  54.537  1.00  0.00    -0.070 N 
ATOM     27  H23 UNL     1      58.742  41.721  53.648  1.00  0.00     0.274 HD
ATOM     28  H22 UNL     1      59.871  41.147  54.527  1.00  0.00     0.274 HD
ATOM     29  H21 UNL     1      58.391  40.326  54.540  1.00  0.00     0.274 HD
ENDBRANCH  20  26
BRANCH  21  30
HETATM   30  N1  UNL     1      59.752  40.279  56.684  1.00  0.00    -0.181 N 
HETATM   31  C5  UNL     1      59.208  39.050  56.651  1.00  0.00     0.138 A 
HETATM   32  C4  UNL     1      60.216  38.158  56.397  1.00  0.00     0.076 A 
HETATM   33  N13 UNL     1      61.375  38.825  56.276  1.00  0.00    -0.190 N 
HETATM   34  C21 UNL     1      61.058  40.113  56.457  1.00  0.00     0.699 A 
ATOM     35  H13 UNL     1      62.298  38.434  56.087  1.00  0.00     0.184 HD
BRANCH  32  36
HETATM   36  C2  UNL     1      60.128  36.671  56.251  1.00  0.00     0.094 C 
HETATM   37  C1  UNL     1      60.364  35.962  57.544  1.00  0.00     0.052 C 
HETATM   38  C3  UNL     1      58.783  36.270  55.674  1.00  0.00     0.052 C 
BRANCH  36  39
HETATM   39  O1  UNL     1      61.096  36.261  55.323  1.00  0.00    -0.384 OA
ATOM     40  H1  UNL     1      61.230  36.955  54.689  1.00  0.00     0.211 HD
ENDBRANCH  36  39
ENDBRANCH  32  36
BRANCH  34  41
HETATM   41  N11 UNL     1      61.995  41.202  56.413  1.00  0.00    -0.138 N 
ATOM     42  H11 UNL     1      62.379  41.617  57.264  1.00  0.00     0.205 HD
BRANCH  41  43
HETATM   43  N12 UNL     1      62.352  41.660  55.148  1.00  0.00    -0.331 N 
ATOM     44 2H12 UNL     1      61.728  42.266  54.615  1.00  0.00     0.177 HD
ATOM     45 1H12 UNL     1      63.261  41.358  54.796  1.00  0.00     0.177 HD
ENDBRANCH  41  43
ENDBRANCH  34  41
ENDBRANCH  21  30
BRANCH  22  46
HETATM   46  O7  UNL     1      59.765  42.334  59.017  1.00  0.00    -0.391 OA
ATOM     47  H7  UNL     1      60.414  42.857  59.471  1.00  0.00     0.210 HD
ENDBRANCH  22  46
BRANCH  23  48
HETATM   48  O6  UNL     1      61.086  44.248  56.522  1.00  0.00    -0.391 OA
ATOM     49  H6  UNL     1      61.030  43.960  55.618  1.00  0.00     0.210 HD
ENDBRANCH  23  48
ENDBRANCH  13  18
BRANCH  15  50
HETATM   50  N10 UNL     1      59.514  46.924  58.211  1.00  0.00    -0.212 N 
BRANCH  50  51
HETATM   51  C15 UNL     1      60.950  47.092  58.302  1.00  0.00     0.167 C 
BRANCH  51  52
HETATM   52  C16 UNL     1      61.581  47.578  57.014  1.00  0.00     0.184 C 
BRANCH  52  53
HETATM   53  O4  UNL     1      62.471  46.562  56.626  1.00  0.00    -0.399 OA
ATOM     54  H4  UNL     1      61.927  45.878  56.255  1.00  0.00     0.209 HD
ENDBRANCH  52  53
ENDBRANCH  51  52
ENDBRANCH  50  51
BRANCH  50  55
HETATM   55  C17 UNL     1      58.761  46.890  59.414  1.00  0.00     0.167 C 
BRANCH  55  56
HETATM   56  C18 UNL     1      59.467  46.708  60.700  1.00  0.00     0.184 C 
BRANCH  56  57
HETATM   57  O5  UNL     1      59.390  47.796  61.521  1.00  0.00    -0.399 OA
ATOM     58  H5  UNL     1      59.910  48.533  61.222  1.00  0.00     0.209 HD
ENDBRANCH  56  57
ENDBRANCH  55  56
ENDBRANCH  50  55
ENDBRANCH  15  50
ENDBRANCH   1  11
TORSDOF 18
ENDMDL
MODEL 5
REMARK VINA RESULT: -8.427074679      1.158      1.401
REMARK  18 active torsions:
REMARK  status: ('A' for Active; 'I' for Inactive)
REMARK    1  A    between atoms: C2_2  and  O1_4 
REMARK    2  A    between atoms: C2_2  and  C4_6 
REMARK    3  A    between atoms: N1_8  and  C6_9 
REMARK    4  A    between atoms: C7_10  and  N2_11 
REMARK    5  A    between atoms: C8_15  and  O2_16 
REMARK    6  A    between atoms: C9_18  and  N3_19 
REMARK    7  A    between atoms: C10_22  and  C11_23 
REMARK       I    between atoms: C11_23  and  N5_25 
REMARK       I    between atoms: N5_25  and  C12_27 
REMARK    8  A    between atoms: C14_35  and  N10_36 
REMARK    9  A    between atoms: N10_36  and  C15_37 
REMARK   10  A    between atoms: N10_36  and  C17_41 
REMARK   11  A    between atoms: C15_37  and  C16_38 
REMARK   12  A    between atoms: C16_38  and  O4_39 
REMARK   13  A    between atoms: C17_41  and  C18_42 
REMARK   14  A    between atoms: C18_42  and  O5_43 
REMARK   15  A    between atoms: C19_45  and  O6_46 
REMARK   16  A    between atoms: C20_48  and  O7_49 
REMARK   17  A    between atoms: C21_51  and  N11_52 
REMARK   18  A    between atoms: N11_52  and  N12_54 
ROOT
HETATM    1  C11 UNL     1      57.947  48.830  53.571  1.00  0.00     0.293 C 
HETATM    2  O3  UNL     1      58.911  49.250  52.869  1.00  0.00    -0.264 OA
HETATM    3  N5  UNL     1      56.650  49.318  53.359  1.00  0.00    -0.294 N 
ATOM      4  H5  UNL     1      55.908  48.953  53.957  1.00  0.00     0.172 HD
HETATM    5  C12 UNL     1      56.292  50.267  52.391  1.00  0.00     0.204 C 
HETATM    6  N6  UNL     1      57.272  50.773  51.480  1.00  0.00    -0.062 NA
HETATM    7  N7  UNL     1      55.066  50.708  52.262  1.00  0.00    -0.267 N 
ATOM      8  H7  UNL     1      54.317  50.370  52.867  1.00  0.00     0.180 HD
HETATM    9  C13 UNL     1      54.818  51.655  51.269  1.00  0.00     0.184 C 
HETATM   10  N8  UNL     1      54.591  52.441  50.458  1.00  0.00    -0.172 NA
ENDROOT
BRANCH   1  11
HETATM   11  C10 UNL     1      58.207  47.824  54.617  1.00  0.00     0.204 A 
HETATM   12  N4  UNL     1      57.968  46.524  54.639  1.00  0.00    -0.263 N 
HETATM   13  N3  UNL     1      58.331  45.990  55.819  1.00  0.00    -0.112 N 
ATOM     14  H4  UNL     1      57.563  45.998  53.865  1.00  0.00     0.189 HD
HETATM   15  C14 UNL     1      58.815  46.979  56.567  1.00  0.00     0.699 A 
HETATM   16  N9  UNL     1      58.736  48.132  55.807  1.00  0.00    -0.168 N 
ATOM     17  H9  UNL     1      59.032  49.062  56.105  1.00  0.00     0.186 HD
BRANCH  13  18
HETATM   18  C9  UNL     1      58.187  44.601  56.154  1.00  0.00     0.188 C 
HETATM   19  C8  UNL     1      58.184  43.786  54.846  1.00  0.00     0.178 C 
HETATM   20  C7  UNL     1      57.663  42.406  55.123  1.00  0.00     0.240 C 
HETATM   21  C6  UNL     1      58.087  41.815  56.405  1.00  0.00     0.171 C 
HETATM   22  C20 UNL     1      59.054  42.585  57.226  1.00  0.00     0.175 C 
HETATM   23  C19 UNL     1      59.307  44.000  56.924  1.00  0.00     0.177 C 
BRANCH  19  24
HETATM   24  O2  UNL     1      59.449  43.673  54.301  1.00  0.00    -0.391 OA
ATOM     25  H2  UNL     1      59.379  43.214  53.472  1.00  0.00     0.210 HD
ENDBRANCH  19  24
BRANCH  20  26
HETATM   26  N2  UNL     1      58.131  41.573  54.023  1.00  0.00    -0.070 N 
ATOM     27  H23 UNL     1      57.720  41.846  53.131  1.00  0.00     0.274 HD
ATOM     28  H22 UNL     1      59.109  41.753  53.793  1.00  0.00     0.274 HD
ATOM     29  H21 UNL     1      57.961  40.592  54.242  1.00  0.00     0.274 HD
ENDBRANCH  20  26
BRANCH  21  30
HETATM   30  N1  UNL     1      58.671  40.466  56.217  1.00  0.00    -0.181 N 
HETATM   31  C5  UNL     1      59.964  40.210  55.950  1.00  0.00     0.138 A 
HETATM   32  C4  UNL     1      60.109  38.851  55.874  1.00  0.00     0.076 A 
HETATM   33  N13 UNL     1      58.919  38.267  56.089  1.00  0.00    -0.190 N 
HETATM   34  C21 UNL     1      58.066  39.278  56.294  1.00  0.00     0.699 A 
ATOM     35  H13 UNL     1      58.711  37.268  56.096  1.00  0.00     0.184 HD
BRANCH  32  36
HETATM   36  C2  UNL     1      61.353  38.061  55.610  1.00  0.00     0.094 C 
HETATM   37  C1  UNL     1      62.550  38.653  56.277  1.00  0.00     0.052 C 
HETATM   38  C3  UNL     1      61.172  36.619  56.048  1.00  0.00     0.052 C 
BRANCH  36  39
HETATM   39  O1  UNL     1      61.570  38.030  54.225  1.00  0.00    -0.384 OA
ATOM     40  H1  UNL     1      61.494  38.911  53.880  1.00  0.00     0.211 HD
ENDBRANCH  36  39
ENDBRANCH  32  36
BRANCH  34  41
HETATM   41  N11 UNL     1      56.662  39.124  56.568  1.00  0.00    -0.138 N 
ATOM     42  H11 UNL     1      56.070  38.506  56.011  1.00  0.00     0.205 HD
BRANCH  41  43
HETATM   43  N12 UNL     1      56.156  39.862  57.634  1.00  0.00    -0.331 N 
ATOM     44 2H12 UNL     1      56.675  39.944  58.508  1.00  0.00     0.177 HD
ATOM     45 1H12 UNL     1      55.250  40.306  57.487  1.00  0.00     0.177 HD
ENDBRANCH  41  43
ENDBRANCH  34  41
ENDBRANCH  21  30
BRANCH  22  46
HETATM   46  O7  UNL     1      58.736  42.460  58.602  1.00  0.00    -0.391 OA
ATOM     47  H7  UNL     1      57.906  42.012  58.706  1.00  0.00     0.210 HD
ENDBRANCH  22  46
BRANCH  23  48
HETATM   48  O6  UNL     1      60.551  44.210  56.304  1.00  0.00    -0.391 OA
ATOM     49  H6  UNL     1      60.519  44.912  55.665  1.00  0.00     0.210 HD
ENDBRANCH  23  48
ENDBRANCH  13  18
BRANCH  15  50
HETATM   50  N10 UNL     1      59.311  47.032  57.877  1.00  0.00    -0.212 N 
BRANCH  50  51
HETATM   51  C15 UNL     1      58.341  47.036  58.954  1.00  0.00     0.167 C 
BRANCH  51  52
HETATM   52  C16 UNL     1      58.972  47.016  60.331  1.00  0.00     0.184 C 
BRANCH  52  53
HETATM   53  O4  UNL     1      57.940  46.648  61.210  1.00  0.00    -0.399 OA
ATOM     54  H4  UNL     1      57.823  45.714  61.086  1.00  0.00     0.209 HD
ENDBRANCH  52  53
ENDBRANCH  51  52
ENDBRANCH  50  51
BRANCH  50  55
HETATM   55  C17 UNL     1      60.688  47.127  58.209  1.00  0.00     0.167 C 
BRANCH  55  56
HETATM   56  C18 UNL     1      61.671  47.381  57.135  1.00  0.00     0.184 C 
BRANCH  56  57
HETATM   57  O5  UNL     1      62.378  46.272  56.772  1.00  0.00    -0.399 OA
ATOM     58  H5  UNL     1      62.874  46.385  55.970  1.00  0.00     0.209 HD
ENDBRANCH  56  57
ENDBRANCH  55  56
ENDBRANCH  50  55
ENDBRANCH  15  50
ENDBRANCH   1  11
TORSDOF 18
ENDMDL
