MODEL 1
REMARK VINA RESULT: -9.131779903      0.000      0.000
REMARK  20 active torsions:
REMARK  status: ('A' for Active; 'I' for Inactive)
REMARK    1  A    between atoms: O1_2  and  C2_3 
REMARK    2  A    between atoms: C2_3  and  C3_5 
REMARK    3  A    between atoms: N2_9  and  C5_11 
REMARK    4  A    between atoms: N3_12  and  O3_13 
REMARK    5  A    between atoms: C6_15  and  O4_16 
REMARK    6  A    between atoms: C6_15  and  O5_18 
REMARK    7  A    between atoms: C7_20  and  N4_21 
REMARK    8  A    between atoms: C8_25  and  C9_26 
REMARK    9  A    between atoms: C9_26  and  N5_27 
REMARK   10  A    between atoms: C13_34  and  N7_35 
REMARK   11  A    between atoms: N8_38  and  O7_39 
REMARK   12  A    between atoms: C14_41  and  N9_42 
REMARK   13  A    between atoms: N9_42  and  C15_44 
REMARK   14  A    between atoms: C15_44  and  O8_45 
REMARK   15  A    between atoms: C15_44  and  C16_47 
REMARK   16  A    between atoms: C16_47  and  C17_48 
REMARK   17  A    between atoms: C16_47  and  C19_52 
REMARK   18  A    between atoms: C17_48  and  C18_49 
REMARK   19  A    between atoms: C19_52  and  O10_53 
REMARK   20  A    between atoms: C19_52  and  O11_55 
ROOT
HETATM    1  C3  UNL     1      60.302  45.808  58.341  1.00  0.00     0.171 A 
HETATM    2  N1  UNL     1      60.323  44.489  58.718  1.00  0.00    -0.179 N 
ATOM      3  H1  UNL     1      61.066  44.038  59.251  1.00  0.00     0.184 HD
HETATM    4  C4  UNL     1      59.221  43.893  58.278  1.00  0.00     0.712 A 
HETATM    5  N2  UNL     1      58.967  42.657  58.474  1.00  0.00    -0.176 N 
ATOM      6  H2  UNL     1      59.671  42.137  58.999  1.00  0.00     0.185 HD
HETATM    7  N8  UNL     1      58.513  44.806  57.635  1.00  0.00    -0.033 N 
HETATM    8  C14 UNL     1      59.152  46.049  57.638  1.00  0.00     0.183 A 
ENDROOT
BRANCH   5   9
HETATM    9  C5  UNL     1      57.855  41.929  58.065  1.00  0.00     0.134 C 
HETATM   10  N3  UNL     1      56.676  41.958  58.567  1.00  0.00    -0.184 N 
HETATM   11  C6  UNL     1      55.764  41.049  57.853  1.00  0.00     0.300 C 
HETATM   12  C7  UNL     1      56.421  40.976  56.461  1.00  0.00     0.283 C 
HETATM   13  C8  UNL     1      57.868  40.952  56.917  1.00  0.00     0.113 C 
BRANCH  10  14
HETATM   14  O3  UNL     1      56.205  42.715  59.640  1.00  0.00    -0.281 OA
ATOM     15  H3  UNL     1      55.990  43.640  59.663  1.00  0.00     0.245 HD
ENDBRANCH  10  14
BRANCH  11  16
HETATM   16  O4  UNL     1      55.644  39.822  58.443  1.00  0.00    -0.345 OA
ATOM     17  H4  UNL     1      55.481  39.864  59.378  1.00  0.00     0.215 HD
ENDBRANCH  11  16
BRANCH  11  18
HETATM   18  O5  UNL     1      54.508  41.615  57.665  1.00  0.00    -0.345 OA
ATOM     19  H5  UNL     1      54.160  41.429  56.800  1.00  0.00     0.215 HD
ENDBRANCH  11  18
BRANCH  12  20
HETATM   20  N4  UNL     1      56.063  42.122  55.689  1.00  0.00    -0.067 N 
ATOM     21  H43 UNL     1      56.410  42.062  54.732  1.00  0.00     0.275 HD
ATOM     22  H42 UNL     1      55.064  42.147  55.483  1.00  0.00     0.275 HD
ATOM     23  H41 UNL     1      56.378  42.972  56.157  1.00  0.00     0.275 HD
ENDBRANCH  12  20
BRANCH  13  24
HETATM   24  C9  UNL     1      58.883  41.289  55.883  1.00  0.00     0.161 C 
BRANCH  24  25
HETATM   25  N5  UNL     1      60.214  40.824  56.135  1.00  0.00    -0.193 N 
HETATM   26  C10 UNL     1      60.539  39.618  56.608  1.00  0.00     0.114 A 
HETATM   27  C11 UNL     1      61.870  39.215  56.809  1.00  0.00     0.092 A 
HETATM   28  C12 UNL     1      62.882  40.088  56.510  1.00  0.00     0.260 A 
HETATM   29  O6  UNL     1      64.103  39.816  56.656  1.00  0.00    -0.268 OA
HETATM   30  N6  UNL     1      62.536  41.296  56.034  1.00  0.00    -0.156 N 
HETATM   31  C13 UNL     1      61.272  41.651  55.854  1.00  0.00     0.680 A 
ATOM     32  H6  UNL     1      63.272  41.964  55.803  1.00  0.00     0.187 HD
BRANCH  31  33
HETATM   33  N7  UNL     1      60.994  42.823  55.393  1.00  0.00    -0.234 N 
ATOM     34  H72 UNL     1      60.087  43.246  55.596  1.00  0.00     0.174 HD
ATOM     35  H71 UNL     1      61.712  43.284  54.834  1.00  0.00     0.174 HD
ENDBRANCH  31  33
ENDBRANCH  24  25
ENDBRANCH  13  24
ENDBRANCH   5   9
BRANCH   7  36
HETATM   36  O7  UNL     1      57.315  44.547  57.049  1.00  0.00    -0.268 OA
ATOM     37  H7  UNL     1      57.218  44.343  56.126  1.00  0.00     0.246 HD
ENDBRANCH   7  36
BRANCH   1  38
HETATM   38  C2  UNL     1      61.335  46.743  58.762  1.00  0.00     0.314 C 
HETATM   39  O2  UNL     1      61.693  47.770  58.186  1.00  0.00    -0.257 OA
BRANCH  38  40
HETATM   40  O1  UNL     1      62.037  46.479  59.968  1.00  0.00    -0.321 OA
HETATM   41  C1  UNL     1      61.293  46.356  61.158  1.00  0.00     0.213 C 
ENDBRANCH  38  40
ENDBRANCH   1  38
BRANCH   8  42
HETATM   42  N9  UNL     1      58.627  47.124  56.921  1.00  0.00    -0.345 N 
ATOM     43  H9  UNL     1      57.795  47.532  57.350  1.00  0.00     0.163 HD
BRANCH  42  44
HETATM   44  C15 UNL     1      59.010  47.756  55.732  1.00  0.00     0.228 C 
BRANCH  44  45
HETATM   45  O8  UNL     1      60.422  47.770  55.544  1.00  0.00    -0.376 OA
ATOM     46  H8  UNL     1      60.713  47.137  54.899  1.00  0.00     0.212 HD
ENDBRANCH  44  45
BRANCH  44  47
HETATM   47  C16 UNL     1      58.478  46.961  54.491  1.00  0.00     0.097 C 
BRANCH  47  48
HETATM   48  C17 UNL     1      57.019  47.129  54.304  1.00  0.00     0.113 C 
BRANCH  48  49
HETATM   49  C18 UNL     1      56.311  45.873  53.961  1.00  0.00     0.231 C 
HETATM   50  N10 UNL     1      56.288  45.394  52.622  1.00  0.00    -0.062 NA
HETATM   51  O9  UNL     1      55.699  45.171  54.820  1.00  0.00    -0.277 OA
ENDBRANCH  48  49
ENDBRANCH  47  48
BRANCH  47  52
HETATM   52  C19 UNL     1      59.323  47.370  53.339  1.00  0.00     0.262 C 
BRANCH  52  53
HETATM   53  O10 UNL     1      59.040  46.707  52.168  1.00  0.00    -0.371 OA
ATOM     54  H10 UNL     1      59.464  47.073  51.401  1.00  0.00     0.212 HD
ENDBRANCH  52  53
BRANCH  52  55
HETATM   55  O11 UNL     1      59.342  48.743  53.107  1.00  0.00    -0.371 OA
ATOM     56  H11 UNL     1      58.509  49.100  52.826  1.00  0.00     0.212 HD
ENDBRANCH  52  55
ENDBRANCH  47  52
ENDBRANCH  44  47
ENDBRANCH  42  44
ENDBRANCH   8  42
TORSDOF 20
ENDMDL
MODEL 2
REMARK VINA RESULT: -8.901008868      2.170      2.812
REMARK  20 active torsions:
REMARK  status: ('A' for Active; 'I' for Inactive)
REMARK    1  A    between atoms: O1_2  and  C2_3 
REMARK    2  A    between atoms: C2_3  and  C3_5 
REMARK    3  A    between atoms: N2_9  and  C5_11 
REMARK    4  A    between atoms: N3_12  and  O3_13 
REMARK    5  A    between atoms: C6_15  and  O4_16 
REMARK    6  A    between atoms: C6_15  and  O5_18 
REMARK    7  A    between atoms: C7_20  and  N4_21 
REMARK    8  A    between atoms: C8_25  and  C9_26 
REMARK    9  A    between atoms: C9_26  and  N5_27 
REMARK   10  A    between atoms: C13_34  and  N7_35 
REMARK   11  A    between atoms: N8_38  and  O7_39 
REMARK   12  A    between atoms: C14_41  and  N9_42 
REMARK   13  A    between atoms: N9_42  and  C15_44 
REMARK   14  A    between atoms: C15_44  and  O8_45 
REMARK   15  A    between atoms: C15_44  and  C16_47 
REMARK   16  A    between atoms: C16_47  and  C17_48 
REMARK   17  A    between atoms: C16_47  and  C19_52 
REMARK   18  A    between atoms: C17_48  and  C18_49 
REMARK   19  A    between atoms: C19_52  and  O10_53 
REMARK   20  A    between atoms: C19_52  and  O11_55 
ROOT
HETATM    1  C3  UNL     1      60.391  45.967  58.168  1.00  0.00     0.171 A 
HETATM    2  N1  UNL     1      60.405  44.642  58.522  1.00  0.00    -0.179 N 
ATOM      3  H1  UNL     1      61.156  44.174  59.031  1.00  0.00     0.184 HD
HETATM    4  C4  UNL     1      59.287  44.065  58.099  1.00  0.00     0.712 A 
HETATM    5  N2  UNL     1      59.023  42.830  58.280  1.00  0.00    -0.176 N 
ATOM      6  H2  UNL     1      59.732  42.293  58.780  1.00  0.00     0.185 HD
HETATM    7  N8  UNL     1      58.575  44.997  57.487  1.00  0.00    -0.033 N 
HETATM    8  C14 UNL     1      59.229  46.233  57.496  1.00  0.00     0.183 A 
ENDROOT
BRANCH   5   9
HETATM    9  C5  UNL     1      57.894  42.121  57.885  1.00  0.00     0.134 C 
HETATM   10  N3  UNL     1      56.827  41.911  58.564  1.00  0.00    -0.184 N 
HETATM   11  C6  UNL     1      55.846  41.122  57.800  1.00  0.00     0.300 C 
HETATM   12  C7  UNL     1      56.239  41.459  56.348  1.00  0.00     0.283 C 
HETATM   13  C8  UNL     1      57.745  41.463  56.537  1.00  0.00     0.113 C 
BRANCH  10  14
HETATM   14  O3  UNL     1      56.523  42.332  59.860  1.00  0.00    -0.281 OA
ATOM     15  H3  UNL     1      56.768  43.142  60.292  1.00  0.00     0.245 HD
ENDBRANCH  10  14
BRANCH  11  16
HETATM   16  O4  UNL     1      55.900  39.783  58.062  1.00  0.00    -0.345 OA
ATOM     17  H4  UNL     1      55.603  39.554  58.935  1.00  0.00     0.215 HD
ENDBRANCH  11  16
BRANCH  11  18
HETATM   18  O5  UNL     1      54.550  41.594  57.974  1.00  0.00    -0.345 OA
ATOM     19  H5  UNL     1      54.531  42.412  58.456  1.00  0.00     0.215 HD
ENDBRANCH  11  18
BRANCH  12  20
HETATM   20  N4  UNL     1      55.687  42.720  55.970  1.00  0.00    -0.067 N 
ATOM     21  H43 UNL     1      56.087  43.488  56.508  1.00  0.00     0.275 HD
ATOM     22  H42 UNL     1      55.997  43.010  55.043  1.00  0.00     0.275 HD
ATOM     23  H41 UNL     1      54.669  42.692  56.042  1.00  0.00     0.275 HD
ENDBRANCH  12  20
BRANCH  13  24
HETATM   24  C9  UNL     1      58.534  42.140  55.474  1.00  0.00     0.161 C 
BRANCH  24  25
HETATM   25  N5  UNL     1      58.183  41.810  54.125  1.00  0.00    -0.193 N 
HETATM   26  C10 UNL     1      58.143  40.578  53.612  1.00  0.00     0.114 A 
HETATM   27  C11 UNL     1      57.766  40.320  52.284  1.00  0.00     0.092 A 
HETATM   28  C12 UNL     1      57.422  41.370  51.474  1.00  0.00     0.260 A 
HETATM   29  O6  UNL     1      57.070  41.237  50.272  1.00  0.00    -0.268 OA
HETATM   30  N6  UNL     1      57.466  42.603  52.007  1.00  0.00    -0.156 N 
HETATM   31  C13 UNL     1      57.826  42.818  53.265  1.00  0.00     0.680 A 
ATOM     32  H6  UNL     1      57.214  43.401  51.424  1.00  0.00     0.187 HD
BRANCH  31  33
HETATM   33  N7  UNL     1      57.852  44.021  53.728  1.00  0.00    -0.234 N 
ATOM     34  H72 UNL     1      57.003  44.586  53.720  1.00  0.00     0.174 HD
ATOM     35  H71 UNL     1      58.744  44.359  54.090  1.00  0.00     0.174 HD
ENDBRANCH  31  33
ENDBRANCH  24  25
ENDBRANCH  13  24
ENDBRANCH   5   9
BRANCH   7  36
HETATM   36  O7  UNL     1      57.360  44.761  56.925  1.00  0.00    -0.268 OA
ATOM     37  H7  UNL     1      57.151  43.967  56.448  1.00  0.00     0.246 HD
ENDBRANCH   7  36
BRANCH   1  38
HETATM   38  C2  UNL     1      61.444  46.883  58.580  1.00  0.00     0.314 C 
HETATM   39  O2  UNL     1      61.857  47.870  57.971  1.00  0.00    -0.257 OA
BRANCH  38  40
HETATM   40  O1  UNL     1      62.099  46.650  59.818  1.00  0.00    -0.321 OA
HETATM   41  C1  UNL     1      61.305  46.422  60.959  1.00  0.00     0.213 C 
ENDBRANCH  38  40
ENDBRANCH   1  38
BRANCH   8  42
HETATM   42  N9  UNL     1      58.699  47.325  56.809  1.00  0.00    -0.345 N 
ATOM     43  H9  UNL     1      57.842  47.691  57.225  1.00  0.00     0.163 HD
BRANCH  42  44
HETATM   44  C15 UNL     1      59.106  48.021  55.665  1.00  0.00     0.228 C 
BRANCH  44  45
HETATM   45  O8  UNL     1      60.476  47.799  55.342  1.00  0.00    -0.376 OA
ATOM     46  H8  UNL     1      60.603  47.051  54.772  1.00  0.00     0.212 HD
ENDBRANCH  44  45
BRANCH  44  47
HETATM   47  C16 UNL     1      58.339  47.500  54.402  1.00  0.00     0.097 C 
BRANCH  47  48
HETATM   48  C17 UNL     1      57.088  48.255  54.157  1.00  0.00     0.113 C 
BRANCH  48  49
HETATM   49  C18 UNL     1      55.873  47.584  54.674  1.00  0.00     0.231 C 
HETATM   50  N10 UNL     1      55.747  46.169  54.626  1.00  0.00    -0.062 NA
HETATM   51  O9  UNL     1      54.897  48.220  55.176  1.00  0.00    -0.277 OA
ENDBRANCH  48  49
ENDBRANCH  47  48
BRANCH  47  52
HETATM   52  C19 UNL     1      59.319  47.504  53.285  1.00  0.00     0.262 C 
BRANCH  52  53
HETATM   53  O10 UNL     1      59.647  46.253  52.817  1.00  0.00    -0.371 OA
ATOM     54  H10 UNL     1      58.962  45.834  52.311  1.00  0.00     0.212 HD
ENDBRANCH  52  53
BRANCH  52  55
HETATM   55  O11 UNL     1      58.962  48.324  52.219  1.00  0.00    -0.371 OA
ATOM     56  H11 UNL     1      59.683  48.823  51.856  1.00  0.00     0.212 HD
ENDBRANCH  52  55
ENDBRANCH  47  52
ENDBRANCH  44  47
ENDBRANCH  42  44
ENDBRANCH   8  42
TORSDOF 20
ENDMDL
MODEL 3
REMARK VINA RESULT: -8.890473402      2.427      3.792
REMARK  20 active torsions:
REMARK  status: ('A' for Active; 'I' for Inactive)
REMARK    1  A    between atoms: O1_2  and  C2_3 
REMARK    2  A    between atoms: C2_3  and  C3_5 
REMARK    3  A    between atoms: N2_9  and  C5_11 
REMARK    4  A    between atoms: N3_12  and  O3_13 
REMARK    5  A    between atoms: C6_15  and  O4_16 
REMARK    6  A    between atoms: C6_15  and  O5_18 
REMARK    7  A    between atoms: C7_20  and  N4_21 
REMARK    8  A    between atoms: C8_25  and  C9_26 
REMARK    9  A    between atoms: C9_26  and  N5_27 
REMARK   10  A    between atoms: C13_34  and  N7_35 
REMARK   11  A    between atoms: N8_38  and  O7_39 
REMARK   12  A    between atoms: C14_41  and  N9_42 
REMARK   13  A    between atoms: N9_42  and  C15_44 
REMARK   14  A    between atoms: C15_44  and  O8_45 
REMARK   15  A    between atoms: C15_44  and  C16_47 
REMARK   16  A    between atoms: C16_47  and  C17_48 
REMARK   17  A    between atoms: C16_47  and  C19_52 
REMARK   18  A    between atoms: C17_48  and  C18_49 
REMARK   19  A    between atoms: C19_52  and  O10_53 
REMARK   20  A    between atoms: C19_52  and  O11_55 
ROOT
HETATM    1  C3  UNL     1      58.347  43.520  60.409  1.00  0.00     0.171 A 
HETATM    2  N1  UNL     1      57.285  42.728  60.054  1.00  0.00    -0.179 N 
ATOM      3  H1  UNL     1      56.600  42.333  60.699  1.00  0.00     0.184 HD
HETATM    4  C4  UNL     1      57.290  42.556  58.737  1.00  0.00     0.712 A 
HETATM    5  N2  UNL     1      56.420  41.857  58.118  1.00  0.00    -0.176 N 
ATOM      6  H2  UNL     1      55.702  41.424  58.700  1.00  0.00     0.185 HD
HETATM    7  N8  UNL     1      58.329  43.221  58.261  1.00  0.00    -0.033 N 
HETATM    8  C14 UNL     1      59.045  43.855  59.280  1.00  0.00     0.183 A 
ENDROOT
BRANCH   5   9
HETATM    9  C5  UNL     1      56.324  41.608  56.753  1.00  0.00     0.134 C 
HETATM   10  N3  UNL     1      55.692  42.298  55.877  1.00  0.00    -0.184 N 
HETATM   11  C6  UNL     1      55.833  41.719  54.530  1.00  0.00     0.300 C 
HETATM   12  C7  UNL     1      57.169  40.961  54.654  1.00  0.00     0.283 C 
HETATM   13  C8  UNL     1      56.980  40.437  56.065  1.00  0.00     0.113 C 
BRANCH  10  14
HETATM   14  O3  UNL     1      54.945  43.462  56.059  1.00  0.00    -0.281 OA
ATOM     15  H3  UNL     1      54.226  43.616  56.661  1.00  0.00     0.245 HD
ENDBRANCH  10  14
BRANCH  11  16
HETATM   16  O4  UNL     1      54.796  40.902  54.176  1.00  0.00    -0.345 OA
ATOM     17  H4  UNL     1      55.053  39.996  54.048  1.00  0.00     0.215 HD
ENDBRANCH  11  16
BRANCH  11  18
HETATM   18  O5  UNL     1      56.025  42.697  53.561  1.00  0.00    -0.345 OA
ATOM     19  H5  UNL     1      55.869  42.365  52.685  1.00  0.00     0.215 HD
ENDBRANCH  11  18
BRANCH  12  20
HETATM   20  N4  UNL     1      58.262  41.867  54.501  1.00  0.00    -0.067 N 
ATOM     21  H43 UNL     1      57.955  42.839  54.501  1.00  0.00     0.275 HD
ATOM     22  H42 UNL     1      58.853  41.898  55.332  1.00  0.00     0.275 HD
ATOM     23  H41 UNL     1      58.795  41.634  53.662  1.00  0.00     0.275 HD
ENDBRANCH  12  20
BRANCH  13  24
HETATM   24  C9  UNL     1      58.211  39.975  56.760  1.00  0.00     0.161 C 
BRANCH  24  25
HETATM   25  N5  UNL     1      58.638  38.641  56.460  1.00  0.00    -0.193 N 
HETATM   26  C10 UNL     1      57.861  37.666  55.982  1.00  0.00     0.114 A 
HETATM   27  C11 UNL     1      58.350  36.383  55.684  1.00  0.00     0.092 A 
HETATM   28  C12 UNL     1      59.677  36.112  55.890  1.00  0.00     0.260 A 
HETATM   29  O6  UNL     1      60.205  34.994  55.653  1.00  0.00    -0.268 OA
HETATM   30  N6  UNL     1      60.444  37.106  56.371  1.00  0.00    -0.156 N 
HETATM   31  C13 UNL     1      59.956  38.308  56.643  1.00  0.00     0.680 A 
ATOM     32  H6  UNL     1      61.435  36.929  56.533  1.00  0.00     0.187 HD
BRANCH  31  33
HETATM   33  N7  UNL     1      60.735  39.227  57.103  1.00  0.00    -0.234 N 
ATOM     34  H72 UNL     1      61.428  39.658  56.491  1.00  0.00     0.174 HD
ATOM     35  H71 UNL     1      60.619  39.486  58.083  1.00  0.00     0.174 HD
ENDBRANCH  31  33
ENDBRANCH  24  25
ENDBRANCH  13  24
ENDBRANCH   5   9
BRANCH   7  36
HETATM   36  O7  UNL     1      58.645  43.268  56.940  1.00  0.00    -0.268 OA
ATOM     37  H7  UNL     1      59.443  42.897  56.581  1.00  0.00     0.246 HD
ENDBRANCH   7  36
BRANCH   1  38
HETATM   38  C2  UNL     1      58.550  43.962  61.780  1.00  0.00     0.314 C 
HETATM   39  O2  UNL     1      57.969  43.562  62.788  1.00  0.00    -0.257 OA
BRANCH  38  40
HETATM   40  O1  UNL     1      59.519  44.970  62.031  1.00  0.00    -0.321 OA
HETATM   41  C1  UNL     1      59.065  46.269  62.337  1.00  0.00     0.213 C 
ENDBRANCH  38  40
ENDBRANCH   1  38
BRANCH   8  42
HETATM   42  N9  UNL     1      60.240  44.520  59.005  1.00  0.00    -0.345 N 
ATOM     43  H9  UNL     1      61.035  43.894  58.879  1.00  0.00     0.163 HD
BRANCH  42  44
HETATM   44  C15 UNL     1      60.568  45.874  58.868  1.00  0.00     0.228 C 
BRANCH  44  45
HETATM   45  O8  UNL     1      61.931  46.147  59.181  1.00  0.00    -0.376 OA
ATOM     46  H8  UNL     1      62.295  46.851  58.657  1.00  0.00     0.212 HD
ENDBRANCH  44  45
BRANCH  44  47
HETATM   47  C16 UNL     1      60.434  46.323  57.373  1.00  0.00     0.097 C 
BRANCH  47  48
HETATM   48  C17 UNL     1      59.129  46.969  57.099  1.00  0.00     0.113 C 
BRANCH  48  49
HETATM   49  C18 UNL     1      58.513  46.553  55.818  1.00  0.00     0.231 C 
HETATM   50  N10 UNL     1      57.353  45.730  55.802  1.00  0.00    -0.062 NA
HETATM   51  O9  UNL     1      58.973  46.899  54.688  1.00  0.00    -0.277 OA
ENDBRANCH  48  49
ENDBRANCH  47  48
BRANCH  47  52
HETATM   52  C19 UNL     1      61.633  47.149  57.075  1.00  0.00     0.262 C 
BRANCH  52  53
HETATM   53  O10 UNL     1      62.657  46.460  56.469  1.00  0.00    -0.371 OA
ATOM     54  H10 UNL     1      62.446  46.128  55.605  1.00  0.00     0.212 HD
ENDBRANCH  52  53
BRANCH  52  55
HETATM   55  O11 UNL     1      61.359  48.309  56.356  1.00  0.00    -0.371 OA
ATOM     56  H11 UNL     1      61.188  48.162  55.433  1.00  0.00     0.212 HD
ENDBRANCH  52  55
ENDBRANCH  47  52
ENDBRANCH  44  47
ENDBRANCH  42  44
ENDBRANCH   8  42
TORSDOF 20
ENDMDL
MODEL 4
REMARK VINA RESULT: -8.765229252      0.894      1.344
REMARK  20 active torsions:
REMARK  status: ('A' for Active; 'I' for Inactive)
REMARK    1  A    between atoms: O1_2  and  C2_3 
REMARK    2  A    between atoms: C2_3  and  C3_5 
REMARK    3  A    between atoms: N2_9  and  C5_11 
REMARK    4  A    between atoms: N3_12  and  O3_13 
REMARK    5  A    between atoms: C6_15  and  O4_16 
REMARK    6  A    between atoms: C6_15  and  O5_18 
REMARK    7  A    between atoms: C7_20  and  N4_21 
REMARK    8  A    between atoms: C8_25  and  C9_26 
REMARK    9  A    between atoms: C9_26  and  N5_27 
REMARK   10  A    between atoms: C13_34  and  N7_35 
REMARK   11  A    between atoms: N8_38  and  O7_39 
REMARK   12  A    between atoms: C14_41  and  N9_42 
REMARK   13  A    between atoms: N9_42  and  C15_44 
REMARK   14  A    between atoms: C15_44  and  O8_45 
REMARK   15  A    between atoms: C15_44  and  C16_47 
REMARK   16  A    between atoms: C16_47  and  C17_48 
REMARK   17  A    between atoms: C16_47  and  C19_52 
REMARK   18  A    between atoms: C17_48  and  C18_49 
REMARK   19  A    between atoms: C19_52  and  O10_53 
REMARK   20  A    between atoms: C19_52  and  O11_55 
ROOT
HETATM    1  C3  UNL     1      60.268  45.848  58.085  1.00  0.00     0.171 A 
HETATM    2  N1  UNL     1      60.323  44.544  58.508  1.00  0.00    -0.179 N 
ATOM      3  H1  UNL     1      61.089  44.125  59.035  1.00  0.00     0.184 HD
HETATM    4  C4  UNL     1      59.219  43.914  58.122  1.00  0.00     0.712 A 
HETATM    5  N2  UNL     1      58.992  42.683  58.370  1.00  0.00    -0.176 N 
ATOM      6  H2  UNL     1      59.719  42.194  58.892  1.00  0.00     0.185 HD
HETATM    7  N8  UNL     1      58.477  44.792  57.468  1.00  0.00    -0.033 N 
HETATM    8  C14 UNL     1      59.095  46.045  57.408  1.00  0.00     0.183 A 
ENDROOT
BRANCH   5   9
HETATM    9  C5  UNL     1      57.882  41.923  58.020  1.00  0.00     0.134 C 
HETATM   10  N3  UNL     1      56.714  41.959  58.547  1.00  0.00    -0.184 N 
HETATM   11  C6  UNL     1      55.798  41.006  57.896  1.00  0.00     0.300 C 
HETATM   12  C7  UNL     1      56.426  40.879  56.494  1.00  0.00     0.283 C 
HETATM   13  C8  UNL     1      57.882  40.895  56.917  1.00  0.00     0.113 C 
BRANCH  10  14
HETATM   14  O3  UNL     1      56.256  42.758  59.595  1.00  0.00    -0.281 OA
ATOM     15  H3  UNL     1      55.401  43.158  59.705  1.00  0.00     0.245 HD
ENDBRANCH  10  14
BRANCH  11  16
HETATM   16  O4  UNL     1      55.709  39.806  58.543  1.00  0.00    -0.345 OA
ATOM     17  H4  UNL     1      55.541  39.073  57.963  1.00  0.00     0.215 HD
ENDBRANCH  11  16
BRANCH  11  18
HETATM   18  O5  UNL     1      54.531  41.547  57.711  1.00  0.00    -0.345 OA
ATOM     19  H5  UNL     1      54.269  41.534  56.798  1.00  0.00     0.215 HD
ENDBRANCH  11  18
BRANCH  12  20
HETATM   20  N4  UNL     1      56.034  41.984  55.679  1.00  0.00    -0.067 N 
ATOM     21  H43 UNL     1      55.157  42.399  55.994  1.00  0.00     0.275 HD
ATOM     22  H42 UNL     1      56.639  42.794  55.817  1.00  0.00     0.275 HD
ATOM     23  H41 UNL     1      55.992  41.701  54.700  1.00  0.00     0.275 HD
ENDBRANCH  12  20
BRANCH  13  24
HETATM   24  C9  UNL     1      58.869  41.197  55.846  1.00  0.00     0.161 C 
BRANCH  24  25
HETATM   25  N5  UNL     1      60.215  40.773  56.094  1.00  0.00    -0.193 N 
HETATM   26  C10 UNL     1      60.576  39.588  56.592  1.00  0.00     0.114 A 
HETATM   27  C11 UNL     1      61.919  39.224  56.788  1.00  0.00     0.092 A 
HETATM   28  C12 UNL     1      62.904  40.115  56.455  1.00  0.00     0.260 A 
HETATM   29  O6  UNL     1      64.134  39.878  56.593  1.00  0.00    -0.268 OA
HETATM   30  N6  UNL     1      62.523  41.302  55.953  1.00  0.00    -0.156 N 
HETATM   31  C13 UNL     1      61.248  41.619  55.779  1.00  0.00     0.680 A 
ATOM     32  H6  UNL     1      63.239  41.982  55.697  1.00  0.00     0.187 HD
BRANCH  31  33
HETATM   33  N7  UNL     1      60.934  42.772  55.294  1.00  0.00    -0.234 N 
ATOM     34  H72 UNL     1      60.869  43.582  55.911  1.00  0.00     0.174 HD
ATOM     35  H71 UNL     1      60.761  42.821  54.289  1.00  0.00     0.174 HD
ENDBRANCH  31  33
ENDBRANCH  24  25
ENDBRANCH  13  24
ENDBRANCH   5   9
BRANCH   7  36
HETATM   36  O7  UNL     1      57.267  44.493  56.927  1.00  0.00    -0.268 OA
ATOM     37  H7  UNL     1      56.467  44.435  57.436  1.00  0.00     0.246 HD
ENDBRANCH   7  36
BRANCH   1  38
HETATM   38  C2  UNL     1      61.296  46.814  58.442  1.00  0.00     0.314 C 
HETATM   39  O2  UNL     1      61.643  47.807  57.803  1.00  0.00    -0.257 OA
BRANCH  38  40
HETATM   40  O1  UNL     1      62.007  46.630  59.658  1.00  0.00    -0.321 OA
HETATM   41  C1  UNL     1      61.267  46.517  60.852  1.00  0.00     0.213 C 
ENDBRANCH  38  40
ENDBRANCH   1  38
BRANCH   8  42
HETATM   42  N9  UNL     1      58.530  47.084  56.669  1.00  0.00    -0.345 N 
ATOM     43  H9  UNL     1      57.589  47.335  56.972  1.00  0.00     0.163 HD
BRANCH  42  44
HETATM   44  C15 UNL     1      58.995  47.853  55.595  1.00  0.00     0.228 C 
BRANCH  44  45
HETATM   45  O8  UNL     1      60.321  47.509  55.203  1.00  0.00    -0.376 OA
ATOM     46  H8  UNL     1      60.788  48.236  54.808  1.00  0.00     0.212 HD
ENDBRANCH  44  45
BRANCH  44  47
HETATM   47  C16 UNL     1      58.144  47.572  54.310  1.00  0.00     0.097 C 
BRANCH  47  48
HETATM   48  C17 UNL     1      57.908  46.124  54.102  1.00  0.00     0.113 C 
BRANCH  48  49
HETATM   49  C18 UNL     1      58.608  45.567  52.921  1.00  0.00     0.231 C 
HETATM   50  N10 UNL     1      57.877  44.982  51.851  1.00  0.00    -0.062 NA
HETATM   51  O9  UNL     1      59.871  45.579  52.801  1.00  0.00    -0.277 OA
ENDBRANCH  48  49
ENDBRANCH  47  48
BRANCH  47  52
HETATM   52  C19 UNL     1      56.922  48.410  54.425  1.00  0.00     0.262 C 
BRANCH  52  53
HETATM   53  O10 UNL     1      56.261  48.611  53.237  1.00  0.00    -0.371 OA
ATOM     54  H10 UNL     1      55.657  47.916  53.004  1.00  0.00     0.212 HD
ENDBRANCH  52  53
BRANCH  52  55
HETATM   55  O11 UNL     1      56.023  47.974  55.394  1.00  0.00    -0.371 OA
ATOM     56  H11 UNL     1      55.254  47.541  55.042  1.00  0.00     0.212 HD
ENDBRANCH  52  55
ENDBRANCH  47  52
ENDBRANCH  44  47
ENDBRANCH  42  44
ENDBRANCH   8  42
TORSDOF 20
ENDMDL
MODEL 5
REMARK VINA RESULT: -8.764769921      2.216      3.385
REMARK  20 active torsions:
REMARK  status: ('A' for Active; 'I' for Inactive)
REMARK    1  A    between atoms: O1_2  and  C2_3 
REMARK    2  A    between atoms: C2_3  and  C3_5 
REMARK    3  A    between atoms: N2_9  and  C5_11 
REMARK    4  A    between atoms: N3_12  and  O3_13 
REMARK    5  A    between atoms: C6_15  and  O4_16 
REMARK    6  A    between atoms: C6_15  and  O5_18 
REMARK    7  A    between atoms: C7_20  and  N4_21 
REMARK    8  A    between atoms: C8_25  and  C9_26 
REMARK    9  A    between atoms: C9_26  and  N5_27 
REMARK   10  A    between atoms: C13_34  and  N7_35 
REMARK   11  A    between atoms: N8_38  and  O7_39 
REMARK   12  A    between atoms: C14_41  and  N9_42 
REMARK   13  A    between atoms: N9_42  and  C15_44 
REMARK   14  A    between atoms: C15_44  and  O8_45 
REMARK   15  A    between atoms: C15_44  and  C16_47 
REMARK   16  A    between atoms: C16_47  and  C17_48 
REMARK   17  A    between atoms: C16_47  and  C19_52 
REMARK   18  A    between atoms: C17_48  and  C18_49 
REMARK   19  A    between atoms: C19_52  and  O10_53 
REMARK   20  A    between atoms: C19_52  and  O11_55 
ROOT
HETATM    1  C3  UNL     1      58.254  43.828  60.251  1.00  0.00     0.171 A 
HETATM    2  N1  UNL     1      57.851  42.584  59.838  1.00  0.00    -0.179 N 
ATOM      3  H1  UNL     1      57.807  41.751  60.426  1.00  0.00     0.184 HD
HETATM    4  C4  UNL     1      57.526  42.635  58.552  1.00  0.00     0.712 A 
HETATM    5  N2  UNL     1      57.119  41.622  57.891  1.00  0.00    -0.176 N 
ATOM      6  H2  UNL     1      57.054  40.748  58.413  1.00  0.00     0.185 HD
HETATM    7  N8  UNL     1      57.718  43.881  58.150  1.00  0.00    -0.033 N 
HETATM    8  C14 UNL     1      58.185  44.690  59.190  1.00  0.00     0.183 A 
ENDROOT
BRANCH   5   9
HETATM    9  C5  UNL     1      56.753  41.556  56.551  1.00  0.00     0.134 C 
HETATM   10  N3  UNL     1      55.714  42.066  56.000  1.00  0.00    -0.184 N 
HETATM   11  C6  UNL     1      55.678  41.788  54.554  1.00  0.00     0.300 C 
HETATM   12  C7  UNL     1      57.174  41.598  54.236  1.00  0.00     0.283 C 
HETATM   13  C8  UNL     1      57.559  40.844  55.494  1.00  0.00     0.113 C 
BRANCH  10  14
HETATM   14  O3  UNL     1      54.692  42.810  56.591  1.00  0.00    -0.281 OA
ATOM     15  H3  UNL     1      54.021  42.518  57.197  1.00  0.00     0.245 HD
ENDBRANCH  10  14
BRANCH  11  16
HETATM   16  O4  UNL     1      54.927  40.694  54.227  1.00  0.00    -0.345 OA
ATOM     17  H4  UNL     1      55.176  40.296  53.401  1.00  0.00     0.215 HD
ENDBRANCH  11  16
BRANCH  11  18
HETATM   18  O5  UNL     1      55.258  42.893  53.822  1.00  0.00    -0.345 OA
ATOM     19  H5  UNL     1      55.136  42.686  52.903  1.00  0.00     0.215 HD
ENDBRANCH  11  18
BRANCH  12  20
HETATM   20  N4  UNL     1      57.809  42.868  54.089  1.00  0.00    -0.067 N 
ATOM     21  H43 UNL     1      57.134  43.618  53.945  1.00  0.00     0.275 HD
ATOM     22  H42 UNL     1      58.212  43.197  54.966  1.00  0.00     0.275 HD
ATOM     23  H41 UNL     1      58.502  42.829  53.341  1.00  0.00     0.275 HD
ENDBRANCH  12  20
BRANCH  13  24
HETATM   24  C9  UNL     1      59.012  40.799  55.809  1.00  0.00     0.161 C 
BRANCH  24  25
HETATM   25  N5  UNL     1      59.606  39.496  55.846  1.00  0.00    -0.193 N 
HETATM   26  C10 UNL     1      59.053  38.405  56.380  1.00  0.00     0.114 A 
HETATM   27  C11 UNL     1      59.681  37.148  56.360  1.00  0.00     0.092 A 
HETATM   28  C12 UNL     1      60.912  37.029  55.771  1.00  0.00     0.260 A 
HETATM   29  O6  UNL     1      61.551  35.945  55.704  1.00  0.00    -0.268 OA
HETATM   30  N6  UNL     1      61.453  38.137  55.237  1.00  0.00    -0.156 N 
HETATM   31  C13 UNL     1      60.838  39.311  55.270  1.00  0.00     0.680 A 
ATOM     32  H6  UNL     1      62.369  38.074  54.792  1.00  0.00     0.187 HD
BRANCH  31  33
HETATM   33  N7  UNL     1      61.401  40.345  54.743  1.00  0.00    -0.234 N 
ATOM     34  H72 UNL     1      61.421  40.450  53.728  1.00  0.00     0.174 HD
ATOM     35  H71 UNL     1      61.809  41.027  55.383  1.00  0.00     0.174 HD
ENDBRANCH  31  33
ENDBRANCH  24  25
ENDBRANCH  13  24
ENDBRANCH   5   9
BRANCH   7  36
HETATM   36  O7  UNL     1      57.484  44.301  56.879  1.00  0.00    -0.268 OA
ATOM     37  H7  UNL     1      56.826  44.948  56.656  1.00  0.00     0.246 HD
ENDBRANCH   7  36
BRANCH   1  38
HETATM   38  C2  UNL     1      58.583  44.107  61.641  1.00  0.00     0.314 C 
HETATM   39  O2  UNL     1      58.127  43.555  62.642  1.00  0.00    -0.257 OA
BRANCH  38  40
HETATM   40  O1  UNL     1      59.532  45.126  61.922  1.00  0.00    -0.321 OA
HETATM   41  C1  UNL     1      59.070  46.324  62.503  1.00  0.00     0.213 C 
ENDBRANCH  38  40
ENDBRANCH   1  38
BRANCH   8  42
HETATM   42  N9  UNL     1      58.555  46.014  58.952  1.00  0.00    -0.345 N 
ATOM     43  H9  UNL     1      57.761  46.649  58.864  1.00  0.00     0.163 HD
BRANCH  42  44
HETATM   44  C15 UNL     1      59.795  46.647  58.811  1.00  0.00     0.228 C 
BRANCH  44  45
HETATM   45  O8  UNL     1      60.842  45.973  59.504  1.00  0.00    -0.376 OA
ATOM     46  H8  UNL     1      61.101  45.163  59.081  1.00  0.00     0.212 HD
ENDBRANCH  44  45
BRANCH  44  47
HETATM   47  C16 UNL     1      60.261  46.616  57.315  1.00  0.00     0.097 C 
BRANCH  47  48
HETATM   48  C17 UNL     1      59.604  47.667  56.504  1.00  0.00     0.113 C 
BRANCH  48  49
HETATM   49  C18 UNL     1      58.601  47.146  55.547  1.00  0.00     0.231 C 
HETATM   50  N10 UNL     1      58.925  46.980  54.172  1.00  0.00    -0.062 NA
HETATM   51  O9  UNL     1      57.423  46.826  55.890  1.00  0.00    -0.277 OA
ENDBRANCH  48  49
ENDBRANCH  47  48
BRANCH  47  52
HETATM   52  C19 UNL     1      61.746  46.659  57.338  1.00  0.00     0.262 C 
BRANCH  52  53
HETATM   53  O10 UNL     1      62.351  45.491  56.936  1.00  0.00    -0.371 OA
ATOM     54  H10 UNL     1      62.833  45.044  57.621  1.00  0.00     0.212 HD
ENDBRANCH  52  53
BRANCH  52  55
HETATM   55  O11 UNL     1      62.295  47.733  56.644  1.00  0.00    -0.371 OA
ATOM     56  H11 UNL     1      63.187  47.940  56.893  1.00  0.00     0.212 HD
ENDBRANCH  52  55
ENDBRANCH  47  52
ENDBRANCH  44  47
ENDBRANCH  42  44
ENDBRANCH   8  42
TORSDOF 20
ENDMDL
