MODEL 1
REMARK VINA RESULT: -7.111219347      0.000      0.000
REMARK  4 active torsions:
REMARK  status: ('A' for Active; 'I' for Inactive)
REMARK    1  A    between atoms: C2_2  and  N1_3 
REMARK       I    between atoms: N3_9  and  C6_11 
REMARK       I    between atoms: C6_11  and  N4_13 
REMARK    2  A    between atoms: N4_13  and  C7_15 
REMARK    3  A    between atoms: C7_15  and  C9_17 
REMARK       I    between atoms: C9_17  and  N5_19 
REMARK    4  A    between atoms: N5_19  and  C10_21 
ROOT
HETATM    1  N1  UNL     1      46.932  -0.738  93.442  1.00  0.00    -0.192 N 
HETATM    2  C3  UNL     1      46.863  -2.077  93.518  1.00  0.00     0.126 A 
HETATM    3  C4  UNL     1      45.607  -2.421  93.065  1.00  0.00     0.124 A 
HETATM    4  N2  UNL     1      44.962  -1.289  92.733  1.00  0.00    -0.200 N 
ATOM      5  H2  UNL     1      44.012  -1.236  92.367  1.00  0.00     0.183 HD
HETATM    6  C5  UNL     1      45.781  -0.223  92.964  1.00  0.00     0.688 A 
HETATM    7  N3  UNL     1      45.536   1.030  92.774  1.00  0.00    -0.141 N 
ATOM      8  H3  UNL     1      46.240   1.736  92.989  1.00  0.00     0.189 HD
HETATM    9  C6  UNL     1      44.265   1.406  92.262  1.00  0.00     0.335 C 
HETATM   10  O1  UNL     1      43.963   0.943  91.120  1.00  0.00    -0.246 OA
HETATM   11  N4  UNL     1      43.367   2.247  92.961  1.00  0.00    -0.330 N 
ATOM     12  H4  UNL     1      43.633   2.607  93.877  1.00  0.00     0.165 HD
ENDROOT
BRANCH  11  13
HETATM   13  C7  UNL     1      42.087   2.608  92.411  1.00  0.00     0.174 C 
HETATM   14  C8  UNL     1      41.502   3.838  93.066  1.00  0.00     0.042 C 
BRANCH  13  15
HETATM   15  C9  UNL     1      41.098   1.507  92.588  1.00  0.00     0.241 C 
HETATM   16  O2  UNL     1      40.510   1.441  93.717  1.00  0.00    -0.271 OA
HETATM   17  N5  UNL     1      40.792   0.568  91.604  1.00  0.00    -0.337 N 
ATOM     18  H5  UNL     1      41.260   0.616  90.699  1.00  0.00     0.164 HD
BRANCH  17  19
HETATM   19  C10 UNL     1      39.824  -0.468  91.852  1.00  0.00     0.102 C 
HETATM   20  C11 UNL     1      39.363  -1.039  90.513  1.00  0.00     0.056 C 
HETATM   21  C12 UNL     1      40.427  -1.586  92.690  1.00  0.00     0.056 C 
HETATM   22 CL1  UNL     1      38.380   0.131  92.688  1.00  0.00    -0.096 Cl
ENDBRANCH  17  19
ENDBRANCH  13  15
ENDBRANCH  11  13
BRANCH   1  23
HETATM   23  C2  UNL     1      48.075   0.072  93.815  1.00  0.00     0.142 C 
HETATM   24  C1  UNL     1      49.113   0.164  92.745  1.00  0.00     0.027 C 
ENDBRANCH   1  23
TORSDOF 4
ENDMDL
MODEL 2
REMARK VINA RESULT: -6.773170641      1.958      2.404
REMARK  4 active torsions:
REMARK  status: ('A' for Active; 'I' for Inactive)
REMARK    1  A    between atoms: C2_2  and  N1_3 
REMARK       I    between atoms: N3_9  and  C6_11 
REMARK       I    between atoms: C6_11  and  N4_13 
REMARK    2  A    between atoms: N4_13  and  C7_15 
REMARK    3  A    between atoms: C7_15  and  C9_17 
REMARK       I    between atoms: C9_17  and  N5_19 
REMARK    4  A    between atoms: N5_19  and  C10_21 
ROOT
HETATM    1  N1  UNL     1      47.377   1.612  91.764  1.00  0.00    -0.192 N 
HETATM    2  C3  UNL     1      47.775   1.425  90.496  1.00  0.00     0.126 A 
HETATM    3  C4  UNL     1      46.660   1.627  89.710  1.00  0.00     0.124 A 
HETATM    4  N2  UNL     1      45.631   1.927  90.523  1.00  0.00    -0.200 N 
ATOM      5  H2  UNL     1      44.678   2.126  90.220  1.00  0.00     0.183 HD
HETATM    6  C5  UNL     1      46.065   1.922  91.815  1.00  0.00     0.688 A 
HETATM    7  N3  UNL     1      45.388   2.160  92.888  1.00  0.00    -0.141 N 
ATOM      8  H3  UNL     1      45.834   2.125  93.804  1.00  0.00     0.189 HD
HETATM    9  C6  UNL     1      44.006   2.472  92.766  1.00  0.00     0.335 C 
HETATM   10  O1  UNL     1      43.724   3.506  92.088  1.00  0.00    -0.246 OA
HETATM   11  N4  UNL     1      42.982   1.694  93.356  1.00  0.00    -0.330 N 
ATOM     12  H4  UNL     1      43.235   0.867  93.898  1.00  0.00     0.165 HD
ENDROOT
BRANCH  11  13
HETATM   13  C7  UNL     1      41.593   2.040  93.213  1.00  0.00     0.174 C 
HETATM   14  C8  UNL     1      40.956   2.431  94.526  1.00  0.00     0.042 C 
BRANCH  13  15
HETATM   15  C9  UNL     1      40.808   0.894  92.672  1.00  0.00     0.241 C 
HETATM   16  O2  UNL     1      39.801   1.181  91.945  1.00  0.00    -0.271 OA
HETATM   17  N5  UNL     1      41.114  -0.444  92.916  1.00  0.00    -0.337 N 
ATOM     18  H5  UNL     1      41.918  -0.679  93.498  1.00  0.00     0.164 HD
BRANCH  17  19
HETATM   19  C10 UNL     1      40.306  -1.496  92.357  1.00  0.00     0.102 C 
HETATM   20  C11 UNL     1      40.448  -1.469  90.836  1.00  0.00     0.056 C 
HETATM   21  C12 UNL     1      40.753  -2.857  92.874  1.00  0.00     0.056 C 
HETATM   22 CL1  UNL     1      38.583  -1.305  92.724  1.00  0.00    -0.096 Cl
ENDBRANCH  17  19
ENDBRANCH  13  15
ENDBRANCH  11  13
BRANCH   1  23
HETATM   23  C2  UNL     1      48.219   1.505  92.939  1.00  0.00     0.142 C 
HETATM   24  C1  UNL     1      48.346   0.108  93.454  1.00  0.00     0.027 C 
ENDBRANCH   1  23
TORSDOF 4
ENDMDL
MODEL 3
REMARK VINA RESULT: -6.751785917      1.679      2.126
REMARK  4 active torsions:
REMARK  status: ('A' for Active; 'I' for Inactive)
REMARK    1  A    between atoms: C2_2  and  N1_3 
REMARK       I    between atoms: N3_9  and  C6_11 
REMARK       I    between atoms: C6_11  and  N4_13 
REMARK    2  A    between atoms: N4_13  and  C7_15 
REMARK    3  A    between atoms: C7_15  and  C9_17 
REMARK       I    between atoms: C9_17  and  N5_19 
REMARK    4  A    between atoms: N5_19  and  C10_21 
ROOT
HETATM    1  N1  UNL     1      45.317  -3.084  92.736  1.00  0.00    -0.192 N 
HETATM    2  C3  UNL     1      44.777  -4.261  92.380  1.00  0.00     0.126 A 
HETATM    3  C4  UNL     1      43.605  -3.961  91.719  1.00  0.00     0.124 A 
HETATM    4  N2  UNL     1      43.474  -2.623  91.696  1.00  0.00    -0.200 N 
ATOM      5  H2  UNL     1      42.700  -2.112  91.272  1.00  0.00     0.183 HD
HETATM    6  C5  UNL     1      44.541  -2.058  92.330  1.00  0.00     0.688 A 
HETATM    7  N3  UNL     1      44.787  -0.805  92.520  1.00  0.00    -0.141 N 
ATOM      8  H3  UNL     1      45.629  -0.510  93.014  1.00  0.00     0.189 HD
HETATM    9  C6  UNL     1      43.861   0.154  92.027  1.00  0.00     0.335 C 
HETATM   10  O1  UNL     1      43.667   0.151  90.774  1.00  0.00    -0.246 OA
HETATM   11  N4  UNL     1      43.181   1.073  92.862  1.00  0.00    -0.330 N 
ATOM     12  H4  UNL     1      43.356   1.055  93.867  1.00  0.00     0.165 HD
ENDROOT
BRANCH  11  13
HETATM   13  C7  UNL     1      42.250   2.031  92.328  1.00  0.00     0.174 C 
HETATM   14  C8  UNL     1      42.114   3.255  93.204  1.00  0.00     0.042 C 
BRANCH  13  15
HETATM   15  C9  UNL     1      40.889   1.438  92.192  1.00  0.00     0.241 C 
HETATM   16  O2  UNL     1      39.911   2.254  92.145  1.00  0.00    -0.271 OA
HETATM   17  N5  UNL     1      40.640   0.069  92.118  1.00  0.00    -0.337 N 
ATOM     18  H5  UNL     1      41.419  -0.588  92.156  1.00  0.00     0.164 HD
BRANCH  17  19
HETATM   19  C10 UNL     1      39.295  -0.428  91.988  1.00  0.00     0.102 C 
HETATM   20  C11 UNL     1      38.996  -0.653  90.506  1.00  0.00     0.056 C 
HETATM   21  C12 UNL     1      39.127  -1.743  92.735  1.00  0.00     0.056 C 
HETATM   22 CL1  UNL     1      38.083   0.713  92.597  1.00  0.00    -0.096 Cl
ENDBRANCH  17  19
ENDBRANCH  13  15
ENDBRANCH  11  13
BRANCH   1  23
HETATM   23  C2  UNL     1      46.562  -2.908  93.456  1.00  0.00     0.142 C 
HETATM   24  C1  UNL     1      46.851  -4.010  94.423  1.00  0.00     0.027 C 
ENDBRANCH   1  23
TORSDOF 4
ENDMDL
MODEL 4
REMARK VINA RESULT: -6.735803869      2.508      2.953
REMARK  4 active torsions:
REMARK  status: ('A' for Active; 'I' for Inactive)
REMARK    1  A    between atoms: C2_2  and  N1_3 
REMARK       I    between atoms: N3_9  and  C6_11 
REMARK       I    between atoms: C6_11  and  N4_13 
REMARK    2  A    between atoms: N4_13  and  C7_15 
REMARK    3  A    between atoms: C7_15  and  C9_17 
REMARK       I    between atoms: C9_17  and  N5_19 
REMARK    4  A    between atoms: N5_19  and  C10_21 
ROOT
HETATM    1  N1  UNL     1      45.679   1.824  90.646  1.00  0.00    -0.192 N 
HETATM    2  C3  UNL     1      45.837   0.981  89.612  1.00  0.00     0.126 A 
HETATM    3  C4  UNL     1      44.568   0.614  89.220  1.00  0.00     0.124 A 
HETATM    4  N2  UNL     1      43.689   1.241  90.022  1.00  0.00    -0.200 N 
ATOM      5  H2  UNL     1      42.675   1.159  89.966  1.00  0.00     0.183 HD
HETATM    6  C5  UNL     1      44.371   2.005  90.922  1.00  0.00     0.688 A 
HETATM    7  N3  UNL     1      43.895   2.756  91.858  1.00  0.00    -0.141 N 
ATOM      8  H3  UNL     1      44.518   3.282  92.470  1.00  0.00     0.189 HD
HETATM    9  C6  UNL     1      42.485   2.835  92.016  1.00  0.00     0.335 C 
HETATM   10  O1  UNL     1      41.834   3.276  91.021  1.00  0.00    -0.246 OA
HETATM   11  N4  UNL     1      41.818   2.454  93.205  1.00  0.00    -0.330 N 
ATOM     12  H4  UNL     1      42.365   2.103  93.992  1.00  0.00     0.165 HD
ENDROOT
BRANCH  11  13
HETATM   13  C7  UNL     1      40.387   2.548  93.331  1.00  0.00     0.174 C 
HETATM   14  C8  UNL     1      39.943   2.702  94.767  1.00  0.00     0.042 C 
BRANCH  13  15
HETATM   15  C9  UNL     1      39.721   1.326  92.797  1.00  0.00     0.241 C 
HETATM   16  O2  UNL     1      38.507   1.451  92.427  1.00  0.00    -0.271 OA
HETATM   17  N5  UNL     1      40.344   0.085  92.685  1.00  0.00    -0.337 N 
ATOM     18  H5  UNL     1      41.314  -0.021  92.981  1.00  0.00     0.164 HD
BRANCH  17  19
HETATM   19  C10 UNL     1      39.632  -1.050  92.158  1.00  0.00     0.102 C 
HETATM   20  C11 UNL     1      40.432  -2.316  92.463  1.00  0.00     0.056 C 
HETATM   21  C12 UNL     1      38.253  -1.169  92.792  1.00  0.00     0.056 C 
HETATM   22 CL1  UNL     1      39.427  -0.974  90.399  1.00  0.00    -0.096 Cl
ENDBRANCH  17  19
ENDBRANCH  13  15
ENDBRANCH  11  13
BRANCH   1  23
HETATM   23  C2  UNL     1      46.748   2.469  91.382  1.00  0.00     0.142 C 
HETATM   24  C1  UNL     1      47.607   1.512  92.144  1.00  0.00     0.027 C 
ENDBRANCH   1  23
TORSDOF 4
ENDMDL
MODEL 5
REMARK VINA RESULT: -6.627002987      2.177      3.379
REMARK  4 active torsions:
REMARK  status: ('A' for Active; 'I' for Inactive)
REMARK    1  A    between atoms: C2_2  and  N1_3 
REMARK       I    between atoms: N3_9  and  C6_11 
REMARK       I    between atoms: C6_11  and  N4_13 
REMARK    2  A    between atoms: N4_13  and  C7_15 
REMARK    3  A    between atoms: C7_15  and  C9_17 
REMARK       I    between atoms: C9_17  and  N5_19 
REMARK    4  A    between atoms: N5_19  and  C10_21 
ROOT
HETATM    1  N1  UNL     1      47.571   1.001  92.300  1.00  0.00    -0.192 N 
HETATM    2  C3  UNL     1      47.819   1.909  91.342  1.00  0.00     0.126 A 
HETATM    3  C4  UNL     1      46.591   2.402  90.955  1.00  0.00     0.124 A 
HETATM    4  N2  UNL     1      45.648   1.782  91.685  1.00  0.00    -0.200 N 
ATOM      5  H2  UNL     1      44.644   1.946  91.615  1.00  0.00     0.183 HD
HETATM    6  C5  UNL     1      46.247   0.900  92.534  1.00  0.00     0.688 A 
HETATM    7  N3  UNL     1      45.692   0.116  93.397  1.00  0.00    -0.141 N 
ATOM      8  H3  UNL     1      46.257  -0.503  93.978  1.00  0.00     0.189 HD
HETATM    9  C6  UNL     1      44.276   0.131  93.519  1.00  0.00     0.335 C 
HETATM   10  O1  UNL     1      43.755   1.238  93.854  1.00  0.00    -0.246 OA
HETATM   11  N4  UNL     1      43.467  -1.007  93.288  1.00  0.00    -0.330 N 
ATOM     12  H4  UNL     1      43.910  -1.886  93.020  1.00  0.00     0.165 HD
ENDROOT
BRANCH  11  13
HETATM   13  C7  UNL     1      42.035  -0.955  93.422  1.00  0.00     0.174 C 
HETATM   14  C8  UNL     1      41.346  -2.096  92.710  1.00  0.00     0.042 C 
BRANCH  13  15
HETATM   15  C9  UNL     1      41.489   0.309  92.850  1.00  0.00     0.241 C 
HETATM   16  O2  UNL     1      41.512   0.420  91.580  1.00  0.00    -0.271 OA
HETATM   17  N5  UNL     1      40.968   1.349  93.616  1.00  0.00    -0.337 N 
ATOM     18  H5  UNL     1      40.948   1.266  94.633  1.00  0.00     0.164 HD
BRANCH  17  19
HETATM   19  C10 UNL     1      40.458   2.541  92.989  1.00  0.00     0.102 C 
HETATM   20  C11 UNL     1      39.034   2.272  92.508  1.00  0.00     0.056 C 
HETATM   21  C12 UNL     1      40.441   3.706  93.969  1.00  0.00     0.056 C 
HETATM   22 CL1  UNL     1      41.405   3.026  91.571  1.00  0.00    -0.096 Cl
ENDBRANCH  17  19
ENDBRANCH  13  15
ENDBRANCH  11  13
BRANCH   1  23
HETATM   23  C2  UNL     1      48.569   0.222  93.005  1.00  0.00     0.142 C 
HETATM   24  C1  UNL     1      49.831   0.030  92.229  1.00  0.00     0.027 C 
ENDBRANCH   1  23
TORSDOF 4
ENDMDL
