MODEL 1
REMARK VINA RESULT: -8.687276236      0.000      0.000
REMARK  6 active torsions:
REMARK  status: ('A' for Active; 'I' for Inactive)
REMARK    1  A    between atoms: C2_2  and  N1_3 
REMARK    2  A    between atoms: C2_2  and  C7_16 
REMARK    3  A    between atoms: C3_5  and  O1_6 
REMARK    4  A    between atoms: C3_5  and  C4_8 
REMARK    5  A    between atoms: C7_16  and  C9_18 
REMARK    6  A    between atoms: C13_24  and  C14_25 
ROOT
HETATM    1  C14 UNL     1      42.142   3.084  91.861  1.00  0.00    -0.029 C 
HETATM    2  C15 UNL     1      42.782   3.044  90.814  1.00  0.00     0.111 C 
HETATM    3  F1  UNL     1      43.496   2.968  89.665  1.00  0.00    -0.143 F 
ENDROOT
BRANCH   1   4
HETATM    4  C13 UNL     1      41.341   3.074  93.038  1.00  0.00     0.050 A 
HETATM    5  C9  UNL     1      40.117   2.372  93.176  1.00  0.00    -0.013 A 
HETATM    6  C10 UNL     1      39.632   2.746  94.402  1.00  0.00     0.097 A 
HETATM    7  N4  UNL     1      40.514   3.622  94.983  1.00  0.00    -0.368 N 
HETATM    8  C11 UNL     1      41.533   3.821  94.164  1.00  0.00     0.024 A 
ATOM      9  H4  UNL     1      40.402   4.052  95.901  1.00  0.00     0.165 HD
HETATM   10  C12 UNL     1      42.706   4.726  94.402  1.00  0.00     0.070 C 
BRANCH   5  11
HETATM   11  C7  UNL     1      39.701   1.368  92.209  1.00  0.00     0.062 C 
HETATM   12  C8  UNL     1      38.150   1.212  92.352  1.00  0.00     0.021 C 
BRANCH  11  13
HETATM   13  C2  UNL     1      40.158  -0.066  92.619  1.00  0.00    -0.007 C 
HETATM   14  C1  UNL     1      39.068  -1.058  92.401  1.00  0.00     0.064 C 
BRANCH  13  15
HETATM   15  N1  UNL     1      41.172  -0.327  93.196  1.00  0.00    -0.342 N 
HETATM   16  C3  UNL     1      42.405  -0.849  93.151  1.00  0.00     0.169 C 
ATOM     17  H1  UNL     1      41.037  -0.009  94.156  1.00  0.00     0.167 HD
BRANCH  16  18
HETATM   18  O1  UNL     1      43.383  -0.188  93.766  1.00  0.00    -0.344 OA
ATOM     19  H1  UNL     1      43.332  -0.097  94.710  1.00  0.00     0.219 HD
ENDBRANCH  16  18
BRANCH  16  20
HETATM   20  C4  UNL     1      42.921  -2.073  92.547  1.00  0.00     0.103 A 
HETATM   21  C5  UNL     1      42.523  -2.610  91.317  1.00  0.00     0.127 A 
HETATM   22  N2  UNL     1      43.259  -3.676  91.011  1.00  0.00    -0.316 N 
HETATM   23  C6  UNL     1      44.155  -3.872  92.023  1.00  0.00     0.324 A 
ATOM     24  H2  UNL     1      43.170  -4.246  90.169  1.00  0.00     0.170 HD
HETATM   25  O2  UNL     1      45.028  -4.760  92.122  1.00  0.00    -0.247 OA
HETATM   26  N3  UNL     1      43.918  -2.887  92.929  1.00  0.00    -0.304 N 
ATOM     27  H3  UNL     1      44.438  -2.778  93.799  1.00  0.00     0.171 HD
ENDBRANCH  16  20
ENDBRANCH  13  15
ENDBRANCH  11  13
ENDBRANCH   5  11
ENDBRANCH   1   4
TORSDOF 6
ENDMDL
MODEL 2
REMARK VINA RESULT: -8.577387446      2.746      4.473
REMARK  6 active torsions:
REMARK  status: ('A' for Active; 'I' for Inactive)
REMARK    1  A    between atoms: C2_2  and  N1_3 
REMARK    2  A    between atoms: C2_2  and  C7_16 
REMARK    3  A    between atoms: C3_5  and  O1_6 
REMARK    4  A    between atoms: C3_5  and  C4_8 
REMARK    5  A    between atoms: C7_16  and  C9_18 
REMARK    6  A    between atoms: C13_24  and  C14_25 
ROOT
HETATM    1  C14 UNL     1      40.993  -0.455  92.880  1.00  0.00    -0.029 C 
HETATM    2  C15 UNL     1      41.797  -1.363  93.071  1.00  0.00     0.111 C 
HETATM    3  F1  UNL     1      42.659  -2.384  93.292  1.00  0.00    -0.143 F 
ENDROOT
BRANCH   1   4
HETATM    4  C13 UNL     1      40.024   0.549  92.595  1.00  0.00     0.050 A 
HETATM    5  C9  UNL     1      39.954   1.810  93.238  1.00  0.00    -0.013 A 
HETATM    6  C10 UNL     1      38.810   2.390  92.755  1.00  0.00     0.097 A 
HETATM    7  N4  UNL     1      38.218   1.532  91.862  1.00  0.00    -0.368 N 
HETATM    8  C11 UNL     1      38.942   0.430  91.770  1.00  0.00     0.024 A 
ATOM      9  H4  UNL     1      37.355   1.716  91.349  1.00  0.00     0.165 HD
HETATM   10  C12 UNL     1      38.637  -0.771  90.925  1.00  0.00     0.070 C 
BRANCH   5  11
HETATM   11  C7  UNL     1      41.043   2.304  94.066  1.00  0.00     0.062 C 
HETATM   12  C8  UNL     1      40.393   2.983  95.318  1.00  0.00     0.021 C 
BRANCH  11  13
HETATM   13  C2  UNL     1      41.753   3.538  93.426  1.00  0.00    -0.007 C 
HETATM   14  C1  UNL     1      41.482   4.776  94.209  1.00  0.00     0.064 C 
BRANCH  13  15
HETATM   15  N1  UNL     1      42.294   3.545  92.361  1.00  0.00    -0.342 N 
HETATM   16  C3  UNL     1      42.769   2.846  91.321  1.00  0.00     0.169 C 
ATOM     17  H1  UNL     1      42.478   4.525  92.146  1.00  0.00     0.167 HD
BRANCH  16  18
HETATM   18  O1  UNL     1      42.522   3.307  90.097  1.00  0.00    -0.344 OA
ATOM     19  H1  UNL     1      41.944   4.056  90.013  1.00  0.00     0.219 HD
ENDBRANCH  16  18
BRANCH  16  20
HETATM   20  C4  UNL     1      43.562   1.623  91.252  1.00  0.00     0.103 A 
HETATM   21  C5  UNL     1      44.456   1.171  92.230  1.00  0.00     0.127 A 
HETATM   22  N2  UNL     1      44.940  -0.027  91.905  1.00  0.00    -0.316 N 
HETATM   23  C6  UNL     1      44.384  -0.394  90.713  1.00  0.00     0.324 A 
ATOM     24  H2  UNL     1      45.607  -0.572  92.451  1.00  0.00     0.170 HD
HETATM   25  O2  UNL     1      44.569  -1.446  90.066  1.00  0.00    -0.247 OA
HETATM   26  N3  UNL     1      43.562   0.626  90.352  1.00  0.00    -0.304 N 
ATOM     27  H3  UNL     1      43.008   0.635  89.496  1.00  0.00     0.171 HD
ENDBRANCH  16  20
ENDBRANCH  13  15
ENDBRANCH  11  13
ENDBRANCH   5  11
ENDBRANCH   1   4
TORSDOF 6
ENDMDL
MODEL 3
REMARK VINA RESULT: -8.517151345      3.127      4.908
REMARK  6 active torsions:
REMARK  status: ('A' for Active; 'I' for Inactive)
REMARK    1  A    between atoms: C2_2  and  N1_3 
REMARK    2  A    between atoms: C2_2  and  C7_16 
REMARK    3  A    between atoms: C3_5  and  O1_6 
REMARK    4  A    between atoms: C3_5  and  C4_8 
REMARK    5  A    between atoms: C7_16  and  C9_18 
REMARK    6  A    between atoms: C13_24  and  C14_25 
ROOT
HETATM    1  C14 UNL     1      41.438  -0.290  92.787  1.00  0.00    -0.029 C 
HETATM    2  C15 UNL     1      42.384  -1.066  92.886  1.00  0.00     0.111 C 
HETATM    3  F1  UNL     1      43.407  -1.948  92.990  1.00  0.00    -0.143 F 
ENDROOT
BRANCH   1   4
HETATM    4  C13 UNL     1      40.335   0.589  92.586  1.00  0.00     0.050 A 
HETATM    5  C9  UNL     1      40.111   1.783  93.314  1.00  0.00    -0.013 A 
HETATM    6  C10 UNL     1      38.887   2.231  92.890  1.00  0.00     0.097 A 
HETATM    7  N4  UNL     1      38.394   1.360  91.950  1.00  0.00    -0.368 N 
HETATM    8  C11 UNL     1      39.259   0.376  91.772  1.00  0.00     0.024 A 
ATOM      9  H4  UNL     1      37.502   1.457  91.465  1.00  0.00     0.165 HD
HETATM   10  C12 UNL     1      39.099  -0.798  90.852  1.00  0.00     0.070 C 
BRANCH   5  11
HETATM   11  C7  UNL     1      41.144   2.368  94.156  1.00  0.00     0.062 C 
HETATM   12  C8  UNL     1      40.417   3.043  95.367  1.00  0.00     0.021 C 
BRANCH  11  13
HETATM   13  C2  UNL     1      41.797   3.622  93.497  1.00  0.00    -0.007 C 
HETATM   14  C1  UNL     1      41.728   4.801  94.406  1.00  0.00     0.064 C 
BRANCH  13  15
HETATM   15  N1  UNL     1      42.149   3.697  92.357  1.00  0.00    -0.342 N 
HETATM   16  C3  UNL     1      42.834   3.157  91.340  1.00  0.00     0.169 C 
ATOM     17  H1  UNL     1      41.745   4.561  91.996  1.00  0.00     0.167 HD
BRANCH  16  18
HETATM   18  O1  UNL     1      42.267   3.162  90.136  1.00  0.00    -0.344 OA
ATOM     19  H1  UNL     1      42.817   3.362  89.387  1.00  0.00     0.219 HD
ENDBRANCH  16  18
BRANCH  16  20
HETATM   20  C4  UNL     1      44.158   2.547  91.275  1.00  0.00     0.103 A 
HETATM   21  C5  UNL     1      44.856   1.988  92.353  1.00  0.00     0.127 A 
HETATM   22  N2  UNL     1      45.990   1.427  91.937  1.00  0.00    -0.316 N 
HETATM   23  C6  UNL     1      46.072   1.600  90.584  1.00  0.00     0.324 A 
ATOM     24  H2  UNL     1      46.676   0.953  92.524  1.00  0.00     0.170 HD
HETATM   25  O2  UNL     1      46.974   1.219  89.810  1.00  0.00    -0.247 OA
HETATM   26  N3  UNL     1      44.951   2.280  90.225  1.00  0.00    -0.304 N 
ATOM     27  H3  UNL     1      44.736   2.555  89.267  1.00  0.00     0.171 HD
ENDBRANCH  16  20
ENDBRANCH  13  15
ENDBRANCH  11  13
ENDBRANCH   5  11
ENDBRANCH   1   4
TORSDOF 6
ENDMDL
MODEL 4
REMARK VINA RESULT: -8.487081646      2.012      2.279
REMARK  6 active torsions:
REMARK  status: ('A' for Active; 'I' for Inactive)
REMARK    1  A    between atoms: C2_2  and  N1_3 
REMARK    2  A    between atoms: C2_2  and  C7_16 
REMARK    3  A    between atoms: C3_5  and  O1_6 
REMARK    4  A    between atoms: C3_5  and  C4_8 
REMARK    5  A    between atoms: C7_16  and  C9_18 
REMARK    6  A    between atoms: C13_24  and  C14_25 
ROOT
HETATM    1  C14 UNL     1      42.017   3.003  91.588  1.00  0.00    -0.029 C 
HETATM    2  C15 UNL     1      42.694   3.040  90.564  1.00  0.00     0.111 C 
HETATM    3  F1  UNL     1      43.458   3.056  89.446  1.00  0.00    -0.143 F 
ENDROOT
BRANCH   1   4
HETATM    4  C13 UNL     1      41.200   2.882  92.748  1.00  0.00     0.050 A 
HETATM    5  C9  UNL     1      40.138   1.954  92.894  1.00  0.00    -0.013 A 
HETATM    6  C10 UNL     1      39.551   2.275  94.091  1.00  0.00     0.097 A 
HETATM    7  N4  UNL     1      40.222   3.336  94.647  1.00  0.00    -0.368 N 
HETATM    8  C11 UNL     1      41.204   3.702  93.840  1.00  0.00     0.024 A 
ATOM      9  H4  UNL     1      39.998   3.774  95.541  1.00  0.00     0.165 HD
HETATM   10  C12 UNL     1      42.163   4.835  94.058  1.00  0.00     0.070 C 
BRANCH   5  11
HETATM   11  C7  UNL     1      39.963   0.846  91.969  1.00  0.00     0.062 C 
HETATM   12  C8  UNL     1      38.445   0.460  92.003  1.00  0.00     0.021 C 
BRANCH  11  13
HETATM   13  C2  UNL     1      40.592  -0.475  92.510  1.00  0.00    -0.007 C 
HETATM   14  C1  UNL     1      39.552  -1.526  92.695  1.00  0.00     0.064 C 
BRANCH  13  15
HETATM   15  N1  UNL     1      41.717  -0.594  92.897  1.00  0.00    -0.342 N 
HETATM   16  C3  UNL     1      43.007  -0.259  92.765  1.00  0.00     0.169 C 
ATOM     17  H1  UNL     1      41.675  -1.244  93.682  1.00  0.00     0.167 HD
BRANCH  16  18
HETATM   18  O1  UNL     1      43.698   0.005  93.872  1.00  0.00    -0.344 OA
ATOM     19  H1  UNL     1      43.566   0.850  94.286  1.00  0.00     0.219 HD
ENDBRANCH  16  18
BRANCH  16  20
HETATM   20  C4  UNL     1      43.864  -0.135  91.590  1.00  0.00     0.103 A 
HETATM   21  C5  UNL     1      43.606  -0.681  90.327  1.00  0.00     0.127 A 
HETATM   22  N2  UNL     1      44.535  -0.298  89.453  1.00  0.00    -0.316 N 
HETATM   23  C6  UNL     1      45.425   0.503  90.110  1.00  0.00     0.324 A 
ATOM     24  H2  UNL     1      44.574  -0.558  88.467  1.00  0.00     0.170 HD
HETATM   25  O2  UNL     1      46.438   1.071  89.651  1.00  0.00    -0.247 OA
HETATM   26  N3  UNL     1      44.986   0.576  91.394  1.00  0.00    -0.304 N 
ATOM     27  H3  UNL     1      45.456   1.108  92.126  1.00  0.00     0.171 HD
ENDBRANCH  16  20
ENDBRANCH  13  15
ENDBRANCH  11  13
ENDBRANCH   5  11
ENDBRANCH   1   4
TORSDOF 6
ENDMDL
MODEL 5
REMARK VINA RESULT: -8.380202814      2.917      5.003
REMARK  6 active torsions:
REMARK  status: ('A' for Active; 'I' for Inactive)
REMARK    1  A    between atoms: C2_2  and  N1_3 
REMARK    2  A    between atoms: C2_2  and  C7_16 
REMARK    3  A    between atoms: C3_5  and  O1_6 
REMARK    4  A    between atoms: C3_5  and  C4_8 
REMARK    5  A    between atoms: C7_16  and  C9_18 
REMARK    6  A    between atoms: C13_24  and  C14_25 
ROOT
HETATM    1  C14 UNL     1      39.696  -0.243  92.172  1.00  0.00    -0.029 C 
HETATM    2  C15 UNL     1      38.633  -0.452  91.593  1.00  0.00     0.111 C 
HETATM    3  F1  UNL     1      37.471  -0.663  90.931  1.00  0.00    -0.143 F 
ENDROOT
BRANCH   1   4
HETATM    4  C13 UNL     1      40.969  -0.042  92.776  1.00  0.00     0.050 A 
HETATM    5  C9  UNL     1      41.940  -1.057  92.970  1.00  0.00    -0.013 A 
HETATM    6  C10 UNL     1      42.937  -0.458  93.695  1.00  0.00     0.097 A 
HETATM    7  N4  UNL     1      42.597   0.852  93.925  1.00  0.00    -0.368 N 
HETATM    8  C11 UNL     1      41.418   1.098  93.379  1.00  0.00     0.024 A 
ATOM      9  H4  UNL     1      43.164   1.529  94.435  1.00  0.00     0.165 HD
HETATM   10  C12 UNL     1      40.669   2.397  93.419  1.00  0.00     0.070 C 
BRANCH   5  11
HETATM   11  C7  UNL     1      41.829  -2.351  92.316  1.00  0.00     0.062 C 
HETATM   12  C8  UNL     1      41.884  -3.438  93.442  1.00  0.00     0.021 C 
BRANCH  11  13
HETATM   13  C2  UNL     1      43.121  -2.718  91.521  1.00  0.00    -0.007 C 
HETATM   14  C1  UNL     1      43.981  -3.653  92.300  1.00  0.00     0.064 C 
BRANCH  13  15
HETATM   15  N1  UNL     1      43.476  -2.197  90.506  1.00  0.00    -0.342 N 
HETATM   16  C3  UNL     1      44.140  -1.196  89.912  1.00  0.00     0.169 C 
ATOM     17  H1  UNL     1      43.107  -2.775  89.750  1.00  0.00     0.167 HD
BRANCH  16  18
HETATM   18  O1  UNL     1      44.918  -1.494  88.875  1.00  0.00    -0.344 OA
ATOM     19  H1  UNL     1      45.292  -0.775  88.379  1.00  0.00     0.219 HD
ENDBRANCH  16  18
BRANCH  16  20
HETATM   20  C4  UNL     1      44.171   0.240  90.175  1.00  0.00     0.103 A 
HETATM   21  C5  UNL     1      45.316   1.045  90.187  1.00  0.00     0.127 A 
HETATM   22  N2  UNL     1      44.988   2.324  90.359  1.00  0.00    -0.316 N 
HETATM   23  C6  UNL     1      43.628   2.397  90.465  1.00  0.00     0.324 A 
ATOM     24  H2  UNL     1      45.637   3.109  90.403  1.00  0.00     0.170 HD
HETATM   25  O2  UNL     1      42.919   3.412  90.628  1.00  0.00    -0.247 OA
HETATM   26  N3  UNL     1      43.174   1.121  90.350  1.00  0.00    -0.304 N 
ATOM     27  H3  UNL     1      42.188   0.863  90.393  1.00  0.00     0.171 HD
ENDBRANCH  16  20
ENDBRANCH  13  15
ENDBRANCH  11  13
ENDBRANCH   5  11
ENDBRANCH   1   4
TORSDOF 6
ENDMDL
