MODEL 1
REMARK VINA RESULT: -8.071712339      0.000      0.000
REMARK  6 active torsions:
REMARK  status: ('A' for Active; 'I' for Inactive)
REMARK    1  A    between atoms: C3_5  and  C4_6 
REMARK    2  A    between atoms: C4_6  and  C5_7 
REMARK    3  A    between atoms: C5_7  and  C6_8 
REMARK    4  A    between atoms: C6_8  and  C7_9 
REMARK    5  A    between atoms: C8_10  and  C9_11 
REMARK    6  A    between atoms: C11_14  and  N2_15 
REMARK       I    between atoms: N2_15  and  C12_17 
ROOT
HETATM    1  C1  UNL     1      45.683  -3.352  93.073  1.00  0.00     0.089 C 
HETATM    2  C2  UNL     1      44.590  -2.471  92.585  1.00  0.00     0.078 A 
HETATM    3  N1  UNL     1      43.322  -2.823  92.830  1.00  0.00    -0.350 N 
ATOM      4  H1  UNL     1      43.135  -3.683  93.345  1.00  0.00     0.167 HD
HETATM    5  C3  UNL     1      42.277  -2.061  92.411  1.00  0.00     0.014 A 
HETATM    6  C10 UNL     1      42.552  -0.902  91.717  1.00  0.00     0.073 A 
HETATM    7  C11 UNL     1      43.860  -0.541  91.466  1.00  0.00     0.110 A 
HETATM    8  N5  UNL     1      44.835  -1.334  91.905  1.00  0.00    -0.332 N 
ATOM      9  H5  UNL     1      45.803  -1.070  91.721  1.00  0.00     0.168 HD
ENDROOT
BRANCH   5  10
HETATM   10  C4  UNL     1      40.904  -2.479  92.692  1.00  0.00     0.058 C 
BRANCH  10  11
HETATM   11  C5  UNL     1      39.959  -1.840  91.742  1.00  0.00     0.018 C 
BRANCH  11  12
HETATM   12  C6  UNL     1      38.714  -1.283  92.354  1.00  0.00     0.094 C 
BRANCH  12  13
HETATM   13  C7  UNL     1      38.843   0.175  92.602  1.00  0.00    -0.106 C 
HETATM   14  C8  UNL     1      38.946   1.355  92.825  1.00  0.00    -0.096 C 
BRANCH  14  15
HETATM   15  C9  UNL     1      39.077   2.786  93.118  1.00  0.00     0.178 C 
HETATM   16 BR1  UNL     1      40.060   2.940  94.777  1.00  0.00    -0.083 Br
ENDBRANCH  14  15
ENDBRANCH  12  13
ENDBRANCH  11  12
ENDBRANCH  10  11
ENDBRANCH   5  10
BRANCH   7  17
HETATM   17  N2  UNL     1      44.089   0.534  90.822  1.00  0.00    -0.317 N 
HETATM   18  C12 UNL     1      44.826   0.559  89.624  1.00  0.00     0.187 C 
HETATM   19  N3  UNL     1      44.349   0.098  88.529  1.00  0.00    -0.373 N 
HETATM   20  N4  UNL     1      46.130   1.107  89.628  1.00  0.00    -0.064 NA
ATOM     21  H32 UNL     1      43.409  -0.297  88.526  1.00  0.00     0.158 HD
ATOM     22  H31 UNL     1      44.884   0.116  87.660  1.00  0.00     0.158 HD
ATOM     23  H2  UNL     1      43.722   1.412  91.190  1.00  0.00     0.170 HD
ENDBRANCH   7  17
TORSDOF 6
ENDMDL
MODEL 2
REMARK VINA RESULT: -8.010893186      2.128      3.477
REMARK  6 active torsions:
REMARK  status: ('A' for Active; 'I' for Inactive)
REMARK    1  A    between atoms: C3_5  and  C4_6 
REMARK    2  A    between atoms: C4_6  and  C5_7 
REMARK    3  A    between atoms: C5_7  and  C6_8 
REMARK    4  A    between atoms: C6_8  and  C7_9 
REMARK    5  A    between atoms: C8_10  and  C9_11 
REMARK    6  A    between atoms: C11_14  and  N2_15 
REMARK       I    between atoms: N2_15  and  C12_17 
ROOT
HETATM    1  C1  UNL     1      44.575   0.812  93.372  1.00  0.00     0.089 C 
HETATM    2  C2  UNL     1      44.184  -0.559  92.949  1.00  0.00     0.078 A 
HETATM    3  N1  UNL     1      42.954  -0.755  92.458  1.00  0.00    -0.350 N 
ATOM      4  H1  UNL     1      42.316   0.037  92.385  1.00  0.00     0.167 HD
HETATM    5  C3  UNL     1      42.536  -1.984  92.054  1.00  0.00     0.014 A 
HETATM    6  C10 UNL     1      43.415  -3.040  92.162  1.00  0.00     0.073 A 
HETATM    7  C11 UNL     1      44.682  -2.835  92.668  1.00  0.00     0.110 A 
HETATM    8  N5  UNL     1      45.027  -1.606  93.045  1.00  0.00    -0.332 N 
ATOM      9  H5  UNL     1      45.963  -1.450  93.420  1.00  0.00     0.168 HD
ENDROOT
BRANCH   5  10
HETATM   10  C4  UNL     1      41.183  -2.162  91.528  1.00  0.00     0.058 C 
BRANCH  10  11
HETATM   11  C5  UNL     1      40.202  -2.274  92.638  1.00  0.00     0.018 C 
BRANCH  11  12
HETATM   12  C6  UNL     1      38.941  -1.492  92.460  1.00  0.00     0.094 C 
BRANCH  12  13
HETATM   13  C7  UNL     1      39.205  -0.031  92.495  1.00  0.00    -0.106 C 
HETATM   14  C8  UNL     1      39.440   1.151  92.524  1.00  0.00    -0.096 C 
BRANCH  14  15
HETATM   15  C9  UNL     1      39.748   2.585  92.551  1.00  0.00     0.178 C 
HETATM   16 BR1  UNL     1      41.555   2.792  91.889  1.00  0.00    -0.083 Br
ENDBRANCH  14  15
ENDBRANCH  12  13
ENDBRANCH  11  12
ENDBRANCH  10  11
ENDBRANCH   5  10
BRANCH   7  17
HETATM   17  N2  UNL     1      45.476  -3.827  92.758  1.00  0.00    -0.317 N 
HETATM   18  C12 UNL     1      46.613  -3.816  93.587  1.00  0.00     0.187 C 
HETATM   19  N3  UNL     1      46.518  -3.877  94.863  1.00  0.00    -0.373 N 
HETATM   20  N4  UNL     1      47.896  -3.735  92.998  1.00  0.00    -0.064 NA
ATOM     21  H32 UNL     1      45.593  -3.936  95.288  1.00  0.00     0.158 HD
ATOM     22  H31 UNL     1      47.342  -3.868  95.464  1.00  0.00     0.158 HD
ATOM     23  H2  UNL     1      45.280  -4.663  92.207  1.00  0.00     0.170 HD
ENDBRANCH   7  17
TORSDOF 6
ENDMDL
MODEL 3
REMARK VINA RESULT: -7.939288091      3.063      4.810
REMARK  6 active torsions:
REMARK  status: ('A' for Active; 'I' for Inactive)
REMARK    1  A    between atoms: C3_5  and  C4_6 
REMARK    2  A    between atoms: C4_6  and  C5_7 
REMARK    3  A    between atoms: C5_7  and  C6_8 
REMARK    4  A    between atoms: C6_8  and  C7_9 
REMARK    5  A    between atoms: C8_10  and  C9_11 
REMARK    6  A    between atoms: C11_14  and  N2_15 
REMARK       I    between atoms: N2_15  and  C12_17 
ROOT
HETATM    1  C1  UNL     1      42.371   4.562  94.940  1.00  0.00     0.089 C 
HETATM    2  C2  UNL     1      41.941   3.724  93.790  1.00  0.00     0.078 A 
HETATM    3  N1  UNL     1      40.871   2.933  93.935  1.00  0.00    -0.350 N 
ATOM      4  H1  UNL     1      40.377   2.923  94.827  1.00  0.00     0.167 HD
HETATM    5  C3  UNL     1      40.426   2.142  92.922  1.00  0.00     0.014 A 
HETATM    6  C10 UNL     1      41.109   2.171  91.725  1.00  0.00     0.073 A 
HETATM    7  C11 UNL     1      42.211   2.988  91.577  1.00  0.00     0.110 A 
HETATM    8  N5  UNL     1      42.592   3.736  92.610  1.00  0.00    -0.332 N 
ATOM      9  H5  UNL     1      43.407   4.341  92.505  1.00  0.00     0.168 HD
ENDROOT
BRANCH   5  10
HETATM   10  C4  UNL     1      39.257   1.286  93.118  1.00  0.00     0.058 C 
BRANCH  10  11
HETATM   11  C5  UNL     1      39.113   0.333  91.989  1.00  0.00     0.018 C 
BRANCH  11  12
HETATM   12  C6  UNL     1      38.733  -1.061  92.370  1.00  0.00     0.094 C 
BRANCH  12  13
HETATM   13  C7  UNL     1      39.935  -1.908  92.580  1.00  0.00    -0.106 C 
HETATM   14  C8  UNL     1      40.918  -2.581  92.765  1.00  0.00    -0.096 C 
BRANCH  14  15
HETATM   15  C9  UNL     1      42.117  -3.388  93.010  1.00  0.00     0.178 C 
HETATM   16 BR1  UNL     1      43.199  -3.301  91.408  1.00  0.00    -0.083 Br
ENDBRANCH  14  15
ENDBRANCH  12  13
ENDBRANCH  11  12
ENDBRANCH  10  11
ENDBRANCH   5  10
BRANCH   7  17
HETATM   17  N2  UNL     1      42.826   2.996  90.461  1.00  0.00    -0.317 N 
HETATM   18  C12 UNL     1      43.884   2.115  90.171  1.00  0.00     0.187 C 
HETATM   19  N3  UNL     1      43.684   0.868  89.962  1.00  0.00    -0.373 N 
HETATM   20  N4  UNL     1      45.204   2.619  90.108  1.00  0.00    -0.064 NA
ATOM     21  H32 UNL     1      42.732   0.505  90.007  1.00  0.00     0.158 HD
ATOM     22  H31 UNL     1      44.451   0.229  89.752  1.00  0.00     0.158 HD
ATOM     23  H2  UNL     1      42.539   3.669  89.750  1.00  0.00     0.170 HD
ENDBRANCH   7  17
TORSDOF 6
ENDMDL
MODEL 4
REMARK VINA RESULT: -7.870979860      2.689      3.791
REMARK  6 active torsions:
REMARK  status: ('A' for Active; 'I' for Inactive)
REMARK    1  A    between atoms: C3_5  and  C4_6 
REMARK    2  A    between atoms: C4_6  and  C5_7 
REMARK    3  A    between atoms: C5_7  and  C6_8 
REMARK    4  A    between atoms: C6_8  and  C7_9 
REMARK    5  A    between atoms: C8_10  and  C9_11 
REMARK    6  A    between atoms: C11_14  and  N2_15 
REMARK       I    between atoms: N2_15  and  C12_17 
ROOT
HETATM    1  C1  UNL     1      43.723   0.821  94.780  1.00  0.00     0.089 C 
HETATM    2  C2  UNL     1      42.868   1.248  93.641  1.00  0.00     0.078 A 
HETATM    3  N1  UNL     1      41.546   1.052  93.719  1.00  0.00    -0.350 N 
ATOM      4  H1  UNL     1      41.157   0.616  94.555  1.00  0.00     0.167 HD
HETATM    5  C3  UNL     1      40.710   1.420  92.712  1.00  0.00     0.014 A 
HETATM    6  C10 UNL     1      41.258   2.007  91.592  1.00  0.00     0.073 A 
HETATM    7  C11 UNL     1      42.621   2.209  91.513  1.00  0.00     0.110 A 
HETATM    8  N5  UNL     1      43.381   1.825  92.536  1.00  0.00    -0.332 N 
ATOM      9  H5  UNL     1      44.389   1.972  92.482  1.00  0.00     0.168 HD
ENDROOT
BRANCH   5  10
HETATM   10  C4  UNL     1      39.272   1.185  92.830  1.00  0.00     0.058 C 
BRANCH  10  11
HETATM   11  C5  UNL     1      38.826   0.171  91.841  1.00  0.00     0.018 C 
BRANCH  11  12
HETATM   12  C6  UNL     1      38.559  -1.192  92.395  1.00  0.00     0.094 C 
BRANCH  12  13
HETATM   13  C7  UNL     1      39.821  -1.951  92.585  1.00  0.00    -0.106 C 
HETATM   14  C8  UNL     1      40.854  -2.550  92.749  1.00  0.00    -0.096 C 
BRANCH  14  15
HETATM   15  C9  UNL     1      42.117  -3.263  92.964  1.00  0.00     0.178 C 
HETATM   16 BR1  UNL     1      43.501  -2.253  92.064  1.00  0.00    -0.083 Br
ENDBRANCH  14  15
ENDBRANCH  12  13
ENDBRANCH  11  12
ENDBRANCH  10  11
ENDBRANCH   5  10
BRANCH   7  17
HETATM   17  N2  UNL     1      43.103   2.753  90.467  1.00  0.00    -0.317 N 
HETATM   18  C12 UNL     1      44.082   2.131  89.671  1.00  0.00     0.187 C 
HETATM   19  N3  UNL     1      43.806   1.127  88.925  1.00  0.00    -0.373 N 
HETATM   20  N4  UNL     1      45.406   2.626  89.693  1.00  0.00    -0.064 NA
ATOM     21  H32 UNL     1      42.851   0.770  88.909  1.00  0.00     0.158 HD
ATOM     22  H31 UNL     1      44.516   0.675  88.348  1.00  0.00     0.158 HD
ATOM     23  H2  UNL     1      42.766   3.678  90.197  1.00  0.00     0.170 HD
ENDBRANCH   7  17
TORSDOF 6
ENDMDL
MODEL 5
REMARK VINA RESULT: -7.794197435      3.263      5.296
REMARK  6 active torsions:
REMARK  status: ('A' for Active; 'I' for Inactive)
REMARK    1  A    between atoms: C3_5  and  C4_6 
REMARK    2  A    between atoms: C4_6  and  C5_7 
REMARK    3  A    between atoms: C5_7  and  C6_8 
REMARK    4  A    between atoms: C6_8  and  C7_9 
REMARK    5  A    between atoms: C8_10  and  C9_11 
REMARK    6  A    between atoms: C11_14  and  N2_15 
REMARK       I    between atoms: N2_15  and  C12_17 
ROOT
HETATM    1  C1  UNL     1      41.278   5.302  94.498  1.00  0.00     0.089 C 
HETATM    2  C2  UNL     1      41.339   3.848  94.193  1.00  0.00     0.078 A 
HETATM    3  N1  UNL     1      40.256   3.253  93.676  1.00  0.00    -0.350 N 
ATOM      4  H1  UNL     1      39.418   3.809  93.504  1.00  0.00     0.167 HD
HETATM    5  C3  UNL     1      40.247   1.927  93.374  1.00  0.00     0.014 A 
HETATM    6  C10 UNL     1      41.390   1.197  93.615  1.00  0.00     0.073 A 
HETATM    7  C11 UNL     1      42.505   1.812  94.147  1.00  0.00     0.110 A 
HETATM    8  N5  UNL     1      42.446   3.114  94.419  1.00  0.00    -0.332 N 
ATOM      9  H5  UNL     1      43.267   3.572  94.812  1.00  0.00     0.168 HD
ENDROOT
BRANCH   5  10
HETATM   10  C4  UNL     1      39.044   1.310  92.816  1.00  0.00     0.058 C 
BRANCH  10  11
HETATM   11  C5  UNL     1      39.405   0.194  91.907  1.00  0.00     0.018 C 
BRANCH  11  12
HETATM   12  C6  UNL     1      38.949  -1.161  92.342  1.00  0.00     0.094 C 
BRANCH  12  13
HETATM   13  C7  UNL     1      40.104  -2.057  92.607  1.00  0.00    -0.106 C 
HETATM   14  C8  UNL     1      41.050  -2.768  92.834  1.00  0.00    -0.096 C 
BRANCH  14  15
HETATM   15  C9  UNL     1      42.208  -3.620  93.127  1.00  0.00     0.178 C 
HETATM   16 BR1  UNL     1      43.220  -3.789  91.487  1.00  0.00    -0.083 Br
ENDBRANCH  14  15
ENDBRANCH  12  13
ENDBRANCH  11  12
ENDBRANCH  10  11
ENDBRANCH   5  10
BRANCH   7  17
HETATM   17  N2  UNL     1      43.550   1.114  94.360  1.00  0.00    -0.317 N 
HETATM   18  C12 UNL     1      44.398   0.683  93.324  1.00  0.00     0.187 C 
HETATM   19  N3  UNL     1      45.165   1.496  92.697  1.00  0.00    -0.373 N 
HETATM   20  N4  UNL     1      44.407  -0.684  92.963  1.00  0.00    -0.064 NA
ATOM     21  H32 UNL     1      45.159   2.482  92.958  1.00  0.00     0.158 HD
ATOM     22  H31 UNL     1      45.780   1.183  91.946  1.00  0.00     0.158 HD
ATOM     23  H2  UNL     1      43.780   0.859  95.321  1.00  0.00     0.170 HD
ENDBRANCH   7  17
TORSDOF 6
ENDMDL
