MODEL 1
REMARK VINA RESULT: -7.302545287      0.000      0.000
REMARK  4 active torsions:
REMARK  status: ('A' for Active; 'I' for Inactive)
REMARK    1  A    between atoms: C2_2  and  C3_3 
REMARK    2  A    between atoms: C3_3  and  C6_6 
REMARK    3  A    between atoms: C7_7  and  O1_8 
REMARK    4  A    between atoms: C8_10  and  N1_11 
ROOT
HETATM    1  C6  UNL     1      41.282  -0.024  93.060  1.00  0.00     0.045 C 
HETATM    2  C7  UNL     1      42.374   0.307  94.012  1.00  0.00     0.148 C 
HETATM    3  C8  UNL     1      41.727   1.705  94.054  1.00  0.00     0.132 C 
HETATM    4  C10 UNL     1      41.326   1.401  92.597  1.00  0.00     0.044 C 
HETATM    5  C11 UNL     1      39.996   1.991  92.214  1.00  0.00     0.030 C 
HETATM    6 BR1  UNL     1      42.749   1.928  91.462  1.00  0.00    -0.083 Br
ENDROOT
BRANCH   1   7
HETATM    7  C3  UNL     1      41.397  -1.116  92.102  1.00  0.00    -0.040 C 
HETATM    8  C4  UNL     1      42.354  -0.992  90.980  1.00  0.00     0.015 C 
HETATM    9  C5  UNL     1      41.745  -2.393  92.865  1.00  0.00     0.015 C 
BRANCH   7  10
HETATM   10  C2  UNL     1      40.012  -1.312  91.461  1.00  0.00     0.005 C 
HETATM   11  C1  UNL     1      38.969  -1.573  92.521  1.00  0.00     0.006 C 
ENDBRANCH   7  10
ENDBRANCH   1   7
BRANCH   2  12
HETATM   12  O1  UNL     1      43.656   0.420  93.557  1.00  0.00    -0.393 OA
ATOM     13  H1  UNL     1      44.378   0.164  94.118  1.00  0.00     0.210 HD
ENDBRANCH   2  12
BRANCH   3  14
HETATM   14  N1  UNL     1      42.646   2.782  94.195  1.00  0.00    -0.358 N 
HETATM   15  C9  UNL     1      42.257   3.885  94.699  1.00  0.00     0.197 C 
HETATM   16  N2  UNL     1      40.928   4.058  95.121  1.00  0.00    -0.067 NA
HETATM   17  N3  UNL     1      43.176   4.946  94.835  1.00  0.00    -0.067 NA
ATOM     18  H1  UNL     1      43.614   2.671  93.893  1.00  0.00     0.162 HD
ENDBRANCH   3  14
TORSDOF 4
ENDMDL
MODEL 2
REMARK VINA RESULT: -7.061649208      3.194      4.997
REMARK  4 active torsions:
REMARK  status: ('A' for Active; 'I' for Inactive)
REMARK    1  A    between atoms: C2_2  and  C3_3 
REMARK    2  A    between atoms: C3_3  and  C6_6 
REMARK    3  A    between atoms: C7_7  and  O1_8 
REMARK    4  A    between atoms: C8_10  and  N1_11 
ROOT
HETATM    1  C6  UNL     1      40.693   0.614  93.209  1.00  0.00     0.045 C 
HETATM    2  C7  UNL     1      40.491  -0.510  92.259  1.00  0.00     0.148 C 
HETATM    3  C8  UNL     1      41.785  -1.078  92.873  1.00  0.00     0.132 C 
HETATM    4  C10 UNL     1      42.170   0.401  93.066  1.00  0.00     0.044 C 
HETATM    5  C11 UNL     1      42.976   0.644  94.313  1.00  0.00     0.030 C 
HETATM    6 BR1  UNL     1      43.011   1.013  91.482  1.00  0.00    -0.083 Br
ENDROOT
BRANCH   1   7
HETATM    7  C3  UNL     1      40.112   1.932  92.983  1.00  0.00    -0.040 C 
HETATM    8  C4  UNL     1      40.772   2.857  92.035  1.00  0.00     0.015 C 
HETATM    9  C5  UNL     1      38.668   1.749  92.517  1.00  0.00     0.015 C 
BRANCH   7  10
HETATM   10  C2  UNL     1      40.082   2.659  94.338  1.00  0.00     0.005 C 
HETATM   11  C1  UNL     1      40.995   3.860  94.316  1.00  0.00     0.006 C 
ENDBRANCH   7  10
ENDBRANCH   1   7
BRANCH   2  12
HETATM   12  O1  UNL     1      40.682  -0.306  90.922  1.00  0.00    -0.393 OA
ATOM     13  H1  UNL     1      41.182  -0.937  90.418  1.00  0.00     0.210 HD
ENDBRANCH   2  12
BRANCH   3  14
HETATM   14  N1  UNL     1      42.617  -1.784  91.958  1.00  0.00    -0.358 N 
HETATM   15  C9  UNL     1      43.008  -2.964  92.239  1.00  0.00     0.197 C 
HETATM   16  N2  UNL     1      42.629  -3.585  93.440  1.00  0.00    -0.067 NA
HETATM   17  N3  UNL     1      43.831  -3.656  91.326  1.00  0.00    -0.067 NA
ATOM     18  H1  UNL     1      42.900  -1.347  91.081  1.00  0.00     0.162 HD
ENDBRANCH   3  14
TORSDOF 4
ENDMDL
MODEL 3
REMARK VINA RESULT: -6.837120045      3.061      3.874
REMARK  4 active torsions:
REMARK  status: ('A' for Active; 'I' for Inactive)
REMARK    1  A    between atoms: C2_2  and  C3_3 
REMARK    2  A    between atoms: C3_3  and  C6_6 
REMARK    3  A    between atoms: C7_7  and  O1_8 
REMARK    4  A    between atoms: C8_10  and  N1_11 
ROOT
HETATM    1  C6  UNL     1      43.244  -1.549  92.639  1.00  0.00     0.045 C 
HETATM    2  C7  UNL     1      44.635  -1.654  92.129  1.00  0.00     0.148 C 
HETATM    3  C8  UNL     1      44.918  -0.460  93.061  1.00  0.00     0.132 C 
HETATM    4  C10 UNL     1      43.456  -0.071  92.767  1.00  0.00     0.044 C 
HETATM    5  C11 UNL     1      42.770   0.576  93.939  1.00  0.00     0.030 C 
HETATM    6 BR1  UNL     1      43.421   0.976  91.188  1.00  0.00    -0.083 Br
ENDROOT
BRANCH   1   7
HETATM    7  C3  UNL     1      42.106  -2.070  91.892  1.00  0.00    -0.040 C 
HETATM    8  C4  UNL     1      41.361  -1.163  90.990  1.00  0.00     0.015 C 
HETATM    9  C5  UNL     1      42.578  -3.261  91.060  1.00  0.00     0.015 C 
BRANCH   7  10
HETATM   10  C2  UNL     1      41.081  -2.588  92.917  1.00  0.00     0.005 C 
HETATM   11  C1  UNL     1      39.724  -1.976  92.666  1.00  0.00     0.006 C 
ENDBRANCH   7  10
ENDBRANCH   1   7
BRANCH   2  12
HETATM   12  O1  UNL     1      44.911  -1.292  90.842  1.00  0.00    -0.393 OA
ATOM     13  H1  UNL     1      44.206  -1.008  90.272  1.00  0.00     0.210 HD
ENDBRANCH   2  12
BRANCH   3  14
HETATM   14  N1  UNL     1      45.881   0.466  92.567  1.00  0.00    -0.358 N 
HETATM   15  C9  UNL     1      47.055   0.483  93.060  1.00  0.00     0.197 C 
HETATM   16  N2  UNL     1      47.420  -0.400  94.089  1.00  0.00    -0.067 NA
HETATM   17  N3  UNL     1      48.001   1.404  92.563  1.00  0.00    -0.067 NA
ATOM     18  H1  UNL     1      45.630   1.113  91.819  1.00  0.00     0.162 HD
ENDBRANCH   3  14
TORSDOF 4
ENDMDL
MODEL 4
REMARK VINA RESULT: -6.788098261      3.699      5.435
REMARK  4 active torsions:
REMARK  status: ('A' for Active; 'I' for Inactive)
REMARK    1  A    between atoms: C2_2  and  C3_3 
REMARK    2  A    between atoms: C3_3  and  C6_6 
REMARK    3  A    between atoms: C7_7  and  O1_8 
REMARK    4  A    between atoms: C8_10  and  N1_11 
ROOT
HETATM    1  C6  UNL     1      43.924   1.565  92.818  1.00  0.00     0.045 C 
HETATM    2  C7  UNL     1      43.919   0.499  93.852  1.00  0.00     0.148 C 
HETATM    3  C8  UNL     1      44.780  -0.289  92.846  1.00  0.00     0.132 C 
HETATM    4  C10 UNL     1      43.981   0.486  91.780  1.00  0.00     0.044 C 
HETATM    5  C11 UNL     1      44.792   0.816  90.557  1.00  0.00     0.030 C 
HETATM    6 BR1  UNL     1      42.392  -0.477  91.405  1.00  0.00    -0.083 Br
ENDROOT
BRANCH   1   7
HETATM    7  C3  UNL     1      42.890   2.591  92.762  1.00  0.00    -0.040 C 
HETATM    8  C4  UNL     1      41.667   2.337  91.968  1.00  0.00     0.015 C 
HETATM    9  C5  UNL     1      42.453   2.916  94.189  1.00  0.00     0.015 C 
BRANCH   7  10
HETATM   10  C2  UNL     1      43.531   3.857  92.165  1.00  0.00     0.005 C 
HETATM   11  C1  UNL     1      43.544   4.973  93.180  1.00  0.00     0.006 C 
ENDBRANCH   7  10
ENDBRANCH   1   7
BRANCH   2  12
HETATM   12  O1  UNL     1      42.770  -0.197  94.100  1.00  0.00    -0.393 OA
ATOM     13  H1  UNL     1      42.811  -1.136  94.238  1.00  0.00     0.210 HD
ENDBRANCH   2  12
BRANCH   3  14
HETATM   14  N1  UNL     1      44.553  -1.694  92.840  1.00  0.00    -0.358 N 
HETATM   15  C9  UNL     1      45.519  -2.492  93.071  1.00  0.00     0.197 C 
HETATM   16  N2  UNL     1      46.811  -2.008  93.333  1.00  0.00    -0.067 NA
HETATM   17  N3  UNL     1      45.284  -3.883  93.064  1.00  0.00    -0.067 NA
ATOM     18  H1  UNL     1      43.620  -2.061  92.652  1.00  0.00     0.162 HD
ENDBRANCH   3  14
TORSDOF 4
ENDMDL
MODEL 5
REMARK VINA RESULT: -6.778656362      3.861      5.339
REMARK  4 active torsions:
REMARK  status: ('A' for Active; 'I' for Inactive)
REMARK    1  A    between atoms: C2_2  and  C3_3 
REMARK    2  A    between atoms: C3_3  and  C6_6 
REMARK    3  A    between atoms: C7_7  and  O1_8 
REMARK    4  A    between atoms: C8_10  and  N1_11 
ROOT
HETATM    1  C6  UNL     1      43.063   0.785  91.529  1.00  0.00     0.045 C 
HETATM    2  C7  UNL     1      43.779  -0.211  90.692  1.00  0.00     0.148 C 
HETATM    3  C8  UNL     1      43.525  -1.175  91.867  1.00  0.00     0.132 C 
HETATM    4  C10 UNL     1      43.619   0.094  92.737  1.00  0.00     0.044 C 
HETATM    5  C11 UNL     1      42.707   0.061  93.933  1.00  0.00     0.030 C 
HETATM    6 BR1  UNL     1      45.440   0.386  93.174  1.00  0.00    -0.083 Br
ENDROOT
BRANCH   1   7
HETATM    7  C3  UNL     1      43.247   2.220  91.349  1.00  0.00    -0.040 C 
HETATM    8  C4  UNL     1      44.186   2.943  92.235  1.00  0.00     0.015 C 
HETATM    9  C5  UNL     1      43.686   2.474  89.908  1.00  0.00     0.015 C 
BRANCH   7  10
HETATM   10  C2  UNL     1      41.874   2.887  91.548  1.00  0.00     0.005 C 
HETATM   11  C1  UNL     1      41.772   3.488  92.928  1.00  0.00     0.006 C 
ENDBRANCH   7  10
ENDBRANCH   1   7
BRANCH   2  12
HETATM   12  O1  UNL     1      45.125  -0.088  90.498  1.00  0.00    -0.393 OA
ATOM     13  H1  UNL     1      45.449   0.344  89.716  1.00  0.00     0.210 HD
ENDBRANCH   2  12
BRANCH   3  14
HETATM   14  N1  UNL     1      44.564  -2.120  92.097  1.00  0.00    -0.358 N 
HETATM   15  C9  UNL     1      44.297  -3.228  92.666  1.00  0.00     0.197 C 
HETATM   16  N2  UNL     1      42.989  -3.537  93.072  1.00  0.00    -0.067 NA
HETATM   17  N3  UNL     1      45.334  -4.159  92.889  1.00  0.00    -0.067 NA
ATOM     18  H1  UNL     1      45.519  -1.911  91.808  1.00  0.00     0.162 HD
ENDBRANCH   3  14
TORSDOF 4
ENDMDL
