MODEL 1
REMARK VINA RESULT: -7.635492907      0.000      0.000
REMARK  5 active torsions:
REMARK  status: ('A' for Active; 'I' for Inactive)
REMARK    1  A    between atoms: C2_2  and  N1_3 
REMARK       I    between atoms: C3_5  and  N2_6 
REMARK       I    between atoms: C3_5  and  N7_23 
REMARK    2  A    between atoms: C5_11  and  N4_12 
REMARK    3  A    between atoms: N4_12  and  C6_14 
REMARK    4  A    between atoms: C6_14  and  C7_15 
REMARK    5  A    between atoms: N7_23  and  C11_25 
ROOT
HETATM    1  C7  UNL     1      42.385   5.550  94.174  1.00  0.00     0.144 C 
HETATM    2  C8  UNL     1      41.266   4.651  94.452  1.00  0.00     0.060 C 
HETATM    3  N5  UNL     1      40.376   3.925  94.656  1.00  0.00    -0.197 NA
ENDROOT
BRANCH   1   4
HETATM    4  C6  UNL     1      43.696   4.799  94.188  1.00  0.00     0.152 C 
BRANCH   4   5
HETATM    5  N4  UNL     1      44.215   4.665  92.841  1.00  0.00    -0.225 N 
ATOM      6  H4  UNL     1      44.592   5.484  92.364  1.00  0.00     0.177 HD
BRANCH   5   7
HETATM    7  C5  UNL     1      44.208   3.511  92.230  1.00  0.00     0.679 A 
HETATM    8  N3  UNL     1      43.461   2.490  92.645  1.00  0.00    -0.174 N 
HETATM    9  C4  UNL     1      43.437   1.273  92.020  1.00  0.00     0.159 A 
ATOM     10  H3  UNL     1      42.877   2.621  93.470  1.00  0.00     0.186 HD
HETATM   11  N2  UNL     1      42.708   0.370  92.476  1.00  0.00    -0.175 N 
HETATM   12  C10 UNL     1      44.216   1.081  90.908  1.00  0.00     0.095 A 
HETATM   13  C3  UNL     1      42.423  -0.930  92.143  1.00  0.00     0.675 C 
ATOM     14  H2  UNL     1      42.195   0.675  93.302  1.00  0.00     0.186 HD
HETATM   15  N1  UNL     1      43.102  -1.955  92.584  1.00  0.00    -0.227 N 
HETATM   16  N7  UNL     1      41.339  -1.236  91.287  1.00  0.00    -0.222 N 
ATOM     17  H1  UNL     1      43.888  -1.778  93.210  1.00  0.00     0.177 HD
ATOM     18  H7  UNL     1      41.488  -1.851  90.487  1.00  0.00     0.178 HD
HETATM   19  C9  UNL     1      44.994   2.166  90.486  1.00  0.00     0.133 A 
HETATM   20 CL1  UNL     1      44.275  -0.433  90.013  1.00  0.00    -0.079 Cl
HETATM   21  N6  UNL     1      44.976   3.337  91.141  1.00  0.00    -0.200 N 
ATOM     22  H6  UNL     1      45.555   4.108  90.807  1.00  0.00     0.183 HD
BRANCH  15  23
HETATM   23  C2  UNL     1      42.811  -3.314  92.241  1.00  0.00     0.133 C 
HETATM   24  C1  UNL     1      43.978  -3.941  91.520  1.00  0.00     0.027 C 
ENDBRANCH  15  23
BRANCH  16  25
HETATM   25  C11 UNL     1      40.031  -0.694  91.526  1.00  0.00     0.091 C 
HETATM   26  C12 UNL     1      39.307  -1.577  92.525  1.00  0.00     0.032 C 
HETATM   27  C13 UNL     1      39.195  -0.534  90.278  1.00  0.00     0.032 C 
ENDBRANCH  16  25
ENDBRANCH   5   7
ENDBRANCH   4   5
ENDBRANCH   1   4
TORSDOF 5
ENDMDL
MODEL 2
REMARK VINA RESULT: -7.463141823      2.213      6.871
REMARK  5 active torsions:
REMARK  status: ('A' for Active; 'I' for Inactive)
REMARK    1  A    between atoms: C2_2  and  N1_3 
REMARK       I    between atoms: C3_5  and  N2_6 
REMARK       I    between atoms: C3_5  and  N7_23 
REMARK    2  A    between atoms: C5_11  and  N4_12 
REMARK    3  A    between atoms: N4_12  and  C6_14 
REMARK    4  A    between atoms: C6_14  and  C7_15 
REMARK    5  A    between atoms: N7_23  and  C11_25 
ROOT
HETATM    1  C7  UNL     1      42.859  -3.132  91.669  1.00  0.00     0.144 C 
HETATM    2  C8  UNL     1      44.260  -3.428  91.968  1.00  0.00     0.060 C 
HETATM    3  N5  UNL     1      45.378  -3.646  92.214  1.00  0.00    -0.197 NA
ENDROOT
BRANCH   1   4
HETATM    4  C6  UNL     1      42.058  -2.971  92.941  1.00  0.00     0.152 C 
BRANCH   4   5
HETATM    5  N4  UNL     1      40.715  -2.517  92.637  1.00  0.00    -0.225 N 
ATOM      6  H4  UNL     1      39.986  -3.202  92.441  1.00  0.00     0.177 HD
BRANCH   5   7
HETATM    7  C5  UNL     1      40.426  -1.244  92.611  1.00  0.00     0.679 A 
HETATM    8  N3  UNL     1      41.324  -0.303  92.898  1.00  0.00    -0.174 N 
HETATM    9  C4  UNL     1      41.043   1.036  92.876  1.00  0.00     0.159 A 
ATOM     10  H3  UNL     1      42.268  -0.596  93.145  1.00  0.00     0.186 HD
HETATM   11  N2  UNL     1      41.945   1.850  93.158  1.00  0.00    -0.175 N 
HETATM   12  C10 UNL     1      39.778   1.445  92.544  1.00  0.00     0.095 A 
HETATM   13  C3  UNL     1      42.050   3.215  93.244  1.00  0.00     0.675 C 
ATOM     14  H2  UNL     1      42.824   1.384  93.381  1.00  0.00     0.186 HD
HETATM   15  N1  UNL     1      41.796   3.893  94.332  1.00  0.00    -0.227 N 
HETATM   16  N7  UNL     1      42.459   3.980  92.127  1.00  0.00    -0.222 N 
ATOM     17  H1  UNL     1      41.505   3.378  95.162  1.00  0.00     0.177 HD
ATOM     18  H7  UNL     1      41.908   4.790  91.843  1.00  0.00     0.178 HD
HETATM   19  C9  UNL     1      38.847   0.442  92.245  1.00  0.00     0.133 A 
HETATM   20 CL1  UNL     1      39.289   3.134  92.477  1.00  0.00    -0.079 Cl
HETATM   21  N6  UNL     1      39.181  -0.857  92.283  1.00  0.00    -0.200 N 
ATOM     22  H6  UNL     1      38.480  -1.563  92.059  1.00  0.00     0.183 HD
BRANCH  15  23
HETATM   23  C2  UNL     1      41.903   5.317  94.428  1.00  0.00     0.133 C 
HETATM   24  C1  UNL     1      43.177   5.706  95.138  1.00  0.00     0.027 C 
ENDBRANCH  15  23
BRANCH  16  25
HETATM   25  C11 UNL     1      43.639   3.634  91.386  1.00  0.00     0.091 C 
HETATM   26  C12 UNL     1      43.227   3.065  90.040  1.00  0.00     0.032 C 
HETATM   27  C13 UNL     1      44.550   2.664  92.099  1.00  0.00     0.032 C 
ENDBRANCH  16  25
ENDBRANCH   5   7
ENDBRANCH   4   5
ENDBRANCH   1   4
TORSDOF 5
ENDMDL
MODEL 3
REMARK VINA RESULT: -7.308848713      1.084      1.172
REMARK  5 active torsions:
REMARK  status: ('A' for Active; 'I' for Inactive)
REMARK    1  A    between atoms: C2_2  and  N1_3 
REMARK       I    between atoms: C3_5  and  N2_6 
REMARK       I    between atoms: C3_5  and  N7_23 
REMARK    2  A    between atoms: C5_11  and  N4_12 
REMARK    3  A    between atoms: N4_12  and  C6_14 
REMARK    4  A    between atoms: C6_14  and  C7_15 
REMARK    5  A    between atoms: N7_23  and  C11_25 
ROOT
HETATM    1  C7  UNL     1      44.075   5.537  93.961  1.00  0.00     0.144 C 
HETATM    2  C8  UNL     1      42.832   6.106  94.483  1.00  0.00     0.060 C 
HETATM    3  N5  UNL     1      41.842   6.572  94.885  1.00  0.00    -0.197 NA
ENDROOT
BRANCH   1   4
HETATM    4  C6  UNL     1      43.858   4.926  92.597  1.00  0.00     0.152 C 
BRANCH   4   5
HETATM    5  N4  UNL     1      45.006   4.127  92.214  1.00  0.00    -0.225 N 
ATOM      6  H4  UNL     1      45.946   4.480  92.393  1.00  0.00     0.177 HD
BRANCH   5   7
HETATM    7  C5  UNL     1      44.854   2.963  91.643  1.00  0.00     0.679 A 
HETATM    8  N3  UNL     1      44.080   2.011  92.161  1.00  0.00    -0.174 N 
HETATM    9  C4  UNL     1      43.906   0.784  91.581  1.00  0.00     0.159 A 
ATOM     10  H3  UNL     1      43.592   2.206  93.034  1.00  0.00     0.186 HD
HETATM   11  N2  UNL     1      43.161  -0.050  92.134  1.00  0.00    -0.175 N 
HETATM   12  C10 UNL     1      44.554   0.506  90.405  1.00  0.00     0.095 A 
HETATM   13  C3  UNL     1      42.751  -1.332  91.872  1.00  0.00     0.675 C 
ATOM     14  H2  UNL     1      42.757   0.313  92.997  1.00  0.00     0.186 HD
HETATM   15  N1  UNL     1      43.395  -2.395  92.277  1.00  0.00    -0.227 N 
HETATM   16  N7  UNL     1      41.568  -1.576  91.136  1.00  0.00    -0.222 N 
ATOM     17  H1  UNL     1      44.250  -2.261  92.818  1.00  0.00     0.177 HD
ATOM     18  H7  UNL     1      41.593  -2.221  90.345  1.00  0.00     0.178 HD
HETATM   19  C9  UNL     1      45.364   1.520  89.875  1.00  0.00     0.133 A 
HETATM   20 CL1  UNL     1      44.414  -1.029  89.557  1.00  0.00    -0.079 Cl
HETATM   21  N6  UNL     1      45.496   2.704  90.491  1.00  0.00    -0.200 N 
ATOM     22  H6  UNL     1      46.093   3.421  90.078  1.00  0.00     0.183 HD
BRANCH  15  23
HETATM   23  C2  UNL     1      42.973  -3.735  92.008  1.00  0.00     0.133 C 
HETATM   24  C1  UNL     1      43.987  -4.448  91.149  1.00  0.00     0.027 C 
ENDBRANCH  15  23
BRANCH  16  25
HETATM   25  C11 UNL     1      40.334  -0.932  91.483  1.00  0.00     0.091 C 
HETATM   26  C12 UNL     1      39.655  -1.727  92.584  1.00  0.00     0.032 C 
HETATM   27  C13 UNL     1      39.387  -0.750  90.320  1.00  0.00     0.032 C 
ENDBRANCH  16  25
ENDBRANCH   5   7
ENDBRANCH   4   5
ENDBRANCH   1   4
TORSDOF 5
ENDMDL
MODEL 4
REMARK VINA RESULT: -7.285844645      2.043      6.802
REMARK  5 active torsions:
REMARK  status: ('A' for Active; 'I' for Inactive)
REMARK    1  A    between atoms: C2_2  and  N1_3 
REMARK       I    between atoms: C3_5  and  N2_6 
REMARK       I    between atoms: C3_5  and  N7_23 
REMARK    2  A    between atoms: C5_11  and  N4_12 
REMARK    3  A    between atoms: N4_12  and  C6_14 
REMARK    4  A    between atoms: C6_14  and  C7_15 
REMARK    5  A    between atoms: N7_23  and  C11_25 
ROOT
HETATM    1  C7  UNL     1      44.114  -2.785  91.501  1.00  0.00     0.144 C 
HETATM    2  C8  UNL     1      45.301  -3.255  92.214  1.00  0.00     0.060 C 
HETATM    3  N5  UNL     1      46.240  -3.624  92.799  1.00  0.00    -0.197 NA
ENDROOT
BRANCH   1   4
HETATM    4  C6  UNL     1      42.905  -3.616  91.859  1.00  0.00     0.152 C 
BRANCH   4   5
HETATM    5  N4  UNL     1      42.220  -3.044  93.002  1.00  0.00    -0.225 N 
ATOM      6  H4  UNL     1      42.193  -3.560  93.881  1.00  0.00     0.177 HD
BRANCH   5   7
HETATM    7  C5  UNL     1      41.637  -1.879  92.921  1.00  0.00     0.679 A 
HETATM    8  N3  UNL     1      42.297  -0.737  93.104  1.00  0.00    -0.174 N 
HETATM    9  C4  UNL     1      41.707   0.494  93.025  1.00  0.00     0.159 A 
ATOM     10  H3  UNL     1      43.294  -0.783  93.314  1.00  0.00     0.186 HD
HETATM   11  N2  UNL     1      42.401   1.514  93.210  1.00  0.00    -0.175 N 
HETATM   12  C10 UNL     1      40.367   0.573  92.742  1.00  0.00     0.095 A 
HETATM   13  C3  UNL     1      42.183   2.868  93.214  1.00  0.00     0.675 C 
ATOM     14  H2  UNL     1      43.374   1.283  93.408  1.00  0.00     0.186 HD
HETATM   15  N1  UNL     1      41.822   3.541  94.275  1.00  0.00    -0.227 N 
HETATM   16  N7  UNL     1      42.352   3.631  92.034  1.00  0.00    -0.222 N 
ATOM     17  H1  UNL     1      41.695   3.028  95.147  1.00  0.00     0.177 HD
ATOM     18  H7  UNL     1      41.613   4.268  91.737  1.00  0.00     0.178 HD
HETATM   19  C9  UNL     1      39.689  -0.637  92.552  1.00  0.00     0.133 A 
HETATM   20 CL1  UNL     1      39.490   2.093  92.610  1.00  0.00    -0.079 Cl
HETATM   21  N6  UNL     1      40.323  -1.817  92.643  1.00  0.00    -0.200 N 
ATOM     22  H6  UNL     1      39.800  -2.680  92.500  1.00  0.00     0.183 HD
BRANCH  15  23
HETATM   23  C2  UNL     1      41.593   4.953  94.286  1.00  0.00     0.133 C 
HETATM   24  C1  UNL     1      42.739   5.671  94.952  1.00  0.00     0.027 C 
ENDBRANCH  15  23
BRANCH  16  25
HETATM   25  C11 UNL     1      43.548   3.522  91.248  1.00  0.00     0.091 C 
HETATM   26  C12 UNL     1      43.451   2.285  90.372  1.00  0.00     0.032 C 
HETATM   27  C13 UNL     1      44.818   3.477  92.065  1.00  0.00     0.032 C 
ENDBRANCH  16  25
ENDBRANCH   5   7
ENDBRANCH   4   5
ENDBRANCH   1   4
TORSDOF 5
ENDMDL
MODEL 5
REMARK VINA RESULT: -7.259398217      2.139      7.058
REMARK  5 active torsions:
REMARK  status: ('A' for Active; 'I' for Inactive)
REMARK    1  A    between atoms: C2_2  and  N1_3 
REMARK       I    between atoms: C3_5  and  N2_6 
REMARK       I    between atoms: C3_5  and  N7_23 
REMARK    2  A    between atoms: C5_11  and  N4_12 
REMARK    3  A    between atoms: N4_12  and  C6_14 
REMARK    4  A    between atoms: C6_14  and  C7_15 
REMARK    5  A    between atoms: N7_23  and  C11_25 
ROOT
HETATM    1  C7  UNL     1      43.351  -3.619  90.738  1.00  0.00     0.144 C 
HETATM    2  C8  UNL     1      43.934  -4.887  90.302  1.00  0.00     0.060 C 
HETATM    3  N5  UNL     1      44.416  -5.891  89.958  1.00  0.00    -0.197 NA
ENDROOT
BRANCH   1   4
HETATM    4  C6  UNL     1      43.567  -3.406  92.218  1.00  0.00     0.152 C 
BRANCH   4   5
HETATM    5  N4  UNL     1      42.298  -3.205  92.890  1.00  0.00    -0.225 N 
ATOM      6  H4  UNL     1      41.882  -3.972  93.417  1.00  0.00     0.177 HD
BRANCH   5   7
HETATM    7  C5  UNL     1      41.680  -2.056  92.829  1.00  0.00     0.679 A 
HETATM    8  N3  UNL     1      42.308  -0.898  93.023  1.00  0.00    -0.174 N 
HETATM    9  C4  UNL     1      41.682   0.317  92.965  1.00  0.00     0.159 A 
ATOM     10  H3  UNL     1      43.307  -0.918  93.226  1.00  0.00     0.186 HD
HETATM   11  N2  UNL     1      42.347   1.354  93.159  1.00  0.00    -0.175 N 
HETATM   12  C10 UNL     1      40.339   0.360  92.692  1.00  0.00     0.095 A 
HETATM   13  C3  UNL     1      42.090   2.700  93.182  1.00  0.00     0.675 C 
ATOM     14  H2  UNL     1      43.328   1.148  93.347  1.00  0.00     0.186 HD
HETATM   15  N1  UNL     1      41.717   3.348  94.255  1.00  0.00    -0.227 N 
HETATM   16  N7  UNL     1      42.229   3.484  92.012  1.00  0.00    -0.222 N 
ATOM     17  H1  UNL     1      41.612   2.820  95.122  1.00  0.00     0.177 HD
ATOM     18  H7  UNL     1      41.469   4.103  91.729  1.00  0.00     0.178 HD
HETATM   19  C9  UNL     1      39.695  -0.867  92.490  1.00  0.00     0.133 A 
HETATM   20 CL1  UNL     1      39.417   1.855  92.586  1.00  0.00    -0.079 Cl
HETATM   21  N6  UNL     1      40.364  -2.029  92.561  1.00  0.00    -0.200 N 
ATOM     22  H6  UNL     1      39.865  -2.905  92.409  1.00  0.00     0.183 HD
BRANCH  15  23
HETATM   23  C2  UNL     1      41.447   4.752  94.287  1.00  0.00     0.133 C 
HETATM   24  C1  UNL     1      42.591   5.498  94.927  1.00  0.00     0.027 C 
ENDBRANCH  15  23
BRANCH  16  25
HETATM   25  C11 UNL     1      43.422   3.420  91.217  1.00  0.00     0.091 C 
HETATM   26  C12 UNL     1      43.387   2.156  90.377  1.00  0.00     0.032 C 
HETATM   27  C13 UNL     1      44.699   3.471  92.021  1.00  0.00     0.032 C 
ENDBRANCH  16  25
ENDBRANCH   5   7
ENDBRANCH   4   5
ENDBRANCH   1   4
TORSDOF 5
ENDMDL
