MODEL 1
REMARK VINA RESULT: -8.668393825      0.000      0.000
REMARK  7 active torsions:
REMARK  status: ('A' for Active; 'I' for Inactive)
REMARK    1  A    between atoms: C2_2  and  C3_3 
REMARK    2  A    between atoms: C3_3  and  C4_4 
REMARK    3  A    between atoms: C7_8  and  C8_9 
REMARK    4  A    between atoms: C11_13  and  C12_14 
REMARK    5  A    between atoms: C12_14  and  C13_15 
REMARK    6  A    between atoms: C14_16  and  O1_17 
REMARK    7  A    between atoms: C15_21  and  O2_22 
ROOT
HETATM    1  C4  UNL     1      41.804   1.442  93.107  1.00  0.00    -0.010 A 
HETATM    2  C5  UNL     1      40.806   2.121  93.838  1.00  0.00     0.057 A 
HETATM    3  C6  UNL     1      40.914   3.459  94.110  1.00  0.00     0.140 A 
HETATM    4  F1  UNL     1      39.958   4.133  94.816  1.00  0.00    -0.204 F 
HETATM    5  C7  UNL     1      42.045   4.097  93.634  1.00  0.00     0.050 A 
HETATM    6  N1  UNL     1      42.986   3.449  92.944  1.00  0.00    -0.351 N 
HETATM    7  C10 UNL     1      44.149   4.245  92.566  1.00  0.00     0.156 C 
HETATM    8  C11 UNL     1      42.908   2.096  92.649  1.00  0.00     0.045 A 
ENDROOT
BRANCH   8   9
HETATM    9  C12 UNL     1      43.847   1.582  91.968  1.00  0.00     0.047 C 
BRANCH   9  10
HETATM   10  C13 UNL     1      44.102   0.952  90.723  1.00  0.00     0.027 A 
HETATM   11  C14 UNL     1      44.093   1.586  89.478  1.00  0.00     0.153 A 
HETATM   12  N2  UNL     1      44.319   0.682  88.510  1.00  0.00    -0.317 N 
HETATM   13  C15 UNL     1      44.480  -0.535  89.052  1.00  0.00     0.148 A 
ATOM     14  H2  UNL     1      44.362   0.889  87.512  1.00  0.00     0.170 HD
HETATM   15  C16 UNL     1      44.350  -0.382  90.403  1.00  0.00     0.003 A 
HETATM   16  C17 UNL     1      44.449  -1.449  91.414  1.00  0.00     0.054 C 
BRANCH  11  17
HETATM   17  O1  UNL     1      43.881   2.951  89.279  1.00  0.00    -0.345 OA
ATOM     18  H1  UNL     1      43.853   3.377  88.432  1.00  0.00     0.219 HD
ENDBRANCH  11  17
BRANCH  13  19
HETATM   19  O2  UNL     1      44.735  -1.737  88.362  1.00  0.00    -0.346 OA
ATOM     20  H2  UNL     1      45.151  -2.516  88.712  1.00  0.00     0.219 HD
ENDBRANCH  13  19
ENDBRANCH   9  10
ENDBRANCH   8   9
BRANCH   1  21
HETATM   21  C3  UNL     1      41.586   0.181  92.918  1.00  0.00    -0.013 C 
BRANCH  21  22
HETATM   22  C2  UNL     1      40.221  -0.355  92.515  1.00  0.00     0.023 C 
HETATM   23  C1  UNL     1      40.280  -1.863  92.448  1.00  0.00     0.009 C 
ENDBRANCH  21  22
ENDBRANCH   1  21
BRANCH   5  24
HETATM   24  C8  UNL     1      42.107   5.554  93.944  1.00  0.00     0.056 C 
HETATM   25  C9  UNL     1      42.835   5.804  95.233  1.00  0.00     0.011 C 
ENDBRANCH   5  24
TORSDOF 7
ENDMDL
MODEL 2
REMARK VINA RESULT: -8.463839663      1.058      1.762
REMARK  7 active torsions:
REMARK  status: ('A' for Active; 'I' for Inactive)
REMARK    1  A    between atoms: C2_2  and  C3_3 
REMARK    2  A    between atoms: C3_3  and  C4_4 
REMARK    3  A    between atoms: C7_8  and  C8_9 
REMARK    4  A    between atoms: C11_13  and  C12_14 
REMARK    5  A    between atoms: C12_14  and  C13_15 
REMARK    6  A    between atoms: C14_16  and  O1_17 
REMARK    7  A    between atoms: C15_21  and  O2_22 
ROOT
HETATM    1  C4  UNL     1      41.811   1.386  93.362  1.00  0.00    -0.010 A 
HETATM    2  C5  UNL     1      40.870   2.173  94.061  1.00  0.00     0.057 A 
HETATM    3  C6  UNL     1      41.057   3.519  94.226  1.00  0.00     0.140 A 
HETATM    4  F1  UNL     1      40.156   4.296  94.899  1.00  0.00    -0.204 F 
HETATM    5  C7  UNL     1      42.207   4.056  93.677  1.00  0.00     0.050 A 
HETATM    6  N1  UNL     1      43.094   3.307  93.019  1.00  0.00    -0.351 N 
HETATM    7  C10 UNL     1      44.287   4.007  92.555  1.00  0.00     0.156 C 
HETATM    8  C11 UNL     1      42.936   1.942  92.831  1.00  0.00     0.045 A 
ENDROOT
BRANCH   8   9
HETATM    9  C12 UNL     1      43.828   1.327  92.171  1.00  0.00     0.047 C 
BRANCH   9  10
HETATM   10  C13 UNL     1      44.018   0.595  90.970  1.00  0.00     0.027 A 
HETATM   11  C14 UNL     1      44.145  -0.792  90.880  1.00  0.00     0.153 A 
HETATM   12  N2  UNL     1      44.369  -1.143  89.602  1.00  0.00    -0.317 N 
HETATM   13  C15 UNL     1      44.398  -0.048  88.828  1.00  0.00     0.148 A 
ATOM     14  H2  UNL     1      44.499  -2.099  89.270  1.00  0.00     0.170 HD
HETATM   15  C16 UNL     1      44.184   1.020  89.653  1.00  0.00     0.003 A 
HETATM   16  C17 UNL     1      44.130   2.436  89.249  1.00  0.00     0.054 C 
BRANCH  11  17
HETATM   17  O1  UNL     1      44.052  -1.674  91.958  1.00  0.00    -0.345 OA
ATOM     18  H1  UNL     1      44.791  -2.097  92.378  1.00  0.00     0.219 HD
ENDBRANCH  11  17
BRANCH  13  19
HETATM   19  O2  UNL     1      44.607  -0.006  87.435  1.00  0.00    -0.346 OA
ATOM     20  H2  UNL     1      45.173   0.595  86.963  1.00  0.00     0.219 HD
ENDBRANCH  13  19
ENDBRANCH   9  10
ENDBRANCH   8   9
BRANCH   1  21
HETATM   21  C3  UNL     1      41.521   0.129  93.276  1.00  0.00    -0.013 C 
BRANCH  21  22
HETATM   22  C2  UNL     1      40.300  -0.373  92.522  1.00  0.00     0.023 C 
HETATM   23  C1  UNL     1      40.335  -1.882  92.468  1.00  0.00     0.009 C 
ENDBRANCH  21  22
ENDBRANCH   1  21
BRANCH   5  24
HETATM   24  C8  UNL     1      42.354   5.527  93.873  1.00  0.00     0.056 C 
HETATM   25  C9  UNL     1      42.962   5.839  95.209  1.00  0.00     0.011 C 
ENDBRANCH   5  24
TORSDOF 7
ENDMDL
MODEL 3
REMARK VINA RESULT: -8.288167225      2.163      2.520
REMARK  7 active torsions:
REMARK  status: ('A' for Active; 'I' for Inactive)
REMARK    1  A    between atoms: C2_2  and  C3_3 
REMARK    2  A    between atoms: C3_3  and  C4_4 
REMARK    3  A    between atoms: C7_8  and  C8_9 
REMARK    4  A    between atoms: C11_13  and  C12_14 
REMARK    5  A    between atoms: C12_14  and  C13_15 
REMARK    6  A    between atoms: C14_16  and  O1_17 
REMARK    7  A    between atoms: C15_21  and  O2_22 
ROOT
HETATM    1  C4  UNL     1      41.476   1.533  92.910  1.00  0.00    -0.010 A 
HETATM    2  C5  UNL     1      41.005   2.689  93.567  1.00  0.00     0.057 A 
HETATM    3  C6  UNL     1      41.724   3.855  93.552  1.00  0.00     0.140 A 
HETATM    4  F1  UNL     1      41.282   4.985  94.182  1.00  0.00    -0.204 F 
HETATM    5  C7  UNL     1      42.923   3.833  92.865  1.00  0.00     0.050 A 
HETATM    6  N1  UNL     1      43.365   2.735  92.247  1.00  0.00    -0.351 N 
HETATM    7  C10 UNL     1      44.678   2.851  91.621  1.00  0.00     0.156 C 
HETATM    8  C11 UNL     1      42.662   1.539  92.240  1.00  0.00     0.045 A 
ENDROOT
BRANCH   8   9
HETATM    9  C12 UNL     1      43.161   0.562  91.603  1.00  0.00     0.047 C 
BRANCH   9  10
HETATM   10  C13 UNL     1      43.666  -0.750  91.796  1.00  0.00     0.027 A 
HETATM   11  C14 UNL     1      44.953  -1.065  92.235  1.00  0.00     0.153 A 
HETATM   12  N2  UNL     1      45.111  -2.400  92.250  1.00  0.00    -0.317 N 
HETATM   13  C15 UNL     1      43.982  -2.997  91.838  1.00  0.00     0.148 A 
ATOM     14  H2  UNL     1      45.962  -2.887  92.531  1.00  0.00     0.170 HD
HETATM   15  C16 UNL     1      43.092  -1.998  91.558  1.00  0.00     0.003 A 
HETATM   16  C17 UNL     1      41.713  -2.173  91.071  1.00  0.00     0.054 C 
BRANCH  11  17
HETATM   17  O1  UNL     1      45.923  -0.131  92.602  1.00  0.00    -0.345 OA
ATOM     18  H1  UNL     1      46.526   0.290  92.002  1.00  0.00     0.219 HD
ENDBRANCH  11  17
BRANCH  13  19
HETATM   19  O2  UNL     1      43.757  -4.383  91.717  1.00  0.00    -0.346 OA
ATOM     20  H2  UNL     1      42.960  -4.849  91.937  1.00  0.00     0.219 HD
ENDBRANCH  13  19
ENDBRANCH   9  10
ENDBRANCH   8   9
BRANCH   1  21
HETATM   21  C3  UNL     1      40.707   0.497  93.000  1.00  0.00    -0.013 C 
BRANCH  21  22
HETATM   22  C2  UNL     1      39.331   0.449  92.355  1.00  0.00     0.023 C 
HETATM   23  C1  UNL     1      38.863  -0.985  92.290  1.00  0.00     0.009 C 
ENDBRANCH  21  22
ENDBRANCH   1  21
BRANCH   5  24
HETATM   24  C8  UNL     1      43.658   5.130  92.867  1.00  0.00     0.056 C 
HETATM   25  C9  UNL     1      44.188   5.452  94.234  1.00  0.00     0.011 C 
ENDBRANCH   5  24
TORSDOF 7
ENDMDL
MODEL 4
REMARK VINA RESULT: -8.182732831      1.202      1.288
REMARK  7 active torsions:
REMARK  status: ('A' for Active; 'I' for Inactive)
REMARK    1  A    between atoms: C2_2  and  C3_3 
REMARK    2  A    between atoms: C3_3  and  C4_4 
REMARK    3  A    between atoms: C7_8  and  C8_9 
REMARK    4  A    between atoms: C11_13  and  C12_14 
REMARK    5  A    between atoms: C12_14  and  C13_15 
REMARK    6  A    between atoms: C14_16  and  O1_17 
REMARK    7  A    between atoms: C15_21  and  O2_22 
ROOT
HETATM    1  C4  UNL     1      40.762   1.921  92.427  1.00  0.00    -0.010 A 
HETATM    2  C5  UNL     1      40.096   2.478  93.540  1.00  0.00     0.057 A 
HETATM    3  C6  UNL     1      40.693   3.436  94.316  1.00  0.00     0.140 A 
HETATM    4  F1  UNL     1      40.063   3.988  95.396  1.00  0.00    -0.204 F 
HETATM    5  C7  UNL     1      41.970   3.820  93.951  1.00  0.00     0.050 A 
HETATM    6  N1  UNL     1      42.596   3.287  92.899  1.00  0.00    -0.351 N 
HETATM    7  C10 UNL     1      43.963   3.748  92.681  1.00  0.00     0.156 C 
HETATM    8  C11 UNL     1      42.021   2.318  92.090  1.00  0.00     0.045 A 
ENDROOT
BRANCH   8   9
HETATM    9  C12 UNL     1      42.694   1.894  91.102  1.00  0.00     0.047 C 
BRANCH   9  10
HETATM   10  C13 UNL     1      43.335   0.728  90.610  1.00  0.00     0.027 A 
HETATM   11  C14 UNL     1      43.970   0.615  89.372  1.00  0.00     0.153 A 
HETATM   12  N2  UNL     1      44.418  -0.642  89.207  1.00  0.00    -0.317 N 
HETATM   13  C15 UNL     1      44.110  -1.379  90.285  1.00  0.00     0.148 A 
ATOM     14  H2  UNL     1      44.916  -0.983  88.386  1.00  0.00     0.170 HD
HETATM   15  C16 UNL     1      43.449  -0.552  91.149  1.00  0.00     0.003 A 
HETATM   16  C17 UNL     1      42.915  -0.923  92.471  1.00  0.00     0.054 C 
BRANCH  11  17
HETATM   17  O1  UNL     1      44.113   1.653  88.450  1.00  0.00    -0.345 OA
ATOM     18  H1  UNL     1      44.943   2.012  88.161  1.00  0.00     0.219 HD
ENDBRANCH  11  17
BRANCH  13  19
HETATM   19  O2  UNL     1      44.412  -2.741  90.487  1.00  0.00    -0.346 OA
ATOM     20  H2  UNL     1      44.278  -3.450  89.869  1.00  0.00     0.219 HD
ENDBRANCH  13  19
ENDBRANCH   9  10
ENDBRANCH   8   9
BRANCH   1  21
HETATM   21  C3  UNL     1      40.093   1.025  91.778  1.00  0.00    -0.013 C 
BRANCH  21  22
HETATM   22  C2  UNL     1      39.018   0.176  92.439  1.00  0.00     0.023 C 
HETATM   23  C1  UNL     1      39.321  -1.284  92.197  1.00  0.00     0.009 C 
ENDBRANCH  21  22
ENDBRANCH   1  21
BRANCH   5  24
HETATM   24  C8  UNL     1      42.568   4.874  94.819  1.00  0.00     0.056 C 
HETATM   25  C9  UNL     1      42.158   6.246  94.367  1.00  0.00     0.011 C 
ENDBRANCH   5  24
TORSDOF 7
ENDMDL
MODEL 5
REMARK VINA RESULT: -8.176514258      3.246      5.632
REMARK  7 active torsions:
REMARK  status: ('A' for Active; 'I' for Inactive)
REMARK    1  A    between atoms: C2_2  and  C3_3 
REMARK    2  A    between atoms: C3_3  and  C4_4 
REMARK    3  A    between atoms: C7_8  and  C8_9 
REMARK    4  A    between atoms: C11_13  and  C12_14 
REMARK    5  A    between atoms: C12_14  and  C13_15 
REMARK    6  A    between atoms: C14_16  and  O1_17 
REMARK    7  A    between atoms: C15_21  and  O2_22 
ROOT
HETATM    1  C4  UNL     1      42.801  -0.336  92.262  1.00  0.00    -0.010 A 
HETATM    2  C5  UNL     1      43.321  -1.052  91.162  1.00  0.00     0.057 A 
HETATM    3  C6  UNL     1      44.158  -0.453  90.259  1.00  0.00     0.140 A 
HETATM    4  F1  UNL     1      44.672  -1.132  89.189  1.00  0.00    -0.204 F 
HETATM    5  C7  UNL     1      44.458   0.878  90.482  1.00  0.00     0.050 A 
HETATM    6  N1  UNL     1      43.961   1.551  91.522  1.00  0.00    -0.351 N 
HETATM    7  C10 UNL     1      44.319   2.964  91.586  1.00  0.00     0.156 C 
HETATM    8  C11 UNL     1      43.114   0.975  92.458  1.00  0.00     0.045 A 
ENDROOT
BRANCH   8   9
HETATM    9  C12 UNL     1      42.716   1.698  93.421  1.00  0.00     0.047 C 
BRANCH   9  10
HETATM   10  C13 UNL     1      41.778   2.715  93.736  1.00  0.00     0.027 A 
HETATM   11  C14 UNL     1      42.085   3.949  94.312  1.00  0.00     0.153 A 
HETATM   12  N2  UNL     1      40.953   4.642  94.524  1.00  0.00    -0.317 N 
HETATM   13  C15 UNL     1      39.896   3.925  94.114  1.00  0.00     0.148 A 
ATOM     14  H2  UNL     1      40.905   5.575  94.936  1.00  0.00     0.170 HD
HETATM   15  C16 UNL     1      40.388   2.746  93.630  1.00  0.00     0.003 A 
HETATM   16  C17 UNL     1      39.597   1.637  93.068  1.00  0.00     0.054 C 
BRANCH  11  17
HETATM   17  O1  UNL     1      43.374   4.389  94.618  1.00  0.00    -0.345 OA
ATOM     18  H1  UNL     1      43.584   5.036  95.281  1.00  0.00     0.219 HD
ENDBRANCH  11  17
BRANCH  13  19
HETATM   19  O2  UNL     1      38.543   4.313  94.170  1.00  0.00    -0.346 OA
ATOM     20  H2  UNL     1      37.826   3.817  94.547  1.00  0.00     0.219 HD
ENDBRANCH  13  19
ENDBRANCH   9  10
ENDBRANCH   8   9
BRANCH   1  21
HETATM   21  C3  UNL     1      42.022  -1.013  93.041  1.00  0.00    -0.013 C 
BRANCH  21  22
HETATM   22  C2  UNL     1      41.185  -2.179  92.539  1.00  0.00     0.023 C 
HETATM   23  C1  UNL     1      39.746  -1.740  92.414  1.00  0.00     0.009 C 
ENDBRANCH  21  22
ENDBRANCH   1  21
BRANCH   5  24
HETATM   24  C8  UNL     1      45.384   1.477  89.478  1.00  0.00     0.056 C 
HETATM   25  C9  UNL     1      46.800   1.476  89.976  1.00  0.00     0.011 C 
ENDBRANCH   5  24
TORSDOF 7
ENDMDL
