MODEL 1
REMARK VINA RESULT: -6.998414840      0.000      0.000
REMARK  5 active torsions:
REMARK  status: ('A' for Active; 'I' for Inactive)
REMARK    1  A    between atoms: C2_2  and  N1_3 
REMARK    2  A    between atoms: C3_4  and  O1_5 
REMARK    3  A    between atoms: C6_9  and  O2_10 
REMARK    4  A    between atoms: C7_12  and  C8_13 
REMARK    5  A    between atoms: C11_17  and  C12_18 
ROOT
HETATM    1  N1  UNL     1      28.976  -5.617  21.761  1.00  0.00    -0.308 N 
HETATM    2  C3  UNL     1      28.492  -4.343  21.702  1.00  0.00     0.151 A 
HETATM    3  C4  UNL     1      27.753  -4.056  22.820  1.00  0.00     0.004 A 
HETATM    4  C5  UNL     1      27.787  -5.217  23.601  1.00  0.00     0.012 A 
HETATM    5  C6  UNL     1      28.537  -6.132  22.923  1.00  0.00     0.151 A 
HETATM    6  C7  UNL     1      27.013  -5.091  24.875  1.00  0.00     0.058 C 
HETATM    7  C17 UNL     1      25.646  -4.661  24.519  1.00  0.00     0.014 C 
HETATM    8  C18 UNL     1      25.587  -3.435  23.643  1.00  0.00     0.006 C 
HETATM    9  C19 UNL     1      26.984  -2.922  23.383  1.00  0.00     0.044 C 
ENDROOT
BRANCH   6  10
HETATM   10  C8  UNL     1      27.240  -6.153  25.820  1.00  0.00    -0.025 A 
HETATM   11  C9  UNL     1      28.243  -5.913  26.772  1.00  0.00     0.052 A 
HETATM   12  C10 UNL     1      28.545  -6.844  27.716  1.00  0.00     0.123 A 
HETATM   13  F1  UNL     1      29.512  -6.639  28.654  1.00  0.00    -0.206 F 
HETATM   14  C11 UNL     1      27.881  -8.061  27.778  1.00  0.00    -0.014 A 
HETATM   15  C15 UNL     1      26.898  -8.272  26.830  1.00  0.00     0.035 A 
HETATM   16  C16 UNL     1      26.585  -7.330  25.866  1.00  0.00     0.041 A 
HETATM   17 CL1  UNL     1      25.299  -7.804  24.768  1.00  0.00    -0.084 Cl
BRANCH  14  18
HETATM   18  C12 UNL     1      28.228  -9.059  28.819  1.00  0.00     0.022 A 
HETATM   19  C13 UNL     1      27.716  -8.910  30.213  1.00  0.00     0.010 A 
HETATM   20  C14 UNL     1      27.161  -9.962  29.283  1.00  0.00     0.010 A 
ENDBRANCH  14  18
ENDBRANCH   6  10
BRANCH   5  21
HETATM   21  O2  UNL     1      28.809  -7.412  23.366  1.00  0.00    -0.345 OA
ATOM     22  H2  UNL     1      29.452  -7.992  22.976  1.00  0.00     0.219 HD
ENDBRANCH   5  21
BRANCH   2  23
HETATM   23  O1  UNL     1      28.707  -3.449  20.666  1.00  0.00    -0.345 OA
ATOM     24  H1  UNL     1      28.053  -2.867  20.296  1.00  0.00     0.219 HD
ENDBRANCH   2  23
BRANCH   1  25
HETATM   25  C2  UNL     1      29.794  -6.216  20.728  1.00  0.00     0.129 C 
HETATM   26  C1  UNL     1      29.108  -7.382  20.065  1.00  0.00     0.027 C 
ENDBRANCH   1  25
TORSDOF 5
ENDMDL
MODEL 2
REMARK VINA RESULT: -6.531837566      3.071      6.860
REMARK  5 active torsions:
REMARK  status: ('A' for Active; 'I' for Inactive)
REMARK    1  A    between atoms: C2_2  and  N1_3 
REMARK    2  A    between atoms: C3_4  and  O1_5 
REMARK    3  A    between atoms: C6_9  and  O2_10 
REMARK    4  A    between atoms: C7_12  and  C8_13 
REMARK    5  A    between atoms: C11_17  and  C12_18 
ROOT
HETATM    1  N1  UNL     1      25.737  -9.237  27.568  1.00  0.00    -0.308 N 
HETATM    2  C3  UNL     1      26.181  -9.154  28.855  1.00  0.00     0.151 A 
HETATM    3  C4  UNL     1      27.212  -8.258  28.953  1.00  0.00     0.004 A 
HETATM    4  C5  UNL     1      27.408  -7.769  27.656  1.00  0.00     0.012 A 
HETATM    5  C6  UNL     1      26.495  -8.387  26.854  1.00  0.00     0.151 A 
HETATM    6  C7  UNL     1      28.520  -6.770  27.566  1.00  0.00     0.058 C 
HETATM    7  C17 UNL     1      29.723  -7.398  28.146  1.00  0.00     0.014 C 
HETATM    8  C18 UNL     1      29.523  -7.969  29.528  1.00  0.00     0.006 C 
HETATM    9  C19 UNL     1      28.110  -7.705  29.993  1.00  0.00     0.044 C 
ENDROOT
BRANCH   6  10
HETATM   10  C8  UNL     1      28.578  -6.052  26.320  1.00  0.00    -0.025 A 
HETATM   11  C9  UNL     1      27.995  -4.776  26.327  1.00  0.00     0.052 A 
HETATM   12  C10 UNL     1      27.991  -4.004  25.208  1.00  0.00     0.123 A 
HETATM   13  F1  UNL     1      27.434  -2.761  25.185  1.00  0.00    -0.206 F 
HETATM   14  C11 UNL     1      28.559  -4.442  24.019  1.00  0.00    -0.014 A 
HETATM   15  C15 UNL     1      29.127  -5.702  24.038  1.00  0.00     0.035 A 
HETATM   16  C16 UNL     1      29.135  -6.493  25.173  1.00  0.00     0.041 A 
HETATM   17 CL1  UNL     1      29.915  -8.053  24.975  1.00  0.00    -0.084 Cl
BRANCH  14  18
HETATM   18  C12 UNL     1      28.544  -3.580  22.812  1.00  0.00     0.022 A 
HETATM   19  C13 UNL     1      28.370  -4.178  21.455  1.00  0.00     0.010 A 
HETATM   20  C14 UNL     1      27.258  -3.401  22.118  1.00  0.00     0.010 A 
ENDBRANCH  14  18
ENDBRANCH   6  10
BRANCH   5  21
HETATM   21  O2  UNL     1      26.366  -8.173  25.495  1.00  0.00    -0.345 OA
ATOM     22  H2  UNL     1      26.662  -7.393  25.042  1.00  0.00     0.219 HD
ENDBRANCH   5  21
BRANCH   2  23
HETATM   23  O1  UNL     1      25.672  -9.868  29.928  1.00  0.00    -0.345 OA
ATOM     24  H1  UNL     1      24.974  -9.577  30.502  1.00  0.00     0.219 HD
ENDBRANCH   2  23
BRANCH   1  25
HETATM   25  C2  UNL     1      24.654 -10.099  27.143  1.00  0.00     0.129 C 
HETATM   26  C1  UNL     1      23.356  -9.349  26.993  1.00  0.00     0.027 C 
ENDBRANCH   1  25
TORSDOF 5
ENDMDL
MODEL 3
REMARK VINA RESULT: -6.506736378      2.729      3.298
REMARK  5 active torsions:
REMARK  status: ('A' for Active; 'I' for Inactive)
REMARK    1  A    between atoms: C2_2  and  N1_3 
REMARK    2  A    between atoms: C3_4  and  O1_5 
REMARK    3  A    between atoms: C6_9  and  O2_10 
REMARK    4  A    between atoms: C7_12  and  C8_13 
REMARK    5  A    between atoms: C11_17  and  C12_18 
ROOT
HETATM    1  N1  UNL     1      29.199  -5.778  22.368  1.00  0.00    -0.308 N 
HETATM    2  C3  UNL     1      29.281  -4.503  22.843  1.00  0.00     0.151 A 
HETATM    3  C4  UNL     1      28.290  -4.264  23.758  1.00  0.00     0.004 A 
HETATM    4  C5  UNL     1      27.564  -5.457  23.845  1.00  0.00     0.012 A 
HETATM    5  C6  UNL     1      28.148  -6.343  22.989  1.00  0.00     0.151 A 
HETATM    6  C7  UNL     1      26.418  -5.379  24.804  1.00  0.00     0.058 C 
HETATM    7  C17 UNL     1      25.596  -4.217  24.414  1.00  0.00     0.014 C 
HETATM    8  C18 UNL     1      26.366  -2.927  24.275  1.00  0.00     0.006 C 
HETATM    9  C19 UNL     1      27.817  -3.157  24.622  1.00  0.00     0.044 C 
ENDROOT
BRANCH   6  10
HETATM   10  C8  UNL     1      25.816  -6.648  25.120  1.00  0.00    -0.025 A 
HETATM   11  C9  UNL     1      24.590  -6.911  24.490  1.00  0.00     0.052 A 
HETATM   12  C10 UNL     1      23.929  -8.079  24.711  1.00  0.00     0.123 A 
HETATM   13  F1  UNL     1      22.738  -8.363  24.113  1.00  0.00    -0.206 F 
HETATM   14  C11 UNL     1      24.434  -9.053  25.563  1.00  0.00    -0.014 A 
HETATM   15  C15 UNL     1      25.642  -8.768  26.171  1.00  0.00     0.035 A 
HETATM   16  C16 UNL     1      26.321  -7.583  25.951  1.00  0.00     0.041 A 
HETATM   17 CL1  UNL     1      27.839  -7.435  26.820  1.00  0.00    -0.084 Cl
BRANCH  14  18
HETATM   18  C12 UNL     1      23.694 -10.319  25.786  1.00  0.00     0.022 A 
HETATM   19  C13 UNL     1      23.838 -11.065  27.071  1.00  0.00     0.010 A 
HETATM   20  C14 UNL     1      22.579 -10.297  26.748  1.00  0.00     0.010 A 
ENDBRANCH  14  18
ENDBRANCH   6  10
BRANCH   5  21
HETATM   21  O2  UNL     1      27.722  -7.641  22.785  1.00  0.00    -0.345 OA
ATOM     22  H2  UNL     1      26.926  -7.881  22.325  1.00  0.00     0.219 HD
ENDBRANCH   5  21
BRANCH   2  23
HETATM   23  O1  UNL     1      30.228  -3.564  22.466  1.00  0.00    -0.345 OA
ATOM     24  H1  UNL     1      30.511  -2.825  22.991  1.00  0.00     0.219 HD
ENDBRANCH   2  23
BRANCH   1  25
HETATM   25  C2  UNL     1      30.107  -6.333  21.386  1.00  0.00     0.129 C 
HETATM   26  C1  UNL     1      29.673  -6.027  19.976  1.00  0.00     0.027 C 
ENDBRANCH   1  25
TORSDOF 5
ENDMDL
MODEL 4
REMARK VINA RESULT: -6.497785389      3.160      6.290
REMARK  5 active torsions:
REMARK  status: ('A' for Active; 'I' for Inactive)
REMARK    1  A    between atoms: C2_2  and  N1_3 
REMARK    2  A    between atoms: C3_4  and  O1_5 
REMARK    3  A    between atoms: C6_9  and  O2_10 
REMARK    4  A    between atoms: C7_12  and  C8_13 
REMARK    5  A    between atoms: C11_17  and  C12_18 
ROOT
HETATM    1  N1  UNL     1      32.384  -7.835  26.351  1.00  0.00    -0.308 N 
HETATM    2  C3  UNL     1      31.948  -8.945  27.013  1.00  0.00     0.151 A 
HETATM    3  C4  UNL     1      30.592  -8.896  27.196  1.00  0.00     0.004 A 
HETATM    4  C5  UNL     1      30.178  -7.691  26.616  1.00  0.00     0.012 A 
HETATM    5  C6  UNL     1      31.292  -7.084  26.119  1.00  0.00     0.151 A 
HETATM    6  C7  UNL     1      28.704  -7.459  26.732  1.00  0.00     0.058 C 
HETATM    7  C17 UNL     1      28.351  -7.576  28.160  1.00  0.00     0.014 C 
HETATM    8  C18 UNL     1      28.823  -8.850  28.816  1.00  0.00     0.006 C 
HETATM    9  C19 UNL     1      29.520  -9.723  27.799  1.00  0.00     0.044 C 
ENDROOT
BRANCH   6  10
HETATM   10  C8  UNL     1      28.205  -6.376  25.925  1.00  0.00    -0.025 A 
HETATM   11  C9  UNL     1      28.198  -5.115  26.541  1.00  0.00     0.052 A 
HETATM   12  C10 UNL     1      27.750  -4.017  25.876  1.00  0.00     0.123 A 
HETATM   13  F1  UNL     1      27.732  -2.780  26.446  1.00  0.00    -0.206 F 
HETATM   14  C11 UNL     1      27.283  -4.095  24.570  1.00  0.00    -0.014 A 
HETATM   15  C15 UNL     1      27.300  -5.349  23.988  1.00  0.00     0.035 A 
HETATM   16  C16 UNL     1      27.755  -6.470  24.657  1.00  0.00     0.041 A 
HETATM   17 CL1  UNL     1      27.694  -7.957  23.725  1.00  0.00    -0.084 Cl
BRANCH  14  18
HETATM   18  C12 UNL     1      26.801  -2.882  23.866  1.00  0.00     0.022 A 
HETATM   19  C13 UNL     1      26.488  -2.927  22.407  1.00  0.00     0.010 A 
HETATM   20  C14 UNL     1      25.391  -2.854  23.442  1.00  0.00     0.010 A 
ENDBRANCH  14  18
ENDBRANCH   6  10
BRANCH   5  21
HETATM   21  O2  UNL     1      31.303  -5.866  25.466  1.00  0.00    -0.345 OA
ATOM     22  H2  UNL     1      30.616  -5.559  24.887  1.00  0.00     0.219 HD
ENDBRANCH   5  21
BRANCH   2  23
HETATM   23  O1  UNL     1      32.750  -9.989  27.446  1.00  0.00    -0.345 OA
ATOM     24  H1  UNL     1      32.956 -10.770  26.947  1.00  0.00     0.219 HD
ENDBRANCH   2  23
BRANCH   1  25
HETATM   25  C2  UNL     1      33.769  -7.593  26.008  1.00  0.00     0.129 C 
HETATM   26  C1  UNL     1      34.419  -6.600  26.936  1.00  0.00     0.027 C 
ENDBRANCH   1  25
TORSDOF 5
ENDMDL
MODEL 5
REMARK VINA RESULT: -6.473365711      1.712      1.990
REMARK  5 active torsions:
REMARK  status: ('A' for Active; 'I' for Inactive)
REMARK    1  A    between atoms: C2_2  and  N1_3 
REMARK    2  A    between atoms: C3_4  and  O1_5 
REMARK    3  A    between atoms: C6_9  and  O2_10 
REMARK    4  A    between atoms: C7_12  and  C8_13 
REMARK    5  A    between atoms: C11_17  and  C12_18 
ROOT
HETATM    1  N1  UNL     1      28.846  -5.593  21.792  1.00  0.00    -0.308 N 
HETATM    2  C3  UNL     1      28.417  -4.301  21.875  1.00  0.00     0.151 A 
HETATM    3  C4  UNL     1      27.655  -4.118  22.999  1.00  0.00     0.004 A 
HETATM    4  C5  UNL     1      27.617  -5.364  23.634  1.00  0.00     0.012 A 
HETATM    5  C6  UNL     1      28.349  -6.224  22.870  1.00  0.00     0.151 A 
HETATM    6  C7  UNL     1      26.808  -5.358  24.894  1.00  0.00     0.058 C 
HETATM    7  C17 UNL     1      25.472  -4.828  24.556  1.00  0.00     0.014 C 
HETATM    8  C18 UNL     1      25.491  -3.504  23.834  1.00  0.00     0.006 C 
HETATM    9  C19 UNL     1      26.916  -3.027  23.676  1.00  0.00     0.044 C 
ENDROOT
BRANCH   6  10
HETATM   10  C8  UNL     1      26.961  -6.535  25.708  1.00  0.00    -0.025 A 
HETATM   11  C9  UNL     1      25.933  -7.484  25.602  1.00  0.00     0.052 A 
HETATM   12  C10 UNL     1      25.970  -8.636  26.322  1.00  0.00     0.123 A 
HETATM   13  F1  UNL     1      24.988  -9.576  26.240  1.00  0.00    -0.206 F 
HETATM   14  C11 UNL     1      27.018  -8.922  27.188  1.00  0.00    -0.014 A 
HETATM   15  C15 UNL     1      28.018  -7.971  27.274  1.00  0.00     0.035 A 
HETATM   16  C16 UNL     1      27.987  -6.796  26.544  1.00  0.00     0.041 A 
HETATM   17 CL1  UNL     1      29.363  -5.736  26.802  1.00  0.00    -0.084 Cl
BRANCH  14  18
HETATM   18  C12 UNL     1      27.036 -10.187  27.961  1.00  0.00     0.022 A 
HETATM   19  C13 UNL     1      27.862 -10.307  29.199  1.00  0.00     0.010 A 
HETATM   20  C14 UNL     1      26.358 -10.197  29.268  1.00  0.00     0.010 A 
ENDBRANCH  14  18
ENDBRANCH   6  10
BRANCH   5  21
HETATM   21  O2  UNL     1      28.554  -7.559  23.161  1.00  0.00    -0.345 OA
ATOM     22  H2  UNL     1      27.938  -8.109  23.631  1.00  0.00     0.219 HD
ENDBRANCH   5  21
BRANCH   2  23
HETATM   23  O1  UNL     1      28.702  -3.299  20.962  1.00  0.00    -0.345 OA
ATOM     24  H1  UNL     1      28.141  -3.034  20.242  1.00  0.00     0.219 HD
ENDBRANCH   2  23
BRANCH   1  25
HETATM   25  C2  UNL     1      29.671  -6.100  20.716  1.00  0.00     0.129 C 
HETATM   26  C1  UNL     1      29.023  -7.257  20.000  1.00  0.00     0.027 C 
ENDBRANCH   1  25
TORSDOF 5
ENDMDL
