MODEL 1
REMARK VINA RESULT: -7.450072736      0.000      0.000
REMARK  5 active torsions:
REMARK  status: ('A' for Active; 'I' for Inactive)
REMARK    1  A    between atoms: C4_4  and  C5_5 
REMARK    2  A    between atoms: C12_14  and  C13_15 
REMARK    3  A    between atoms: C13_15  and  O1_16 
REMARK    4  A    between atoms: N2_20  and  C16_21 
REMARK    5  A    between atoms: C21_26  and  O2_27 
ROOT
HETATM    1  C1  UNL     1      30.005  -6.394  18.896  1.00  0.00     0.068 C 
HETATM    2  C2  UNL     1      29.778  -6.300  20.355  1.00  0.00     0.007 A 
HETATM    3  C3  UNL     1      28.903  -5.348  20.898  1.00  0.00     0.034 A 
HETATM    4  C4  UNL     1      28.674  -5.258  22.249  1.00  0.00    -0.022 A 
HETATM    5  C11 UNL     1      29.371  -6.171  23.030  1.00  0.00     0.085 A 
HETATM    6  N1  UNL     1      29.473  -6.242  24.382  1.00  0.00    -0.340 N 
ATOM      7  H1  UNL     1      28.950  -5.678  25.053  1.00  0.00     0.167 HD
HETATM    8  C12 UNL     1      30.361  -7.160  24.675  1.00  0.00     0.118 A 
HETATM    9  N3  UNL     1      30.845  -7.717  23.530  1.00  0.00    -0.328 N 
ATOM     10  H3  UNL     1      31.540  -8.462  23.459  1.00  0.00     0.169 HD
HETATM   11  C24 UNL     1      30.220  -7.084  22.497  1.00  0.00     0.134 A 
HETATM   12  N4  UNL     1      30.413  -7.144  21.172  1.00  0.00    -0.344 N 
ATOM     13  H4  UNL     1      31.049  -7.841  20.785  1.00  0.00     0.167 HD
ENDROOT
BRANCH   8  14
HETATM   14  C13 UNL     1      31.027  -7.506  25.972  1.00  0.00     0.119 C 
HETATM   15  C14 UNL     1      30.695  -6.510  27.034  1.00  0.00     0.076 C 
HETATM   16  C15 UNL     1      31.594  -6.816  28.224  1.00  0.00     0.276 C 
HETATM   17  N2  UNL     1      32.952  -6.370  27.956  1.00  0.00     0.095 N 
HETATM   18  C22 UNL     1      33.207  -6.348  26.538  1.00  0.00     0.276 C 
HETATM   19  C23 UNL     1      32.541  -7.401  25.733  1.00  0.00     0.076 C 
BRANCH  14  20
HETATM   20  O1  UNL     1      30.733  -8.779  26.379  1.00  0.00    -0.382 OA
ATOM     21  H1  UNL     1      30.975  -8.930  27.284  1.00  0.00     0.211 HD
ENDBRANCH  14  20
BRANCH  17  22
HETATM   22  C16 UNL     1      33.963  -7.089  28.682  1.00  0.00     0.251 C 
HETATM   23  C17 UNL     1      35.359  -6.960  28.208  1.00  0.00     0.038 C 
HETATM   24  C18 UNL     1      36.208  -7.985  28.993  1.00  0.00     0.002 C 
HETATM   25  C19 UNL     1      36.113  -7.775  30.467  1.00  0.00     0.003 C 
HETATM   26  C20 UNL     1      34.694  -7.668  30.974  1.00  0.00     0.034 C 
HETATM   27  C21 UNL     1      33.877  -6.717  30.135  1.00  0.00     0.151 C 
BRANCH  27  28
HETATM   28  O2  UNL     1      34.358  -5.430  30.291  1.00  0.00    -0.393 OA
ATOM     29  H2  UNL     1      33.750  -4.943  30.834  1.00  0.00     0.210 HD
ENDBRANCH  27  28
ENDBRANCH  17  22
ENDBRANCH   8  14
BRANCH   4  30
HETATM   30  C5  UNL     1      27.631  -4.395  22.867  1.00  0.00     0.021 C 
HETATM   31  C6  UNL     1      26.964  -3.581  21.782  1.00  0.00     0.009 C 
HETATM   32  C7  UNL     1      25.819  -2.789  22.280  1.00  0.00     0.001 C 
HETATM   33  C8  UNL     1      24.801  -3.581  23.051  1.00  0.00     0.000 C 
HETATM   34  C9  UNL     1      25.400  -4.698  23.848  1.00  0.00     0.001 C 
HETATM   35  C10 UNL     1      26.486  -5.451  23.161  1.00  0.00     0.009 C 
ENDBRANCH   4  30
TORSDOF 5
ENDMDL
MODEL 2
REMARK VINA RESULT: -7.207596803      2.833      4.591
REMARK  5 active torsions:
REMARK  status: ('A' for Active; 'I' for Inactive)
REMARK    1  A    between atoms: C4_4  and  C5_5 
REMARK    2  A    between atoms: C12_14  and  C13_15 
REMARK    3  A    between atoms: C13_15  and  O1_16 
REMARK    4  A    between atoms: N2_20  and  C16_21 
REMARK    5  A    between atoms: C21_26  and  O2_27 
ROOT
HETATM    1  C1  UNL     1      25.750  -2.621  22.060  1.00  0.00     0.068 C 
HETATM    2  C2  UNL     1      26.949  -3.433  22.363  1.00  0.00     0.007 A 
HETATM    3  C3  UNL     1      27.690  -4.050  21.345  1.00  0.00     0.034 A 
HETATM    4  C4  UNL     1      28.812  -4.797  21.611  1.00  0.00    -0.022 A 
HETATM    5  C11 UNL     1      29.151  -4.895  22.955  1.00  0.00     0.085 A 
HETATM    6  N1  UNL     1      30.099  -5.667  23.546  1.00  0.00    -0.340 N 
ATOM      7  H1  UNL     1      30.799  -6.232  23.063  1.00  0.00     0.167 HD
HETATM    8  C12 UNL     1      29.959  -5.561  24.845  1.00  0.00     0.118 A 
HETATM    9  N3  UNL     1      28.932  -4.712  25.131  1.00  0.00    -0.328 N 
ATOM     10  H3  UNL     1      28.608  -4.438  26.058  1.00  0.00     0.169 HD
HETATM   11  C24 UNL     1      28.425  -4.301  23.934  1.00  0.00     0.134 A 
HETATM   12  N4  UNL     1      27.339  -3.576  23.632  1.00  0.00    -0.344 N 
ATOM     13  H4  UNL     1      26.806  -3.129  24.379  1.00  0.00     0.167 HD
ENDROOT
BRANCH   8  14
HETATM   14  C13 UNL     1      30.570  -6.343  25.967  1.00  0.00     0.119 C 
HETATM   15  C14 UNL     1      30.431  -7.813  25.741  1.00  0.00     0.076 C 
HETATM   16  C15 UNL     1      30.866  -8.499  27.029  1.00  0.00     0.276 C 
HETATM   17  N2  UNL     1      29.835  -8.361  28.046  1.00  0.00     0.095 N 
HETATM   18  C22 UNL     1      29.042  -7.182  27.804  1.00  0.00     0.276 C 
HETATM   19  C23 UNL     1      29.755  -6.016  27.228  1.00  0.00     0.076 C 
BRANCH  14  20
HETATM   20  O1  UNL     1      31.875  -5.996  26.185  1.00  0.00    -0.382 OA
ATOM     21  H1  UNL     1      32.476  -6.683  25.923  1.00  0.00     0.211 HD
ENDBRANCH  14  20
BRANCH  17  22
HETATM   22  C16 UNL     1      30.326  -8.423  29.396  1.00  0.00     0.251 C 
HETATM   23  C17 UNL     1      29.642  -7.584  30.404  1.00  0.00     0.038 C 
HETATM   24  C18 UNL     1      30.479  -7.649  31.701  1.00  0.00     0.002 C 
HETATM   25  C19 UNL     1      30.650  -9.051  32.184  1.00  0.00     0.003 C 
HETATM   26  C20 UNL     1      31.133 -10.005  31.118  1.00  0.00     0.034 C 
HETATM   27  C21 UNL     1      30.340  -9.857  29.844  1.00  0.00     0.151 C 
BRANCH  27  28
HETATM   28  O2  UNL     1      29.037 -10.266  30.056  1.00  0.00    -0.393 OA
ATOM     29  H2  UNL     1      29.042 -10.981  30.682  1.00  0.00     0.210 HD
ENDBRANCH  27  28
ENDBRANCH  17  22
ENDBRANCH   8  14
BRANCH   4  30
HETATM   30  C5  UNL     1      29.735  -5.323  20.571  1.00  0.00     0.021 C 
HETATM   31  C6  UNL     1      29.277  -6.705  20.165  1.00  0.00     0.009 C 
HETATM   32  C7  UNL     1      30.055  -7.260  19.036  1.00  0.00     0.001 C 
HETATM   33  C8  UNL     1      30.146  -6.357  17.838  1.00  0.00     0.000 C 
HETATM   34  C9  UNL     1      30.191  -4.904  18.195  1.00  0.00     0.001 C 
HETATM   35  C10 UNL     1      29.277  -4.497  19.299  1.00  0.00     0.009 C 
ENDBRANCH   4  30
TORSDOF 5
ENDMDL
MODEL 3
REMARK VINA RESULT: -7.140469936      6.165      9.985
REMARK  5 active torsions:
REMARK  status: ('A' for Active; 'I' for Inactive)
REMARK    1  A    between atoms: C4_4  and  C5_5 
REMARK    2  A    between atoms: C12_14  and  C13_15 
REMARK    3  A    between atoms: C13_15  and  O1_16 
REMARK    4  A    between atoms: N2_20  and  C16_21 
REMARK    5  A    between atoms: C21_26  and  O2_27 
ROOT
HETATM    1  C1  UNL     1      27.853  -8.979  22.438  1.00  0.00     0.068 C 
HETATM    2  C2  UNL     1      28.125  -7.628  21.902  1.00  0.00     0.007 A 
HETATM    3  C3  UNL     1      27.545  -6.486  22.472  1.00  0.00     0.034 A 
HETATM    4  C4  UNL     1      27.799  -5.224  21.992  1.00  0.00    -0.022 A 
HETATM    5  C11 UNL     1      28.664  -5.167  20.907  1.00  0.00     0.085 A 
HETATM    6  N1  UNL     1      28.993  -4.105  20.127  1.00  0.00    -0.340 N 
ATOM      7  H1  UNL     1      28.724  -3.135  20.291  1.00  0.00     0.167 HD
HETATM    8  C12 UNL     1      29.716  -4.545  19.126  1.00  0.00     0.118 A 
HETATM    9  N3  UNL     1      29.887  -5.892  19.235  1.00  0.00    -0.328 N 
ATOM     10  H3  UNL     1      30.414  -6.494  18.602  1.00  0.00     0.169 HD
HETATM   11  C24 UNL     1      29.216  -6.277  20.358  1.00  0.00     0.134 A 
HETATM   12  N4  UNL     1      28.948  -7.491  20.859  1.00  0.00    -0.344 N 
ATOM     13  H4  UNL     1      29.376  -8.317  20.440  1.00  0.00     0.167 HD
ENDROOT
BRANCH   8  14
HETATM   14  C13 UNL     1      30.160  -3.871  17.863  1.00  0.00     0.119 C 
HETATM   15  C14 UNL     1      29.505  -4.478  16.666  1.00  0.00     0.076 C 
HETATM   16  C15 UNL     1      30.192  -3.889  15.442  1.00  0.00     0.276 C 
HETATM   17  N2  UNL     1      31.507  -4.486  15.267  1.00  0.00     0.095 N 
HETATM   18  C22 UNL     1      32.023  -4.951  16.529  1.00  0.00     0.276 C 
HETATM   19  C23 UNL     1      31.666  -4.146  17.722  1.00  0.00     0.076 C 
BRANCH  14  20
HETATM   20  O1  UNL     1      29.962  -2.518  17.904  1.00  0.00    -0.382 OA
ATOM     21  H1  UNL     1      30.545  -2.053  17.316  1.00  0.00     0.211 HD
ENDBRANCH  14  20
BRANCH  17  22
HETATM   22  C16 UNL     1      32.445  -3.653  14.566  1.00  0.00     0.251 C 
HETATM   23  C17 UNL     1      33.875  -4.023  14.650  1.00  0.00     0.038 C 
HETATM   24  C18 UNL     1      34.687  -2.869  14.019  1.00  0.00     0.002 C 
HETATM   25  C19 UNL     1      34.275  -2.605  12.609  1.00  0.00     0.003 C 
HETATM   26  C20 UNL     1      32.784  -2.446  12.433  1.00  0.00     0.034 C 
HETATM   27  C21 UNL     1      32.025  -3.549  13.127  1.00  0.00     0.151 C 
BRANCH  27  28
HETATM   28  O2  UNL     1      32.282  -4.755  12.503  1.00  0.00    -0.393 OA
ATOM     29  H2  UNL     1      32.991  -4.630  11.884  1.00  0.00     0.210 HD
ENDBRANCH  27  28
ENDBRANCH  17  22
ENDBRANCH   8  14
BRANCH   4  30
HETATM   30  C5  UNL     1      27.358  -3.969  22.659  1.00  0.00     0.021 C 
HETATM   31  C6  UNL     1      25.857  -4.008  22.831  1.00  0.00     0.009 C 
HETATM   32  C7  UNL     1      25.339  -2.860  23.607  1.00  0.00     0.001 C 
HETATM   33  C8  UNL     1      26.019  -2.642  24.928  1.00  0.00     0.000 C 
HETATM   34  C9  UNL     1      27.475  -2.995  24.909  1.00  0.00     0.001 C 
HETATM   35  C10 UNL     1      27.814  -4.233  24.153  1.00  0.00     0.009 C 
ENDBRANCH   4  30
TORSDOF 5
ENDMDL
MODEL 4
REMARK VINA RESULT: -7.125990021      2.275      3.629
REMARK  5 active torsions:
REMARK  status: ('A' for Active; 'I' for Inactive)
REMARK    1  A    between atoms: C4_4  and  C5_5 
REMARK    2  A    between atoms: C12_14  and  C13_15 
REMARK    3  A    between atoms: C13_15  and  O1_16 
REMARK    4  A    between atoms: N2_20  and  C16_21 
REMARK    5  A    between atoms: C21_26  and  O2_27 
ROOT
HETATM    1  C1  UNL     1      22.925  -8.721  24.503  1.00  0.00     0.068 C 
HETATM    2  C2  UNL     1      24.195  -8.067  24.887  1.00  0.00     0.007 A 
HETATM    3  C3  UNL     1      24.645  -6.908  24.239  1.00  0.00     0.034 A 
HETATM    4  C4  UNL     1      25.816  -6.284  24.593  1.00  0.00    -0.022 A 
HETATM    5  C11 UNL     1      26.517  -6.887  25.631  1.00  0.00     0.085 A 
HETATM    6  N1  UNL     1      27.758  -6.604  26.106  1.00  0.00    -0.340 N 
ATOM      7  H1  UNL     1      28.338  -5.812  25.831  1.00  0.00     0.167 HD
HETATM    8  C12 UNL     1      28.078  -7.527  26.979  1.00  0.00     0.118 A 
HETATM    9  N3  UNL     1      27.056  -8.420  27.105  1.00  0.00    -0.328 N 
ATOM     10  H3  UNL     1      27.029  -9.233  27.720  1.00  0.00     0.169 HD
HETATM   11  C24 UNL     1      26.078  -8.011  26.247  1.00  0.00     0.134 A 
HETATM   12  N4  UNL     1      24.926  -8.587  25.876  1.00  0.00    -0.344 N 
ATOM     13  H4  UNL     1      24.605  -9.430  26.354  1.00  0.00     0.167 HD
ENDROOT
BRANCH   8  14
HETATM   14  C13 UNL     1      29.384  -7.842  27.642  1.00  0.00     0.119 C 
HETATM   15  C14 UNL     1      29.536  -7.089  28.923  1.00  0.00     0.076 C 
HETATM   16  C15 UNL     1      30.971  -7.295  29.389  1.00  0.00     0.276 C 
HETATM   17  N2  UNL     1      31.881  -6.495  28.584  1.00  0.00     0.095 N 
HETATM   18  C22 UNL     1      31.318  -6.247  27.281  1.00  0.00     0.276 C 
HETATM   19  C23 UNL     1      30.490  -7.333  26.704  1.00  0.00     0.076 C 
BRANCH  14  20
HETATM   20  O1  UNL     1      29.554  -9.185  27.834  1.00  0.00    -0.382 OA
ATOM     21  H1  UNL     1      29.814  -9.631  27.037  1.00  0.00     0.211 HD
ENDBRANCH  14  20
BRANCH  17  22
HETATM   22  C16 UNL     1      33.219  -7.015  28.512  1.00  0.00     0.251 C 
HETATM   23  C17 UNL     1      34.082  -6.517  27.419  1.00  0.00     0.038 C 
HETATM   24  C18 UNL     1      35.365  -7.377  27.417  1.00  0.00     0.002 C 
HETATM   25  C19 UNL     1      36.070  -7.329  28.732  1.00  0.00     0.003 C 
HETATM   26  C20 UNL     1      35.170  -7.608  29.912  1.00  0.00     0.034 C 
HETATM   27  C21 UNL     1      33.895  -6.806  29.838  1.00  0.00     0.151 C 
BRANCH  27  28
HETATM   28  O2  UNL     1      34.182  -5.462  29.979  1.00  0.00    -0.393 OA
ATOM     29  H2  UNL     1      35.115  -5.365  30.127  1.00  0.00     0.210 HD
ENDBRANCH  27  28
ENDBRANCH  17  22
ENDBRANCH   8  14
BRANCH   4  30
HETATM   30  C5  UNL     1      26.254  -4.962  24.069  1.00  0.00     0.021 C 
HETATM   31  C6  UNL     1      27.002  -5.174  22.773  1.00  0.00     0.009 C 
HETATM   32  C7  UNL     1      27.362  -3.904  22.105  1.00  0.00     0.001 C 
HETATM   33  C8  UNL     1      26.214  -2.955  21.907  1.00  0.00     0.000 C 
HETATM   34  C9  UNL     1      25.203  -3.013  23.010  1.00  0.00     0.001 C 
HETATM   35  C10 UNL     1      24.890  -4.381  23.510  1.00  0.00     0.009 C 
ENDBRANCH   4  30
TORSDOF 5
ENDMDL
MODEL 5
REMARK VINA RESULT: -7.105780630      1.335      1.659
REMARK  5 active torsions:
REMARK  status: ('A' for Active; 'I' for Inactive)
REMARK    1  A    between atoms: C4_4  and  C5_5 
REMARK    2  A    between atoms: C12_14  and  C13_15 
REMARK    3  A    between atoms: C13_15  and  O1_16 
REMARK    4  A    between atoms: N2_20  and  C16_21 
REMARK    5  A    between atoms: C21_26  and  O2_27 
ROOT
HETATM    1  C1  UNL     1      29.664  -5.137  18.771  1.00  0.00     0.068 C 
HETATM    2  C2  UNL     1      29.468  -5.452  20.203  1.00  0.00     0.007 A 
HETATM    3  C3  UNL     1      28.475  -4.817  20.961  1.00  0.00     0.034 A 
HETATM    4  C4  UNL     1      28.274  -5.108  22.288  1.00  0.00    -0.022 A 
HETATM    5  C11 UNL     1      29.125  -6.070  22.817  1.00  0.00     0.085 A 
HETATM    6  N1  UNL     1      29.276  -6.465  24.108  1.00  0.00    -0.340 N 
ATOM      7  H1  UNL     1      28.693  -6.178  24.895  1.00  0.00     0.167 HD
HETATM    8  C12 UNL     1      30.301  -7.280  24.166  1.00  0.00     0.118 A 
HETATM    9  N3  UNL     1      30.831  -7.446  22.922  1.00  0.00    -0.328 N 
ATOM     10  H3  UNL     1      31.628  -8.032  22.672  1.00  0.00     0.169 HD
HETATM   11  C24 UNL     1      30.087  -6.676  22.079  1.00  0.00     0.134 A 
HETATM   12  N4  UNL     1      30.247  -6.368  20.784  1.00  0.00    -0.344 N 
ATOM     13  H4  UNL     1      30.971  -6.836  20.239  1.00  0.00     0.167 HD
ENDROOT
BRANCH   8  14
HETATM   14  C13 UNL     1      31.049  -7.836  25.339  1.00  0.00     0.119 C 
HETATM   15  C14 UNL     1      30.114  -8.305  26.405  1.00  0.00     0.076 C 
HETATM   16  C15 UNL     1      30.963  -8.627  27.627  1.00  0.00     0.276 C 
HETATM   17  N2  UNL     1      31.398  -7.400  28.276  1.00  0.00     0.095 N 
HETATM   18  C22 UNL     1      31.450  -6.317  27.326  1.00  0.00     0.276 C 
HETATM   19  C23 UNL     1      31.852  -6.673  25.944  1.00  0.00     0.076 C 
BRANCH  14  20
HETATM   20  O1  UNL     1      31.918  -8.827  24.973  1.00  0.00    -0.382 OA
ATOM     21  H1  UNL     1      32.813  -8.627  25.219  1.00  0.00     0.211 HD
ENDBRANCH  14  20
BRANCH  17  22
HETATM   22  C16 UNL     1      32.618  -7.528  29.025  1.00  0.00     0.251 C 
HETATM   23  C17 UNL     1      33.472  -6.326  29.141  1.00  0.00     0.038 C 
HETATM   24  C18 UNL     1      34.805  -6.769  29.784  1.00  0.00     0.002 C 
HETATM   25  C19 UNL     1      34.595  -7.417  31.112  1.00  0.00     0.003 C 
HETATM   26  C20 UNL     1      33.553  -8.510  31.094  1.00  0.00     0.034 C 
HETATM   27  C21 UNL     1      32.296  -8.064  30.392  1.00  0.00     0.151 C 
BRANCH  27  28
HETATM   28  O2  UNL     1      31.683  -7.065  31.124  1.00  0.00    -0.393 OA
ATOM     29  H2  UNL     1      31.995  -7.111  32.020  1.00  0.00     0.210 HD
ENDBRANCH  27  28
ENDBRANCH  17  22
ENDBRANCH   8  14
BRANCH   4  30
HETATM   30  C5  UNL     1      27.130  -4.603  23.095  1.00  0.00     0.021 C 
HETATM   31  C6  UNL     1      27.660  -3.680  24.168  1.00  0.00     0.009 C 
HETATM   32  C7  UNL     1      26.584  -3.020  24.940  1.00  0.00     0.001 C 
HETATM   33  C8  UNL     1      25.553  -2.321  24.100  1.00  0.00     0.000 C 
HETATM   34  C9  UNL     1      25.288  -3.007  22.795  1.00  0.00     0.001 C 
HETATM   35  C10 UNL     1      26.497  -3.539  22.105  1.00  0.00     0.009 C 
ENDBRANCH   4  30
TORSDOF 5
ENDMDL
