MODEL 1
REMARK VINA RESULT: -8.067347295      0.000      0.000
REMARK  4 active torsions:
REMARK  status: ('A' for Active; 'I' for Inactive)
REMARK    1  A    between atoms: O1_1  and  C1_3 
REMARK    2  A    between atoms: C7_9  and  C8_10 
REMARK    3  A    between atoms: C9_15  and  C10_16 
REMARK    4  A    between atoms: C16_22  and  C17_23 
ROOT
HETATM    1  C8  UNL     1      28.020  -4.681  21.588  1.00  0.00     0.106 A 
HETATM    2  N1  UNL     1      28.482  -5.961  21.608  1.00  0.00    -0.287 N 
ATOM      3  H1  UNL     1      28.309  -6.634  22.353  1.00  0.00     0.188 HD
HETATM    4  N2  UNL     1      29.175  -6.196  20.541  1.00  0.00    -0.287 N 
ATOM      5  H2  UNL     1      29.633  -7.078  20.312  1.00  0.00     0.188 HD
HETATM    6  C9  UNL     1      29.191  -5.080  19.778  1.00  0.00     0.101 A 
HETATM    7  N5  UNL     1      28.475  -4.170  20.448  1.00  0.00    -0.333 N 
ATOM      8  H5  UNL     1      28.302  -3.217  20.129  1.00  0.00     0.168 HD
ENDROOT
BRANCH   6   9
HETATM    9  C10 UNL     1      29.893  -4.998  18.471  1.00  0.00     0.055 C 
HETATM   10  C11 UNL     1      29.663  -3.768  17.690  1.00  0.00     0.015 C 
HETATM   11  C12 UNL     1      30.826  -2.985  17.213  1.00  0.00     0.031 C 
HETATM   12  C13 UNL     1      32.105  -3.661  16.930  1.00  0.00     0.030 C 
HETATM   13  C14 UNL     1      33.218  -2.930  17.646  1.00  0.00     0.037 C 
HETATM   14  N4  UNL     1      32.538  -3.683  15.566  1.00  0.00    -0.383 N 
HETATM   15  C21 UNL     1      32.080  -5.123  17.380  1.00  0.00     0.031 C 
HETATM   16  C15 UNL     1      34.297  -2.776  16.623  1.00  0.00     0.060 C 
HETATM   17  C16 UNL     1      33.695  -3.228  15.356  1.00  0.00     0.017 C 
ATOM     18  H4  UNL     1      31.949  -4.042  14.814  1.00  0.00     0.160 HD
HETATM   19  C22 UNL     1      31.392  -5.166  18.693  1.00  0.00     0.015 C 
BRANCH  17  20
HETATM   20  C17 UNL     1      34.437  -3.182  14.068  1.00  0.00     0.003 A 
HETATM   21  C18 UNL     1      34.318  -4.068  13.032  1.00  0.00     0.031 A 
HETATM   22  C19 UNL     1      35.143  -3.610  12.001  1.00  0.00     0.088 A 
HETATM   23  N3  UNL     1      35.752  -2.461  12.409  1.00  0.00    -0.374 N 
HETATM   24  C20 UNL     1      35.315  -2.219  13.657  1.00  0.00     0.101 A 
ATOM     25  H3  UNL     1      36.410  -1.895  11.872  1.00  0.00     0.164 HD
ENDBRANCH  17  20
ENDBRANCH   6   9
BRANCH   1  26
HETATM   26  C7  UNL     1      27.209  -4.120  22.663  1.00  0.00     0.026 C 
HETATM   27  C5  UNL     1      26.328  -5.091  23.368  1.00  0.00     0.005 C 
HETATM   28  C4  UNL     1      24.906  -4.518  23.238  1.00  0.00     0.010 C 
HETATM   29  C6  UNL     1      26.645  -4.951  24.858  1.00  0.00     0.043 C 
HETATM   30  C3  UNL     1      25.230  -3.037  23.228  1.00  0.00    -0.010 C 
HETATM   31  C2  UNL     1      25.879  -2.578  24.509  1.00  0.00     0.042 C 
HETATM   32  C23 UNL     1      26.303  -3.016  22.146  1.00  0.00     0.022 C 
HETATM   33  C1  UNL     1      27.041  -3.468  24.894  1.00  0.00     0.060 C 
HETATM   34  C24 UNL     1      28.049  -3.442  23.755  1.00  0.00     0.055 C 
BRANCH  33  35
HETATM   35  O1  UNL     1      27.587  -3.091  26.096  1.00  0.00    -0.390 OA
ATOM     36  H1  UNL     1      28.298  -3.668  26.351  1.00  0.00     0.210 HD
ENDBRANCH  33  35
ENDBRANCH   1  26
TORSDOF 4
ENDMDL
MODEL 2
REMARK VINA RESULT: -7.906143303      1.829      2.436
REMARK  4 active torsions:
REMARK  status: ('A' for Active; 'I' for Inactive)
REMARK    1  A    between atoms: O1_1  and  C1_3 
REMARK    2  A    between atoms: C7_9  and  C8_10 
REMARK    3  A    between atoms: C9_15  and  C10_16 
REMARK    4  A    between atoms: C16_22  and  C17_23 
ROOT
HETATM    1  C8  UNL     1      27.993  -4.548  21.659  1.00  0.00     0.106 A 
HETATM    2  N1  UNL     1      28.336  -5.858  21.522  1.00  0.00    -0.287 N 
ATOM      3  H1  UNL     1      28.026  -6.612  22.134  1.00  0.00     0.188 HD
HETATM    4  N2  UNL     1      29.113  -6.005  20.498  1.00  0.00    -0.287 N 
ATOM      5  H2  UNL     1      29.513  -6.887  20.177  1.00  0.00     0.188 HD
HETATM    6  C9  UNL     1      29.307  -4.797  19.923  1.00  0.00     0.101 A 
HETATM    7  N5  UNL     1      28.608  -3.926  20.659  1.00  0.00    -0.333 N 
ATOM      8  H5  UNL     1      28.554  -2.923  20.477  1.00  0.00     0.168 HD
ENDROOT
BRANCH   6   9
HETATM    9  C10 UNL     1      30.147  -4.597  18.713  1.00  0.00     0.055 C 
HETATM   10  C11 UNL     1      30.954  -5.757  18.289  1.00  0.00     0.015 C 
HETATM   11  C12 UNL     1      30.849  -6.239  16.892  1.00  0.00     0.031 C 
HETATM   12  C13 UNL     1      30.511  -5.297  15.810  1.00  0.00     0.030 C 
HETATM   13  C14 UNL     1      29.368  -5.868  15.000  1.00  0.00     0.037 C 
HETATM   14  N4  UNL     1      31.525  -5.044  14.832  1.00  0.00    -0.383 N 
HETATM   15  C21 UNL     1      30.114  -3.926  16.360  1.00  0.00     0.031 C 
HETATM   16  C15 UNL     1      29.784  -5.694  13.574  1.00  0.00     0.060 C 
HETATM   17  C16 UNL     1      31.183  -5.237  13.633  1.00  0.00     0.017 C 
ATOM     18  H4  UNL     1      32.461  -4.729  15.088  1.00  0.00     0.160 HD
HETATM   19  C22 UNL     1      29.262  -4.162  17.551  1.00  0.00     0.015 C 
BRANCH  17  20
HETATM   20  C17 UNL     1      31.989  -4.996  12.406  1.00  0.00     0.003 A 
HETATM   21  C18 UNL     1      31.798  -5.580  11.184  1.00  0.00     0.031 A 
HETATM   22  C19 UNL     1      32.731  -5.018  10.308  1.00  0.00     0.088 A 
HETATM   23  N3  UNL     1      33.476  -4.105  10.994  1.00  0.00    -0.374 N 
HETATM   24  C20 UNL     1      33.015  -4.106  12.257  1.00  0.00     0.101 A 
ATOM     25  H3  UNL     1      34.235  -3.534  10.621  1.00  0.00     0.164 HD
ENDBRANCH  17  20
ENDBRANCH   6   9
BRANCH   1  26
HETATM   26  C7  UNL     1      27.125  -4.070  22.731  1.00  0.00     0.026 C 
HETATM   27  C5  UNL     1      26.320  -5.119  23.414  1.00  0.00     0.005 C 
HETATM   28  C4  UNL     1      24.857  -4.665  23.273  1.00  0.00     0.010 C 
HETATM   29  C6  UNL     1      26.608  -4.972  24.909  1.00  0.00     0.043 C 
HETATM   30  C3  UNL     1      25.058  -3.161  23.284  1.00  0.00    -0.010 C 
HETATM   31  C2  UNL     1      25.652  -2.666  24.578  1.00  0.00     0.042 C 
HETATM   32  C23 UNL     1      26.137  -3.038  22.216  1.00  0.00     0.022 C 
HETATM   33  C1  UNL     1      26.879  -3.461  24.966  1.00  0.00     0.060 C 
HETATM   34  C24 UNL     1      27.894  -3.338  23.840  1.00  0.00     0.055 C 
BRANCH  33  35
HETATM   35  O1  UNL     1      27.379  -3.055  26.179  1.00  0.00    -0.390 OA
ATOM     36  H1  UNL     1      27.017  -3.566  26.893  1.00  0.00     0.210 HD
ENDBRANCH  33  35
ENDBRANCH   1  26
TORSDOF 4
ENDMDL
MODEL 3
REMARK VINA RESULT: -7.715871726      2.744      3.371
REMARK  4 active torsions:
REMARK  status: ('A' for Active; 'I' for Inactive)
REMARK    1  A    between atoms: O1_1  and  C1_3 
REMARK    2  A    between atoms: C7_9  and  C8_10 
REMARK    3  A    between atoms: C9_15  and  C10_16 
REMARK    4  A    between atoms: C16_22  and  C17_23 
ROOT
HETATM    1  C8  UNL     1      27.924  -4.341  21.819  1.00  0.00     0.106 A 
HETATM    2  N1  UNL     1      28.146  -3.458  20.808  1.00  0.00    -0.287 N 
ATOM      3  H1  UNL     1      27.743  -2.523  20.749  1.00  0.00     0.188 HD
HETATM    4  N2  UNL     1      28.943  -3.980  19.934  1.00  0.00    -0.287 N 
ATOM      5  H2  UNL     1      29.266  -3.526  19.078  1.00  0.00     0.188 HD
HETATM    6  C9  UNL     1      29.278  -5.225  20.339  1.00  0.00     0.101 A 
HETATM    7  N5  UNL     1      28.637  -5.416  21.497  1.00  0.00    -0.333 N 
ATOM      8  H5  UNL     1      28.688  -6.269  22.055  1.00  0.00     0.168 HD
ENDROOT
BRANCH   6   9
HETATM    9  C10 UNL     1      30.190  -6.113  19.572  1.00  0.00     0.055 C 
HETATM   10  C11 UNL     1      29.539  -7.131  18.725  1.00  0.00     0.015 C 
HETATM   11  C12 UNL     1      29.898  -7.217  17.291  1.00  0.00     0.031 C 
HETATM   12  C13 UNL     1      31.243  -6.814  16.842  1.00  0.00     0.030 C 
HETATM   13  C14 UNL     1      31.107  -5.848  15.686  1.00  0.00     0.037 C 
HETATM   14  N4  UNL     1      32.088  -7.845  16.322  1.00  0.00    -0.383 N 
HETATM   15  C21 UNL     1      32.039  -6.154  17.969  1.00  0.00     0.031 C 
HETATM   16  C15 UNL     1      32.075  -6.340  14.659  1.00  0.00     0.060 C 
HETATM   17  C16 UNL     1      32.556  -7.635  15.170  1.00  0.00     0.017 C 
ATOM     18  H4  UNL     1      32.298  -8.694  16.849  1.00  0.00     0.160 HD
HETATM   19  C22 UNL     1      31.106  -5.262  18.700  1.00  0.00     0.015 C 
BRANCH  17  20
HETATM   20  C17 UNL     1      33.508  -8.483  14.404  1.00  0.00     0.003 A 
HETATM   21  C18 UNL     1      34.203  -8.115  13.285  1.00  0.00     0.031 A 
HETATM   22  C19 UNL     1      35.026  -9.190  12.937  1.00  0.00     0.088 A 
HETATM   23  N3  UNL     1      34.831 -10.195  13.837  1.00  0.00    -0.374 N 
HETATM   24  C20 UNL     1      33.912  -9.752  14.713  1.00  0.00     0.101 A 
ATOM     25  H3  UNL     1      35.291 -11.106  13.844  1.00  0.00     0.164 HD
ENDBRANCH  17  20
ENDBRANCH   6   9
BRANCH   1  26
HETATM   26  C7  UNL     1      27.059  -4.038  22.954  1.00  0.00     0.026 C 
HETATM   27  C5  UNL     1      26.316  -5.199  23.516  1.00  0.00     0.005 C 
HETATM   28  C4  UNL     1      24.831  -4.799  23.455  1.00  0.00     0.010 C 
HETATM   29  C6  UNL     1      26.628  -5.221  25.014  1.00  0.00     0.043 C 
HETATM   30  C3  UNL     1      24.965  -3.300  23.646  1.00  0.00    -0.010 C 
HETATM   31  C2  UNL     1      25.564  -2.938  24.982  1.00  0.00     0.042 C 
HETATM   32  C23 UNL     1      26.015  -2.998  22.584  1.00  0.00     0.022 C 
HETATM   33  C1  UNL     1      26.833  -3.717  25.251  1.00  0.00     0.060 C 
HETATM   34  C24 UNL     1      27.818  -3.411  24.133  1.00  0.00     0.055 C 
BRANCH  33  35
HETATM   35  O1  UNL     1      27.340  -3.438  26.496  1.00  0.00    -0.390 OA
ATOM     36  H1  UNL     1      27.591  -4.231  26.955  1.00  0.00     0.210 HD
ENDBRANCH  33  35
ENDBRANCH   1  26
TORSDOF 4
ENDMDL
MODEL 4
REMARK VINA RESULT: -7.702581053      3.427      4.242
REMARK  4 active torsions:
REMARK  status: ('A' for Active; 'I' for Inactive)
REMARK    1  A    between atoms: O1_1  and  C1_3 
REMARK    2  A    between atoms: C7_9  and  C8_10 
REMARK    3  A    between atoms: C9_15  and  C10_16 
REMARK    4  A    between atoms: C16_22  and  C17_23 
ROOT
HETATM    1  C8  UNL     1      27.860  -4.387  21.724  1.00  0.00     0.106 A 
HETATM    2  N1  UNL     1      28.180  -3.438  20.802  1.00  0.00    -0.287 N 
ATOM      3  H1  UNL     1      27.893  -2.461  20.845  1.00  0.00     0.188 HD
HETATM    4  N2  UNL     1      28.900  -3.960  19.864  1.00  0.00    -0.287 N 
ATOM      5  H2  UNL     1      29.269  -3.465  19.052  1.00  0.00     0.188 HD
HETATM    6  C9  UNL     1      29.084  -5.272  20.136  1.00  0.00     0.101 A 
HETATM    7  N5  UNL     1      28.434  -5.501  21.282  1.00  0.00    -0.333 N 
ATOM      8  H5  UNL     1      28.385  -6.406  21.751  1.00  0.00     0.168 HD
ENDROOT
BRANCH   6   9
HETATM    9  C10 UNL     1      29.874  -6.180  19.264  1.00  0.00     0.055 C 
HETATM   10  C11 UNL     1      29.315  -7.530  19.062  1.00  0.00     0.015 C 
HETATM   11  C12 UNL     1      29.120  -8.033  17.683  1.00  0.00     0.031 C 
HETATM   12  C13 UNL     1      29.995  -7.563  16.595  1.00  0.00     0.030 C 
HETATM   13  C14 UNL     1      29.138  -7.097  15.439  1.00  0.00     0.037 C 
HETATM   14  N4  UNL     1      30.866  -8.531  16.000  1.00  0.00    -0.383 N 
HETATM   15  C21 UNL     1      30.900  -6.418  17.055  1.00  0.00     0.031 C 
HETATM   16  C15 UNL     1      29.755  -7.719  14.228  1.00  0.00     0.060 C 
HETATM   17  C16 UNL     1      30.777  -8.645  14.747  1.00  0.00     0.017 C 
ATOM     18  H4  UNL     1      31.515  -9.091  16.553  1.00  0.00     0.160 HD
HETATM   19  C22 UNL     1      30.077  -5.524  17.904  1.00  0.00     0.015 C 
BRANCH  17  20
HETATM   20  C17 UNL     1      31.590  -9.508  13.850  1.00  0.00     0.003 A 
HETATM   21  C18 UNL     1      31.742  -9.358  12.499  1.00  0.00     0.031 A 
HETATM   22  C19 UNL     1      32.639 -10.341  12.072  1.00  0.00     0.088 A 
HETATM   23  N3  UNL     1      33.026 -11.076  13.154  1.00  0.00    -0.374 N 
HETATM   24  C20 UNL     1      32.383 -10.559  14.216  1.00  0.00     0.101 A 
ATOM     25  H3  UNL     1      33.675 -11.862  13.157  1.00  0.00     0.164 HD
ENDBRANCH  17  20
ENDBRANCH   6   9
BRANCH   1  26
HETATM   26  C7  UNL     1      27.048  -4.099  22.902  1.00  0.00     0.026 C 
HETATM   27  C5  UNL     1      26.281  -5.253  23.444  1.00  0.00     0.005 C 
HETATM   28  C4  UNL     1      24.812  -4.796  23.453  1.00  0.00     0.010 C 
HETATM   29  C6  UNL     1      26.645  -5.349  24.927  1.00  0.00     0.043 C 
HETATM   30  C3  UNL     1      25.011  -3.313  23.699  1.00  0.00    -0.010 C 
HETATM   31  C2  UNL     1      25.670  -3.029  25.026  1.00  0.00     0.042 C 
HETATM   32  C23 UNL     1      26.034  -3.006  22.613  1.00  0.00     0.022 C 
HETATM   33  C1  UNL     1      26.917  -3.866  25.216  1.00  0.00     0.060 C 
HETATM   34  C24 UNL     1      27.872  -3.550  24.076  1.00  0.00     0.055 C 
BRANCH  33  35
HETATM   35  O1  UNL     1      27.477  -3.658  26.452  1.00  0.00    -0.390 OA
ATOM     36  H1  UNL     1      28.418  -3.541  26.393  1.00  0.00     0.210 HD
ENDBRANCH  33  35
ENDBRANCH   1  26
TORSDOF 4
ENDMDL
MODEL 5
REMARK VINA RESULT: -7.639875298      1.558      1.953
REMARK  4 active torsions:
REMARK  status: ('A' for Active; 'I' for Inactive)
REMARK    1  A    between atoms: O1_1  and  C1_3 
REMARK    2  A    between atoms: C7_9  and  C8_10 
REMARK    3  A    between atoms: C9_15  and  C10_16 
REMARK    4  A    between atoms: C16_22  and  C17_23 
ROOT
HETATM    1  C8  UNL     1      27.956  -5.149  21.938  1.00  0.00     0.106 A 
HETATM    2  N1  UNL     1      28.083  -6.501  22.031  1.00  0.00    -0.287 N 
ATOM      3  H1  UNL     1      27.638  -7.083  22.740  1.00  0.00     0.188 HD
HETATM    4  N2  UNL     1      28.851  -6.938  21.087  1.00  0.00    -0.287 N 
ATOM      5  H2  UNL     1      29.110  -7.913  20.934  1.00  0.00     0.188 HD
HETATM    6  C9  UNL     1      29.256  -5.889  20.336  1.00  0.00     0.101 A 
HETATM    7  N5  UNL     1      28.691  -4.808  20.884  1.00  0.00    -0.333 N 
ATOM      8  H5  UNL     1      28.808  -3.854  20.540  1.00  0.00     0.168 HD
ENDROOT
BRANCH   6   9
HETATM    9  C10 UNL     1      30.149  -6.030  19.156  1.00  0.00     0.055 C 
HETATM   10  C11 UNL     1      29.569  -6.715  17.986  1.00  0.00     0.015 C 
HETATM   11  C12 UNL     1      29.612  -6.051  16.663  1.00  0.00     0.031 C 
HETATM   12  C13 UNL     1      30.700  -5.108  16.345  1.00  0.00     0.030 C 
HETATM   13  C14 UNL     1      30.101  -3.824  15.818  1.00  0.00     0.037 C 
HETATM   14  N4  UNL     1      31.616  -5.500  15.318  1.00  0.00    -0.383 N 
HETATM   15  C21 UNL     1      31.559  -4.805  17.574  1.00  0.00     0.031 C 
HETATM   16  C15 UNL     1      30.902  -3.498  14.599  1.00  0.00     0.060 C 
HETATM   17  C16 UNL     1      31.759  -4.675  14.374  1.00  0.00     0.017 C 
ATOM     18  H4  UNL     1      32.120  -6.386  15.347  1.00  0.00     0.160 HD
HETATM   19  C22 UNL     1      30.638  -4.652  18.726  1.00  0.00     0.015 C 
BRANCH  17  20
HETATM   20  C17 UNL     1      32.681  -4.771  13.212  1.00  0.00     0.003 A 
HETATM   21  C18 UNL     1      34.046  -4.842  13.264  1.00  0.00     0.031 A 
HETATM   22  C19 UNL     1      34.503  -4.988  11.950  1.00  0.00     0.088 A 
HETATM   23  N3  UNL     1      33.426  -5.007  11.115  1.00  0.00    -0.374 N 
HETATM   24  C20 UNL     1      32.337  -4.875  11.893  1.00  0.00     0.101 A 
ATOM     25  H3  UNL     1      33.442  -5.103  10.100  1.00  0.00     0.164 HD
ENDBRANCH  17  20
ENDBRANCH   6   9
BRANCH   1  26
HETATM   26  C7  UNL     1      27.152  -4.368  22.871  1.00  0.00     0.026 C 
HETATM   27  C5  UNL     1      26.086  -5.126  23.581  1.00  0.00     0.005 C 
HETATM   28  C4  UNL     1      24.777  -4.382  23.262  1.00  0.00     0.010 C 
HETATM   29  C6  UNL     1      26.300  -4.866  25.074  1.00  0.00     0.043 C 
HETATM   30  C3  UNL     1      25.313  -2.969  23.137  1.00  0.00    -0.010 C 
HETATM   31  C2  UNL     1      25.918  -2.464  24.423  1.00  0.00     0.042 C 
HETATM   32  C23 UNL     1      26.461  -3.214  22.165  1.00  0.00     0.022 C 
HETATM   33  C1  UNL     1      26.903  -3.456  25.001  1.00  0.00     0.060 C 
HETATM   34  C24 UNL     1      27.992  -3.694  23.965  1.00  0.00     0.055 C 
BRANCH  33  35
HETATM   35  O1  UNL     1      27.401  -3.026  26.206  1.00  0.00    -0.390 OA
ATOM     36  H1  UNL     1      28.314  -3.268  26.312  1.00  0.00     0.210 HD
ENDBRANCH  33  35
ENDBRANCH   1  26
TORSDOF 4
ENDMDL
