MODEL 1
REMARK VINA RESULT: -7.063030670      0.000      0.000
REMARK  5 active torsions:
REMARK  status: ('A' for Active; 'I' for Inactive)
REMARK    1  A    between atoms: C2_2  and  C3_3 
REMARK    2  A    between atoms: C2_2  and  C6_8 
REMARK    3  A    between atoms: C4_4  and  C5_5 
REMARK    4  A    between atoms: C5_5  and  O1_6 
REMARK    5  A    between atoms: C16_19  and  O3_20 
ROOT
HETATM    1  C6  UNL     1      23.380  -8.318  26.076  1.00  0.00     0.001 C 
HETATM    2  C7  UNL     1      22.171  -7.721  25.398  1.00  0.00     0.006 C 
HETATM    3  C8  UNL     1      22.743  -6.948  24.180  1.00  0.00     0.006 C 
HETATM    4  C9  UNL     1      24.030  -6.495  24.816  1.00  0.00    -0.001 C 
HETATM    5  C10 UNL     1      24.979  -5.760  23.988  1.00  0.00    -0.001 C 
HETATM    6  C11 UNL     1      24.307  -4.421  23.621  1.00  0.00     0.033 C 
HETATM    7  C12 UNL     1      25.296  -3.750  22.736  1.00  0.00    -0.022 C 
HETATM    8  C13 UNL     1      26.577  -3.916  22.941  1.00  0.00    -0.068 C 
HETATM    9  C14 UNL     1      27.508  -3.194  21.990  1.00  0.00     0.117 C 
HETATM   10  C15 UNL     1      28.310  -4.312  21.369  1.00  0.00     0.179 C 
HETATM   11  O2  UNL     1      28.375  -4.452  20.163  1.00  0.00    -0.293 OA
HETATM   12  C16 UNL     1      28.998  -5.209  22.291  1.00  0.00     0.208 C 
HETATM   13  C17 UNL     1      29.452  -6.393  21.522  1.00  0.00     0.106 C 
HETATM   14  N1  UNL     1      29.791  -7.318  20.913  1.00  0.00    -0.194 NA
HETATM   15  C18 UNL     1      28.236  -5.689  23.469  1.00  0.00     0.076 C 
HETATM   16  C19 UNL     1      27.211  -4.731  24.005  1.00  0.00    -0.012 C 
HETATM   17  C20 UNL     1      27.976  -3.728  24.884  1.00  0.00     0.021 C 
HETATM   18  C21 UNL     1      26.167  -5.403  24.856  1.00  0.00     0.003 C 
HETATM   19  C22 UNL     1      26.671  -6.497  25.713  1.00  0.00     0.007 C 
HETATM   20  C23 UNL     1      25.773  -7.578  26.114  1.00  0.00     0.010 C 
HETATM   21  C24 UNL     1      24.550  -7.832  25.298  1.00  0.00    -0.036 C 
HETATM   22  C25 UNL     1      24.774  -8.732  24.122  1.00  0.00     0.016 C 
ENDROOT
BRANCH  12  23
HETATM   23  O3  UNL     1      30.197  -4.567  22.681  1.00  0.00    -0.369 OA
ATOM     24  H3  UNL     1      30.451  -4.933  23.521  1.00  0.00     0.212 HD
ENDBRANCH  12  23
BRANCH   1  25
HETATM   25  C2  UNL     1      23.216  -9.750  26.274  1.00  0.00     0.008 C 
HETATM   26  C1  UNL     1      23.713 -10.269  27.628  1.00  0.00     0.014 C 
BRANCH  25  27
HETATM   27  C3  UNL     1      21.785 -10.143  26.304  1.00  0.00    -0.024 C 
HETATM   28  C4  UNL     1      21.189 -10.803  27.253  1.00  0.00    -0.005 C 
BRANCH  28  29
HETATM   29  C5  UNL     1      19.716 -11.147  27.180  1.00  0.00     0.191 C 
BRANCH  29  30
HETATM   30  O1  UNL     1      19.314 -11.520  28.468  1.00  0.00    -0.397 OA
ATOM     31  H1  UNL     1      18.369 -11.433  28.503  1.00  0.00     0.209 HD
ENDBRANCH  29  30
ENDBRANCH  28  29
ENDBRANCH  25  27
ENDBRANCH   1  25
TORSDOF 5
ENDMDL
MODEL 2
REMARK VINA RESULT: -7.007506899      1.620      1.691
REMARK  5 active torsions:
REMARK  status: ('A' for Active; 'I' for Inactive)
REMARK    1  A    between atoms: C2_2  and  C3_3 
REMARK    2  A    between atoms: C2_2  and  C6_8 
REMARK    3  A    between atoms: C4_4  and  C5_5 
REMARK    4  A    between atoms: C5_5  and  O1_6 
REMARK    5  A    between atoms: C16_19  and  O3_20 
ROOT
HETATM    1  C6  UNL     1      23.058  -8.062  25.604  1.00  0.00     0.001 C 
HETATM    2  C7  UNL     1      22.016  -7.066  25.158  1.00  0.00     0.006 C 
HETATM    3  C8  UNL     1      22.699  -6.264  24.019  1.00  0.00     0.006 C 
HETATM    4  C9  UNL     1      24.096  -6.275  24.576  1.00  0.00    -0.001 C 
HETATM    5  C10 UNL     1      25.156  -5.673  23.774  1.00  0.00    -0.001 C 
HETATM    6  C11 UNL     1      24.849  -4.164  23.689  1.00  0.00     0.033 C 
HETATM    7  C12 UNL     1      25.925  -3.623  22.818  1.00  0.00    -0.022 C 
HETATM    8  C13 UNL     1      27.124  -4.144  22.858  1.00  0.00    -0.068 C 
HETATM    9  C14 UNL     1      28.155  -3.529  21.935  1.00  0.00     0.117 C 
HETATM   10  C15 UNL     1      28.585  -4.689  21.068  1.00  0.00     0.179 C 
HETATM   11  O2  UNL     1      28.535  -4.627  19.855  1.00  0.00    -0.293 OA
HETATM   12  C16 UNL     1      29.061  -5.879  21.764  1.00  0.00     0.208 C 
HETATM   13  C17 UNL     1      29.130  -6.986  20.778  1.00  0.00     0.106 C 
HETATM   14  N1  UNL     1      29.168  -7.844  20.003  1.00  0.00    -0.194 NA
HETATM   15  C18 UNL     1      28.272  -6.347  22.928  1.00  0.00     0.076 C 
HETATM   16  C19 UNL     1      27.579  -5.269  23.710  1.00  0.00    -0.012 C 
HETATM   17  C20 UNL     1      28.639  -4.665  24.646  1.00  0.00     0.021 C 
HETATM   18  C21 UNL     1      26.447  -5.789  24.555  1.00  0.00     0.003 C 
HETATM   19  C22 UNL     1      26.689  -7.109  25.176  1.00  0.00     0.007 C 
HETATM   20  C23 UNL     1      25.560  -7.977  25.500  1.00  0.00     0.010 C 
HETATM   21  C24 UNL     1      24.265  -7.763  24.790  1.00  0.00    -0.036 C 
HETATM   22  C25 UNL     1      24.165  -8.469  23.473  1.00  0.00     0.016 C 
ENDROOT
BRANCH  12  23
HETATM   23  O3  UNL     1      30.411  -5.644  22.117  1.00  0.00    -0.369 OA
ATOM     24  H3  UNL     1      30.479  -4.731  22.370  1.00  0.00     0.212 HD
ENDBRANCH  12  23
BRANCH   1  25
HETATM   25  C2  UNL     1      22.526  -9.416  25.597  1.00  0.00     0.008 C 
HETATM   26  C1  UNL     1      22.430 -10.072  26.979  1.00  0.00     0.014 C 
BRANCH  25  27
HETATM   27  C3  UNL     1      21.113  -9.452  25.144  1.00  0.00    -0.024 C 
HETATM   28  C4  UNL     1      20.677  -9.953  24.026  1.00  0.00    -0.005 C 
BRANCH  28  29
HETATM   29  C5  UNL     1      19.206  -9.939  23.666  1.00  0.00     0.191 C 
BRANCH  29  30
HETATM   30  O1  UNL     1      18.967  -8.763  22.946  1.00  0.00    -0.397 OA
ATOM     31  H1  UNL     1      19.312  -8.895  22.070  1.00  0.00     0.209 HD
ENDBRANCH  29  30
ENDBRANCH  28  29
ENDBRANCH  25  27
ENDBRANCH   1  25
TORSDOF 5
ENDMDL
MODEL 3
REMARK VINA RESULT: -6.817835559      1.966      2.246
REMARK  5 active torsions:
REMARK  status: ('A' for Active; 'I' for Inactive)
REMARK    1  A    between atoms: C2_2  and  C3_3 
REMARK    2  A    between atoms: C2_2  and  C6_8 
REMARK    3  A    between atoms: C4_4  and  C5_5 
REMARK    4  A    between atoms: C5_5  and  O1_6 
REMARK    5  A    between atoms: C16_19  and  O3_20 
ROOT
HETATM    1  C6  UNL     1      22.873  -8.228  25.277  1.00  0.00     0.001 C 
HETATM    2  C7  UNL     1      22.070  -7.097  24.685  1.00  0.00     0.006 C 
HETATM    3  C8  UNL     1      23.111  -6.224  23.935  1.00  0.00     0.006 C 
HETATM    4  C9  UNL     1      24.262  -6.427  24.882  1.00  0.00    -0.001 C 
HETATM    5  C10 UNL     1      25.545  -5.827  24.535  1.00  0.00    -0.001 C 
HETATM    6  C11 UNL     1      25.350  -4.298  24.580  1.00  0.00     0.033 C 
HETATM    7  C12 UNL     1      26.668  -3.751  24.164  1.00  0.00    -0.022 C 
HETATM    8  C13 UNL     1      27.770  -4.377  24.491  1.00  0.00    -0.068 C 
HETATM    9  C14 UNL     1      29.065  -3.747  24.023  1.00  0.00     0.117 C 
HETATM   10  C15 UNL     1      29.691  -4.824  23.169  1.00  0.00     0.179 C 
HETATM   11  O2  UNL     1      30.025  -4.609  22.021  1.00  0.00    -0.293 OA
HETATM   12  C16 UNL     1      29.870  -6.128  23.798  1.00  0.00     0.208 C 
HETATM   13  C17 UNL     1      30.193  -7.107  22.730  1.00  0.00     0.106 C 
HETATM   14  N1  UNL     1      30.432  -7.863  21.888  1.00  0.00    -0.194 NA
HETATM   15  C18 UNL     1      28.735  -6.665  24.587  1.00  0.00     0.076 C 
HETATM   16  C19 UNL     1      27.883  -5.634  25.269  1.00  0.00    -0.012 C 
HETATM   17  C20 UNL     1      28.624  -5.246  26.560  1.00  0.00     0.021 C 
HETATM   18  C21 UNL     1      26.521  -6.152  25.646  1.00  0.00     0.003 C 
HETATM   19  C22 UNL     1      26.496  -7.555  26.114  1.00  0.00     0.007 C 
HETATM   20  C23 UNL     1      25.283  -8.353  25.951  1.00  0.00     0.010 C 
HETATM   21  C24 UNL     1      24.287  -7.939  24.920  1.00  0.00    -0.036 C 
HETATM   22  C25 UNL     1      24.571  -8.466  23.547  1.00  0.00     0.016 C 
ENDROOT
BRANCH  12  23
HETATM   23  O3  UNL     1      31.050  -6.059  24.574  1.00  0.00    -0.369 OA
ATOM     24  H3  UNL     1      31.704  -6.593  24.137  1.00  0.00     0.212 HD
ENDBRANCH  12  23
BRANCH   1  25
HETATM   25  C2  UNL     1      22.309  -9.520  24.913  1.00  0.00     0.008 C 
HETATM   26  C1  UNL     1      21.849 -10.373  26.100  1.00  0.00     0.014 C 
BRANCH  25  27
HETATM   27  C3  UNL     1      21.052  -9.373  24.138  1.00  0.00    -0.024 C 
HETATM   28  C4  UNL     1      20.059 -10.213  24.118  1.00  0.00    -0.005 C 
BRANCH  28  29
HETATM   29  C5  UNL     1      18.817  -9.960  23.289  1.00  0.00     0.191 C 
BRANCH  29  30
HETATM   30  O1  UNL     1      18.996  -8.733  22.639  1.00  0.00    -0.397 OA
ATOM     31  H1  UNL     1      18.162  -8.280  22.660  1.00  0.00     0.209 HD
ENDBRANCH  29  30
ENDBRANCH  28  29
ENDBRANCH  25  27
ENDBRANCH   1  25
TORSDOF 5
ENDMDL
MODEL 4
REMARK VINA RESULT: -6.771227208      1.128      1.196
REMARK  5 active torsions:
REMARK  status: ('A' for Active; 'I' for Inactive)
REMARK    1  A    between atoms: C2_2  and  C3_3 
REMARK    2  A    between atoms: C2_2  and  C6_8 
REMARK    3  A    between atoms: C4_4  and  C5_5 
REMARK    4  A    between atoms: C5_5  and  O1_6 
REMARK    5  A    between atoms: C16_19  and  O3_20 
ROOT
HETATM    1  C6  UNL     1      24.307  -8.768  26.385  1.00  0.00     0.001 C 
HETATM    2  C7  UNL     1      22.979  -8.467  25.736  1.00  0.00     0.006 C 
HETATM    3  C8  UNL     1      23.335  -7.629  24.479  1.00  0.00     0.006 C 
HETATM    4  C9  UNL     1      24.511  -6.891  25.057  1.00  0.00    -0.001 C 
HETATM    5  C10 UNL     1      25.255  -5.996  24.177  1.00  0.00    -0.001 C 
HETATM    6  C11 UNL     1      24.299  -4.845  23.800  1.00  0.00     0.033 C 
HETATM    7  C12 UNL     1      25.093  -4.006  22.864  1.00  0.00    -0.022 C 
HETATM    8  C13 UNL     1      26.385  -3.886  23.028  1.00  0.00    -0.068 C 
HETATM    9  C14 UNL     1      27.111  -3.012  22.026  1.00  0.00     0.117 C 
HETATM   10  C15 UNL     1      28.117  -3.952  21.405  1.00  0.00     0.179 C 
HETATM   11  O2  UNL     1      28.175  -4.114  20.202  1.00  0.00    -0.293 OA
HETATM   12  C16 UNL     1      29.008  -4.649  22.325  1.00  0.00     0.208 C 
HETATM   13  C17 UNL     1      29.685  -5.732  21.570  1.00  0.00     0.106 C 
HETATM   14  N1  UNL     1      30.197  -6.582  20.974  1.00  0.00    -0.194 NA
HETATM   15  C18 UNL     1      28.402  -5.243  23.541  1.00  0.00     0.076 C 
HETATM   16  C19 UNL     1      27.212  -4.511  24.088  1.00  0.00    -0.012 C 
HETATM   17  C20 UNL     1      27.767  -3.338  24.913  1.00  0.00     0.021 C 
HETATM   18  C21 UNL     1      26.362  -5.363  24.993  1.00  0.00     0.003 C 
HETATM   19  C22 UNL     1      27.115  -6.295  25.859  1.00  0.00     0.007 C 
HETATM   20  C23 UNL     1      26.485  -7.530  26.319  1.00  0.00     0.010 C 
HETATM   21  C24 UNL     1      25.322  -8.068  25.554  1.00  0.00    -0.036 C 
HETATM   22  C25 UNL     1      25.701  -8.936  24.394  1.00  0.00     0.016 C 
ENDROOT
BRANCH  12  23
HETATM   23  O3  UNL     1      30.052  -3.752  22.655  1.00  0.00    -0.369 OA
ATOM     24  H3  UNL     1      29.722  -3.178  23.337  1.00  0.00     0.212 HD
ENDBRANCH  12  23
BRANCH   1  25
HETATM   25  C2  UNL     1      24.463 -10.195  26.625  1.00  0.00     0.008 C 
HETATM   26  C1  UNL     1      25.534 -10.556  27.661  1.00  0.00     0.014 C 
BRANCH  25  27
HETATM   27  C3  UNL     1      23.243 -10.789  27.229  1.00  0.00    -0.024 C 
HETATM   28  C4  UNL     1      23.042 -11.010  28.494  1.00  0.00    -0.005 C 
BRANCH  28  29
HETATM   29  C5  UNL     1      21.752 -11.620  29.001  1.00  0.00     0.191 C 
BRANCH  29  30
HETATM   30  O1  UNL     1      21.815 -11.621  30.399  1.00  0.00    -0.397 OA
ATOM     31  H1  UNL     1      20.992 -11.270  30.718  1.00  0.00     0.209 HD
ENDBRANCH  29  30
ENDBRANCH  28  29
ENDBRANCH  25  27
ENDBRANCH   1  25
TORSDOF 5
ENDMDL
MODEL 5
REMARK VINA RESULT: -6.504803463      4.049      8.305
REMARK  5 active torsions:
REMARK  status: ('A' for Active; 'I' for Inactive)
REMARK    1  A    between atoms: C2_2  and  C3_3 
REMARK    2  A    between atoms: C2_2  and  C6_8 
REMARK    3  A    between atoms: C4_4  and  C5_5 
REMARK    4  A    between atoms: C5_5  and  O1_6 
REMARK    5  A    between atoms: C16_19  and  O3_20 
ROOT
HETATM    1  C6  UNL     1      28.313  -4.288  23.313  1.00  0.00     0.001 C 
HETATM    2  C7  UNL     1      29.773  -4.283  22.929  1.00  0.00     0.006 C 
HETATM    3  C8  UNL     1      30.370  -5.532  23.630  1.00  0.00     0.006 C 
HETATM    4  C9  UNL     1      29.519  -5.491  24.871  1.00  0.00    -0.001 C 
HETATM    5  C10 UNL     1      29.678  -6.567  25.843  1.00  0.00    -0.001 C 
HETATM    6  C11 UNL     1      31.104  -6.442  26.418  1.00  0.00     0.033 C 
HETATM    7  C12 UNL     1      31.221  -7.593  27.352  1.00  0.00    -0.022 C 
HETATM    8  C13 UNL     1      30.174  -8.002  28.022  1.00  0.00    -0.068 C 
HETATM    9  C14 UNL     1      30.387  -9.180  28.948  1.00  0.00     0.117 C 
HETATM   10  C15 UNL     1      29.421 -10.217  28.426  1.00  0.00     0.179 C 
HETATM   11  O2  UNL     1      29.793 -11.331  28.115  1.00  0.00    -0.293 OA
HETATM   12  C16 UNL     1      28.026  -9.806  28.315  1.00  0.00     0.208 C 
HETATM   13  C17 UNL     1      27.314 -10.826  27.506  1.00  0.00     0.106 C 
HETATM   14  N1  UNL     1      26.772 -11.621  26.863  1.00  0.00    -0.194 NA
HETATM   15  C18 UNL     1      27.753  -8.475  27.723  1.00  0.00     0.076 C 
HETATM   16  C19 UNL     1      28.805  -7.433  27.971  1.00  0.00    -0.012 C 
HETATM   17  C20 UNL     1      28.543  -6.882  29.382  1.00  0.00     0.021 C 
HETATM   18  C21 UNL     1      28.740  -6.287  26.997  1.00  0.00     0.003 C 
HETATM   19  C22 UNL     1      27.374  -5.875  26.611  1.00  0.00     0.007 C 
HETATM   20  C23 UNL     1      27.146  -5.240  25.315  1.00  0.00     0.010 C 
HETATM   21  C24 UNL     1      28.150  -5.446  24.230  1.00  0.00    -0.036 C 
HETATM   22  C25 UNL     1      27.936  -6.692  23.427  1.00  0.00     0.016 C 
ENDROOT
BRANCH  12  23
HETATM   23  O3  UNL     1      27.453  -9.924  29.603  1.00  0.00    -0.369 OA
ATOM     24  H3  UNL     1      26.512  -9.837  29.501  1.00  0.00     0.212 HD
ENDBRANCH  12  23
BRANCH   1  25
HETATM   25  C2  UNL     1      27.461  -4.201  22.136  1.00  0.00     0.008 C 
HETATM   26  C1  UNL     1      26.541  -2.976  22.103  1.00  0.00     0.014 C 
BRANCH  25  27
HETATM   27  C3  UNL     1      28.253  -4.021  20.894  1.00  0.00    -0.024 C 
HETATM   28  C4  UNL     1      28.787  -4.967  20.179  1.00  0.00    -0.005 C 
BRANCH  28  29
HETATM   29  C5  UNL     1      29.576  -4.666  18.921  1.00  0.00     0.191 C 
BRANCH  29  30
HETATM   30  O1  UNL     1      29.216  -3.379  18.504  1.00  0.00    -0.397 OA
ATOM     31  H1  UNL     1      29.528  -3.275  17.613  1.00  0.00     0.209 HD
ENDBRANCH  29  30
ENDBRANCH  28  29
ENDBRANCH  25  27
ENDBRANCH   1  25
TORSDOF 5
ENDMDL
