MODEL 1
REMARK VINA RESULT: -7.670750805      0.000      0.000
REMARK  5 active torsions:
REMARK  status: ('A' for Active; 'I' for Inactive)
REMARK    1  A    between atoms: C11_11  and  C13_13 
REMARK    2  A    between atoms: C13_13  and  C14_14 
REMARK    3  A    between atoms: C14_14  and  C15_15 
REMARK    4  A    between atoms: C24_26  and  O3_27 
REMARK    5  A    between atoms: C25_29  and  O4_30 
ROOT
HETATM    1  C1  UNL     1      30.465  -9.264  24.879  1.00  0.00     0.018 C 
HETATM    2  C2  UNL     1      30.561  -8.083  25.780  1.00  0.00    -0.008 C 
HETATM    3  C3  UNL     1      31.216  -6.879  25.173  1.00  0.00     0.017 C 
HETATM    4  C4  UNL     1      30.521  -6.598  23.864  1.00  0.00     0.036 C 
HETATM    5  C5  UNL     1      29.038  -6.421  23.920  1.00  0.00    -0.068 C 
HETATM    6  C6  UNL     1      28.395  -7.196  24.983  1.00  0.00    -0.072 C 
HETATM    7  C7  UNL     1      26.997  -6.773  25.329  1.00  0.00     0.036 C 
HETATM    8  C8  UNL     1      26.757  -5.330  25.389  1.00  0.00     0.015 C 
HETATM    9  C9  UNL     1      27.410  -4.467  24.345  1.00  0.00    -0.025 C 
HETATM   10  C10 UNL     1      27.902  -3.241  25.159  1.00  0.00     0.017 C 
HETATM   11  C11 UNL     1      26.263  -3.882  23.536  1.00  0.00    -0.035 C 
HETATM   12  C12 UNL     1      25.404  -2.935  24.381  1.00  0.00     0.016 C 
HETATM   13  C16 UNL     1      26.756  -3.001  22.416  1.00  0.00     0.010 C 
HETATM   14  C17 UNL     1      27.603  -3.825  21.531  1.00  0.00     0.002 C 
HETATM   15  C18 UNL     1      28.299  -4.972  22.090  1.00  0.00     0.014 C 
HETATM   16  C19 UNL     1      28.544  -5.014  23.593  1.00  0.00    -0.012 C 
HETATM   17  C20 UNL     1      29.763  -4.070  23.712  1.00  0.00     0.021 C 
HETATM   18  C21 UNL     1      29.206  -7.559  26.213  1.00  0.00     0.025 C 
HETATM   19  C22 UNL     1      29.273  -6.521  27.257  1.00  0.00     0.012 C 
HETATM   20  C23 UNL     1      30.274  -6.680  28.316  1.00  0.00     0.035 C 
HETATM   21  C24 UNL     1      31.443  -7.546  28.071  1.00  0.00     0.147 C 
HETATM   22  C25 UNL     1      31.289  -8.571  27.019  1.00  0.00     0.155 C 
ENDROOT
BRANCH  11  23
HETATM   23  C13 UNL     1      25.302  -4.880  22.991  1.00  0.00     0.020 C 
BRANCH  23  24
HETATM   24  C14 UNL     1      23.858  -4.697  23.401  1.00  0.00     0.114 C 
BRANCH  24  25
HETATM   25  C15 UNL     1      23.353  -6.072  23.783  1.00  0.00     0.172 C 
HETATM   26  O1  UNL     1      24.047  -7.031  23.359  1.00  0.00    -0.648 OA
HETATM   27  O2  UNL     1      22.227  -6.266  24.532  1.00  0.00    -0.648 OA
ENDBRANCH  24  25
ENDBRANCH  23  24
ENDBRANCH  11  23
BRANCH  22  28
HETATM   28  O4  UNL     1      32.571  -9.030  26.664  1.00  0.00    -0.392 OA
ATOM     29  H4  UNL     1      33.230  -8.448  27.027  1.00  0.00     0.210 HD
ENDBRANCH  22  28
BRANCH  21  30
HETATM   30  O3  UNL     1      32.602  -6.780  27.793  1.00  0.00    -0.393 OA
ATOM     31  H3  UNL     1      32.643  -6.538  26.875  1.00  0.00     0.210 HD
ENDBRANCH  21  30
TORSDOF 5
ENDMDL
MODEL 2
REMARK VINA RESULT: -6.897634987      1.769      7.097
REMARK  5 active torsions:
REMARK  status: ('A' for Active; 'I' for Inactive)
REMARK    1  A    between atoms: C11_11  and  C13_13 
REMARK    2  A    between atoms: C13_13  and  C14_14 
REMARK    3  A    between atoms: C14_14  and  C15_15 
REMARK    4  A    between atoms: C24_26  and  O3_27 
REMARK    5  A    between atoms: C25_29  and  O4_30 
ROOT
HETATM    1  C1  UNL     1      28.143  -3.741  21.578  1.00  0.00     0.018 C 
HETATM    2  C2  UNL     1      27.368  -4.015  22.819  1.00  0.00    -0.008 C 
HETATM    3  C3  UNL     1      26.666  -5.338  22.847  1.00  0.00     0.017 C 
HETATM    4  C4  UNL     1      27.686  -6.399  22.513  1.00  0.00     0.036 C 
HETATM    5  C5  UNL     1      28.914  -6.434  23.365  1.00  0.00    -0.068 C 
HETATM    6  C6  UNL     1      29.307  -5.121  23.883  1.00  0.00    -0.072 C 
HETATM    7  C7  UNL     1      30.278  -5.148  25.027  1.00  0.00     0.036 C 
HETATM    8  C8  UNL     1      30.039  -6.166  26.051  1.00  0.00     0.015 C 
HETATM    9  C9  UNL     1      29.604  -7.531  25.595  1.00  0.00    -0.025 C 
HETATM   10  C10 UNL     1      28.501  -7.911  26.618  1.00  0.00     0.017 C 
HETATM   11  C11 UNL     1      30.742  -8.463  25.980  1.00  0.00    -0.035 C 
HETATM   12  C12 UNL     1      30.896  -8.563  27.501  1.00  0.00     0.016 C 
HETATM   13  C16 UNL     1      30.471  -9.886  25.562  1.00  0.00     0.010 C 
HETATM   14  C17 UNL     1      30.306  -9.903  24.095  1.00  0.00     0.002 C 
HETATM   15  C18 UNL     1      29.823  -8.706  23.426  1.00  0.00     0.014 C 
HETATM   16  C19 UNL     1      29.055  -7.675  24.242  1.00  0.00    -0.012 C 
HETATM   17  C20 UNL     1      27.660  -8.341  24.305  1.00  0.00     0.021 C 
HETATM   18  C21 UNL     1      28.239  -4.058  24.060  1.00  0.00     0.025 C 
HETATM   19  C22 UNL     1      27.479  -4.129  25.320  1.00  0.00     0.012 C 
HETATM   20  C23 UNL     1      26.248  -3.338  25.421  1.00  0.00     0.035 C 
HETATM   21  C24 UNL     1      25.571  -2.907  24.184  1.00  0.00     0.147 C 
HETATM   22  C25 UNL     1      26.407  -2.849  22.967  1.00  0.00     0.155 C 
ENDROOT
BRANCH  11  23
HETATM   23  C13 UNL     1      32.086  -8.053  25.489  1.00  0.00     0.020 C 
BRANCH  23  24
HETATM   24  C14 UNL     1      33.213  -8.151  26.493  1.00  0.00     0.114 C 
BRANCH  24  25
HETATM   25  C15 UNL     1      34.017  -6.875  26.347  1.00  0.00     0.172 C 
HETATM   26  O1  UNL     1      33.405  -5.822  26.656  1.00  0.00    -0.648 OA
HETATM   27  O2  UNL     1      35.312  -6.862  25.912  1.00  0.00    -0.648 OA
ENDBRANCH  24  25
ENDBRANCH  23  24
ENDBRANCH  11  23
BRANCH  22  28
HETATM   28  O4  UNL     1      25.551  -2.798  21.851  1.00  0.00    -0.392 OA
ATOM     29  H4  UNL     1      25.464  -3.667  21.476  1.00  0.00     0.210 HD
ENDBRANCH  22  28
BRANCH  21  30
HETATM   30  O3  UNL     1      24.432  -3.706  23.914  1.00  0.00    -0.393 OA
ATOM     31  H3  UNL     1      24.005  -3.980  24.717  1.00  0.00     0.210 HD
ENDBRANCH  21  30
TORSDOF 5
ENDMDL
MODEL 3
REMARK VINA RESULT: -6.875963627      2.261      6.669
REMARK  5 active torsions:
REMARK  status: ('A' for Active; 'I' for Inactive)
REMARK    1  A    between atoms: C11_11  and  C13_13 
REMARK    2  A    between atoms: C13_13  and  C14_14 
REMARK    3  A    between atoms: C14_14  and  C15_15 
REMARK    4  A    between atoms: C24_26  and  O3_27 
REMARK    5  A    between atoms: C25_29  and  O4_30 
ROOT
HETATM    1  C1  UNL     1      22.591  -8.277  25.333  1.00  0.00     0.018 C 
HETATM    2  C2  UNL     1      23.286  -8.293  24.018  1.00  0.00    -0.008 C 
HETATM    3  C3  UNL     1      23.277  -6.987  23.283  1.00  0.00     0.017 C 
HETATM    4  C4  UNL     1      23.785  -5.930  24.232  1.00  0.00     0.036 C 
HETATM    5  C5  UNL     1      25.122  -6.179  24.853  1.00  0.00    -0.068 C 
HETATM    6  C6  UNL     1      25.425  -7.598  25.046  1.00  0.00    -0.072 C 
HETATM    7  C7  UNL     1      26.869  -7.917  25.299  1.00  0.00     0.036 C 
HETATM    8  C8  UNL     1      27.842  -7.187  24.486  1.00  0.00     0.015 C 
HETATM    9  C9  UNL     1      27.582  -5.730  24.221  1.00  0.00    -0.025 C 
HETATM   10  C10 UNL     1      27.956  -5.570  22.724  1.00  0.00     0.017 C 
HETATM   11  C11 UNL     1      28.710  -4.988  24.921  1.00  0.00    -0.035 C 
HETATM   12  C12 UNL     1      30.067  -5.292  24.276  1.00  0.00     0.016 C 
HETATM   13  C16 UNL     1      28.579  -3.493  24.772  1.00  0.00     0.010 C 
HETATM   14  C17 UNL     1      27.291  -3.091  25.370  1.00  0.00     0.002 C 
HETATM   15  C18 UNL     1      26.198  -4.048  25.400  1.00  0.00     0.014 C 
HETATM   16  C19 UNL     1      26.223  -5.214  24.420  1.00  0.00    -0.012 C 
HETATM   17  C20 UNL     1      25.728  -4.516  23.131  1.00  0.00     0.021 C 
HETATM   18  C21 UNL     1      24.763  -8.615  24.134  1.00  0.00     0.025 C 
HETATM   19  C22 UNL     1      25.431  -8.833  22.839  1.00  0.00     0.012 C 
HETATM   20  C23 UNL     1      24.691  -9.558  21.802  1.00  0.00     0.035 C 
HETATM   21  C24 UNL     1      23.219  -9.621  21.884  1.00  0.00     0.147 C 
HETATM   22  C25 UNL     1      22.629  -9.406  23.222  1.00  0.00     0.155 C 
ENDROOT
BRANCH  11  23
HETATM   23  C13 UNL     1      28.890  -5.326  26.359  1.00  0.00     0.020 C 
BRANCH  23  24
HETATM   24  C14 UNL     1      30.122  -6.137  26.697  1.00  0.00     0.114 C 
BRANCH  24  25
HETATM   25  C15 UNL     1      29.811  -6.849  27.997  1.00  0.00     0.172 C 
HETATM   26  O1  UNL     1      28.743  -6.495  28.556  1.00  0.00    -0.648 OA
HETATM   27  O2  UNL     1      30.627  -7.807  28.528  1.00  0.00    -0.648 OA
ENDBRANCH  24  25
ENDBRANCH  23  24
ENDBRANCH  11  23
BRANCH  22  28
HETATM   28  O4  UNL     1      21.261  -9.124  23.055  1.00  0.00    -0.392 OA
ATOM     29  H4  UNL     1      20.768  -9.936  23.029  1.00  0.00     0.210 HD
ENDBRANCH  22  28
BRANCH  21  30
HETATM   30  O3  UNL     1      22.614  -8.722  20.972  1.00  0.00    -0.393 OA
ATOM     31  H3  UNL     1      22.727  -7.821  21.248  1.00  0.00     0.210 HD
ENDBRANCH  21  30
TORSDOF 5
ENDMDL
MODEL 4
REMARK VINA RESULT: -6.849643161      2.385      3.355
REMARK  5 active torsions:
REMARK  status: ('A' for Active; 'I' for Inactive)
REMARK    1  A    between atoms: C11_11  and  C13_13 
REMARK    2  A    between atoms: C13_13  and  C14_14 
REMARK    3  A    between atoms: C14_14  and  C15_15 
REMARK    4  A    between atoms: C24_26  and  O3_27 
REMARK    5  A    between atoms: C25_29  and  O4_30 
ROOT
HETATM    1  C1  UNL     1      26.119  -9.465  27.621  1.00  0.00     0.018 C 
HETATM    2  C2  UNL     1      27.440  -8.815  27.834  1.00  0.00    -0.008 C 
HETATM    3  C3  UNL     1      28.545  -9.330  26.963  1.00  0.00     0.017 C 
HETATM    4  C4  UNL     1      28.058  -9.278  25.536  1.00  0.00     0.036 C 
HETATM    5  C5  UNL     1      27.572  -7.952  25.045  1.00  0.00    -0.068 C 
HETATM    6  C6  UNL     1      26.978  -7.120  26.094  1.00  0.00    -0.072 C 
HETATM    7  C7  UNL     1      26.829  -5.666  25.751  1.00  0.00     0.036 C 
HETATM    8  C8  UNL     1      27.953  -5.053  25.043  1.00  0.00     0.015 C 
HETATM    9  C9  UNL     1      28.632  -5.861  23.972  1.00  0.00    -0.025 C 
HETATM   10  C10 UNL     1      30.137  -5.573  24.213  1.00  0.00     0.017 C 
HETATM   11  C11 UNL     1      28.361  -5.114  22.675  1.00  0.00    -0.035 C 
HETATM   12  C12 UNL     1      29.048  -3.744  22.662  1.00  0.00     0.016 C 
HETATM   13  C16 UNL     1      28.960  -5.817  21.484  1.00  0.00     0.010 C 
HETATM   14  C17 UNL     1      28.357  -7.163  21.403  1.00  0.00     0.002 C 
HETATM   15  C18 UNL     1      27.880  -7.795  22.621  1.00  0.00     0.014 C 
HETATM   16  C19 UNL     1      28.431  -7.313  23.957  1.00  0.00    -0.012 C 
HETATM   17  C20 UNL     1      29.798  -8.038  23.980  1.00  0.00     0.021 C 
HETATM   18  C21 UNL     1      27.422  -7.330  27.529  1.00  0.00     0.025 C 
HETATM   19  C22 UNL     1      28.656  -6.625  27.919  1.00  0.00     0.012 C 
HETATM   20  C23 UNL     1      29.301  -7.020  29.175  1.00  0.00     0.035 C 
HETATM   21  C24 UNL     1      29.010  -8.350  29.742  1.00  0.00     0.147 C 
HETATM   22  C25 UNL     1      27.745  -8.982  29.311  1.00  0.00     0.155 C 
ENDROOT
BRANCH  11  23
HETATM   23  C13 UNL     1      26.926  -4.821  22.404  1.00  0.00     0.020 C 
BRANCH  23  24
HETATM   24  C14 UNL     1      26.559  -3.357  22.308  1.00  0.00     0.114 C 
BRANCH  24  25
HETATM   25  C15 UNL     1      25.431  -3.142  23.295  1.00  0.00     0.172 C 
HETATM   26  O1  UNL     1      25.684  -2.336  24.226  1.00  0.00    -0.648 OA
HETATM   27  O2  UNL     1      24.224  -3.772  23.188  1.00  0.00    -0.648 OA
ENDBRANCH  24  25
ENDBRANCH  23  24
ENDBRANCH  11  23
BRANCH  22  28
HETATM   28  O4  UNL     1      27.811 -10.352  29.628  1.00  0.00    -0.392 OA
ATOM     29  H4  UNL     1      27.470 -10.494  30.503  1.00  0.00     0.210 HD
ENDBRANCH  22  28
BRANCH  21  30
HETATM   30  O3  UNL     1      30.074  -9.255  29.503  1.00  0.00    -0.393 OA
ATOM     31  H3  UNL     1      30.905  -8.801  29.435  1.00  0.00     0.210 HD
ENDBRANCH  21  30
TORSDOF 5
ENDMDL
MODEL 5
REMARK VINA RESULT: -6.824514882      3.019      4.251
REMARK  5 active torsions:
REMARK  status: ('A' for Active; 'I' for Inactive)
REMARK    1  A    between atoms: C11_11  and  C13_13 
REMARK    2  A    between atoms: C13_13  and  C14_14 
REMARK    3  A    between atoms: C14_14  and  C15_15 
REMARK    4  A    between atoms: C24_26  and  O3_27 
REMARK    5  A    between atoms: C25_29  and  O4_30 
ROOT
HETATM    1  C1  UNL     1      29.423  -8.479  18.727  1.00  0.00     0.018 C 
HETATM    2  C2  UNL     1      30.306  -8.237  19.900  1.00  0.00    -0.008 C 
HETATM    3  C3  UNL     1      30.833  -6.838  20.016  1.00  0.00     0.017 C 
HETATM    4  C4  UNL     1      29.653  -5.902  19.932  1.00  0.00     0.036 C 
HETATM    5  C5  UNL     1      28.547  -6.134  20.911  1.00  0.00    -0.068 C 
HETATM    6  C6  UNL     1      28.392  -7.537  21.300  1.00  0.00    -0.072 C 
HETATM    7  C7  UNL     1      27.577  -7.773  22.539  1.00  0.00     0.036 C 
HETATM    8  C8  UNL     1      27.812  -6.850  23.650  1.00  0.00     0.015 C 
HETATM    9  C9  UNL     1      28.009  -5.396  23.323  1.00  0.00    -0.025 C 
HETATM   10  C10 UNL     1      29.174  -4.978  24.259  1.00  0.00     0.017 C 
HETATM   11  C11 UNL     1      26.819  -4.680  23.945  1.00  0.00    -0.035 C 
HETATM   12  C12 UNL     1      26.846  -4.771  25.474  1.00  0.00     0.016 C 
HETATM   13  C16 UNL     1      26.853  -3.197  23.681  1.00  0.00     0.010 C 
HETATM   14  C17 UNL     1      26.829  -2.996  22.219  1.00  0.00     0.002 C 
HETATM   15  C18 UNL     1      27.371  -4.033  21.357  1.00  0.00     0.014 C 
HETATM   16  C19 UNL     1      28.361  -5.028  21.947  1.00  0.00    -0.012 C 
HETATM   17  C20 UNL     1      29.657  -4.183  21.940  1.00  0.00     0.021 C 
HETATM   18  C21 UNL     1      29.600  -8.452  21.225  1.00  0.00     0.025 C 
HETATM   19  C22 UNL     1      30.497  -8.414  22.393  1.00  0.00     0.012 C 
HETATM   20  C23 UNL     1      31.821  -9.029  22.258  1.00  0.00     0.035 C 
HETATM   21  C24 UNL     1      32.387  -9.222  20.910  1.00  0.00     0.147 C 
HETATM   22  C25 UNL     1      31.419  -9.264  19.794  1.00  0.00     0.155 C 
ENDROOT
BRANCH  11  23
HETATM   23  C13 UNL     1      25.487  -5.220  23.557  1.00  0.00     0.020 C 
BRANCH  23  24
HETATM   24  C14 UNL     1      24.630  -5.738  24.690  1.00  0.00     0.114 C 
BRANCH  24  25
HETATM   25  C15 UNL     1      23.469  -6.462  24.040  1.00  0.00     0.172 C 
HETATM   26  O1  UNL     1      22.333  -5.997  24.309  1.00  0.00    -0.648 OA
HETATM   27  O2  UNL     1      23.636  -7.543  23.221  1.00  0.00    -0.648 OA
ENDBRANCH  24  25
ENDBRANCH  23  24
ENDBRANCH  11  23
BRANCH  22  28
HETATM   28  O4  UNL     1      32.127  -9.072  18.594  1.00  0.00    -0.392 OA
ATOM     29  H4  UNL     1      33.060  -9.145  18.758  1.00  0.00     0.210 HD
ENDBRANCH  22  28
BRANCH  21  30
HETATM   30  O3  UNL     1      33.372  -8.246  20.620  1.00  0.00    -0.393 OA
ATOM     31  H3  UNL     1      33.490  -8.144  19.683  1.00  0.00     0.210 HD
ENDBRANCH  21  30
TORSDOF 5
ENDMDL
