MODEL 1
REMARK VINA RESULT: -7.328847436      0.000      0.000
REMARK  4 active torsions:
REMARK  status: ('A' for Active; 'I' for Inactive)
REMARK    1  A    between atoms: C3_3  and  C4_4 
REMARK    2  A    between atoms: C5_6  and  N1_8 
REMARK       I    between atoms: N1_8  and  C7_10 
REMARK       I    between atoms: C7_10  and  N2_12 
REMARK    3  A    between atoms: N2_12  and  N3_14 
REMARK       I    between atoms: N3_14  and  C8_16 
REMARK    4  A    between atoms: C8_16  and  C9_18 
ROOT
HETATM    1  C1  UNL     1     -37.583  -2.561   1.103  1.00  0.00     0.112 C 
HETATM    2  C2  UNL     1     -38.550  -2.645   0.009  1.00  0.00    -0.105 C 
HETATM    3  C3  UNL     1     -39.344  -2.737  -0.895  1.00  0.00    -0.053 C 
ENDROOT
BRANCH   3   4
HETATM    4  C4  UNL     1     -40.292  -2.872  -1.958  1.00  0.00     0.109 C 
HETATM    5 CL1  UNL     1     -39.856  -3.860  -3.326  1.00  0.00    -0.072 Cl
HETATM    6  C5  UNL     1     -41.488  -2.281  -1.954  1.00  0.00     0.040 C 
HETATM    7  C6  UNL     1     -42.409  -2.459  -3.069  1.00  0.00     0.070 C 
BRANCH   6   8
HETATM    8  N1  UNL     1     -41.810  -1.491  -0.836  1.00  0.00    -0.309 N 
HETATM    9  C7  UNL     1     -42.542  -1.991   0.257  1.00  0.00     0.339 C 
HETATM   10  O1  UNL     1     -42.933  -3.185   0.256  1.00  0.00    -0.245 OA
HETATM   11  N2  UNL     1     -42.835  -1.133   1.362  1.00  0.00    -0.249 N 
ATOM     12  H2  UNL     1     -42.512  -0.166   1.356  1.00  0.00     0.192 HD
ATOM     13  H1  UNL     1     -41.502  -0.519  -0.817  1.00  0.00     0.170 HD
BRANCH  11  14
HETATM   14  N3  UNL     1     -43.561  -1.617   2.447  1.00  0.00    -0.264 N 
HETATM   15  C8  UNL     1     -44.967  -1.535   2.443  1.00  0.00     0.265 C 
HETATM   16  O2  UNL     1     -45.543  -1.028   1.455  1.00  0.00    -0.269 OA
ATOM     17  H3  UNL     1     -43.076  -2.030   3.243  1.00  0.00     0.190 HD
BRANCH  15  18
HETATM   18  C9  UNL     1     -45.764  -2.046   3.599  1.00  0.00     0.220 C 
HETATM   19  O3  UNL     1     -45.168  -3.141   4.154  1.00  0.00    -0.376 OA
HETATM   20  C10 UNL     1     -45.310  -3.164   5.509  1.00  0.00     0.174 C 
HETATM   21  C11 UNL     1     -45.817  -1.802   5.936  1.00  0.00     0.026 C 
HETATM   22  C12 UNL     1     -47.213  -2.004   6.452  1.00  0.00     0.081 C 
HETATM   23  C14 UNL     1     -45.789  -1.026   4.700  1.00  0.00     0.040 C 
HETATM   24  S1  UNL     1     -47.858  -0.303   6.165  1.00  0.00    -0.168 SA
HETATM   25  C13 UNL     1     -46.930  -0.060   4.592  1.00  0.00     0.082 C 
ENDBRANCH  15  18
ENDBRANCH  11  14
ENDBRANCH   6   8
ENDBRANCH   3   4
TORSDOF 4
ENDMDL
MODEL 2
REMARK VINA RESULT: -7.259206717      1.001      1.112
REMARK  4 active torsions:
REMARK  status: ('A' for Active; 'I' for Inactive)
REMARK    1  A    between atoms: C3_3  and  C4_4 
REMARK    2  A    between atoms: C5_6  and  N1_8 
REMARK       I    between atoms: N1_8  and  C7_10 
REMARK       I    between atoms: C7_10  and  N2_12 
REMARK    3  A    between atoms: N2_12  and  N3_14 
REMARK       I    between atoms: N3_14  and  C8_16 
REMARK    4  A    between atoms: C8_16  and  C9_18 
ROOT
HETATM    1  C1  UNL     1     -37.596  -2.566   1.010  1.00  0.00     0.112 C 
HETATM    2  C2  UNL     1     -38.555  -2.677  -0.091  1.00  0.00    -0.105 C 
HETATM    3  C3  UNL     1     -39.349  -2.791  -0.991  1.00  0.00    -0.053 C 
ENDROOT
BRANCH   3   4
HETATM    4  C4  UNL     1     -40.305  -2.944  -2.044  1.00  0.00     0.109 C 
HETATM    5 CL1  UNL     1     -39.898  -3.992  -3.377  1.00  0.00    -0.072 Cl
HETATM    6  C5  UNL     1     -41.488  -2.327  -2.057  1.00  0.00     0.040 C 
HETATM    7  C6  UNL     1     -42.418  -2.525  -3.161  1.00  0.00     0.070 C 
BRANCH   6   8
HETATM    8  N1  UNL     1     -41.786  -1.488  -0.968  1.00  0.00    -0.309 N 
HETATM    9  C7  UNL     1     -42.490  -1.942   0.163  1.00  0.00     0.339 C 
HETATM   10  O1  UNL     1     -42.876  -3.136   0.224  1.00  0.00    -0.245 OA
HETATM   11  N2  UNL     1     -42.760  -1.036   1.236  1.00  0.00    -0.249 N 
ATOM     12  H2  UNL     1     -42.442  -0.069   1.179  1.00  0.00     0.192 HD
ATOM     13  H1  UNL     1     -41.481  -0.516  -0.999  1.00  0.00     0.170 HD
BRANCH  11  14
HETATM   14  N3  UNL     1     -43.459  -1.474   2.359  1.00  0.00    -0.264 N 
HETATM   15  C8  UNL     1     -44.851  -1.282   2.438  1.00  0.00     0.265 C 
HETATM   16  O2  UNL     1     -45.442  -0.719   1.488  1.00  0.00    -0.269 OA
ATOM     17  H3  UNL     1     -42.962  -1.933   3.122  1.00  0.00     0.190 HD
BRANCH  15  18
HETATM   18  C9  UNL     1     -45.617  -1.741   3.635  1.00  0.00     0.220 C 
HETATM   19  O3  UNL     1     -46.177  -2.965   3.413  1.00  0.00    -0.376 OA
HETATM   20  C10 UNL     1     -46.167  -3.738   4.535  1.00  0.00     0.174 C 
HETATM   21  C11 UNL     1     -45.260  -3.065   5.543  1.00  0.00     0.026 C 
HETATM   22  C12 UNL     1     -46.137  -2.604   6.672  1.00  0.00     0.081 C 
HETATM   23  C14 UNL     1     -44.688  -1.950   4.795  1.00  0.00     0.040 C 
HETATM   24  S1  UNL     1     -45.073  -1.240   7.303  1.00  0.00    -0.168 SA
HETATM   25  C13 UNL     1     -44.494  -0.723   5.633  1.00  0.00     0.082 C 
ENDBRANCH  15  18
ENDBRANCH  11  14
ENDBRANCH   6   8
ENDBRANCH   3   4
TORSDOF 4
ENDMDL
MODEL 3
REMARK VINA RESULT: -7.013758874      4.172      8.321
REMARK  4 active torsions:
REMARK  status: ('A' for Active; 'I' for Inactive)
REMARK    1  A    between atoms: C3_3  and  C4_4 
REMARK    2  A    between atoms: C5_6  and  N1_8 
REMARK       I    between atoms: N1_8  and  C7_10 
REMARK       I    between atoms: C7_10  and  N2_12 
REMARK    3  A    between atoms: N2_12  and  N3_14 
REMARK       I    between atoms: N3_14  and  C8_16 
REMARK    4  A    between atoms: C8_16  and  C9_18 
ROOT
HETATM    1  C1  UNL     1     -47.740   0.803   3.445  1.00  0.00     0.112 C 
HETATM    2  C2  UNL     1     -46.987   0.049   4.447  1.00  0.00    -0.105 C 
HETATM    3  C3  UNL     1     -46.386  -0.577   5.285  1.00  0.00    -0.053 C 
ENDROOT
BRANCH   3   4
HETATM    4  C4  UNL     1     -45.696  -1.334   6.283  1.00  0.00     0.109 C 
HETATM    5 CL1  UNL     1     -46.610  -1.923   7.646  1.00  0.00    -0.072 Cl
HETATM    6  C5  UNL     1     -44.392  -1.611   6.224  1.00  0.00     0.040 C 
HETATM    7  C6  UNL     1     -43.748  -2.388   7.275  1.00  0.00     0.070 C 
BRANCH   6   8
HETATM    8  N1  UNL     1     -43.682  -1.122   5.112  1.00  0.00    -0.309 N 
HETATM    9  C7  UNL     1     -43.393  -1.921   3.990  1.00  0.00     0.339 C 
HETATM   10  O1  UNL     1     -43.773  -3.118   3.958  1.00  0.00    -0.245 OA
HETATM   11  N2  UNL     1     -42.667  -1.361   2.894  1.00  0.00    -0.249 N 
ATOM     12  H2  UNL     1     -42.364  -0.388   2.926  1.00  0.00     0.192 HD
ATOM     13  H1  UNL     1     -43.365  -0.153   5.119  1.00  0.00     0.170 HD
BRANCH  11  14
HETATM   14  N3  UNL     1     -42.373  -2.143   1.779  1.00  0.00    -0.264 N 
HETATM   15  C8  UNL     1     -42.830  -1.752   0.507  1.00  0.00     0.265 C 
HETATM   16  O2  UNL     1     -43.494  -0.696   0.398  1.00  0.00    -0.269 OA
ATOM     17  H3  UNL     1     -41.829  -2.999   1.886  1.00  0.00     0.190 HD
BRANCH  15  18
HETATM   18  C9  UNL     1     -42.529  -2.579  -0.700  1.00  0.00     0.220 C 
HETATM   19  O3  UNL     1     -43.561  -2.533  -1.591  1.00  0.00    -0.376 OA
HETATM   20  C10 UNL     1     -43.119  -2.536  -2.879  1.00  0.00     0.174 C 
HETATM   21  C11 UNL     1     -41.627  -2.280  -2.849  1.00  0.00     0.026 C 
HETATM   22  C12 UNL     1     -40.964  -3.544  -3.319  1.00  0.00     0.081 C 
HETATM   23  C14 UNL     1     -41.358  -2.004  -1.442  1.00  0.00     0.040 C 
HETATM   24  S1  UNL     1     -39.331  -3.315  -2.499  1.00  0.00    -0.168 SA
HETATM   25  C13 UNL     1     -40.037  -2.543  -0.983  1.00  0.00     0.082 C 
ENDBRANCH  15  18
ENDBRANCH  11  14
ENDBRANCH   6   8
ENDBRANCH   3   4
TORSDOF 4
ENDMDL
MODEL 4
REMARK VINA RESULT: -7.013561669      1.493      1.679
REMARK  4 active torsions:
REMARK  status: ('A' for Active; 'I' for Inactive)
REMARK    1  A    between atoms: C3_3  and  C4_4 
REMARK    2  A    between atoms: C5_6  and  N1_8 
REMARK       I    between atoms: N1_8  and  C7_10 
REMARK       I    between atoms: C7_10  and  N2_12 
REMARK    3  A    between atoms: N2_12  and  N3_14 
REMARK       I    between atoms: N3_14  and  C8_16 
REMARK    4  A    between atoms: C8_16  and  C9_18 
ROOT
HETATM    1  C1  UNL     1     -37.563  -2.567   1.100  1.00  0.00     0.112 C 
HETATM    2  C2  UNL     1     -38.518  -2.670  -0.005  1.00  0.00    -0.105 C 
HETATM    3  C3  UNL     1     -39.317  -2.769  -0.902  1.00  0.00    -0.053 C 
ENDROOT
BRANCH   3   4
HETATM    4  C4  UNL     1     -40.286  -2.890  -1.948  1.00  0.00     0.109 C 
HETATM    5 CL1  UNL     1     -39.888  -3.881  -3.326  1.00  0.00    -0.072 Cl
HETATM    6  C5  UNL     1     -41.474  -2.283  -1.922  1.00  0.00     0.040 C 
HETATM    7  C6  UNL     1     -42.417  -2.446  -3.020  1.00  0.00     0.070 C 
BRANCH   6   8
HETATM    8  N1  UNL     1     -41.765  -1.490  -0.797  1.00  0.00    -0.309 N 
HETATM    9  C7  UNL     1     -42.542  -1.961   0.278  1.00  0.00     0.339 C 
HETATM   10  O1  UNL     1     -43.004  -3.129   0.254  1.00  0.00    -0.245 OA
HETATM   11  N2  UNL     1     -42.800  -1.102   1.391  1.00  0.00    -0.249 N 
ATOM     12  H2  UNL     1     -42.420  -0.156   1.404  1.00  0.00     0.192 HD
ATOM     13  H1  UNL     1     -41.400  -0.539  -0.758  1.00  0.00     0.170 HD
BRANCH  11  14
HETATM   14  N3  UNL     1     -43.571  -1.557   2.459  1.00  0.00    -0.264 N 
HETATM   15  C8  UNL     1     -42.952  -1.888   3.679  1.00  0.00     0.265 C 
HETATM   16  O2  UNL     1     -41.711  -1.762   3.785  1.00  0.00    -0.269 OA
ATOM     17  H3  UNL     1     -44.581  -1.651   2.356  1.00  0.00     0.190 HD
BRANCH  15  18
HETATM   18  C9  UNL     1     -43.760  -2.381   4.835  1.00  0.00     0.220 C 
HETATM   19  O3  UNL     1     -43.013  -3.191   5.640  1.00  0.00    -0.376 OA
HETATM   20  C10 UNL     1     -43.325  -3.025   6.955  1.00  0.00     0.174 C 
HETATM   21  C11 UNL     1     -44.176  -1.777   7.068  1.00  0.00     0.026 C 
HETATM   22  C12 UNL     1     -45.547  -2.227   7.485  1.00  0.00     0.081 C 
HETATM   23  C14 UNL     1     -44.159  -1.232   5.714  1.00  0.00     0.040 C 
HETATM   24  S1  UNL     1     -46.512  -0.806   6.822  1.00  0.00    -0.168 SA
HETATM   25  C13 UNL     1     -45.463  -0.605   5.322  1.00  0.00     0.082 C 
ENDBRANCH  15  18
ENDBRANCH  11  14
ENDBRANCH   6   8
ENDBRANCH   3   4
TORSDOF 4
ENDMDL
MODEL 5
REMARK VINA RESULT: -6.889422002      5.350      7.728
REMARK  4 active torsions:
REMARK  status: ('A' for Active; 'I' for Inactive)
REMARK    1  A    between atoms: C3_3  and  C4_4 
REMARK    2  A    between atoms: C5_6  and  N1_8 
REMARK       I    between atoms: N1_8  and  C7_10 
REMARK       I    between atoms: C7_10  and  N2_12 
REMARK    3  A    between atoms: N2_12  and  N3_14 
REMARK       I    between atoms: N3_14  and  C8_16 
REMARK    4  A    between atoms: C8_16  and  C9_18 
ROOT
HETATM    1  C1  UNL     1     -37.972  -4.144  -4.867  1.00  0.00     0.112 C 
HETATM    2  C2  UNL     1     -38.989  -3.698  -3.913  1.00  0.00    -0.105 C 
HETATM    3  C3  UNL     1     -39.818  -3.309  -3.129  1.00  0.00    -0.053 C 
ENDROOT
BRANCH   3   4
HETATM    4  C4  UNL     1     -40.801  -2.822  -2.210  1.00  0.00     0.109 C 
HETATM    5 CL1  UNL     1     -42.480  -2.950  -2.661  1.00  0.00    -0.072 Cl
HETATM    6  C5  UNL     1     -40.498  -2.277  -1.031  1.00  0.00     0.040 C 
HETATM    7  C6  UNL     1     -41.547  -1.799  -0.140  1.00  0.00     0.070 C 
BRANCH   6   8
HETATM    8  N1  UNL     1     -39.134  -2.187  -0.697  1.00  0.00    -0.309 N 
HETATM    9  C7  UNL     1     -38.620  -2.686   0.514  1.00  0.00     0.339 C 
HETATM   10  O1  UNL     1     -39.388  -3.235   1.343  1.00  0.00    -0.245 OA
HETATM   11  N2  UNL     1     -37.223  -2.563   0.791  1.00  0.00    -0.249 N 
ATOM     12  H2  UNL     1     -36.606  -2.118   0.113  1.00  0.00     0.192 HD
ATOM     13  H1  UNL     1     -38.495  -1.745  -1.357  1.00  0.00     0.170 HD
BRANCH  11  14
HETATM   14  N3  UNL     1     -36.704  -3.051   1.988  1.00  0.00    -0.264 N 
HETATM   15  C8  UNL     1     -35.966  -2.199   2.832  1.00  0.00     0.265 C 
HETATM   16  O2  UNL     1     -35.791  -1.007   2.490  1.00  0.00    -0.269 OA
ATOM     17  H3  UNL     1     -36.858  -4.023   2.253  1.00  0.00     0.190 HD
BRANCH  15  18
HETATM   18  C9  UNL     1     -35.398  -2.704   4.118  1.00  0.00     0.220 C 
HETATM   19  O3  UNL     1     -34.265  -2.019   4.451  1.00  0.00    -0.376 OA
HETATM   20  C10 UNL     1     -34.166  -1.828   5.796  1.00  0.00     0.174 C 
HETATM   21  C11 UNL     1     -35.506  -2.181   6.407  1.00  0.00     0.026 C 
HETATM   22  C12 UNL     1     -35.290  -3.415   7.236  1.00  0.00     0.081 C 
HETATM   23  C14 UNL     1     -36.352  -2.435   5.245  1.00  0.00     0.040 C 
HETATM   24  S1  UNL     1     -37.013  -4.066   7.206  1.00  0.00    -0.168 SA
HETATM   25  C13 UNL     1     -37.336  -3.543   5.471  1.00  0.00     0.082 C 
ENDBRANCH  15  18
ENDBRANCH  11  14
ENDBRANCH   6   8
ENDBRANCH   3   4
TORSDOF 4
ENDMDL
