MODEL 1
REMARK VINA RESULT: -6.527985057      0.000      0.000
REMARK  4 active torsions:
REMARK  status: ('A' for Active; 'I' for Inactive)
REMARK    1  A    between atoms: C2_2  and  N1_5 
REMARK       I    between atoms: N1_5  and  C5_7 
REMARK    2  A    between atoms: C5_7  and  C6_9 
REMARK    3  A    between atoms: C11_17  and  C12_18 
REMARK       I    between atoms: C12_18  and  N3_20 
REMARK    4  A    between atoms: N3_20  and  N4_22 
ROOT
HETATM    1  C6  UNL     1     -42.473  -2.491   1.720  1.00  0.00     0.102 C 
HETATM    2 BR1  UNL     1     -41.073  -3.203   2.822  1.00  0.00    -0.043 Br
HETATM    3  C7  UNL     1     -43.711  -2.391   2.153  1.00  0.00     0.045 C 
HETATM    4  N2  UNL     1     -44.712  -1.863   1.299  1.00  0.00    -0.371 N 
ATOM      5  H2  UNL     1     -44.584  -1.956   0.292  1.00  0.00     0.164 HD
HETATM    6  C8  UNL     1     -45.769  -1.276   1.722  1.00  0.00     0.061 C 
HETATM    7  C9  UNL     1     -45.949  -1.143   3.189  1.00  0.00     0.046 C 
HETATM    8  C10 UNL     1     -45.534  -2.439   3.829  1.00  0.00     0.025 C 
HETATM    9  C11 UNL     1     -44.114  -2.812   3.510  1.00  0.00     0.131 C 
ENDROOT
BRANCH   1  10
HETATM   10  C5  UNL     1     -42.079  -2.078   0.380  1.00  0.00     0.261 C 
HETATM   11  N1  UNL     1     -41.337  -2.895  -0.477  1.00  0.00    -0.348 N 
ATOM     12  H1  UNL     1     -41.061  -3.820  -0.149  1.00  0.00     0.163 HD
HETATM   13  O1  UNL     1     -42.426  -0.938  -0.011  1.00  0.00    -0.267 OA
BRANCH  11  14
HETATM   14  C2  UNL     1     -40.948  -2.494  -1.795  1.00  0.00     0.022 C 
HETATM   15  C1  UNL     1     -39.901  -3.484  -2.291  1.00  0.00     0.037 C 
HETATM   16  C3  UNL     1     -42.110  -2.576  -2.763  1.00  0.00     0.037 C 
HETATM   17  C4  UNL     1     -40.403  -1.090  -1.865  1.00  0.00     0.037 C 
ENDBRANCH  11  14
ENDBRANCH   1  10
BRANCH   9  18
HETATM   18  C12 UNL     1     -43.233  -2.387   4.595  1.00  0.00     0.245 C 
HETATM   19  O2  UNL     1     -42.892  -1.156   4.677  1.00  0.00    -0.271 OA
HETATM   20  N3  UNL     1     -42.711  -3.248   5.582  1.00  0.00    -0.276 N 
ATOM     21  H3  UNL     1     -42.961  -4.237   5.551  1.00  0.00     0.189 HD
BRANCH  20  22
HETATM   22  N4  UNL     1     -41.869  -2.804   6.597  1.00  0.00    -0.343 N 
ATOM     23  H42 UNL     1     -41.162  -2.111   6.355  1.00  0.00     0.176 HD
ATOM     24  H41 UNL     1     -41.937  -3.144   7.556  1.00  0.00     0.176 HD
ENDBRANCH  20  22
ENDBRANCH   9  18
TORSDOF 4
ENDMDL
MODEL 2
REMARK VINA RESULT: -6.355527871      1.063      1.530
REMARK  4 active torsions:
REMARK  status: ('A' for Active; 'I' for Inactive)
REMARK    1  A    between atoms: C2_2  and  N1_5 
REMARK       I    between atoms: N1_5  and  C5_7 
REMARK    2  A    between atoms: C5_7  and  C6_9 
REMARK    3  A    between atoms: C11_17  and  C12_18 
REMARK       I    between atoms: C12_18  and  N3_20 
REMARK    4  A    between atoms: N3_20  and  N4_22 
ROOT
HETATM    1  C6  UNL     1     -41.695  -2.590   1.654  1.00  0.00     0.102 C 
HETATM    2 BR1  UNL     1     -39.934  -2.867   2.365  1.00  0.00    -0.043 Br
HETATM    3  C7  UNL     1     -42.773  -2.761   2.389  1.00  0.00     0.045 C 
HETATM    4  N2  UNL     1     -44.052  -2.549   1.817  1.00  0.00    -0.371 N 
ATOM      5  H2  UNL     1     -44.158  -2.677   0.811  1.00  0.00     0.164 HD
HETATM    6  C8  UNL     1     -45.085  -2.206   2.493  1.00  0.00     0.061 C 
HETATM    7  C9  UNL     1     -44.925  -2.021   3.957  1.00  0.00     0.046 C 
HETATM    8  C10 UNL     1     -44.055  -3.132   4.475  1.00  0.00     0.025 C 
HETATM    9  C11 UNL     1     -42.710  -3.173   3.805  1.00  0.00     0.131 C 
ENDROOT
BRANCH   1  10
HETATM   10  C5  UNL     1     -41.760  -2.186   0.256  1.00  0.00     0.261 C 
HETATM   11  N1  UNL     1     -41.109  -2.884  -0.765  1.00  0.00    -0.348 N 
ATOM     12  H1  UNL     1     -40.566  -3.711  -0.519  1.00  0.00     0.163 HD
HETATM   13  O1  UNL     1     -42.432  -1.167  -0.033  1.00  0.00    -0.267 OA
BRANCH  11  14
HETATM   14  C2  UNL     1     -41.170  -2.491  -2.141  1.00  0.00     0.022 C 
HETATM   15  C1  UNL     1     -40.618  -1.075  -2.243  1.00  0.00     0.037 C 
HETATM   16  C3  UNL     1     -40.280  -3.363  -3.003  1.00  0.00     0.037 C 
HETATM   17  C4  UNL     1     -42.557  -2.547  -2.727  1.00  0.00     0.037 C 
ENDBRANCH  11  14
ENDBRANCH   1  10
BRANCH   9  18
HETATM   18  C12 UNL     1     -41.724  -2.475   4.627  1.00  0.00     0.245 C 
HETATM   19  O2  UNL     1     -41.714  -1.196   4.639  1.00  0.00    -0.271 OA
HETATM   20  N3  UNL     1     -40.755  -3.117   5.426  1.00  0.00    -0.276 N 
ATOM     21  H3  UNL     1     -40.732  -4.137   5.443  1.00  0.00     0.189 HD
BRANCH  20  22
HETATM   22  N4  UNL     1     -39.828  -2.415   6.191  1.00  0.00    -0.343 N 
ATOM     23  H42 UNL     1     -39.644  -1.445   5.936  1.00  0.00     0.176 HD
ATOM     24  H41 UNL     1     -39.339  -2.833   6.982  1.00  0.00     0.176 HD
ENDBRANCH  20  22
ENDBRANCH   9  18
TORSDOF 4
ENDMDL
MODEL 3
REMARK VINA RESULT: -6.294718986      1.882      2.347
REMARK  4 active torsions:
REMARK  status: ('A' for Active; 'I' for Inactive)
REMARK    1  A    between atoms: C2_2  and  N1_5 
REMARK       I    between atoms: N1_5  and  C5_7 
REMARK    2  A    between atoms: C5_7  and  C6_9 
REMARK    3  A    between atoms: C11_17  and  C12_18 
REMARK       I    between atoms: C12_18  and  N3_20 
REMARK    4  A    between atoms: N3_20  and  N4_22 
ROOT
HETATM    1  C6  UNL     1     -41.176  -2.490   1.462  1.00  0.00     0.102 C 
HETATM    2 BR1  UNL     1     -39.304  -2.676   1.840  1.00  0.00    -0.043 Br
HETATM    3  C7  UNL     1     -42.088  -2.623   2.401  1.00  0.00     0.045 C 
HETATM    4  N2  UNL     1     -43.459  -2.482   2.072  1.00  0.00    -0.371 N 
ATOM      5  H2  UNL     1     -43.749  -2.692   1.117  1.00  0.00     0.164 HD
HETATM    6  C8  UNL     1     -44.355  -2.105   2.906  1.00  0.00     0.061 C 
HETATM    7  C9  UNL     1     -43.926  -1.800   4.293  1.00  0.00     0.046 C 
HETATM    8  C10 UNL     1     -42.936  -2.849   4.717  1.00  0.00     0.025 C 
HETATM    9  C11 UNL     1     -41.743  -2.918   3.806  1.00  0.00     0.131 C 
ENDROOT
BRANCH   1  10
HETATM   10  C5  UNL     1     -41.519  -2.202   0.077  1.00  0.00     0.261 C 
HETATM   11  N1  UNL     1     -41.020  -2.943  -0.998  1.00  0.00    -0.348 N 
ATOM     12  H1  UNL     1     -40.389  -3.720  -0.801  1.00  0.00     0.163 HD
HETATM   13  O1  UNL     1     -42.297  -1.244  -0.151  1.00  0.00    -0.267 OA
BRANCH  11  14
HETATM   14  C2  UNL     1     -41.354  -2.664  -2.362  1.00  0.00     0.022 C 
HETATM   15  C1  UNL     1     -40.888  -1.247  -2.672  1.00  0.00     0.037 C 
HETATM   16  C3  UNL     1     -40.609  -3.579  -3.311  1.00  0.00     0.037 C 
HETATM   17  C4  UNL     1     -42.824  -2.801  -2.667  1.00  0.00     0.037 C 
ENDBRANCH  11  14
ENDBRANCH   1  10
BRANCH   9  18
HETATM   18  C12 UNL     1     -40.643  -2.138   4.368  1.00  0.00     0.245 C 
HETATM   19  O2  UNL     1     -39.746  -2.731   5.062  1.00  0.00    -0.271 OA
HETATM   20  N3  UNL     1     -40.488  -0.745   4.204  1.00  0.00    -0.276 N 
ATOM     21  H3  UNL     1     -41.183  -0.237   3.656  1.00  0.00     0.189 HD
BRANCH  20  22
HETATM   22  N4  UNL     1     -39.428  -0.037   4.760  1.00  0.00    -0.343 N 
ATOM     23  H42 UNL     1     -39.213   0.879   4.368  1.00  0.00     0.176 HD
ATOM     24  H41 UNL     1     -38.869  -0.401   5.532  1.00  0.00     0.176 HD
ENDBRANCH  20  22
ENDBRANCH   9  18
TORSDOF 4
ENDMDL
MODEL 4
REMARK VINA RESULT: -6.167514503      2.901      4.224
REMARK  4 active torsions:
REMARK  status: ('A' for Active; 'I' for Inactive)
REMARK    1  A    between atoms: C2_2  and  N1_5 
REMARK       I    between atoms: N1_5  and  C5_7 
REMARK    2  A    between atoms: C5_7  and  C6_9 
REMARK    3  A    between atoms: C11_17  and  C12_18 
REMARK       I    between atoms: C12_18  and  N3_20 
REMARK    4  A    between atoms: N3_20  and  N4_22 
ROOT
HETATM    1  C6  UNL     1     -40.532  -2.499   1.982  1.00  0.00     0.102 C 
HETATM    2 BR1  UNL     1     -42.153  -1.739   2.672  1.00  0.00    -0.043 Br
HETATM    3  C7  UNL     1     -39.672  -3.119   2.761  1.00  0.00     0.045 C 
HETATM    4  N2  UNL     1     -38.486  -3.660   2.205  1.00  0.00    -0.371 N 
ATOM      5  H2  UNL     1     -38.113  -3.233   1.357  1.00  0.00     0.164 HD
HETATM    6  C8  UNL     1     -37.855  -4.656   2.707  1.00  0.00     0.061 C 
HETATM    7  C9  UNL     1     -38.404  -5.274   3.939  1.00  0.00     0.046 C 
HETATM    8  C10 UNL     1     -38.859  -4.169   4.852  1.00  0.00     0.025 C 
HETATM    9  C11 UNL     1     -39.888  -3.279   4.213  1.00  0.00     0.131 C 
ENDROOT
BRANCH   1  10
HETATM   10  C5  UNL     1     -40.315  -2.341   0.551  1.00  0.00     0.261 C 
HETATM   11  N1  UNL     1     -41.281  -2.672  -0.403  1.00  0.00    -0.348 N 
ATOM     12  H1  UNL     1     -42.176  -3.040  -0.081  1.00  0.00     0.163 HD
HETATM   13  O1  UNL     1     -39.210  -1.887   0.168  1.00  0.00    -0.267 OA
BRANCH  11  14
HETATM   14  C2  UNL     1     -41.073  -2.518  -1.811  1.00  0.00     0.022 C 
HETATM   15  C1  UNL     1     -42.404  -2.773  -2.507  1.00  0.00     0.037 C 
HETATM   16  C3  UNL     1     -40.672  -1.099  -2.158  1.00  0.00     0.037 C 
HETATM   17  C4  UNL     1     -40.015  -3.432  -2.372  1.00  0.00     0.037 C 
ENDBRANCH  11  14
ENDBRANCH   1  10
BRANCH   9  18
HETATM   18  C12 UNL     1     -41.228  -3.702   4.613  1.00  0.00     0.245 C 
HETATM   19  O2  UNL     1     -41.786  -4.675   3.997  1.00  0.00    -0.271 OA
HETATM   20  N3  UNL     1     -41.977  -3.104   5.648  1.00  0.00    -0.276 N 
ATOM     21  H3  UNL     1     -41.565  -2.325   6.163  1.00  0.00     0.189 HD
BRANCH  20  22
HETATM   22  N4  UNL     1     -43.254  -3.533   5.995  1.00  0.00    -0.343 N 
ATOM     23  H42 UNL     1     -43.560  -4.440   5.643  1.00  0.00     0.176 HD
ATOM     24  H41 UNL     1     -43.881  -2.979   6.579  1.00  0.00     0.176 HD
ENDBRANCH  20  22
ENDBRANCH   9  18
TORSDOF 4
ENDMDL
MODEL 5
REMARK VINA RESULT: -6.076885959      2.417      5.938
REMARK  4 active torsions:
REMARK  status: ('A' for Active; 'I' for Inactive)
REMARK    1  A    between atoms: C2_2  and  N1_5 
REMARK       I    between atoms: N1_5  and  C5_7 
REMARK    2  A    between atoms: C5_7  and  C6_9 
REMARK    3  A    between atoms: C11_17  and  C12_18 
REMARK       I    between atoms: C12_18  and  N3_20 
REMARK    4  A    between atoms: N3_20  and  N4_22 
ROOT
HETATM    1  C6  UNL     1     -41.252  -2.109   1.657  1.00  0.00     0.102 C 
HETATM    2 BR1  UNL     1     -39.732  -1.875   2.805  1.00  0.00    -0.043 Br
HETATM    3  C7  UNL     1     -41.146  -2.045   0.347  1.00  0.00     0.045 C 
HETATM    4  N2  UNL     1     -42.298  -2.219  -0.459  1.00  0.00    -0.371 N 
ATOM      5  H2  UNL     1     -43.206  -1.981  -0.059  1.00  0.00     0.164 HD
HETATM    6  C8  UNL     1     -42.265  -2.658  -1.661  1.00  0.00     0.061 C 
HETATM    7  C9  UNL     1     -40.941  -3.003  -2.236  1.00  0.00     0.046 C 
HETATM    8  C10 UNL     1     -39.962  -1.939  -1.826  1.00  0.00     0.025 C 
HETATM    9  C11 UNL     1     -39.860  -1.793  -0.334  1.00  0.00     0.131 C 
ENDROOT
BRANCH   1  10
HETATM   10  C5  UNL     1     -42.522  -2.355   2.326  1.00  0.00     0.261 C 
HETATM   11  N1  UNL     1     -42.989  -1.563   3.379  1.00  0.00    -0.348 N 
ATOM     12  H1  UNL     1     -42.414  -0.780   3.691  1.00  0.00     0.163 HD
HETATM   13  O1  UNL     1     -43.218  -3.320   1.932  1.00  0.00    -0.267 OA
BRANCH  11  14
HETATM   14  C2  UNL     1     -44.236  -1.800   4.040  1.00  0.00     0.022 C 
HETATM   15  C1  UNL     1     -44.312  -0.862   5.238  1.00  0.00     0.037 C 
HETATM   16  C3  UNL     1     -45.409  -1.452   3.146  1.00  0.00     0.037 C 
HETATM   17  C4  UNL     1     -44.423  -3.226   4.490  1.00  0.00     0.037 C 
ENDBRANCH  11  14
ENDBRANCH   1  10
BRANCH   9  18
HETATM   18  C12 UNL     1     -38.718  -2.557   0.163  1.00  0.00     0.245 C 
HETATM   19  O2  UNL     1     -38.739  -3.835   0.086  1.00  0.00    -0.271 OA
HETATM   20  N3  UNL     1     -37.565  -1.984   0.740  1.00  0.00    -0.276 N 
ATOM     21  H3  UNL     1     -37.511  -0.968   0.818  1.00  0.00     0.189 HD
BRANCH  20  22
HETATM   22  N4  UNL     1     -36.500  -2.748   1.206  1.00  0.00    -0.343 N 
ATOM     23  H42 UNL     1     -36.414  -3.702   0.856  1.00  0.00     0.176 HD
ATOM     24  H41 UNL     1     -35.818  -2.390   1.874  1.00  0.00     0.176 HD
ENDBRANCH  20  22
ENDBRANCH   9  18
TORSDOF 4
ENDMDL
