MODEL 1
REMARK VINA RESULT: -6.142323480      0.000      0.000
REMARK  5 active torsions:
REMARK  status: ('A' for Active; 'I' for Inactive)
REMARK    1  A    between atoms: C2_2  and  N1_4 
REMARK    2  A    between atoms: N1_4  and  C4_6 
REMARK    3  A    between atoms: C4_6  and  N2_8 
REMARK    4  A    between atoms: N2_8  and  N3_10 
REMARK       I    between atoms: N3_10  and  C5_12 
REMARK    5  A    between atoms: C5_12  and  C6_14 
ROOT
HETATM    1  C6  UNL     1     -41.135  -2.285   0.945  1.00  0.00     0.106 A 
HETATM    2  C7  UNL     1     -42.192  -2.195   0.002  1.00  0.00     0.057 A 
HETATM    3  C8  UNL     1     -41.676  -2.572  -1.210  1.00  0.00     0.051 A 
HETATM    4 BR1  UNL     1     -42.579  -2.681  -2.908  1.00  0.00    -0.048 Br
HETATM    5  C9  UNL     1     -40.348  -2.884  -1.031  1.00  0.00     0.134 A 
HETATM    6  C10 UNL     1     -39.430  -3.329  -2.050  1.00  0.00     0.119 C 
HETATM    7  N4  UNL     1     -38.685  -3.693  -2.859  1.00  0.00    -0.190 NA
HETATM    8  N5  UNL     1     -40.044  -2.699   0.295  1.00  0.00    -0.337 N 
HETATM    9  C11 UNL     1     -38.712  -2.930   0.806  1.00  0.00     0.157 C 
ENDROOT
BRANCH   1  10
HETATM   10  C5  UNL     1     -41.306  -1.942   2.328  1.00  0.00     0.286 C 
HETATM   11  N3  UNL     1     -41.511  -2.835   3.391  1.00  0.00    -0.262 N 
ATOM     12  H3  UNL     1     -41.556  -3.837   3.206  1.00  0.00     0.190 HD
HETATM   13  O1  UNL     1     -41.270  -0.681   2.628  1.00  0.00    -0.264 OA
BRANCH  11  14
HETATM   14  N2  UNL     1     -41.658  -2.359   4.715  1.00  0.00    -0.274 N 
ATOM     15  H2  UNL     1     -40.841  -2.189   5.302  1.00  0.00     0.189 HD
BRANCH  14  16
HETATM   16  C4  UNL     1     -42.957  -2.125   5.206  1.00  0.00     0.186 C 
HETATM   17  S1  UNL     1     -43.478  -2.967   6.520  1.00  0.00    -0.040 SA
BRANCH  16  18
HETATM   18  N1  UNL     1     -43.812  -1.179   4.583  1.00  0.00    -0.362 N 
ATOM     19  H1  UNL     1     -43.561  -0.191   4.550  1.00  0.00     0.162 HD
BRANCH  18  20
HETATM   20  C2  UNL     1     -45.064  -1.653   3.988  1.00  0.00     0.076 C 
HETATM   21  C1  UNL     1     -44.989  -1.542   2.488  1.00  0.00     0.032 C 
HETATM   22  C3  UNL     1     -46.235  -0.823   4.473  1.00  0.00     0.032 C 
ENDBRANCH  18  20
ENDBRANCH  16  18
ENDBRANCH  14  16
ENDBRANCH  11  14
ENDBRANCH   1  10
TORSDOF 5
ENDMDL
MODEL 2
REMARK VINA RESULT: -6.138435240      0.895      1.140
REMARK  5 active torsions:
REMARK  status: ('A' for Active; 'I' for Inactive)
REMARK    1  A    between atoms: C2_2  and  N1_4 
REMARK    2  A    between atoms: N1_4  and  C4_6 
REMARK    3  A    between atoms: C4_6  and  N2_8 
REMARK    4  A    between atoms: N2_8  and  N3_10 
REMARK       I    between atoms: N3_10  and  C5_12 
REMARK    5  A    between atoms: C5_12  and  C6_14 
ROOT
HETATM    1  C6  UNL     1     -40.987  -2.487   0.842  1.00  0.00     0.106 A 
HETATM    2  C7  UNL     1     -42.061  -2.362  -0.077  1.00  0.00     0.057 A 
HETATM    3  C8  UNL     1     -41.559  -2.659  -1.317  1.00  0.00     0.051 A 
HETATM    4 BR1  UNL     1     -42.488  -2.685  -3.004  1.00  0.00    -0.048 Br
HETATM    5  C9  UNL     1     -40.224  -2.956  -1.178  1.00  0.00     0.134 A 
HETATM    6  C10 UNL     1     -39.315  -3.325  -2.235  1.00  0.00     0.119 C 
HETATM    7  N4  UNL     1     -38.578  -3.628  -3.076  1.00  0.00    -0.190 NA
HETATM    8  N5  UNL     1     -39.901  -2.843   0.152  1.00  0.00    -0.337 N 
HETATM    9  C11 UNL     1     -38.556  -3.079   0.627  1.00  0.00     0.157 C 
ENDROOT
BRANCH   1  10
HETATM   10  C5  UNL     1     -41.140  -2.228   2.245  1.00  0.00     0.286 C 
HETATM   11  N3  UNL     1     -41.352  -3.181   3.252  1.00  0.00    -0.262 N 
ATOM     12  H3  UNL     1     -41.415  -4.169   3.007  1.00  0.00     0.190 HD
HETATM   13  O1  UNL     1     -41.080  -0.989   2.623  1.00  0.00    -0.264 OA
BRANCH  11  14
HETATM   14  N2  UNL     1     -41.479  -2.786   4.605  1.00  0.00    -0.274 N 
ATOM     15  H2  UNL     1     -40.718  -2.302   5.081  1.00  0.00     0.189 HD
BRANCH  14  16
HETATM   16  C4  UNL     1     -42.681  -3.075   5.280  1.00  0.00     0.186 C 
HETATM   17  S1  UNL     1     -42.761  -2.833   6.906  1.00  0.00    -0.040 SA
BRANCH  16  18
HETATM   18  N1  UNL     1     -43.811  -3.569   4.579  1.00  0.00    -0.362 N 
ATOM     19  H1  UNL     1     -43.853  -4.542   4.277  1.00  0.00     0.162 HD
BRANCH  18  20
HETATM   20  C2  UNL     1     -44.916  -2.650   4.295  1.00  0.00     0.076 C 
HETATM   21  C1  UNL     1     -46.230  -3.359   4.488  1.00  0.00     0.032 C 
HETATM   22  C3  UNL     1     -44.845  -2.149   2.867  1.00  0.00     0.032 C 
ENDBRANCH  18  20
ENDBRANCH  16  18
ENDBRANCH  14  16
ENDBRANCH  11  14
ENDBRANCH   1  10
TORSDOF 5
ENDMDL
MODEL 3
REMARK VINA RESULT: -6.050661728      1.636      1.978
REMARK  5 active torsions:
REMARK  status: ('A' for Active; 'I' for Inactive)
REMARK    1  A    between atoms: C2_2  and  N1_4 
REMARK    2  A    between atoms: N1_4  and  C4_6 
REMARK    3  A    between atoms: C4_6  and  N2_8 
REMARK    4  A    between atoms: N2_8  and  N3_10 
REMARK       I    between atoms: N3_10  and  C5_12 
REMARK    5  A    between atoms: C5_12  and  C6_14 
ROOT
HETATM    1  C6  UNL     1     -40.618  -2.449   0.844  1.00  0.00     0.106 A 
HETATM    2  C7  UNL     1     -41.772  -2.320   0.027  1.00  0.00     0.057 A 
HETATM    3  C8  UNL     1     -41.392  -2.640  -1.250  1.00  0.00     0.051 A 
HETATM    4 BR1  UNL     1     -42.475  -2.675  -2.842  1.00  0.00    -0.048 Br
HETATM    5  C9  UNL     1     -40.053  -2.954  -1.231  1.00  0.00     0.134 A 
HETATM    6  C10 UNL     1     -39.252  -3.349  -2.364  1.00  0.00     0.119 C 
HETATM    7  N4  UNL     1     -38.601  -3.673  -3.266  1.00  0.00    -0.190 NA
HETATM    8  N5  UNL     1     -39.606  -2.828   0.061  1.00  0.00    -0.337 N 
HETATM    9  C11 UNL     1     -38.226  -3.077   0.412  1.00  0.00     0.157 C 
ENDROOT
BRANCH   1  10
HETATM   10  C5  UNL     1     -40.636  -2.170   2.252  1.00  0.00     0.286 C 
HETATM   11  N3  UNL     1     -40.270  -3.049   3.282  1.00  0.00    -0.262 N 
ATOM     12  H3  UNL     1     -39.958  -3.993   3.053  1.00  0.00     0.190 HD
HETATM   13  O1  UNL     1     -41.032  -0.988   2.610  1.00  0.00    -0.264 OA
BRANCH  11  14
HETATM   14  N2  UNL     1     -40.329  -2.638   4.635  1.00  0.00    -0.274 N 
ATOM     15  H2  UNL     1     -39.997  -1.715   4.915  1.00  0.00     0.189 HD
BRANCH  14  16
HETATM   16  C4  UNL     1     -40.855  -3.533   5.587  1.00  0.00     0.186 C 
HETATM   17  S1  UNL     1     -39.882  -4.075   6.798  1.00  0.00    -0.040 SA
BRANCH  16  18
HETATM   18  N1  UNL     1     -42.204  -3.968   5.511  1.00  0.00    -0.362 N 
ATOM     19  H1  UNL     1     -42.431  -4.962   5.500  1.00  0.00     0.162 HD
BRANCH  18  20
HETATM   20  C2  UNL     1     -43.263  -2.958   5.448  1.00  0.00     0.076 C 
HETATM   21  C1  UNL     1     -44.315  -3.257   6.483  1.00  0.00     0.032 C 
HETATM   22  C3  UNL     1     -43.920  -2.953   4.083  1.00  0.00     0.032 C 
ENDBRANCH  18  20
ENDBRANCH  16  18
ENDBRANCH  14  16
ENDBRANCH  11  14
ENDBRANCH   1  10
TORSDOF 5
ENDMDL
MODEL 4
REMARK VINA RESULT: -6.007853333      1.777      2.986
REMARK  5 active torsions:
REMARK  status: ('A' for Active; 'I' for Inactive)
REMARK    1  A    between atoms: C2_2  and  N1_4 
REMARK    2  A    between atoms: N1_4  and  C4_6 
REMARK    3  A    between atoms: C4_6  and  N2_8 
REMARK    4  A    between atoms: N2_8  and  N3_10 
REMARK       I    between atoms: N3_10  and  C5_12 
REMARK    5  A    between atoms: C5_12  and  C6_14 
ROOT
HETATM    1  C6  UNL     1     -41.304  -2.260   0.955  1.00  0.00     0.106 A 
HETATM    2  C7  UNL     1     -42.314  -2.165  -0.037  1.00  0.00     0.057 A 
HETATM    3  C8  UNL     1     -41.741  -2.541  -1.224  1.00  0.00     0.051 A 
HETATM    4 BR1  UNL     1     -42.561  -2.644  -2.964  1.00  0.00    -0.048 Br
HETATM    5  C9  UNL     1     -40.425  -2.858  -0.982  1.00  0.00     0.134 A 
HETATM    6  C10 UNL     1     -39.459  -3.304  -1.956  1.00  0.00     0.119 C 
HETATM    7  N4  UNL     1     -38.678  -3.669  -2.729  1.00  0.00    -0.190 NA
HETATM    8  N5  UNL     1     -40.184  -2.676   0.358  1.00  0.00    -0.337 N 
HETATM    9  C11 UNL     1     -38.879  -2.913   0.932  1.00  0.00     0.157 C 
ENDROOT
BRANCH   1  10
HETATM   10  C5  UNL     1     -41.540  -1.919   2.330  1.00  0.00     0.286 C 
HETATM   11  N3  UNL     1     -42.200  -2.708   3.284  1.00  0.00    -0.262 N 
ATOM     12  H3  UNL     1     -42.569  -3.620   3.017  1.00  0.00     0.190 HD
HETATM   13  O1  UNL     1     -41.103  -0.766   2.731  1.00  0.00    -0.264 OA
BRANCH  11  14
HETATM   14  N2  UNL     1     -42.358  -2.250   4.614  1.00  0.00    -0.274 N 
ATOM     15  H2  UNL     1     -42.537  -1.265   4.808  1.00  0.00     0.189 HD
BRANCH  14  16
HETATM   16  C4  UNL     1     -42.262  -3.184   5.662  1.00  0.00     0.186 C 
HETATM   17  S1  UNL     1     -43.104  -2.917   7.051  1.00  0.00    -0.040 SA
BRANCH  16  18
HETATM   18  N1  UNL     1     -41.452  -4.342   5.535  1.00  0.00    -0.362 N 
ATOM     19  H1  UNL     1     -41.868  -5.250   5.326  1.00  0.00     0.162 HD
BRANCH  18  20
HETATM   20  C2  UNL     1     -40.004  -4.207   5.710  1.00  0.00     0.076 C 
HETATM   21  C1  UNL     1     -39.304  -4.485   4.407  1.00  0.00     0.032 C 
HETATM   22  C3  UNL     1     -39.495  -5.188   6.747  1.00  0.00     0.032 C 
ENDBRANCH  18  20
ENDBRANCH  16  18
ENDBRANCH  14  16
ENDBRANCH  11  14
ENDBRANCH   1  10
TORSDOF 5
ENDMDL
MODEL 5
REMARK VINA RESULT: -5.915783744      3.146      6.884
REMARK  5 active torsions:
REMARK  status: ('A' for Active; 'I' for Inactive)
REMARK    1  A    between atoms: C2_2  and  N1_4 
REMARK    2  A    between atoms: N1_4  and  C4_6 
REMARK    3  A    between atoms: C4_6  and  N2_8 
REMARK    4  A    between atoms: N2_8  and  N3_10 
REMARK       I    between atoms: N3_10  and  C5_12 
REMARK    5  A    between atoms: C5_12  and  C6_14 
ROOT
HETATM    1  C6  UNL     1     -42.980  -2.249   2.190  1.00  0.00     0.106 A 
HETATM    2  C7  UNL     1     -44.150  -1.452   2.297  1.00  0.00     0.057 A 
HETATM    3  C8  UNL     1     -44.651  -1.649   3.557  1.00  0.00     0.051 A 
HETATM    4 BR1  UNL     1     -46.218  -0.861   4.353  1.00  0.00    -0.048 Br
HETATM    5  C9  UNL     1     -43.827  -2.536   4.211  1.00  0.00     0.134 A 
HETATM    6  C10 UNL     1     -43.989  -3.017   5.560  1.00  0.00     0.119 C 
HETATM    7  N4  UNL     1     -44.107  -3.404   6.646  1.00  0.00    -0.190 NA
HETATM    8  N5  UNL     1     -42.815  -2.887   3.352  1.00  0.00    -0.337 N 
HETATM    9  C11 UNL     1     -41.785  -3.823   3.739  1.00  0.00     0.157 C 
ENDROOT
BRANCH   1  10
HETATM   10  C5  UNL     1     -42.197  -2.310   0.989  1.00  0.00     0.286 C 
HETATM   11  N3  UNL     1     -40.915  -1.773   0.800  1.00  0.00    -0.262 N 
ATOM     12  H3  UNL     1     -40.458  -1.276   1.565  1.00  0.00     0.190 HD
HETATM   13  O1  UNL     1     -42.725  -2.921  -0.025  1.00  0.00    -0.264 OA
BRANCH  11  14
HETATM   14  N2  UNL     1     -40.250  -1.913  -0.441  1.00  0.00    -0.274 N 
ATOM     15  H2  UNL     1     -40.501  -1.327  -1.237  1.00  0.00     0.189 HD
BRANCH  14  16
HETATM   16  C4  UNL     1     -39.232  -2.880  -0.553  1.00  0.00     0.186 C 
HETATM   17  S1  UNL     1     -38.132  -3.027   0.663  1.00  0.00    -0.040 SA
BRANCH  16  18
HETATM   18  N1  UNL     1     -39.147  -3.720  -1.693  1.00  0.00    -0.362 N 
ATOM     19  H1  UNL     1     -38.861  -4.695  -1.602  1.00  0.00     0.162 HD
BRANCH  18  20
HETATM   20  C2  UNL     1     -39.478  -3.157  -3.004  1.00  0.00     0.076 C 
HETATM   21  C1  UNL     1     -40.885  -3.536  -3.382  1.00  0.00     0.032 C 
HETATM   22  C3  UNL     1     -38.537  -3.685  -4.068  1.00  0.00     0.032 C 
ENDBRANCH  18  20
ENDBRANCH  16  18
ENDBRANCH  14  16
ENDBRANCH  11  14
ENDBRANCH   1  10
TORSDOF 5
ENDMDL
