MODEL 1
REMARK VINA RESULT: -6.517151697      0.000      0.000
REMARK  4 active torsions:
REMARK  status: ('A' for Active; 'I' for Inactive)
REMARK    1  A    between atoms: C8_9  and  O2_10 
REMARK    2  A    between atoms: O2_10  and  C9_11 
REMARK    3  A    between atoms: C13_16  and  O3_17 
REMARK    4  A    between atoms: C14_19  and  O4_20 
ROOT
HETATM    1  C1  UNL     1     -42.915  -3.755   4.713  1.00  0.00     0.020 C 
HETATM    2  C2  UNL     1     -43.991  -2.865   5.287  1.00  0.00     0.011 C 
HETATM    3  C3  UNL     1     -44.054  -2.989   6.765  1.00  0.00     0.016 C 
HETATM    4  C4  UNL     1     -45.348  -2.577   7.381  1.00  0.00     0.027 C 
HETATM    5  C5  UNL     1     -46.539  -2.794   6.489  1.00  0.00     0.168 C 
HETATM    6  O1  UNL     1     -46.288  -2.422   5.171  1.00  0.00    -0.385 OA
HETATM    7  C6  UNL     1     -45.291  -3.201   4.615  1.00  0.00     0.134 C 
HETATM    8  C7  UNL     1     -45.031  -2.683   3.214  1.00  0.00     0.067 C 
HETATM    9  C8  UNL     1     -44.457  -1.329   3.468  1.00  0.00     0.154 C 
HETATM   10  C14 UNL     1     -43.729  -1.461   4.800  1.00  0.00     0.158 C 
ENDROOT
BRANCH   9  11
HETATM   11  O2  UNL     1     -43.510  -1.058   2.510  1.00  0.00    -0.375 OA
BRANCH  11  12
HETATM   12  C9  UNL     1     -43.307  -1.994   1.558  1.00  0.00     0.159 C 
HETATM   13  C10 UNL     1     -43.667  -1.623   0.159  1.00  0.00     0.081 C 
HETATM   14  C11 UNL     1     -42.745  -2.375  -0.720  1.00  0.00    -0.010 C 
HETATM   15 BR1  UNL     1     -43.071  -2.566  -2.612  1.00  0.00    -0.056 Br
HETATM   16  C12 UNL     1     -41.757  -2.837  -0.015  1.00  0.00     0.022 C 
HETATM   17  C13 UNL     1     -41.889  -2.462   1.405  1.00  0.00     0.171 C 
BRANCH  17  18
HETATM   18  O3  UNL     1     -40.964  -1.453   1.660  1.00  0.00    -0.389 OA
ATOM     19  H3  UNL     1     -41.335  -0.584   1.560  1.00  0.00     0.210 HD
ENDBRANCH  17  18
ENDBRANCH  11  12
ENDBRANCH   9  11
BRANCH  10  20
HETATM   20  O4  UNL     1     -44.171  -0.536   5.733  1.00  0.00    -0.392 OA
ATOM     21  H4  UNL     1     -43.990   0.347   5.435  1.00  0.00     0.210 HD
ENDBRANCH  10  20
TORSDOF 4
ENDMDL
MODEL 2
REMARK VINA RESULT: -6.387890665      2.232      3.558
REMARK  4 active torsions:
REMARK  status: ('A' for Active; 'I' for Inactive)
REMARK    1  A    between atoms: C8_9  and  O2_10 
REMARK    2  A    between atoms: O2_10  and  C9_11 
REMARK    3  A    between atoms: C13_16  and  O3_17 
REMARK    4  A    between atoms: C14_19  and  O4_20 
ROOT
HETATM    1  C1  UNL     1     -43.339  -1.274   2.119  1.00  0.00     0.020 C 
HETATM    2  C2  UNL     1     -42.837  -2.111   3.271  1.00  0.00     0.011 C 
HETATM    3  C3  UNL     1     -43.922  -2.959   3.826  1.00  0.00     0.016 C 
HETATM    4  C4  UNL     1     -43.706  -3.430   5.224  1.00  0.00     0.027 C 
HETATM    5  C5  UNL     1     -42.898  -2.480   6.064  1.00  0.00     0.168 C 
HETATM    6  O1  UNL     1     -41.811  -1.953   5.370  1.00  0.00    -0.385 OA
HETATM    7  C6  UNL     1     -42.229  -1.195   4.293  1.00  0.00     0.134 C 
HETATM    8  C7  UNL     1     -40.991  -0.725   3.555  1.00  0.00     0.067 C 
HETATM    9  C8  UNL     1     -40.427  -1.999   3.018  1.00  0.00     0.154 C 
HETATM   10  C14 UNL     1     -41.641  -2.889   2.781  1.00  0.00     0.158 C 
ENDROOT
BRANCH   9  11
HETATM   11  O2  UNL     1     -39.854  -1.753   1.794  1.00  0.00    -0.375 OA
BRANCH  11  12
HETATM   12  C9  UNL     1     -39.998  -2.699   0.842  1.00  0.00     0.159 C 
HETATM   13  C10 UNL     1     -40.660  -2.284  -0.429  1.00  0.00     0.081 C 
HETATM   14  C11 UNL     1     -40.074  -3.124  -1.496  1.00  0.00    -0.010 C 
HETATM   15 BR1  UNL     1     -40.886  -3.267  -3.240  1.00  0.00    -0.056 Br
HETATM   16  C12 UNL     1     -38.995  -3.695  -1.053  1.00  0.00     0.022 C 
HETATM   17  C13 UNL     1     -38.723  -3.316   0.346  1.00  0.00     0.171 C 
BRANCH  17  18
HETATM   18  O3  UNL     1     -37.662  -2.414   0.339  1.00  0.00    -0.389 OA
ATOM     19  H3  UNL     1     -37.936  -1.532   0.118  1.00  0.00     0.210 HD
ENDBRANCH  17  18
ENDBRANCH  11  12
ENDBRANCH   9  11
BRANCH  10  20
HETATM   20  O4  UNL     1     -41.544  -4.098   3.452  1.00  0.00    -0.392 OA
ATOM     21  H4  UNL     1     -41.916  -4.798   2.929  1.00  0.00     0.210 HD
ENDBRANCH  10  20
TORSDOF 4
ENDMDL
MODEL 3
REMARK VINA RESULT: -6.356032920      3.518      6.990
REMARK  4 active torsions:
REMARK  status: ('A' for Active; 'I' for Inactive)
REMARK    1  A    between atoms: C8_9  and  O2_10 
REMARK    2  A    between atoms: O2_10  and  C9_11 
REMARK    3  A    between atoms: C13_16  and  O3_17 
REMARK    4  A    between atoms: C14_19  and  O4_20 
ROOT
HETATM    1  C1  UNL     1     -43.097  -3.139  -2.207  1.00  0.00     0.020 C 
HETATM    2  C2  UNL     1     -41.647  -2.751  -2.046  1.00  0.00     0.011 C 
HETATM    3  C3  UNL     1     -40.900  -2.941  -3.314  1.00  0.00     0.016 C 
HETATM    4  C4  UNL     1     -39.423  -3.078  -3.165  1.00  0.00     0.027 C 
HETATM    5  C5  UNL     1     -39.001  -3.705  -1.865  1.00  0.00     0.168 C 
HETATM    6  O1  UNL     1     -39.731  -3.219  -0.782  1.00  0.00    -0.385 OA
HETATM    7  C6  UNL     1     -41.070  -3.536  -0.903  1.00  0.00     0.134 C 
HETATM    8  C7  UNL     1     -41.798  -2.910   0.270  1.00  0.00     0.067 C 
HETATM    9  C8  UNL     1     -41.654  -1.449   0.001  1.00  0.00     0.154 C 
HETATM   10  C14 UNL     1     -41.609  -1.338  -1.517  1.00  0.00     0.158 C 
ENDROOT
BRANCH   9  11
HETATM   11  O2  UNL     1     -42.790  -0.803   0.425  1.00  0.00    -0.375 OA
BRANCH  11  12
HETATM   12  C9  UNL     1     -43.701  -1.532   1.104  1.00  0.00     0.159 C 
HETATM   13  C10 UNL     1     -43.942  -1.156   2.527  1.00  0.00     0.081 C 
HETATM   14  C11 UNL     1     -45.353  -1.496   2.813  1.00  0.00    -0.010 C 
HETATM   15 BR1  UNL     1     -46.032  -1.592   4.617  1.00  0.00    -0.056 Br
HETATM   16  C12 UNL     1     -45.984  -1.698   1.696  1.00  0.00     0.022 C 
HETATM   17  C13 UNL     1     -45.090  -1.522   0.536  1.00  0.00     0.171 C 
BRANCH  17  18
HETATM   18  O3  UNL     1     -45.412  -0.307  -0.063  1.00  0.00    -0.389 OA
ATOM     19  H3  UNL     1     -44.644   0.216  -0.262  1.00  0.00     0.210 HD
ENDBRANCH  17  18
ENDBRANCH  11  12
ENDBRANCH   9  11
BRANCH  10  20
HETATM   20  O4  UNL     1     -40.469  -0.687  -1.962  1.00  0.00    -0.392 OA
ATOM     21  H4  UNL     1     -39.745  -0.845  -1.369  1.00  0.00     0.210 HD
ENDBRANCH  10  20
TORSDOF 4
ENDMDL
MODEL 4
REMARK VINA RESULT: -6.243073370      3.633      4.785
REMARK  4 active torsions:
REMARK  status: ('A' for Active; 'I' for Inactive)
REMARK    1  A    between atoms: C8_9  and  O2_10 
REMARK    2  A    between atoms: O2_10  and  C9_11 
REMARK    3  A    between atoms: C13_16  and  O3_17 
REMARK    4  A    between atoms: C14_19  and  O4_20 
ROOT
HETATM    1  C1  UNL     1     -41.547  -3.764   3.786  1.00  0.00     0.020 C 
HETATM    2  C2  UNL     1     -40.417  -2.767   3.706  1.00  0.00     0.011 C 
HETATM    3  C3  UNL     1     -39.384  -3.048   4.734  1.00  0.00     0.016 C 
HETATM    4  C4  UNL     1     -38.509  -1.893   5.087  1.00  0.00     0.027 C 
HETATM    5  C5  UNL     1     -39.187  -0.558   4.951  1.00  0.00     0.168 C 
HETATM    6  O1  UNL     1     -39.960  -0.471   3.796  1.00  0.00    -0.385 OA
HETATM    7  C6  UNL     1     -40.995  -1.386   3.820  1.00  0.00     0.134 C 
HETATM    8  C7  UNL     1     -41.736  -1.276   2.502  1.00  0.00     0.067 C 
HETATM    9  C8  UNL     1     -40.725  -1.765   1.518  1.00  0.00     0.154 C 
HETATM   10  C14 UNL     1     -39.894  -2.782   2.291  1.00  0.00     0.158 C 
ENDROOT
BRANCH   9  11
HETATM   11  O2  UNL     1     -41.371  -2.444   0.514  1.00  0.00    -0.375 OA
BRANCH  11  12
HETATM   12  C9  UNL     1     -40.968  -2.208  -0.753  1.00  0.00     0.159 C 
HETATM   13  C10 UNL     1     -40.000  -3.175  -1.345  1.00  0.00     0.081 C 
HETATM   14  C11 UNL     1     -40.272  -3.196  -2.799  1.00  0.00    -0.010 C 
HETATM   15 BR1  UNL     1     -39.025  -3.964  -4.057  1.00  0.00    -0.056 Br
HETATM   16  C12 UNL     1     -41.422  -2.641  -3.032  1.00  0.00     0.022 C 
HETATM   17  C13 UNL     1     -42.059  -2.183  -1.783  1.00  0.00     0.171 C 
BRANCH  17  18
HETATM   18  O3  UNL     1     -43.092  -3.069  -1.488  1.00  0.00    -0.389 OA
ATOM     19  H3  UNL     1     -43.551  -3.365  -2.265  1.00  0.00     0.210 HD
ENDBRANCH  17  18
ENDBRANCH  11  12
ENDBRANCH   9  11
BRANCH  10  20
HETATM   20  O4  UNL     1     -38.542  -2.477   2.273  1.00  0.00    -0.392 OA
ATOM     21  H4  UNL     1     -38.057  -3.087   2.816  1.00  0.00     0.210 HD
ENDBRANCH  10  20
TORSDOF 4
ENDMDL
MODEL 5
REMARK VINA RESULT: -6.177644272      4.599      6.337
REMARK  4 active torsions:
REMARK  status: ('A' for Active; 'I' for Inactive)
REMARK    1  A    between atoms: C8_9  and  O2_10 
REMARK    2  A    between atoms: O2_10  and  C9_11 
REMARK    3  A    between atoms: C13_16  and  O3_17 
REMARK    4  A    between atoms: C14_19  and  O4_20 
ROOT
HETATM    1  C1  UNL     1     -40.011  -4.173   4.758  1.00  0.00     0.020 C 
HETATM    2  C2  UNL     1     -38.574  -4.354   4.331  1.00  0.00     0.011 C 
HETATM    3  C3  UNL     1     -37.929  -5.458   5.084  1.00  0.00     0.016 C 
HETATM    4  C4  UNL     1     -36.439  -5.410   5.128  1.00  0.00     0.027 C 
HETATM    5  C5  UNL     1     -35.878  -4.016   5.076  1.00  0.00     0.168 C 
HETATM    6  O1  UNL     1     -36.536  -3.213   4.148  1.00  0.00    -0.385 OA
HETATM    7  C6  UNL     1     -37.863  -3.041   4.492  1.00  0.00     0.134 C 
HETATM    8  C7  UNL     1     -38.519  -2.223   3.397  1.00  0.00     0.067 C 
HETATM    9  C8  UNL     1     -38.474  -3.149   2.227  1.00  0.00     0.154 C 
HETATM   10  C14 UNL     1     -38.564  -4.544   2.834  1.00  0.00     0.158 C 
ENDROOT
BRANCH   9  11
HETATM   11  O2  UNL     1     -39.601  -2.962   1.464  1.00  0.00    -0.375 OA
BRANCH  11  12
HETATM   12  C9  UNL     1     -39.429  -2.501   0.208  1.00  0.00     0.159 C 
HETATM   13  C10 UNL     1     -38.965  -3.483  -0.815  1.00  0.00     0.081 C 
HETATM   14  C11 UNL     1     -39.539  -3.041  -2.105  1.00  0.00    -0.010 C 
HETATM   15 BR1  UNL     1     -38.899  -3.727  -3.791  1.00  0.00    -0.056 Br
HETATM   16  C12 UNL     1     -40.478  -2.173  -1.885  1.00  0.00     0.022 C 
HETATM   17  C13 UNL     1     -40.653  -1.924  -0.442  1.00  0.00     0.171 C 
BRANCH  17  18
HETATM   18  O3  UNL     1     -41.822  -2.568  -0.043  1.00  0.00    -0.389 OA
ATOM     19  H3  UNL     1     -42.568  -2.335  -0.582  1.00  0.00     0.210 HD
ENDBRANCH  17  18
ENDBRANCH  11  12
ENDBRANCH   9  11
BRANCH  10  20
HETATM   20  O4  UNL     1     -37.500  -5.349   2.457  1.00  0.00    -0.392 OA
ATOM     21  H4  UNL     1     -37.579  -5.595   1.543  1.00  0.00     0.210 HD
ENDBRANCH  10  20
TORSDOF 4
ENDMDL
