MODEL 1
REMARK VINA RESULT: -7.185016041      0.000      0.000
REMARK  4 active torsions:
REMARK  status: ('A' for Active; 'I' for Inactive)
REMARK       I    between atoms: N1_2  and  C2_4 
REMARK    1  A    between atoms: C2_4  and  C3_6 
REMARK    2  A    between atoms: C4_7  and  C5_8 
REMARK       I    between atoms: N2_13  and  C8_14 
REMARK    3  A    between atoms: C8_14  and  O5_16 
REMARK    4  A    between atoms: O5_16  and  C9_17 
ROOT
HETATM    1  C3  UNL     1     -44.342  -2.640   4.305  1.00  0.00     0.102 C 
HETATM    2  C4  UNL     1     -45.823  -2.577   4.178  1.00  0.00     0.106 C 
HETATM    3  C6  UNL     1     -45.688  -1.547   3.042  1.00  0.00     0.029 C 
HETATM    4  C7  UNL     1     -45.702  -2.142   1.653  1.00  0.00     0.137 C 
HETATM    5  N2  UNL     1     -44.404  -1.805   1.095  1.00  0.00    -0.291 N 
HETATM    6  C8  UNL     1     -44.128  -1.611  -0.261  1.00  0.00     0.366 C 
HETATM    7  O4  UNL     1     -44.985  -1.708  -1.180  1.00  0.00    -0.238 OA
HETATM    8  C13 UNL     1     -43.432  -1.698   2.175  1.00  0.00     0.183 C 
HETATM    9  C14 UNL     1     -42.483  -0.550   1.986  1.00  0.00     0.077 C 
HETATM   10  F1  UNL     1     -42.794  -2.921   2.247  1.00  0.00    -0.219 F 
HETATM   11  C15 UNL     1     -44.232  -1.423   3.434  1.00  0.00     0.067 C 
ENDROOT
BRANCH   6  12
HETATM   12  O5  UNL     1     -42.834  -1.286  -0.699  1.00  0.00    -0.294 OA
BRANCH  12  13
HETATM   13  C9  UNL     1     -42.058  -2.178  -1.436  1.00  0.00     0.061 C 
HETATM   14  C10 UNL     1     -42.819  -2.781  -2.611  1.00  0.00     0.046 C 
HETATM   15  C11 UNL     1     -40.911  -1.378  -2.053  1.00  0.00     0.046 C 
HETATM   16  C12 UNL     1     -41.471  -3.296  -0.590  1.00  0.00     0.046 C 
ENDBRANCH  12  13
ENDBRANCH   6  12
BRANCH   2  17
HETATM   17  C5  UNL     1     -46.603  -1.977   5.275  1.00  0.00     0.178 C 
HETATM   18  O2  UNL     1     -46.951  -2.710   6.236  1.00  0.00    -0.648 OA
HETATM   19  O3  UNL     1     -46.982  -0.647   5.320  1.00  0.00    -0.648 OA
ENDBRANCH   2  17
BRANCH   1  20
HETATM   20  C2  UNL     1     -43.736  -2.423   5.625  1.00  0.00     0.222 C 
HETATM   21  N1  UNL     1     -43.797  -3.451   6.589  1.00  0.00    -0.365 N 
HETATM   22  C1  UNL     1     -43.186  -3.205   7.891  1.00  0.00     0.149 C 
ATOM     23  H1  UNL     1     -44.254  -4.340   6.383  1.00  0.00     0.161 HD
HETATM   24  O1  UNL     1     -43.167  -1.352   5.919  1.00  0.00    -0.273 OA
ENDBRANCH   1  20
TORSDOF 4
ENDMDL
MODEL 2
REMARK VINA RESULT: -7.055133046      3.750      7.174
REMARK  4 active torsions:
REMARK  status: ('A' for Active; 'I' for Inactive)
REMARK       I    between atoms: N1_2  and  C2_4 
REMARK    1  A    between atoms: C2_4  and  C3_6 
REMARK    2  A    between atoms: C4_7  and  C5_8 
REMARK       I    between atoms: N2_13  and  C8_14 
REMARK    3  A    between atoms: C8_14  and  O5_16 
REMARK    4  A    between atoms: O5_16  and  C9_17 
ROOT
HETATM    1  C3  UNL     1     -41.956  -2.475   0.310  1.00  0.00     0.102 C 
HETATM    2  C4  UNL     1     -40.978  -2.693  -0.790  1.00  0.00     0.106 C 
HETATM    3  C6  UNL     1     -39.863  -2.071   0.069  1.00  0.00     0.029 C 
HETATM    4  C7  UNL     1     -39.044  -3.072   0.850  1.00  0.00     0.137 C 
HETATM    5  N2  UNL     1     -39.272  -2.727   2.243  1.00  0.00    -0.291 N 
HETATM    6  C8  UNL     1     -38.370  -2.934   3.289  1.00  0.00     0.366 C 
HETATM    7  O4  UNL     1     -37.230  -3.455   3.151  1.00  0.00    -0.238 OA
HETATM    8  C13 UNL     1     -40.593  -2.128   2.377  1.00  0.00     0.183 C 
HETATM    9  C14 UNL     1     -40.604  -0.963   3.325  1.00  0.00     0.077 C 
HETATM   10  F1  UNL     1     -41.446  -3.146   2.760  1.00  0.00    -0.219 F 
HETATM   11  C15 UNL     1     -40.955  -1.598   1.003  1.00  0.00     0.067 C 
ENDROOT
BRANCH   6  12
HETATM   12  O5  UNL     1     -38.688  -2.563   4.606  1.00  0.00    -0.294 OA
BRANCH  12  13
HETATM   13  C9  UNL     1     -39.035  -3.502   5.575  1.00  0.00     0.061 C 
HETATM   14  C10 UNL     1     -37.854  -3.897   6.454  1.00  0.00     0.046 C 
HETATM   15  C11 UNL     1     -40.043  -2.836   6.511  1.00  0.00     0.046 C 
HETATM   16  C12 UNL     1     -39.667  -4.754   4.991  1.00  0.00     0.046 C 
ENDBRANCH  12  13
ENDBRANCH   6  12
BRANCH   2  17
HETATM   17  C5  UNL     1     -41.120  -1.908  -2.029  1.00  0.00     0.178 C 
HETATM   18  O2  UNL     1     -40.453  -0.849  -2.148  1.00  0.00    -0.648 OA
HETATM   19  O3  UNL     1     -41.945  -2.262  -3.082  1.00  0.00    -0.648 OA
ENDBRANCH   2  17
BRANCH   1  20
HETATM   20  C2  UNL     1     -43.201  -1.755   0.016  1.00  0.00     0.222 C 
HETATM   21  N1  UNL     1     -44.120  -2.311  -0.900  1.00  0.00    -0.365 N 
HETATM   22  C1  UNL     1     -45.348  -1.571  -1.171  1.00  0.00     0.149 C 
ATOM     23  H1  UNL     1     -43.932  -3.202  -1.358  1.00  0.00     0.161 HD
HETATM   24  O1  UNL     1     -43.471  -0.661   0.554  1.00  0.00    -0.273 OA
ENDBRANCH   1  20
TORSDOF 4
ENDMDL
MODEL 3
REMARK VINA RESULT: -6.991633137      1.458      1.911
REMARK  4 active torsions:
REMARK  status: ('A' for Active; 'I' for Inactive)
REMARK       I    between atoms: N1_2  and  C2_4 
REMARK    1  A    between atoms: C2_4  and  C3_6 
REMARK    2  A    between atoms: C4_7  and  C5_8 
REMARK       I    between atoms: N2_13  and  C8_14 
REMARK    3  A    between atoms: C8_14  and  O5_16 
REMARK    4  A    between atoms: O5_16  and  C9_17 
ROOT
HETATM    1  C3  UNL     1     -44.491  -2.169   3.602  1.00  0.00     0.102 C 
HETATM    2  C4  UNL     1     -45.734  -1.663   2.961  1.00  0.00     0.106 C 
HETATM    3  C6  UNL     1     -44.914  -1.136   1.770  1.00  0.00     0.029 C 
HETATM    4  C7  UNL     1     -44.828  -2.088   0.600  1.00  0.00     0.137 C 
HETATM    5  N2  UNL     1     -43.412  -2.387   0.473  1.00  0.00    -0.291 N 
HETATM    6  C8  UNL     1     -42.756  -2.720  -0.715  1.00  0.00     0.366 C 
HETATM    7  O4  UNL     1     -43.322  -2.806  -1.839  1.00  0.00    -0.238 OA
HETATM    8  C13 UNL     1     -42.780  -2.281   1.782  1.00  0.00     0.183 C 
HETATM    9  C14 UNL     1     -41.430  -1.627   1.719  1.00  0.00     0.077 C 
HETATM   10  F1  UNL     1     -42.738  -3.562   2.298  1.00  0.00    -0.219 F 
HETATM   11  C15 UNL     1     -43.681  -1.386   2.610  1.00  0.00     0.067 C 
ENDROOT
BRANCH   6  12
HETATM   12  O5  UNL     1     -41.378  -2.992  -0.731  1.00  0.00    -0.294 OA
BRANCH  12  13
HETATM   13  C9  UNL     1     -40.558  -2.590  -1.784  1.00  0.00     0.061 C 
HETATM   14  C10 UNL     1     -40.546  -1.077  -1.969  1.00  0.00     0.046 C 
HETATM   15  C11 UNL     1     -39.126  -2.974  -1.413  1.00  0.00     0.046 C 
HETATM   16  C12 UNL     1     -40.915  -3.254  -3.103  1.00  0.00     0.046 C 
ENDBRANCH  12  13
ENDBRANCH   6  12
BRANCH   2  17
HETATM   17  C5  UNL     1     -46.444  -0.533   3.588  1.00  0.00     0.178 C 
HETATM   18  O2  UNL     1     -46.975   0.330   2.843  1.00  0.00    -0.648 OA
HETATM   19  O3  UNL     1     -46.568  -0.358   4.955  1.00  0.00    -0.648 OA
ENDBRANCH   2  17
BRANCH   1  20
HETATM   20  C2  UNL     1     -44.195  -1.771   4.984  1.00  0.00     0.222 C 
HETATM   21  N1  UNL     1     -44.847  -2.432   6.047  1.00  0.00    -0.365 N 
HETATM   22  C1  UNL     1     -44.532  -2.013   7.408  1.00  0.00     0.149 C 
ATOM     23  H1  UNL     1     -45.517  -3.180   5.869  1.00  0.00     0.161 HD
HETATM   24  O1  UNL     1     -43.381  -0.862   5.246  1.00  0.00    -0.273 OA
ENDBRANCH   1  20
TORSDOF 4
ENDMDL
MODEL 4
REMARK VINA RESULT: -6.931631488      3.068      7.167
REMARK  4 active torsions:
REMARK  status: ('A' for Active; 'I' for Inactive)
REMARK       I    between atoms: N1_2  and  C2_4 
REMARK    1  A    between atoms: C2_4  and  C3_6 
REMARK    2  A    between atoms: C4_7  and  C5_8 
REMARK       I    between atoms: N2_13  and  C8_14 
REMARK    3  A    between atoms: C8_14  and  O5_16 
REMARK    4  A    between atoms: O5_16  and  C9_17 
ROOT
HETATM    1  C3  UNL     1     -41.980  -2.936  -0.165  1.00  0.00     0.102 C 
HETATM    2  C4  UNL     1     -40.644  -2.848  -0.815  1.00  0.00     0.106 C 
HETATM    3  C6  UNL     1     -40.138  -1.953   0.331  1.00  0.00     0.029 C 
HETATM    4  C7  UNL     1     -39.430  -2.696   1.439  1.00  0.00     0.137 C 
HETATM    5  N2  UNL     1     -40.242  -2.457   2.619  1.00  0.00    -0.291 N 
HETATM    6  C8  UNL     1     -39.771  -2.421   3.935  1.00  0.00     0.366 C 
HETATM    7  O4  UNL     1     -38.567  -2.596   4.263  1.00  0.00    -0.238 OA
HETATM    8  C13 UNL     1     -41.627  -2.258   2.216  1.00  0.00     0.183 C 
HETATM    9  C14 UNL     1     -42.302  -1.163   2.990  1.00  0.00     0.077 C 
HETATM   10  F1  UNL     1     -42.253  -3.483   2.352  1.00  0.00    -0.219 F 
HETATM   11  C15 UNL     1     -41.583  -1.826   0.763  1.00  0.00     0.067 C 
ENDROOT
BRANCH   6  12
HETATM   12  O5  UNL     1     -40.642  -2.181   5.010  1.00  0.00    -0.294 OA
BRANCH  12  13
HETATM   13  C9  UNL     1     -41.078  -3.203   5.850  1.00  0.00     0.061 C 
HETATM   14  C10 UNL     1     -40.350  -3.209   7.189  1.00  0.00     0.046 C 
HETATM   15  C11 UNL     1     -42.545  -2.925   6.179  1.00  0.00     0.046 C 
HETATM   16  C12 UNL     1     -40.975  -4.580   5.216  1.00  0.00     0.046 C 
ENDBRANCH  12  13
ENDBRANCH   6  12
BRANCH   2  17
HETATM   17  C5  UNL     1     -40.522  -2.110  -2.086  1.00  0.00     0.178 C 
HETATM   18  O2  UNL     1     -40.410  -2.766  -3.152  1.00  0.00    -0.648 OA
HETATM   19  O3  UNL     1     -40.523  -0.730  -2.184  1.00  0.00    -0.648 OA
ENDBRANCH   2  17
BRANCH   1  20
HETATM   20  C2  UNL     1     -43.172  -2.591  -0.950  1.00  0.00     0.222 C 
HETATM   21  N1  UNL     1     -44.142  -1.734  -0.389  1.00  0.00    -0.365 N 
HETATM   22  C1  UNL     1     -45.316  -1.410  -1.193  1.00  0.00     0.149 C 
ATOM     23  H1  UNL     1     -44.027  -1.352   0.550  1.00  0.00     0.161 HD
HETATM   24  O1  UNL     1     -43.352  -3.036  -2.102  1.00  0.00    -0.273 OA
ENDBRANCH   1  20
TORSDOF 4
ENDMDL
MODEL 5
REMARK VINA RESULT: -6.857516286      1.309      1.401
REMARK  4 active torsions:
REMARK  status: ('A' for Active; 'I' for Inactive)
REMARK       I    between atoms: N1_2  and  C2_4 
REMARK    1  A    between atoms: C2_4  and  C3_6 
REMARK    2  A    between atoms: C4_7  and  C5_8 
REMARK       I    between atoms: N2_13  and  C8_14 
REMARK    3  A    between atoms: C8_14  and  O5_16 
REMARK    4  A    between atoms: O5_16  and  C9_17 
ROOT
HETATM    1  C3  UNL     1     -43.205  -3.290   4.847  1.00  0.00     0.102 C 
HETATM    2  C4  UNL     1     -44.693  -3.267   4.850  1.00  0.00     0.106 C 
HETATM    3  C6  UNL     1     -44.683  -2.077   3.873  1.00  0.00     0.029 C 
HETATM    4  C7  UNL     1     -44.799  -2.463   2.417  1.00  0.00     0.137 C 
HETATM    5  N2  UNL     1     -43.563  -1.997   1.813  1.00  0.00    -0.291 N 
HETATM    6  C8  UNL     1     -43.409  -1.597   0.484  1.00  0.00     0.366 C 
HETATM    7  O4  UNL     1     -44.338  -1.592  -0.369  1.00  0.00    -0.238 OA
HETATM    8  C13 UNL     1     -42.506  -2.011   2.816  1.00  0.00     0.183 C 
HETATM    9  C14 UNL     1     -41.608  -0.811   2.724  1.00  0.00     0.077 C 
HETATM   10  F1  UNL     1     -41.830  -3.206   2.653  1.00  0.00    -0.219 F 
HETATM   11  C15 UNL     1     -43.203  -1.955   4.161  1.00  0.00     0.067 C 
ENDROOT
BRANCH   6  12
HETATM   12  O5  UNL     1     -42.166  -1.160  -0.004  1.00  0.00    -0.294 OA
BRANCH  12  13
HETATM   13  C9  UNL     1     -41.338  -1.986  -0.762  1.00  0.00     0.061 C 
HETATM   14  C10 UNL     1     -42.075  -3.198  -1.319  1.00  0.00     0.046 C 
HETATM   15  C11 UNL     1     -40.887  -1.180  -1.980  1.00  0.00     0.046 C 
HETATM   16  C12 UNL     1     -40.107  -2.451  -0.003  1.00  0.00     0.046 C 
ENDBRANCH  12  13
ENDBRANCH   6  12
BRANCH   2  17
HETATM   17  C5  UNL     1     -45.392  -2.866   6.083  1.00  0.00     0.178 C 
HETATM   18  O2  UNL     1     -45.953  -3.755   6.773  1.00  0.00    -0.648 OA
HETATM   19  O3  UNL     1     -45.474  -1.561   6.539  1.00  0.00    -0.648 OA
ENDBRANCH   2  17
BRANCH   1  20
HETATM   20  C2  UNL     1     -42.495  -3.244   6.131  1.00  0.00     0.222 C 
HETATM   21  N1  UNL     1     -43.226  -3.393   7.329  1.00  0.00    -0.365 N 
HETATM   22  C1  UNL     1     -42.493  -3.342   8.589  1.00  0.00     0.149 C 
ATOM     23  H1  UNL     1     -44.237  -3.532   7.315  1.00  0.00     0.161 HD
HETATM   24  O1  UNL     1     -41.260  -3.077   6.194  1.00  0.00    -0.273 OA
ENDBRANCH   1  20
TORSDOF 4
ENDMDL
