MODEL 1
REMARK VINA RESULT: -7.461318318      0.000      0.000
REMARK  2 active torsions:
REMARK  status: ('A' for Active; 'I' for Inactive)
REMARK    1  A    between atoms: C1_2  and  C2_3 
REMARK    2  A    between atoms: C9_14  and  C10_15 
ROOT
HETATM    1  C2  UNL     1       9.044  81.570   0.414  1.00  0.00     0.084 A 
HETATM    2  N1  UNL     1       9.254  81.444   1.831  1.00  0.00    -0.360 N 
ATOM      3  H1  UNL     1      10.117  81.170   2.302  1.00  0.00     0.162 HD
HETATM    4  C3  UNL     1       8.017  81.779   2.443  1.00  0.00     0.104 A 
HETATM    5  C4  UNL     1       7.537  80.614   3.271  1.00  0.00     0.053 C 
HETATM    6  C5  UNL     1       6.266  80.903   4.006  1.00  0.00     0.004 C 
HETATM    7  C6  UNL     1       6.183  82.267   4.590  1.00  0.00     0.000 C 
HETATM    8  C7  UNL     1       6.663  83.364   3.696  1.00  0.00     0.004 C 
HETATM    9  C8  UNL     1       8.110  83.030   3.311  1.00  0.00     0.053 C 
HETATM   10  N2  UNL     1       7.122  82.093   1.360  1.00  0.00    -0.362 N 
ATOM     11  H2  UNL     1       6.150  82.372   1.495  1.00  0.00     0.162 HD
HETATM   12  C9  UNL     1       7.679  81.983   0.200  1.00  0.00     0.086 A 
ENDROOT
BRANCH  12  13
HETATM   13  C10 UNL     1       6.934  82.269  -1.033  1.00  0.00     0.195 C 
HETATM   14  F2  UNL     1       7.462  83.320  -1.756  1.00  0.00    -0.224 F 
HETATM   15  C11 UNL     1       6.701  81.135  -1.957  1.00  0.00     0.062 C 
HETATM   16  C12 UNL     1       5.740  81.760  -2.985  1.00  0.00     0.015 C 
HETATM   17  C13 UNL     1       4.455  82.039  -2.197  1.00  0.00     0.077 C 
HETATM   18  S1  UNL     1       5.196  82.751  -0.670  1.00  0.00    -0.120 SA
ENDBRANCH  12  13
BRANCH   1  19
HETATM   19  C1  UNL     1       9.927  81.349  -0.537  1.00  0.00     0.219 C 
HETATM   20  F1  UNL     1      11.076  80.712  -0.218  1.00  0.00    -0.217 F 
ENDBRANCH   1  19
TORSDOF 2
ENDMDL
MODEL 2
REMARK VINA RESULT: -6.785984323      3.325      5.315
REMARK  2 active torsions:
REMARK  status: ('A' for Active; 'I' for Inactive)
REMARK    1  A    between atoms: C1_2  and  C2_3 
REMARK    2  A    between atoms: C9_14  and  C10_15 
ROOT
HETATM    1  C2  UNL     1       3.913  82.852   1.891  1.00  0.00     0.084 A 
HETATM    2  N1  UNL     1       2.806  83.200   2.741  1.00  0.00    -0.360 N 
ATOM      3  H1  UNL     1       1.932  83.643   2.458  1.00  0.00     0.162 HD
HETATM    4  C3  UNL     1       3.179  82.803   4.052  1.00  0.00     0.104 A 
HETATM    5  C4  UNL     1       3.155  84.004   4.964  1.00  0.00     0.053 C 
HETATM    6  C5  UNL     1       3.473  83.664   6.387  1.00  0.00     0.004 C 
HETATM    7  C6  UNL     1       2.869  82.396   6.872  1.00  0.00     0.000 C 
HETATM    8  C7  UNL     1       2.952  81.253   5.913  1.00  0.00     0.004 C 
HETATM    9  C8  UNL     1       2.276  81.708   4.613  1.00  0.00     0.053 C 
HETATM   10  N2  UNL     1       4.494  82.232   3.926  1.00  0.00    -0.362 N 
ATOM     11  H2  UNL     1       5.023  81.855   4.713  1.00  0.00     0.162 HD
HETATM   12  C9  UNL     1       4.933  82.246   2.712  1.00  0.00     0.086 A 
ENDROOT
BRANCH  12  13
HETATM   13  C10 UNL     1       6.253  81.699   2.372  1.00  0.00     0.195 C 
HETATM   14  F2  UNL     1       6.239  80.906   1.243  1.00  0.00    -0.224 F 
HETATM   15  C11 UNL     1       7.371  82.664   2.254  1.00  0.00     0.062 C 
HETATM   16  C12 UNL     1       8.582  81.725   2.108  1.00  0.00     0.015 C 
HETATM   17  C13 UNL     1       8.680  81.005   3.458  1.00  0.00     0.077 C 
HETATM   18  S1  UNL     1       6.898  80.623   3.717  1.00  0.00    -0.120 SA
ENDBRANCH  12  13
BRANCH   1  19
HETATM   19  C1  UNL     1       4.001  83.045   0.592  1.00  0.00     0.219 C 
HETATM   20  F1  UNL     1       5.000  83.826   0.120  1.00  0.00    -0.217 F 
ENDBRANCH   1  19
TORSDOF 2
ENDMDL
MODEL 3
REMARK VINA RESULT: -6.735621379      2.736      3.766
REMARK  2 active torsions:
REMARK  status: ('A' for Active; 'I' for Inactive)
REMARK    1  A    between atoms: C1_2  and  C2_3 
REMARK    2  A    between atoms: C9_14  and  C10_15 
ROOT
HETATM    1  C2  UNL     1       6.625  80.972   4.051  1.00  0.00     0.084 A 
HETATM    2  N1  UNL     1       5.749  80.916   5.191  1.00  0.00    -0.360 N 
ATOM      3  H1  UNL     1       5.913  80.420   6.067  1.00  0.00     0.162 HD
HETATM    4  C3  UNL     1       4.609  81.690   4.848  1.00  0.00     0.104 A 
HETATM    5  C4  UNL     1       3.375  80.827   4.927  1.00  0.00     0.053 C 
HETATM    6  C5  UNL     1       2.114  81.581   4.643  1.00  0.00     0.004 C 
HETATM    7  C6  UNL     1       2.061  82.946   5.231  1.00  0.00     0.000 C 
HETATM    8  C7  UNL     1       3.320  83.738   5.093  1.00  0.00     0.004 C 
HETATM    9  C8  UNL     1       4.442  82.916   5.741  1.00  0.00     0.053 C 
HETATM   10  N2  UNL     1       4.857  82.178   3.517  1.00  0.00    -0.362 N 
ATOM     11  H2  UNL     1       4.205  82.770   3.003  1.00  0.00     0.162 HD
HETATM   12  C9  UNL     1       5.993  81.786   3.042  1.00  0.00     0.086 A 
ENDROOT
BRANCH  12  13
HETATM   13  C10 UNL     1       6.436  82.185   1.701  1.00  0.00     0.195 C 
HETATM   14  F2  UNL     1       7.551  82.999   1.715  1.00  0.00    -0.224 F 
HETATM   15  C11 UNL     1       6.660  81.101   0.715  1.00  0.00     0.062 C 
HETATM   16  C12 UNL     1       6.896  81.898  -0.580  1.00  0.00     0.015 C 
HETATM   17  C13 UNL     1       5.551  82.572  -0.873  1.00  0.00     0.077 C 
HETATM   18  S1  UNL     1       5.138  83.152   0.825  1.00  0.00    -0.120 SA
ENDBRANCH  12  13
BRANCH   1  19
HETATM   19  C1  UNL     1       7.798  80.389   3.929  1.00  0.00     0.219 C 
HETATM   20  F1  UNL     1       8.875  81.155   3.644  1.00  0.00    -0.217 F 
ENDBRANCH   1  19
TORSDOF 2
ENDMDL
MODEL 4
REMARK VINA RESULT: -6.699768224      3.161      4.755
REMARK  2 active torsions:
REMARK  status: ('A' for Active; 'I' for Inactive)
REMARK    1  A    between atoms: C1_2  and  C2_3 
REMARK    2  A    between atoms: C9_14  and  C10_15 
ROOT
HETATM    1  C2  UNL     1       7.102  82.377   5.651  1.00  0.00     0.084 A 
HETATM    2  N1  UNL     1       5.859  82.323   6.374  1.00  0.00    -0.360 N 
ATOM      3  H1  UNL     1       5.740  82.265   7.385  1.00  0.00     0.162 HD
HETATM    4  C3  UNL     1       4.833  82.369   5.393  1.00  0.00     0.104 A 
HETATM    5  C4  UNL     1       3.974  81.135   5.512  1.00  0.00     0.053 C 
HETATM    6  C5  UNL     1       2.822  81.130   4.555  1.00  0.00     0.004 C 
HETATM    7  C6  UNL     1       2.152  82.446   4.383  1.00  0.00     0.000 C 
HETATM    8  C7  UNL     1       3.078  83.611   4.256  1.00  0.00     0.004 C 
HETATM    9  C8  UNL     1       3.966  83.619   5.508  1.00  0.00     0.053 C 
HETATM   10  N2  UNL     1       5.510  82.449   4.126  1.00  0.00    -0.362 N 
ATOM     11  H2  UNL     1       5.026  82.496   3.230  1.00  0.00     0.162 HD
HETATM   12  C9  UNL     1       6.796  82.456   4.243  1.00  0.00     0.086 A 
ENDROOT
BRANCH  12  13
HETATM   13  C10 UNL     1       7.669  82.544   3.066  1.00  0.00     0.195 C 
HETATM   14  F2  UNL     1       8.520  83.630   3.098  1.00  0.00    -0.224 F 
HETATM   15  C11 UNL     1       8.460  81.339   2.723  1.00  0.00     0.062 C 
HETATM   16  C12 UNL     1       9.058  81.732   1.361  1.00  0.00     0.015 C 
HETATM   17  C13 UNL     1       7.852  81.826   0.419  1.00  0.00     0.077 C 
HETATM   18  S1  UNL     1       6.691  82.737   1.520  1.00  0.00    -0.120 SA
ENDBRANCH  12  13
BRANCH   1  19
HETATM   19  C1  UNL     1       8.314  82.355   6.164  1.00  0.00     0.219 C 
HETATM   20  F1  UNL     1       9.092  81.272   5.940  1.00  0.00    -0.217 F 
ENDBRANCH   1  19
TORSDOF 2
ENDMDL
MODEL 5
REMARK VINA RESULT: -6.589124868      2.416      3.096
REMARK  2 active torsions:
REMARK  status: ('A' for Active; 'I' for Inactive)
REMARK    1  A    between atoms: C1_2  and  C2_3 
REMARK    2  A    between atoms: C9_14  and  C10_15 
ROOT
HETATM    1  C2  UNL     1       6.840  81.660   3.053  1.00  0.00     0.084 A 
HETATM    2  N1  UNL     1       6.157  81.616   4.319  1.00  0.00    -0.360 N 
ATOM      3  H1  UNL     1       6.558  81.370   5.224  1.00  0.00     0.162 HD
HETATM    4  C3  UNL     1       4.812  81.986   4.052  1.00  0.00     0.104 A 
HETATM    5  C4  UNL     1       3.892  80.871   4.481  1.00  0.00     0.053 C 
HETATM    6  C5  UNL     1       2.445  81.203   4.296  1.00  0.00     0.004 C 
HETATM    7  C6  UNL     1       2.077  82.599   4.650  1.00  0.00     0.000 C 
HETATM    8  C7  UNL     1       3.034  83.642   4.171  1.00  0.00     0.004 C 
HETATM    9  C8  UNL     1       4.412  83.285   4.745  1.00  0.00     0.053 C 
HETATM   10  N2  UNL     1       4.752  82.237   2.636  1.00  0.00    -0.362 N 
ATOM     11  H2  UNL     1       3.903  82.524   2.149  1.00  0.00     0.162 HD
HETATM   12  C9  UNL     1       5.888  82.060   2.046  1.00  0.00     0.086 A 
ENDROOT
BRANCH  12  13
HETATM   13  C10 UNL     1       6.038  82.274   0.601  1.00  0.00     0.195 C 
HETATM   14  F2  UNL     1       7.002  83.211   0.287  1.00  0.00    -0.224 F 
HETATM   15  C11 UNL     1       6.258  81.074  -0.239  1.00  0.00     0.062 C 
HETATM   16  C12 UNL     1       6.153  81.659  -1.658  1.00  0.00     0.015 C 
HETATM   17  C13 UNL     1       4.692  82.102  -1.789  1.00  0.00     0.077 C 
HETATM   18  S1  UNL     1       4.481  82.908  -0.147  1.00  0.00    -0.120 SA
ENDBRANCH  12  13
BRANCH   1  19
HETATM   19  C1  UNL     1       8.107  81.384   2.831  1.00  0.00     0.219 C 
HETATM   20  F1  UNL     1       8.887  82.333   2.266  1.00  0.00    -0.217 F 
ENDBRANCH   1  19
TORSDOF 2
ENDMDL
