MODEL 1
REMARK VINA RESULT: -7.347786440      0.000      0.000
REMARK  0 active torsions:
REMARK  status: ('A' for Active; 'I' for Inactive)
ROOT
HETATM    1  C1  UNL     1       5.500  83.632   2.475  1.00  0.00     0.018 C 
HETATM    2  C2  UNL     1       6.437  82.415   2.293  1.00  0.00    -0.003 C 
HETATM    3  C3  UNL     1       7.819  82.973   2.289  1.00  0.00     0.021 C 
HETATM    4  C4  UNL     1       8.821  82.287   1.481  1.00  0.00     0.003 C 
HETATM    5  C5  UNL     1       8.486  81.646   0.389  1.00  0.00     0.064 C 
HETATM    6  C6  UNL     1       9.473  80.958  -0.427  1.00  0.00     0.101 C 
HETATM    7  N1  UNL     1      10.254  80.413  -1.085  1.00  0.00    -0.191 NA
HETATM    8  C7  UNL     1       7.101  81.633   0.017  1.00  0.00     0.042 C 
HETATM    9  N2  UNL     1       6.769  81.461  -1.218  1.00  0.00    -0.400 N 
ATOM     10  H21 UNL     1       5.784  81.452  -1.482  1.00  0.00     0.156 HD
ATOM     11  H22 UNL     1       7.523  81.339  -1.894  1.00  0.00     0.156 HD
HETATM   12  C8  UNL     1       6.015  81.810   0.992  1.00  0.00     0.153 C 
HETATM   13  C9  UNL     1       4.957  82.589   0.298  1.00  0.00     0.071 C 
HETATM   14  N3  UNL     1       4.145  83.213  -0.239  1.00  0.00    -0.196 NA
HETATM   15  C10 UNL     1       8.402  83.178   3.662  1.00  0.00     0.015 C 
HETATM   16  C11 UNL     1       8.279  81.831   4.387  1.00  0.00     0.080 C 
HETATM   17  C12 UNL     1       6.813  81.716   4.697  1.00  0.00     0.251 C 
HETATM   18  F1  UNL     1       6.522  80.668   5.547  1.00  0.00    -0.205 F 
HETATM   19  F2  UNL     1       6.382  82.859   5.357  1.00  0.00    -0.205 F 
HETATM   20  C13 UNL     1       6.085  81.481   3.399  1.00  0.00     0.028 C 
HETATM   21  C14 UNL     1       4.599  81.676   3.769  1.00  0.00     0.022 C 
HETATM   22  C15 UNL     1       6.197  80.017   3.060  1.00  0.00     0.022 C 
ENDROOT
TORSDOF 0
ENDMDL
MODEL 2
REMARK VINA RESULT: -6.861612925      1.812      4.378
REMARK  0 active torsions:
REMARK  status: ('A' for Active; 'I' for Inactive)
ROOT
HETATM    1  C1  UNL     1       6.757  80.717   1.146  1.00  0.00     0.018 C 
HETATM    2  C2  UNL     1       6.239  81.825   2.094  1.00  0.00    -0.003 C 
HETATM    3  C3  UNL     1       5.307  81.141   3.034  1.00  0.00     0.021 C 
HETATM    4  C4  UNL     1       4.180  81.912   3.545  1.00  0.00     0.003 C 
HETATM    5  C5  UNL     1       3.636  82.868   2.834  1.00  0.00     0.064 C 
HETATM    6  C6  UNL     1       2.512  83.645   3.329  1.00  0.00     0.101 C 
HETATM    7  N1  UNL     1       1.612  84.264   3.714  1.00  0.00    -0.191 NA
HETATM    8  C7  UNL     1       4.191  83.139   1.540  1.00  0.00     0.042 C 
HETATM    9  N2  UNL     1       3.460  83.689   0.629  1.00  0.00    -0.400 N 
ATOM     10  H21 UNL     1       3.855  83.881  -0.291  1.00  0.00     0.156 HD
ATOM     11  H22 UNL     1       2.496  83.912   0.873  1.00  0.00     0.156 HD
HETATM   12  C8  UNL     1       5.581  82.816   1.188  1.00  0.00     0.153 C 
HETATM   13  C9  UNL     1       5.561  82.386  -0.235  1.00  0.00     0.071 C 
HETATM   14  N3  UNL     1       5.537  82.033  -1.336  1.00  0.00    -0.196 NA
HETATM   15  C10 UNL     1       5.988  80.493   4.211  1.00  0.00     0.015 C 
HETATM   16  C11 UNL     1       6.841  81.585   4.869  1.00  0.00     0.080 C 
HETATM   17  C12 UNL     1       7.992  81.770   3.920  1.00  0.00     0.251 C 
HETATM   18  F1  UNL     1       8.998  82.561   4.439  1.00  0.00    -0.205 F 
HETATM   19  F2  UNL     1       8.585  80.543   3.658  1.00  0.00    -0.205 F 
HETATM   20  C13 UNL     1       7.463  82.441   2.680  1.00  0.00     0.028 C 
HETATM   21  C14 UNL     1       8.623  82.316   1.670  1.00  0.00     0.022 C 
HETATM   22  C15 UNL     1       7.365  83.920   2.955  1.00  0.00     0.022 C 
ENDROOT
TORSDOF 0
ENDMDL
MODEL 3
REMARK VINA RESULT: -6.803746124      3.645      5.324
REMARK  0 active torsions:
REMARK  status: ('A' for Active; 'I' for Inactive)
ROOT
HETATM    1  C1  UNL     1       3.783  81.877   2.549  1.00  0.00     0.018 C 
HETATM    2  C2  UNL     1       4.948  82.292   3.479  1.00  0.00    -0.003 C 
HETATM    3  C3  UNL     1       5.247  81.089   4.305  1.00  0.00     0.021 C 
HETATM    4  C4  UNL     1       5.737  81.307   5.661  1.00  0.00     0.003 C 
HETATM    5  C5  UNL     1       5.384  82.367   6.345  1.00  0.00     0.064 C 
HETATM    6  C6  UNL     1       5.864  82.598   7.698  1.00  0.00     0.101 C 
HETATM    7  N1  UNL     1       6.236  82.786   8.778  1.00  0.00    -0.191 NA
HETATM    8  C7  UNL     1       4.508  83.311   5.715  1.00  0.00     0.042 C 
HETATM    9  N2  UNL     1       3.764  84.079   6.437  1.00  0.00    -0.400 N 
ATOM     10  H21 UNL     1       3.141  84.750   5.988  1.00  0.00     0.156 HD
ATOM     11  H22 UNL     1       3.832  83.980   7.450  1.00  0.00     0.156 HD
HETATM   12  C8  UNL     1       4.411  83.453   4.254  1.00  0.00     0.153 C 
HETATM   13  C9  UNL     1       2.985  83.747   3.960  1.00  0.00     0.071 C 
HETATM   14  N3  UNL     1       1.870  83.955   3.733  1.00  0.00    -0.196 NA
HETATM   15  C10 UNL     1       6.169  80.101   3.639  1.00  0.00     0.015 C 
HETATM   16  C11 UNL     1       7.416  80.892   3.222  1.00  0.00     0.080 C 
HETATM   17  C12 UNL     1       6.953  81.709   2.048  1.00  0.00     0.251 C 
HETATM   18  F1  UNL     1       7.989  82.332   1.382  1.00  0.00    -0.205 F 
HETATM   19  F2  UNL     1       6.354  80.882   1.108  1.00  0.00    -0.205 F 
HETATM   20  C13 UNL     1       6.023  82.774   2.566  1.00  0.00     0.028 C 
HETATM   21  C14 UNL     1       5.378  83.353   1.289  1.00  0.00     0.022 C 
HETATM   22  C15 UNL     1       6.862  83.904   3.107  1.00  0.00     0.022 C 
ENDROOT
TORSDOF 0
ENDMDL
MODEL 4
REMARK VINA RESULT: -6.774104548      1.843      2.582
REMARK  0 active torsions:
REMARK  status: ('A' for Active; 'I' for Inactive)
ROOT
HETATM    1  C1  UNL     1       5.324  83.578   4.425  1.00  0.00     0.018 C 
HETATM    2  C2  UNL     1       5.698  82.566   3.317  1.00  0.00    -0.003 C 
HETATM    3  C3  UNL     1       6.712  83.257   2.472  1.00  0.00     0.021 C 
HETATM    4  C4  UNL     1       6.746  82.926   1.052  1.00  0.00     0.003 C 
HETATM    5  C5  UNL     1       5.660  82.562   0.416  1.00  0.00     0.064 C 
HETATM    6  C6  UNL     1       5.678  82.229  -0.999  1.00  0.00     0.101 C 
HETATM    7  N1  UNL     1       5.682  81.968  -2.127  1.00  0.00    -0.191 NA
HETATM    8  C7  UNL     1       4.438  82.491   1.163  1.00  0.00     0.042 C 
HETATM    9  N2  UNL     1       3.306  82.614   0.556  1.00  0.00    -0.400 N 
ATOM     10  H21 UNL     1       2.437  82.563   1.088  1.00  0.00     0.156 HD
ATOM     11  H22 UNL     1       3.328  82.760  -0.453  1.00  0.00     0.156 HD
HETATM   12  C8  UNL     1       4.407  82.281   2.618  1.00  0.00     0.153 C 
HETATM   13  C9  UNL     1       3.271  83.090   3.131  1.00  0.00     0.071 C 
HETATM   14  N3  UNL     1       2.399  83.738   3.528  1.00  0.00    -0.196 NA
HETATM   15  C10 UNL     1       8.120  83.158   2.998  1.00  0.00     0.015 C 
HETATM   16  C11 UNL     1       8.399  81.663   3.200  1.00  0.00     0.080 C 
HETATM   17  C12 UNL     1       7.596  81.305   4.420  1.00  0.00     0.251 C 
HETATM   18  F1  UNL     1       7.883  80.045   4.904  1.00  0.00    -0.205 F 
HETATM   19  F2  UNL     1       7.903  82.177   5.456  1.00  0.00    -0.205 F 
HETATM   20  C13 UNL     1       6.139  81.340   4.040  1.00  0.00     0.028 C 
HETATM   21  C14 UNL     1       5.403  81.261   5.394  1.00  0.00     0.022 C 
HETATM   22  C15 UNL     1       5.805  80.039   3.356  1.00  0.00     0.022 C 
ENDROOT
TORSDOF 0
ENDMDL
MODEL 5
REMARK VINA RESULT: -6.742775159      3.617      5.631
REMARK  0 active torsions:
REMARK  status: ('A' for Active; 'I' for Inactive)
ROOT
HETATM    1  C1  UNL     1       8.095  83.392   3.653  1.00  0.00     0.018 C 
HETATM    2  C2  UNL     1       6.975  82.329   3.751  1.00  0.00    -0.003 C 
HETATM    3  C3  UNL     1       5.697  83.094   3.734  1.00  0.00     0.021 C 
HETATM    4  C4  UNL     1       4.570  82.542   4.477  1.00  0.00     0.003 C 
HETATM    5  C5  UNL     1       4.759  81.816   5.551  1.00  0.00     0.064 C 
HETATM    6  C6  UNL     1       3.646  81.259   6.302  1.00  0.00     0.101 C 
HETATM    7  N1  UNL     1       2.765  80.818   6.910  1.00  0.00    -0.191 NA
HETATM    8  C7  UNL     1       6.109  81.574   5.967  1.00  0.00     0.042 C 
HETATM    9  N2  UNL     1       6.362  81.305   7.204  1.00  0.00    -0.400 N 
ATOM     10  H21 UNL     1       7.323  81.133   7.499  1.00  0.00     0.156 HD
ATOM     11  H22 UNL     1       5.573  81.276   7.848  1.00  0.00     0.156 HD
HETATM   12  C8  UNL     1       7.247  81.616   5.037  1.00  0.00     0.153 C 
HETATM   13  C9  UNL     1       8.385  82.195   5.799  1.00  0.00     0.071 C 
HETATM   14  N3  UNL     1       9.262  82.664   6.390  1.00  0.00    -0.196 NA
HETATM   15  C10 UNL     1       5.207  83.440   2.352  1.00  0.00     0.015 C 
HETATM   16  C11 UNL     1       5.149  82.119   1.574  1.00  0.00     0.080 C 
HETATM   17  C12 UNL     1       6.591  81.789   1.307  1.00  0.00     0.251 C 
HETATM   18  F1  UNL     1       6.751  80.742   0.422  1.00  0.00    -0.205 F 
HETATM   19  F2  UNL     1       7.218  82.875   0.713  1.00  0.00    -0.205 F 
HETATM   20  C13 UNL     1       7.222  81.395   2.617  1.00  0.00     0.028 C 
HETATM   21  C14 UNL     1       8.734  81.370   2.305  1.00  0.00     0.022 C 
HETATM   22  C15 UNL     1       6.873  79.953   2.888  1.00  0.00     0.022 C 
ENDROOT
TORSDOF 0
ENDMDL
