MODEL 1
REMARK VINA RESULT: -5.948956793      0.000      0.000
REMARK  1 active torsions:
REMARK  status: ('A' for Active; 'I' for Inactive)
REMARK    1  A    between atoms: N1_9  and  O2_11 
ROOT
HETATM    1  C1  UNL     1       8.619  83.196   6.607  1.00  0.00     0.016 C 
HETATM    2  C2  UNL     1       7.775  81.973   6.314  1.00  0.00    -0.032 C 
HETATM    3  C3  UNL     1       8.443  80.823   7.064  1.00  0.00     0.016 C 
HETATM    4  C4  UNL     1       6.357  82.172   6.760  1.00  0.00     0.088 C 
HETATM    5  C5  UNL     1       5.370  81.403   5.994  1.00  0.00     0.138 C 
HETATM    6  O1  UNL     1       4.305  81.136   6.486  1.00  0.00    -0.297 OA
HETATM    7  C6  UNL     1       5.610  80.917   4.596  1.00  0.00     0.112 C 
HETATM    8  C7  UNL     1       7.032  80.442   4.574  1.00  0.00     0.027 C 
HETATM    9  N1  UNL     1       7.363  79.234   4.386  1.00  0.00    -0.276 N 
ATOM     10  H1  UNL     1       6.607  78.564   4.246  1.00  0.00     0.193 HD
HETATM   11  C8  UNL     1       7.815  81.674   4.809  1.00  0.00     0.053 C 
HETATM   12  C9  UNL     1       7.013  82.741   4.136  1.00  0.00     0.077 C 
HETATM   13  C10 UNL     1       7.700  83.208   2.884  1.00  0.00     0.248 C 
HETATM   14  F1  UNL     1       8.780  82.410   2.549  1.00  0.00    -0.206 F 
HETATM   15  F2  UNL     1       8.140  84.514   2.974  1.00  0.00    -0.206 F 
HETATM   16  C11 UNL     1       6.671  83.031   1.783  1.00  0.00     0.080 C 
HETATM   17  C12 UNL     1       5.932  81.794   2.269  1.00  0.00     0.017 C 
HETATM   18  C13 UNL     1       5.696  82.127   3.717  1.00  0.00    -0.018 C 
HETATM   19  C14 UNL     1       4.533  83.047   3.931  1.00  0.00     0.017 C 
ENDROOT
BRANCH   9  20
HETATM   20  O2  UNL     1       8.627  78.748   4.356  1.00  0.00    -0.290 OA
ATOM     21  H2  UNL     1       8.883  77.843   4.488  1.00  0.00     0.244 HD
ENDBRANCH   9  20
TORSDOF 1
ENDMDL
MODEL 2
REMARK VINA RESULT: -5.652201036      4.875      6.279
REMARK  1 active torsions:
REMARK  status: ('A' for Active; 'I' for Inactive)
REMARK    1  A    between atoms: N1_9  and  O2_11 
ROOT
HETATM    1  C1  UNL     1      -0.346  82.861   8.102  1.00  0.00     0.016 C 
HETATM    2  C2  UNL     1       1.163  82.771   7.997  1.00  0.00    -0.032 C 
HETATM    3  C3  UNL     1       1.696  83.203   9.361  1.00  0.00     0.016 C 
HETATM    4  C4  UNL     1       1.601  81.379   7.650  1.00  0.00     0.088 C 
HETATM    5  C5  UNL     1       2.871  81.311   6.918  1.00  0.00     0.138 C 
HETATM    6  O1  UNL     1       3.529  80.305   6.954  1.00  0.00    -0.297 OA
HETATM    7  C6  UNL     1       3.414  82.447   6.104  1.00  0.00     0.112 C 
HETATM    8  C7  UNL     1       3.137  83.684   6.905  1.00  0.00     0.027 C 
HETATM    9  N1  UNL     1       4.046  84.418   7.395  1.00  0.00    -0.276 N 
ATOM     10  H1  UNL     1       5.011  84.134   7.225  1.00  0.00     0.193 HD
HETATM   11  C8  UNL     1       1.661  83.759   6.933  1.00  0.00     0.053 C 
HETATM   12  C9  UNL     1       1.250  83.207   5.606  1.00  0.00     0.077 C 
HETATM   13  C10 UNL     1       0.735  84.301   4.715  1.00  0.00     0.248 C 
HETATM   14  F1  UNL     1       0.955  85.559   5.248  1.00  0.00    -0.206 F 
HETATM   15  F2  UNL     1      -0.615  84.177   4.446  1.00  0.00    -0.206 F 
HETATM   16  C11 UNL     1       1.575  84.209   3.455  1.00  0.00     0.080 C 
HETATM   17  C12 UNL     1       2.909  83.755   4.026  1.00  0.00     0.017 C 
HETATM   18  C13 UNL     1       2.486  82.641   4.944  1.00  0.00    -0.018 C 
HETATM   19  C14 UNL     1       2.222  81.352   4.228  1.00  0.00     0.017 C 
ENDROOT
BRANCH   9  20
HETATM   20  O2  UNL     1       3.857  85.543   8.124  1.00  0.00    -0.290 OA
ATOM     21  H2  UNL     1       4.291  85.761   8.941  1.00  0.00     0.244 HD
ENDBRANCH   9  20
TORSDOF 1
ENDMDL
MODEL 3
REMARK VINA RESULT: -5.646257722      3.141      4.729
REMARK  1 active torsions:
REMARK  status: ('A' for Active; 'I' for Inactive)
REMARK    1  A    between atoms: N1_9  and  O2_11 
ROOT
HETATM    1  C1  UNL     1       2.115  80.300   3.763  1.00  0.00     0.016 C 
HETATM    2  C2  UNL     1       3.120  81.172   4.487  1.00  0.00    -0.032 C 
HETATM    3  C3  UNL     1       2.482  81.503   5.834  1.00  0.00     0.016 C 
HETATM    4  C4  UNL     1       4.431  80.462   4.657  1.00  0.00     0.088 C 
HETATM    5  C5  UNL     1       5.595  81.353   4.730  1.00  0.00     0.138 C 
HETATM    6  O1  UNL     1       6.602  80.981   5.273  1.00  0.00    -0.297 OA
HETATM    7  C6  UNL     1       5.609  82.737   4.152  1.00  0.00     0.112 C 
HETATM    8  C7  UNL     1       4.265  83.320   4.471  1.00  0.00     0.027 C 
HETATM    9  N1  UNL     1       4.097  84.313   5.238  1.00  0.00    -0.276 N 
ATOM     10  H1  UNL     1       4.935  84.723   5.653  1.00  0.00     0.193 HD
HETATM   11  C8  UNL     1       3.327  82.475   3.702  1.00  0.00     0.053 C 
HETATM   12  C9  UNL     1       4.095  82.118   2.470  1.00  0.00     0.077 C 
HETATM   13  C10 UNL     1       3.545  82.846   1.276  1.00  0.00     0.248 C 
HETATM   14  F1  UNL     1       2.617  83.809   1.630  1.00  0.00    -0.206 F 
HETATM   15  F2  UNL     1       2.957  81.996   0.359  1.00  0.00    -0.206 F 
HETATM   16  C11 UNL     1       4.733  83.582   0.685  1.00  0.00     0.080 C 
HETATM   17  C12 UNL     1       5.526  83.912   1.939  1.00  0.00     0.017 C 
HETATM   18  C13 UNL     1       5.517  82.594   2.664  1.00  0.00    -0.018 C 
HETATM   19  C14 UNL     1       6.530  81.624   2.139  1.00  0.00     0.017 C 
ENDROOT
BRANCH   9  20
HETATM   20  O2  UNL     1       2.911  84.882   5.561  1.00  0.00    -0.290 OA
ATOM     21  H2  UNL     1       2.053  84.581   5.286  1.00  0.00     0.244 HD
ENDBRANCH   9  20
TORSDOF 1
ENDMDL
MODEL 4
REMARK VINA RESULT: -5.642247638      2.901      4.052
REMARK  1 active torsions:
REMARK  status: ('A' for Active; 'I' for Inactive)
REMARK    1  A    between atoms: N1_9  and  O2_11 
ROOT
HETATM    1  C1  UNL     1       6.837  78.990   3.864  1.00  0.00     0.016 C 
HETATM    2  C2  UNL     1       7.317  80.377   4.237  1.00  0.00    -0.032 C 
HETATM    3  C3  UNL     1       8.540  80.163   5.126  1.00  0.00     0.016 C 
HETATM    4  C4  UNL     1       7.657  81.180   3.016  1.00  0.00     0.088 C 
HETATM    5  C5  UNL     1       7.502  82.629   3.185  1.00  0.00     0.138 C 
HETATM    6  O1  UNL     1       8.118  83.384   2.480  1.00  0.00    -0.297 OA
HETATM    7  C6  UNL     1       6.596  83.246   4.208  1.00  0.00     0.112 C 
HETATM    8  C7  UNL     1       6.761  82.415   5.446  1.00  0.00     0.027 C 
HETATM    9  N1  UNL     1       7.256  82.857   6.524  1.00  0.00    -0.276 N 
ATOM     10  H1  UNL     1       7.552  83.833   6.531  1.00  0.00     0.193 HD
HETATM   11  C8  UNL     1       6.230  81.092   5.051  1.00  0.00     0.053 C 
HETATM   12  C9  UNL     1       5.125  81.420   4.099  1.00  0.00     0.077 C 
HETATM   13  C10 UNL     1       3.788  81.150   4.729  1.00  0.00     0.248 C 
HETATM   14  F1  UNL     1       3.892  80.869   6.080  1.00  0.00    -0.206 F 
HETATM   15  F2  UNL     1       3.115  80.108   4.121  1.00  0.00    -0.206 F 
HETATM   16  C11 UNL     1       3.029  82.459   4.614  1.00  0.00     0.080 C 
HETATM   17  C12 UNL     1       4.159  83.466   4.756  1.00  0.00     0.017 C 
HETATM   18  C13 UNL     1       5.190  82.905   3.817  1.00  0.00    -0.018 C 
HETATM   19  C14 UNL     1       4.924  83.234   2.380  1.00  0.00     0.017 C 
ENDROOT
BRANCH   9  20
HETATM   20  O2  UNL     1       7.428  82.155   7.670  1.00  0.00    -0.290 OA
ATOM     21  H2  UNL     1       7.812  82.483   8.475  1.00  0.00     0.244 HD
ENDBRANCH   9  20
TORSDOF 1
ENDMDL
MODEL 5
REMARK VINA RESULT: -5.545836041      2.378      4.402
REMARK  1 active torsions:
REMARK  status: ('A' for Active; 'I' for Inactive)
REMARK    1  A    between atoms: N1_9  and  O2_11 
ROOT
HETATM    1  C1  UNL     1       3.232  82.977   1.476  1.00  0.00     0.016 C 
HETATM    2  C2  UNL     1       3.194  82.804   2.980  1.00  0.00    -0.032 C 
HETATM    3  C3  UNL     1       1.984  83.605   3.455  1.00  0.00     0.016 C 
HETATM    4  C4  UNL     1       3.080  81.357   3.358  1.00  0.00     0.088 C 
HETATM    5  C5  UNL     1       3.663  81.027   4.663  1.00  0.00     0.138 C 
HETATM    6  O1  UNL     1       3.283  80.054   5.261  1.00  0.00    -0.297 OA
HETATM    7  C6  UNL     1       4.734  81.846   5.318  1.00  0.00     0.112 C 
HETATM    8  C7  UNL     1       4.359  83.276   5.065  1.00  0.00     0.027 C 
HETATM    9  N1  UNL     1       4.042  84.089   5.983  1.00  0.00    -0.276 N 
ATOM     10  H1  UNL     1       4.049  83.732   6.939  1.00  0.00     0.193 HD
HETATM   11  C8  UNL     1       4.463  83.410   3.596  1.00  0.00     0.053 C 
HETATM   12  C9  UNL     1       5.593  82.501   3.234  1.00  0.00     0.077 C 
HETATM   13  C10 UNL     1       6.804  83.297   2.835  1.00  0.00     0.248 C 
HETATM   14  F1  UNL     1       6.653  84.647   3.095  1.00  0.00    -0.206 F 
HETATM   15  F2  UNL     1       7.123  83.147   1.500  1.00  0.00    -0.206 F 
HETATM   16  C11 UNL     1       7.915  82.801   3.743  1.00  0.00     0.080 C 
HETATM   17  C12 UNL     1       7.139  82.490   5.012  1.00  0.00     0.017 C 
HETATM   18  C13 UNL     1       5.966  81.718   4.473  1.00  0.00    -0.018 C 
HETATM   19  C14 UNL     1       6.285  80.284   4.180  1.00  0.00     0.017 C 
ENDROOT
BRANCH   9  20
HETATM   20  O2  UNL     1       3.695  85.387   5.815  1.00  0.00    -0.290 OA
ATOM     21  H2  UNL     1       2.810  85.729   5.767  1.00  0.00     0.244 HD
ENDBRANCH   9  20
TORSDOF 1
ENDMDL
