MODEL 1
REMARK VINA RESULT: -8.410717682      0.000      0.000
REMARK  1 active torsions:
REMARK  status: ('A' for Active; 'I' for Inactive)
REMARK    1  A    between atoms: C14_18  and  N2_19 
ROOT
HETATM    1  C1  UNL     1       6.019  80.691   4.301  1.00  0.00     0.048 C 
HETATM    2  C2  UNL     1       6.603  81.831   3.432  1.00  0.00     0.088 C 
HETATM    3  C3  UNL     1       7.380  82.690   4.415  1.00  0.00     0.048 C 
HETATM    4  O1  UNL     1       7.400  81.185   2.476  1.00  0.00    -0.338 OA
HETATM    5  C4  UNL     1       7.794  81.463   1.177  1.00  0.00     0.087 A 
HETATM    6  C5  UNL     1       9.142  81.209   1.055  1.00  0.00     0.080 A 
HETATM    7  C6  UNL     1       9.835  81.396  -0.125  1.00  0.00     0.122 A 
HETATM    8  F1  UNL     1      11.167  81.129  -0.192  1.00  0.00    -0.206 F 
HETATM    9  C7  UNL     1       9.115  81.857  -1.198  1.00  0.00     0.085 A 
HETATM   10  C8  UNL     1       7.744  82.136  -1.145  1.00  0.00     0.133 A 
HETATM   11  F2  UNL     1       7.124  82.620  -2.227  1.00  0.00    -0.205 F 
HETATM   12  C9  UNL     1       7.097  81.938   0.025  1.00  0.00     0.053 A 
HETATM   13  C10 UNL     1       5.694  82.263  -0.135  1.00  0.00     0.038 C 
HETATM   14  C11 UNL     1       5.048  82.057  -1.398  1.00  0.00     0.096 C 
HETATM   15  N1  UNL     1       4.476  81.870  -2.421  1.00  0.00    -0.192 NA
HETATM   16  C12 UNL     1       5.323  83.590   0.493  1.00  0.00     0.053 C 
HETATM   17  C13 UNL     1       5.852  83.694   1.901  1.00  0.00     0.041 C 
HETATM   18  C14 UNL     1       5.463  82.618   2.829  1.00  0.00     0.217 C 
ENDROOT
BRANCH  18  19
HETATM   19  N2  UNL     1       4.760  83.182   4.015  1.00  0.00    -0.072 N 
ATOM     20  H23 UNL     1       4.996  82.731   4.899  1.00  0.00     0.274 HD
ATOM     21  H22 UNL     1       5.070  84.115   4.285  1.00  0.00     0.274 HD
ATOM     22  H21 UNL     1       3.774  83.123   3.760  1.00  0.00     0.274 HD
ENDBRANCH  18  19
TORSDOF 1
ENDMDL
MODEL 2
REMARK VINA RESULT: -7.421982431      2.371      3.111
REMARK  1 active torsions:
REMARK  status: ('A' for Active; 'I' for Inactive)
REMARK    1  A    between atoms: C14_18  and  N2_19 
ROOT
HETATM    1  C1  UNL     1       2.805  80.952   4.557  1.00  0.00     0.048 C 
HETATM    2  C2  UNL     1       4.038  81.875   4.394  1.00  0.00     0.088 C 
HETATM    3  C3  UNL     1       4.047  82.714   5.660  1.00  0.00     0.048 C 
HETATM    4  O1  UNL     1       5.128  81.001   4.273  1.00  0.00    -0.338 OA
HETATM    5  C4  UNL     1       6.365  81.057   3.650  1.00  0.00     0.087 A 
HETATM    6  C5  UNL     1       7.324  80.583   4.517  1.00  0.00     0.080 A 
HETATM    7  C6  UNL     1       8.664  80.517   4.187  1.00  0.00     0.122 A 
HETATM    8  F1  UNL     1       9.571  80.039   5.082  1.00  0.00    -0.206 F 
HETATM    9  C7  UNL     1       9.015  80.952   2.935  1.00  0.00     0.085 A 
HETATM   10  C8  UNL     1       8.093  81.444   2.003  1.00  0.00     0.133 A 
HETATM   11  F2  UNL     1       8.523  81.886   0.815  1.00  0.00    -0.205 F 
HETATM   12  C9  UNL     1       6.790  81.492   2.358  1.00  0.00     0.053 A 
HETATM   13  C10 UNL     1       6.004  82.010   1.255  1.00  0.00     0.038 C 
HETATM   14  C11 UNL     1       6.409  81.756  -0.096  1.00  0.00     0.096 C 
HETATM   15  N1  UNL     1       6.699  81.539  -1.226  1.00  0.00    -0.192 NA
HETATM   16  C12 UNL     1       5.568  83.444   1.467  1.00  0.00     0.053 C 
HETATM   17  C13 UNL     1       4.962  83.634   2.835  1.00  0.00     0.041 C 
HETATM   18  C14 UNL     1       3.834  82.751   3.180  1.00  0.00     0.217 C 
ENDROOT
BRANCH  18  19
HETATM   19  N2  UNL     1       2.630  83.555   3.527  1.00  0.00    -0.072 N 
ATOM     20  H23 UNL     1       2.109  83.210   4.333  1.00  0.00     0.274 HD
ATOM     21  H22 UNL     1       2.834  84.475   3.917  1.00  0.00     0.274 HD
ATOM     22  H21 UNL     1       2.096  83.576   2.658  1.00  0.00     0.274 HD
ENDBRANCH  18  19
TORSDOF 1
ENDMDL
MODEL 3
REMARK VINA RESULT: -7.159494720      1.546      1.923
REMARK  1 active torsions:
REMARK  status: ('A' for Active; 'I' for Inactive)
REMARK    1  A    between atoms: C14_18  and  N2_19 
ROOT
HETATM    1  C1  UNL     1       7.145  80.153   4.368  1.00  0.00     0.048 C 
HETATM    2  C2  UNL     1       7.199  81.486   3.582  1.00  0.00     0.088 C 
HETATM    3  C3  UNL     1       8.401  82.213   4.159  1.00  0.00     0.048 C 
HETATM    4  O1  UNL     1       7.343  81.107   2.239  1.00  0.00    -0.338 OA
HETATM    5  C4  UNL     1       6.986  81.660   1.020  1.00  0.00     0.087 A 
HETATM    6  C5  UNL     1       8.051  81.560   0.154  1.00  0.00     0.080 A 
HETATM    7  C6  UNL     1       8.007  82.029  -1.145  1.00  0.00     0.122 A 
HETATM    8  F1  UNL     1       9.089  81.904  -1.960  1.00  0.00    -0.206 F 
HETATM    9  C7  UNL     1       6.835  82.614  -1.551  1.00  0.00     0.085 A 
HETATM   10  C8  UNL     1       5.712  82.749  -0.724  1.00  0.00     0.133 A 
HETATM   11  F2  UNL     1       4.621  83.369  -1.186  1.00  0.00    -0.205 F 
HETATM   12  C9  UNL     1       5.790  82.276   0.539  1.00  0.00     0.053 A 
HETATM   13  C10 UNL     1       4.528  82.493   1.218  1.00  0.00     0.038 C 
HETATM   14  C11 UNL     1       3.301  82.469   0.477  1.00  0.00     0.096 C 
HETATM   15  N1  UNL     1       2.266  82.425  -0.101  1.00  0.00    -0.192 NA
HETATM   16  C12 UNL     1       4.582  83.638   2.207  1.00  0.00     0.053 C 
HETATM   17  C13 UNL     1       5.787  83.525   3.107  1.00  0.00     0.041 C 
HETATM   18  C14 UNL     1       5.931  82.262   3.852  1.00  0.00     0.217 C 
ENDROOT
BRANCH  18  19
HETATM   19  N2  UNL     1       5.987  82.525   5.317  1.00  0.00    -0.072 N 
ATOM     20  H23 UNL     1       6.679  83.221   5.595  1.00  0.00     0.274 HD
ATOM     21  H22 UNL     1       5.178  83.024   5.688  1.00  0.00     0.274 HD
ATOM     22  H21 UNL     1       6.133  81.601   5.722  1.00  0.00     0.274 HD
ENDBRANCH  18  19
TORSDOF 1
ENDMDL
MODEL 4
REMARK VINA RESULT: -7.084801719      2.715      4.587
REMARK  1 active torsions:
REMARK  status: ('A' for Active; 'I' for Inactive)
REMARK    1  A    between atoms: C14_18  and  N2_19 
ROOT
HETATM    1  C1  UNL     1       3.661  83.869   5.756  1.00  0.00     0.048 C 
HETATM    2  C2  UNL     1       3.708  82.685   4.760  1.00  0.00     0.088 C 
HETATM    3  C3  UNL     1       2.408  81.938   5.006  1.00  0.00     0.048 C 
HETATM    4  O1  UNL     1       3.801  83.281   3.495  1.00  0.00    -0.338 OA
HETATM    5  C4  UNL     1       4.344  82.913   2.274  1.00  0.00     0.087 A 
HETATM    6  C5  UNL     1       3.442  83.207   1.276  1.00  0.00     0.080 A 
HETATM    7  C6  UNL     1       3.692  82.950  -0.058  1.00  0.00     0.122 A 
HETATM    8  F1  UNL     1       2.766  83.261  -1.005  1.00  0.00    -0.206 F 
HETATM    9  C7  UNL     1       4.901  82.378  -0.362  1.00  0.00     0.085 A 
HETATM   10  C8  UNL     1       5.865  82.054   0.602  1.00  0.00     0.133 A 
HETATM   11  F2  UNL     1       7.003  81.460   0.226  1.00  0.00    -0.205 F 
HETATM   12  C9  UNL     1       5.588  82.321   1.897  1.00  0.00     0.053 A 
HETATM   13  C10 UNL     1       6.712  81.932   2.725  1.00  0.00     0.038 C 
HETATM   14  C11 UNL     1       8.047  82.012   2.206  1.00  0.00     0.096 C 
HETATM   15  N1  UNL     1       9.165  82.094   1.819  1.00  0.00    -0.192 NA
HETATM   16  C12 UNL     1       6.465  80.648   3.487  1.00  0.00     0.053 C 
HETATM   17  C13 UNL     1       5.129  80.677   4.187  1.00  0.00     0.041 C 
HETATM   18  C14 UNL     1       4.893  81.810   5.098  1.00  0.00     0.217 C 
ENDROOT
BRANCH  18  19
HETATM   19  N2  UNL     1       4.585  81.318   6.471  1.00  0.00    -0.072 N 
ATOM     20  H23 UNL     1       4.738  82.005   7.209  1.00  0.00     0.274 HD
ATOM     21  H22 UNL     1       3.592  81.180   6.657  1.00  0.00     0.274 HD
ATOM     22  H21 UNL     1       5.150  80.474   6.556  1.00  0.00     0.274 HD
ENDBRANCH  18  19
TORSDOF 1
ENDMDL
MODEL 5
REMARK VINA RESULT: -7.058201652      3.309      5.119
REMARK  1 active torsions:
REMARK  status: ('A' for Active; 'I' for Inactive)
REMARK    1  A    between atoms: C14_18  and  N2_19 
ROOT
HETATM    1  C1  UNL     1       2.525  83.417   6.376  1.00  0.00     0.048 C 
HETATM    2  C2  UNL     1       3.043  82.394   5.337  1.00  0.00     0.088 C 
HETATM    3  C3  UNL     1       2.034  81.259   5.394  1.00  0.00     0.048 C 
HETATM    4  O1  UNL     1       3.059  83.091   4.120  1.00  0.00    -0.338 OA
HETATM    5  C4  UNL     1       3.804  83.014   2.955  1.00  0.00     0.087 A 
HETATM    6  C5  UNL     1       2.955  83.091   1.874  1.00  0.00     0.080 A 
HETATM    7  C6  UNL     1       3.399  83.036   0.567  1.00  0.00     0.122 A 
HETATM    8  F1  UNL     1       2.516  83.118  -0.465  1.00  0.00    -0.206 F 
HETATM    9  C7  UNL     1       4.751  82.899   0.379  1.00  0.00     0.085 A 
HETATM   10  C8  UNL     1       5.672  82.816   1.431  1.00  0.00     0.133 A 
HETATM   11  F2  UNL     1       6.970  82.643   1.161  1.00  0.00    -0.205 F 
HETATM   12  C9  UNL     1       5.202  82.875   2.696  1.00  0.00     0.053 A 
HETATM   13  C10 UNL     1       6.308  82.792   3.629  1.00  0.00     0.038 C 
HETATM   14  C11 UNL     1       7.590  83.329   3.274  1.00  0.00     0.096 C 
HETATM   15  N1  UNL     1       8.653  83.789   3.023  1.00  0.00    -0.192 NA
HETATM   16  C12 UNL     1       6.415  81.437   4.295  1.00  0.00     0.053 C 
HETATM   17  C13 UNL     1       5.081  80.988   4.836  1.00  0.00     0.041 C 
HETATM   18  C14 UNL     1       4.408  81.910   5.768  1.00  0.00     0.217 C 
ENDROOT
BRANCH  18  19
HETATM   19  N2  UNL     1       4.146  81.236   7.070  1.00  0.00    -0.072 N 
ATOM     20  H23 UNL     1       3.743  81.841   7.785  1.00  0.00     0.274 HD
ATOM     21  H22 UNL     1       3.377  80.566   7.051  1.00  0.00     0.274 HD
ATOM     22  H21 UNL     1       5.049  80.833   7.318  1.00  0.00     0.274 HD
ENDBRANCH  18  19
TORSDOF 1
ENDMDL
