MODEL 1
REMARK VINA RESULT: -7.414279300      0.000      0.000
REMARK  0 active torsions:
REMARK  status: ('A' for Active; 'I' for Inactive)
ROOT
HETATM    1  N1  UNL     1       8.492  82.454   6.795  1.00  0.00    -0.195 NA
HETATM    2  C1  UNL     1       7.780  82.047   5.976  1.00  0.00     0.091 C 
HETATM    3  C2  UNL     1       6.862  81.541   4.953  1.00  0.00     0.121 C 
HETATM    4  C3  UNL     1       7.548  80.663   3.971  1.00  0.00     0.047 C 
HETATM    5  C4  UNL     1       8.132  81.350   2.761  1.00  0.00     0.008 C 
HETATM    6  C5  UNL     1       7.188  81.373   1.608  1.00  0.00    -0.010 A 
HETATM    7  C6  UNL     1       7.318  82.080   0.353  1.00  0.00     0.010 A 
HETATM    8  C7  UNL     1       6.720  82.771   1.443  1.00  0.00    -0.010 A 
HETATM    9  C8  UNL     1       5.298  82.820   1.924  1.00  0.00     0.013 C 
HETATM   10  C9  UNL     1       5.340  82.219   3.273  1.00  0.00     0.035 C 
HETATM   11  C10 UNL     1       6.328  82.792   4.226  1.00  0.00     0.054 C 
HETATM   12  C11 UNL     1       4.051  82.148   4.071  1.00  0.00     0.172 C 
HETATM   13 CL1  UNL     1       2.792  81.513   3.045  1.00  0.00    -0.093 Cl
HETATM   14 CL2  UNL     1       3.600  83.723   4.749  1.00  0.00    -0.093 Cl
HETATM   15  C12 UNL     1       4.455  81.232   5.175  1.00  0.00     0.130 C 
HETATM   16  N2  UNL     1       3.429  80.580   5.883  1.00  0.00    -0.084 NA
HETATM   17  N3  UNL     1       5.659  80.980   5.542  1.00  0.00    -0.358 N 
ATOM     18  H3  UNL     1       5.781  80.328   6.317  1.00  0.00     0.162 HD
ENDROOT
TORSDOF 0
ENDMDL
MODEL 2
REMARK VINA RESULT: -7.000043497      2.145      3.942
REMARK  0 active torsions:
REMARK  status: ('A' for Active; 'I' for Inactive)
ROOT
HETATM    1  N1  UNL     1       2.854  80.624   7.082  1.00  0.00    -0.195 NA
HETATM    2  C1  UNL     1       3.508  81.271   6.377  1.00  0.00     0.091 C 
HETATM    3  C2  UNL     1       4.354  82.075   5.492  1.00  0.00     0.121 C 
HETATM    4  C3  UNL     1       3.630  83.249   4.942  1.00  0.00     0.047 C 
HETATM    5  C4  UNL     1       2.899  83.028   3.642  1.00  0.00     0.008 C 
HETATM    6  C5  UNL     1       3.729  83.380   2.454  1.00  0.00    -0.010 A 
HETATM    7  C6  UNL     1       3.442  83.146   1.056  1.00  0.00     0.010 A 
HETATM    8  C7  UNL     1       4.100  82.112   1.779  1.00  0.00    -0.010 A 
HETATM    9  C8  UNL     1       5.555  81.872   2.061  1.00  0.00     0.013 C 
HETATM   10  C9  UNL     1       5.673  81.978   3.530  1.00  0.00     0.035 C 
HETATM   11  C10 UNL     1       4.747  81.136   4.334  1.00  0.00     0.054 C 
HETATM   12  C11 UNL     1       7.032  81.745   4.163  1.00  0.00     0.172 C 
HETATM   13 CL1  UNL     1       8.225  82.665   3.283  1.00  0.00    -0.093 Cl
HETATM   14 CL2  UNL     1       7.455  80.025   4.219  1.00  0.00    -0.093 Cl
HETATM   15  C12 UNL     1       6.785  82.239   5.547  1.00  0.00     0.130 C 
HETATM   16  N2  UNL     1       7.907  82.589   6.320  1.00  0.00    -0.084 NA
HETATM   17  N3  UNL     1       5.636  82.376   6.104  1.00  0.00    -0.358 N 
ATOM     18  H3  UNL     1       5.624  82.727   7.061  1.00  0.00     0.162 HD
ENDROOT
TORSDOF 0
ENDMDL
MODEL 3
REMARK VINA RESULT: -6.922155273      1.365      1.539
REMARK  0 active torsions:
REMARK  status: ('A' for Active; 'I' for Inactive)
ROOT
HETATM    1  N1  UNL     1       5.941  82.079   7.920  1.00  0.00    -0.195 NA
HETATM    2  C1  UNL     1       5.777  81.818   6.803  1.00  0.00     0.091 C 
HETATM    3  C2  UNL     1       5.548  81.496   5.392  1.00  0.00     0.121 C 
HETATM    4  C3  UNL     1       6.640  80.666   4.824  1.00  0.00     0.047 C 
HETATM    5  C4  UNL     1       7.797  81.417   4.214  1.00  0.00     0.008 C 
HETATM    6  C5  UNL     1       7.626  81.635   2.749  1.00  0.00    -0.010 A 
HETATM    7  C6  UNL     1       8.426  82.449   1.861  1.00  0.00     0.010 A 
HETATM    8  C7  UNL     1       7.347  83.077   2.542  1.00  0.00    -0.010 A 
HETATM    9  C8  UNL     1       5.892  83.199   2.192  1.00  0.00     0.013 C 
HETATM   10  C9  UNL     1       5.187  82.466   3.264  1.00  0.00     0.035 C 
HETATM   11  C10 UNL     1       5.514  82.855   4.662  1.00  0.00     0.054 C 
HETATM   12  C11 UNL     1       3.670  82.426   3.233  1.00  0.00     0.172 C 
HETATM   13 CL1  UNL     1       3.153  82.006   1.622  1.00  0.00    -0.093 Cl
HETATM   14 CL2  UNL     1       2.953  83.958   3.764  1.00  0.00    -0.093 Cl
HETATM   15  C12 UNL     1       3.398  81.374   4.253  1.00  0.00     0.130 C 
HETATM   16  N2  UNL     1       2.140  80.744   4.212  1.00  0.00    -0.084 NA
HETATM   17  N3  UNL     1       4.207  80.985   5.170  1.00  0.00    -0.358 N 
ATOM     18  H3  UNL     1       3.880  80.251   5.798  1.00  0.00     0.162 HD
ENDROOT
TORSDOF 0
ENDMDL
MODEL 4
REMARK VINA RESULT: -6.812067486      1.918      2.583
REMARK  0 active torsions:
REMARK  status: ('A' for Active; 'I' for Inactive)
ROOT
HETATM    1  N1  UNL     1       8.475  83.863   3.132  1.00  0.00    -0.195 NA
HETATM    2  C1  UNL     1       7.540  83.225   2.881  1.00  0.00     0.091 C 
HETATM    3  C2  UNL     1       6.350  82.424   2.583  1.00  0.00     0.121 C 
HETATM    4  C3  UNL     1       6.492  81.660   1.318  1.00  0.00     0.047 C 
HETATM    5  C4  UNL     1       6.034  82.363   0.064  1.00  0.00     0.008 C 
HETATM    6  C5  UNL     1       4.615  82.054  -0.276  1.00  0.00    -0.010 A 
HETATM    7  C6  UNL     1       3.782  82.661  -1.290  1.00  0.00     0.010 A 
HETATM    8  C7  UNL     1       3.817  83.276  -0.008  1.00  0.00    -0.010 A 
HETATM    9  C8  UNL     1       3.019  83.017   1.237  1.00  0.00     0.013 C 
HETATM   10  C9  UNL     1       4.014  82.563   2.231  1.00  0.00     0.035 C 
HETATM   11  C10 UNL     1       5.199  83.439   2.435  1.00  0.00     0.054 C 
HETATM   12  C11 UNL     1       3.537  82.247   3.636  1.00  0.00     0.172 C 
HETATM   13 CL1  UNL     1       2.119  81.237   3.533  1.00  0.00    -0.093 Cl
HETATM   14 CL2  UNL     1       3.219  83.715   4.577  1.00  0.00    -0.093 Cl
HETATM   15  C12 UNL     1       4.736  81.556   4.190  1.00  0.00     0.130 C 
HETATM   16  N2  UNL     1       4.547  80.735   5.317  1.00  0.00    -0.084 NA
HETATM   17  N3  UNL     1       5.932  81.639   3.732  1.00  0.00    -0.358 N 
ATOM     18  H3  UNL     1       6.653  81.106   4.217  1.00  0.00     0.162 HD
ENDROOT
TORSDOF 0
ENDMDL
MODEL 5
REMARK VINA RESULT: -6.527532992      2.725      4.260
REMARK  0 active torsions:
REMARK  status: ('A' for Active; 'I' for Inactive)
ROOT
HETATM    1  N1  UNL     1       2.406  82.465  -0.624  1.00  0.00    -0.195 NA
HETATM    2  C1  UNL     1       2.993  82.726   0.341  1.00  0.00     0.091 C 
HETATM    3  C2  UNL     1       3.716  83.051   1.573  1.00  0.00     0.121 C 
HETATM    4  C3  UNL     1       5.033  83.680   1.298  1.00  0.00     0.047 C 
HETATM    5  C4  UNL     1       6.200  82.737   1.150  1.00  0.00     0.008 C 
HETATM    6  C5  UNL     1       6.925  82.520   2.435  1.00  0.00    -0.010 A 
HETATM    7  C6  UNL     1       7.973  81.567   2.726  1.00  0.00     0.010 A 
HETATM    8  C7  UNL     1       6.626  81.139   2.886  1.00  0.00    -0.010 A 
HETATM    9  C8  UNL     1       5.684  81.249   4.050  1.00  0.00     0.013 C 
HETATM   10  C9  UNL     1       4.587  82.110   3.561  1.00  0.00     0.035 C 
HETATM   11  C10 UNL     1       3.939  81.702   2.286  1.00  0.00     0.054 C 
HETATM   12  C11 UNL     1       3.425  82.397   4.495  1.00  0.00     0.172 C 
HETATM   13 CL1  UNL     1       4.059  82.863   6.051  1.00  0.00    -0.093 Cl
HETATM   14 CL2  UNL     1       2.324  81.015   4.632  1.00  0.00    -0.093 Cl
HETATM   15  C12 UNL     1       2.744  83.501   3.761  1.00  0.00     0.130 C 
HETATM   16  N2  UNL     1       1.875  84.327   4.498  1.00  0.00    -0.084 NA
HETATM   17  N3  UNL     1       2.876  83.771   2.514  1.00  0.00    -0.358 N 
ATOM     18  H3  UNL     1       2.343  84.561   2.151  1.00  0.00     0.162 HD
ENDROOT
TORSDOF 0
ENDMDL
