MODEL 1
REMARK VINA RESULT: -8.879867563      0.000      0.000
REMARK  11 active torsions:
REMARK  status: ('A' for Active; 'I' for Inactive)
REMARK    1  A    between atoms: C2_2  and  N7_26 
REMARK    2  A    between atoms: N1_3  and  O1_5 
REMARK    3  A    between atoms: O1_5  and  C3_6 
REMARK    4  A    between atoms: C3_6  and  C4_8 
REMARK    5  A    between atoms: C5_11  and  N3_12 
REMARK    6  A    between atoms: N4_14  and  N5_16 
REMARK       I    between atoms: N5_16  and  C6_18 
REMARK    7  A    between atoms: C7_23  and  O5_24 
REMARK    8  A    between atoms: N7_26  and  N8_28 
REMARK    9  A    between atoms: N8_28  and  C8_30 
REMARK   10  A    between atoms: C9_33  and  N10_34 
REMARK   11  A    between atoms: N11_37  and  N12_38 
ROOT
HETATM    1  C1  UNL     1     -32.043 -65.472 -11.944  1.00  0.00     0.092 C 
HETATM    2  C2  UNL     1     -32.273 -64.125 -12.526  1.00  0.00     0.112 C 
HETATM    3  N1  UNL     1     -31.722 -63.779 -13.636  1.00  0.00    -0.244 N 
ATOM      4  H1  UNL     1     -31.891 -62.850 -14.023  1.00  0.00     0.196 HD
ENDROOT
BRANCH   3   5
HETATM    5  O1  UNL     1     -30.908 -64.660 -14.299  1.00  0.00    -0.192 OA
BRANCH   5   6
HETATM    6  C3  UNL     1     -29.643 -64.235 -14.662  1.00  0.00     0.336 C 
HETATM    7  O2  UNL     1     -29.319 -64.140 -15.864  1.00  0.00    -0.255 OA
BRANCH   6   8
HETATM    8  C4  UNL     1     -28.689 -63.898 -13.623  1.00  0.00     0.177 A 
HETATM    9  N2  UNL     1     -28.750 -64.184 -12.311  1.00  0.00    -0.180 N 
HETATM   10  C5  UNL     1     -27.670 -63.696 -11.694  1.00  0.00     0.700 A 
ATOM     11  H2  UNL     1     -29.506 -64.696 -11.856  1.00  0.00     0.184 HD
HETATM   12  N6  UNL     1     -26.918 -63.096 -12.626  1.00  0.00    -0.167 N 
HETATM   13  C7  UNL     1     -27.527 -63.211 -13.807  1.00  0.00     0.189 A 
ATOM     14  H6  UNL     1     -26.027 -62.627 -12.459  1.00  0.00     0.186 HD
BRANCH  10  15
HETATM   15  N3  UNL     1     -27.363 -63.795 -10.283  1.00  0.00    -0.117 N 
HETATM   16  N4  UNL     1     -27.834 -63.004  -9.432  1.00  0.00    -0.224 N 
ATOM     17  H4  UNL     1     -27.584 -63.117  -8.449  1.00  0.00     0.209 HD
ATOM     18  H3  UNL     1     -26.737 -64.537  -9.969  1.00  0.00     0.207 HD
BRANCH  16  19
HETATM   19  N5  UNL     1     -28.692 -61.974  -9.809  1.00  0.00    -0.229 N 
HETATM   20  C6  UNL     1     -30.095 -62.166  -9.941  1.00  0.00     0.304 C 
HETATM   21  O3  UNL     1     -30.545 -63.327  -9.700  1.00  0.00    -0.628 OA
HETATM   22  O4  UNL     1     -30.960 -61.166 -10.312  1.00  0.00    -0.628 OA
ATOM     23  H5  UNL     1     -28.302 -61.051  -9.997  1.00  0.00     0.194 HD
ENDBRANCH  16  19
ENDBRANCH  10  15
BRANCH  13  24
HETATM   24  O5  UNL     1     -27.089 -62.726 -15.053  1.00  0.00    -0.344 OA
ATOM     25  H5  UNL     1     -26.188 -62.492 -15.245  1.00  0.00     0.219 HD
ENDBRANCH  13  24
ENDBRANCH   6   8
ENDBRANCH   5   6
ENDBRANCH   3   5
BRANCH   2  26
HETATM   26  N7  UNL     1     -33.109 -63.200 -11.861  1.00  0.00    -0.286 N 
ATOM     27  H7  UNL     1     -33.563 -62.475 -12.416  1.00  0.00     0.188 HD
BRANCH  26  28
HETATM   28  N8  UNL     1     -33.346 -63.222 -10.490  1.00  0.00    -0.278 N 
ATOM     29  H8  UNL     1     -32.593 -63.064  -9.821  1.00  0.00     0.189 HD
BRANCH  28  30
HETATM   30  C8  UNL     1     -34.567 -63.450 -10.092  1.00  0.00     0.183 A 
HETATM   31  N9  UNL     1     -35.205 -64.608 -10.368  1.00  0.00    -0.167 N 
HETATM   32  C9  UNL     1     -36.439 -64.928 -10.008  1.00  0.00     0.702 A 
ATOM     33  H9  UNL     1     -34.686 -65.303 -10.906  1.00  0.00     0.186 HD
HETATM   34  N11 UNL     1     -37.302 -64.183  -9.306  1.00  0.00    -0.048 N 
HETATM   35  C10 UNL     1     -37.063 -62.948  -8.830  1.00  0.00     0.327 A 
HETATM   36  O6  UNL     1     -37.936 -62.303  -8.170  1.00  0.00    -0.257 OA
HETATM   37  S1  UNL     1     -35.508 -62.351  -9.194  1.00  0.00     0.011 SA
BRANCH  32  38
HETATM   38  N10 UNL     1     -36.857 -66.114 -10.388  1.00  0.00    -0.233 N 
ATOM     39 2H10 UNL     1     -36.207 -66.674 -10.940  1.00  0.00     0.174 HD
ATOM     40 1H10 UNL     1     -37.801 -66.368 -10.094  1.00  0.00     0.174 HD
ENDBRANCH  32  38
BRANCH  34  41
HETATM   41  N12 UNL     1     -38.592 -64.715  -9.022  1.00  0.00    -0.321 N 
ATOM     42 2H12 UNL     1     -38.622 -65.449  -8.315  1.00  0.00     0.178 HD
ATOM     43 1H12 UNL     1     -39.398 -64.344  -9.527  1.00  0.00     0.178 HD
ENDBRANCH  34  41
ENDBRANCH  28  30
ENDBRANCH  26  28
ENDBRANCH   2  26
TORSDOF 11
ENDMDL
MODEL 2
REMARK VINA RESULT: -8.697070625      1.922      3.470
REMARK  11 active torsions:
REMARK  status: ('A' for Active; 'I' for Inactive)
REMARK    1  A    between atoms: C2_2  and  N7_26 
REMARK    2  A    between atoms: N1_3  and  O1_5 
REMARK    3  A    between atoms: O1_5  and  C3_6 
REMARK    4  A    between atoms: C3_6  and  C4_8 
REMARK    5  A    between atoms: C5_11  and  N3_12 
REMARK    6  A    between atoms: N4_14  and  N5_16 
REMARK       I    between atoms: N5_16  and  C6_18 
REMARK    7  A    between atoms: C7_23  and  O5_24 
REMARK    8  A    between atoms: N7_26  and  N8_28 
REMARK    9  A    between atoms: N8_28  and  C8_30 
REMARK   10  A    between atoms: C9_33  and  N10_34 
REMARK   11  A    between atoms: N11_37  and  N12_38 
ROOT
HETATM    1  C1  UNL     1     -31.102 -66.367 -11.651  1.00  0.00     0.092 C 
HETATM    2  C2  UNL     1     -31.672 -65.011 -11.449  1.00  0.00     0.112 C 
HETATM    3  N1  UNL     1     -31.138 -64.182 -10.621  1.00  0.00    -0.244 N 
ATOM      4  H1  UNL     1     -31.542 -63.254 -10.496  1.00  0.00     0.196 HD
ENDROOT
BRANCH   3   5
HETATM    5  O1  UNL     1     -30.025 -64.549  -9.910  1.00  0.00    -0.192 OA
BRANCH   5   6
HETATM    6  C3  UNL     1     -28.893 -63.763 -10.018  1.00  0.00     0.336 C 
HETATM    7  O2  UNL     1     -28.324 -63.314  -9.001  1.00  0.00    -0.255 OA
BRANCH   6   8
HETATM    8  C4  UNL     1     -28.367 -63.463 -11.336  1.00  0.00     0.177 A 
HETATM    9  N2  UNL     1     -28.301 -64.270 -12.410  1.00  0.00    -0.180 N 
HETATM   10  C5  UNL     1     -27.747 -63.612 -13.432  1.00  0.00     0.700 A 
ATOM     11  H2  UNL     1     -28.624 -65.237 -12.439  1.00  0.00     0.184 HD
HETATM   12  N6  UNL     1     -27.461 -62.376 -13.001  1.00  0.00    -0.167 N 
HETATM   13  C7  UNL     1     -27.834 -62.271 -11.724  1.00  0.00     0.189 A 
ATOM     14  H6  UNL     1     -27.029 -61.638 -13.556  1.00  0.00     0.186 HD
BRANCH  10  15
HETATM   15  N3  UNL     1     -27.500 -64.130 -14.761  1.00  0.00    -0.117 N 
HETATM   16  N4  UNL     1     -28.304 -63.969 -15.710  1.00  0.00    -0.224 N 
ATOM     17  H4  UNL     1     -28.082 -64.355 -16.627  1.00  0.00     0.209 HD
ATOM     18  H3  UNL     1     -26.638 -64.647 -14.932  1.00  0.00     0.207 HD
BRANCH  16  19
HETATM   19  N5  UNL     1     -29.495 -63.271 -15.528  1.00  0.00    -0.229 N 
HETATM   20  C6  UNL     1     -30.664 -63.888 -15.005  1.00  0.00     0.304 C 
HETATM   21  O3  UNL     1     -30.583 -65.118 -14.703  1.00  0.00    -0.628 OA
HETATM   22  O4  UNL     1     -31.849 -63.221 -14.817  1.00  0.00    -0.628 OA
ATOM     23  H5  UNL     1     -29.531 -62.283 -15.780  1.00  0.00     0.194 HD
ENDBRANCH  16  19
ENDBRANCH  10  15
BRANCH  13  24
HETATM   24  O5  UNL     1     -27.718 -61.150 -10.882  1.00  0.00    -0.344 OA
ATOM     25  H5  UNL     1     -27.886 -60.257 -11.161  1.00  0.00     0.219 HD
ENDBRANCH  13  24
ENDBRANCH   6   8
ENDBRANCH   5   6
ENDBRANCH   3   5
BRANCH   2  26
HETATM   26  N7  UNL     1     -32.819 -64.611 -12.171  1.00  0.00    -0.286 N 
ATOM     27  H7  UNL     1     -33.212 -65.263 -12.849  1.00  0.00     0.188 HD
BRANCH  26  28
HETATM   28  N8  UNL     1     -33.440 -63.377 -12.010  1.00  0.00    -0.278 N 
ATOM     29  H8  UNL     1     -33.177 -62.574 -12.581  1.00  0.00     0.189 HD
BRANCH  28  30
HETATM   30  C8  UNL     1     -34.372 -63.284 -11.101  1.00  0.00     0.183 A 
HETATM   31  N9  UNL     1     -35.647 -63.656 -11.344  1.00  0.00    -0.167 N 
HETATM   32  C9  UNL     1     -36.656 -63.598 -10.487  1.00  0.00     0.702 A 
ATOM     33  H9  UNL     1     -35.854 -64.015 -12.276  1.00  0.00     0.186 HD
HETATM   34  N11 UNL     1     -36.626 -63.166  -9.220  1.00  0.00    -0.048 N 
HETATM   35  C10 UNL     1     -35.540 -62.704  -8.577  1.00  0.00     0.327 A 
HETATM   36  O6  UNL     1     -35.592 -62.311  -7.369  1.00  0.00    -0.257 OA
HETATM   37  S1  UNL     1     -34.121 -62.698  -9.522  1.00  0.00     0.011 SA
BRANCH  32  38
HETATM   38  N10 UNL     1     -37.817 -64.014 -10.941  1.00  0.00    -0.233 N 
ATOM     39 2H10 UNL     1     -38.374 -63.337 -11.463  1.00  0.00     0.174 HD
ATOM     40 1H10 UNL     1     -38.057 -64.983 -10.727  1.00  0.00     0.174 HD
ENDBRANCH  32  38
BRANCH  34  41
HETATM   41  N12 UNL     1     -37.832 -63.186  -8.461  1.00  0.00    -0.321 N 
ATOM     42 2H12 UNL     1     -37.825 -62.629  -7.607  1.00  0.00     0.178 HD
ATOM     43 1H12 UNL     1     -38.617 -63.740  -8.802  1.00  0.00     0.178 HD
ENDBRANCH  34  41
ENDBRANCH  28  30
ENDBRANCH  26  28
ENDBRANCH   2  26
TORSDOF 11
ENDMDL
MODEL 3
REMARK VINA RESULT: -8.677866448      1.796      3.851
REMARK  11 active torsions:
REMARK  status: ('A' for Active; 'I' for Inactive)
REMARK    1  A    between atoms: C2_2  and  N7_26 
REMARK    2  A    between atoms: N1_3  and  O1_5 
REMARK    3  A    between atoms: O1_5  and  C3_6 
REMARK    4  A    between atoms: C3_6  and  C4_8 
REMARK    5  A    between atoms: C5_11  and  N3_12 
REMARK    6  A    between atoms: N4_14  and  N5_16 
REMARK       I    between atoms: N5_16  and  C6_18 
REMARK    7  A    between atoms: C7_23  and  O5_24 
REMARK    8  A    between atoms: N7_26  and  N8_28 
REMARK    9  A    between atoms: N8_28  and  C8_30 
REMARK   10  A    between atoms: C9_33  and  N10_34 
REMARK   11  A    between atoms: N11_37  and  N12_38 
ROOT
HETATM    1  C1  UNL     1     -31.862 -65.182 -11.765  1.00  0.00     0.092 C 
HETATM    2  C2  UNL     1     -32.611 -64.085 -11.102  1.00  0.00     0.112 C 
HETATM    3  N1  UNL     1     -32.022 -63.270 -10.298  1.00  0.00    -0.244 N 
ATOM      4  H1  UNL     1     -32.552 -62.522  -9.851  1.00  0.00     0.196 HD
ENDROOT
BRANCH   3   5
HETATM    5  O1  UNL     1     -30.683 -63.410 -10.044  1.00  0.00    -0.192 OA
BRANCH   5   6
HETATM    6  C3  UNL     1     -29.820 -62.454 -10.547  1.00  0.00     0.336 C 
HETATM    7  O2  UNL     1     -30.016 -61.238 -10.338  1.00  0.00    -0.255 OA
BRANCH   6   8
HETATM    8  C4  UNL     1     -28.674 -62.881 -11.327  1.00  0.00     0.177 A 
HETATM    9  N2  UNL     1     -28.225 -62.379 -12.491  1.00  0.00    -0.180 N 
HETATM   10  C5  UNL     1     -27.140 -63.054 -12.882  1.00  0.00     0.700 A 
ATOM     11  H2  UNL     1     -28.648 -61.602 -12.998  1.00  0.00     0.184 HD
HETATM   12  N6  UNL     1     -26.900 -63.992 -11.956  1.00  0.00    -0.167 N 
HETATM   13  C7  UNL     1     -27.828 -63.898 -11.001  1.00  0.00     0.189 A 
ATOM     14  H6  UNL     1     -26.135 -64.666 -11.977  1.00  0.00     0.186 HD
BRANCH  10  15
HETATM   15  N3  UNL     1     -26.363 -62.821 -14.080  1.00  0.00    -0.117 N 
HETATM   16  N4  UNL     1     -26.515 -63.495 -15.127  1.00  0.00    -0.224 N 
ATOM     17  H4  UNL     1     -25.941 -63.291 -15.944  1.00  0.00     0.209 HD
ATOM     18  H3  UNL     1     -25.663 -62.079 -14.073  1.00  0.00     0.207 HD
BRANCH  16  19
HETATM   19  N5  UNL     1     -27.457 -64.519 -15.188  1.00  0.00    -0.229 N 
HETATM   20  C6  UNL     1     -28.844 -64.264 -15.372  1.00  0.00     0.304 C 
HETATM   21  O3  UNL     1     -29.200 -63.051 -15.480  1.00  0.00    -0.628 OA
HETATM   22  O4  UNL     1     -29.790 -65.257 -15.435  1.00  0.00    -0.628 OA
ATOM     23  H5  UNL     1     -27.142 -65.485 -15.097  1.00  0.00     0.194 HD
ENDBRANCH  16  19
ENDBRANCH  10  15
BRANCH  13  24
HETATM   24  O5  UNL     1     -27.955 -64.686  -9.843  1.00  0.00    -0.344 OA
ATOM     25  H5  UNL     1     -28.451 -65.495  -9.803  1.00  0.00     0.219 HD
ENDBRANCH  13  24
ENDBRANCH   6   8
ENDBRANCH   5   6
ENDBRANCH   3   5
BRANCH   2  26
HETATM   26  N7  UNL     1     -33.993 -63.922 -11.347  1.00  0.00    -0.286 N 
ATOM     27  H7  UNL     1     -34.277 -63.451 -12.206  1.00  0.00     0.188 HD
BRANCH  26  28
HETATM   28  N8  UNL     1     -34.988 -64.368 -10.484  1.00  0.00    -0.278 N 
ATOM     29  H8  UNL     1     -35.190 -65.362 -10.378  1.00  0.00     0.189 HD
BRANCH  28  30
HETATM   30  C8  UNL     1     -35.653 -63.468  -9.813  1.00  0.00     0.183 A 
HETATM   31  N9  UNL     1     -36.933 -63.155 -10.111  1.00  0.00    -0.167 N 
HETATM   32  C9  UNL     1     -37.685 -62.259  -9.490  1.00  0.00     0.702 A 
ATOM     33  H9  UNL     1     -37.361 -63.656 -10.890  1.00  0.00     0.186 HD
HETATM   34  N11 UNL     1     -37.342 -61.486  -8.451  1.00  0.00    -0.048 N 
HETATM   35  C10 UNL     1     -36.144 -61.483  -7.840  1.00  0.00     0.327 A 
HETATM   36  O6  UNL     1     -35.895 -60.718  -6.857  1.00  0.00    -0.257 OA
HETATM   37  S1  UNL     1     -35.023 -62.583  -8.503  1.00  0.00     0.011 SA
BRANCH  32  38
HETATM   38  N10 UNL     1     -38.907 -62.118  -9.951  1.00  0.00    -0.233 N 
ATOM     39 2H10 UNL     1     -39.160 -62.686 -10.760  1.00  0.00     0.174 HD
ATOM     40 1H10 UNL     1     -39.495 -61.447  -9.455  1.00  0.00     0.174 HD
ENDBRANCH  32  38
BRANCH  34  41
HETATM   41  N12 UNL     1     -38.306 -60.579  -7.925  1.00  0.00    -0.321 N 
ATOM     42 2H12 UNL     1     -39.276 -60.771  -8.175  1.00  0.00     0.178 HD
ATOM     43 1H12 UNL     1     -37.985 -59.806  -7.342  1.00  0.00     0.178 HD
ENDBRANCH  34  41
ENDBRANCH  28  30
ENDBRANCH  26  28
ENDBRANCH   2  26
TORSDOF 11
ENDMDL
MODEL 4
REMARK VINA RESULT: -8.667953338      1.384      1.876
REMARK  11 active torsions:
REMARK  status: ('A' for Active; 'I' for Inactive)
REMARK    1  A    between atoms: C2_2  and  N7_26 
REMARK    2  A    between atoms: N1_3  and  O1_5 
REMARK    3  A    between atoms: O1_5  and  C3_6 
REMARK    4  A    between atoms: C3_6  and  C4_8 
REMARK    5  A    between atoms: C5_11  and  N3_12 
REMARK    6  A    between atoms: N4_14  and  N5_16 
REMARK       I    between atoms: N5_16  and  C6_18 
REMARK    7  A    between atoms: C7_23  and  O5_24 
REMARK    8  A    between atoms: N7_26  and  N8_28 
REMARK    9  A    between atoms: N8_28  and  C8_30 
REMARK   10  A    between atoms: C9_33  and  N10_34 
REMARK   11  A    between atoms: N11_37  and  N12_38 
ROOT
HETATM    1  C1  UNL     1     -31.462 -65.888 -12.022  1.00  0.00     0.092 C 
HETATM    2  C2  UNL     1     -32.181 -64.733 -12.616  1.00  0.00     0.112 C 
HETATM    3  N1  UNL     1     -32.406 -64.671 -13.882  1.00  0.00    -0.244 N 
ATOM      4  H1  UNL     1     -32.903 -63.870 -14.274  1.00  0.00     0.196 HD
ENDROOT
BRANCH   3   5
HETATM    5  O1  UNL     1     -31.979 -65.682 -14.702  1.00  0.00    -0.192 OA
BRANCH   5   6
HETATM    6  C3  UNL     1     -30.982 -65.403 -15.618  1.00  0.00     0.336 C 
HETATM    7  O2  UNL     1     -31.097 -65.739 -16.815  1.00  0.00    -0.255 OA
BRANCH   6   8
HETATM    8  C4  UNL     1     -29.788 -64.711 -15.170  1.00  0.00     0.177 A 
HETATM    9  N2  UNL     1     -28.931 -65.071 -14.199  1.00  0.00    -0.180 N 
HETATM   10  C5  UNL     1     -27.959 -64.161 -14.097  1.00  0.00     0.700 A 
ATOM     11  H2  UNL     1     -29.010 -65.912 -13.627  1.00  0.00     0.184 HD
HETATM   12  N6  UNL     1     -28.204 -63.214 -15.013  1.00  0.00    -0.167 N 
HETATM   13  C7  UNL     1     -29.317 -63.537 -15.675  1.00  0.00     0.189 A 
ATOM     14  H6  UNL     1     -27.634 -62.384 -15.177  1.00  0.00     0.186 HD
BRANCH  10  15
HETATM   15  N3  UNL     1     -26.846 -64.185 -13.173  1.00  0.00    -0.117 N 
HETATM   16  N4  UNL     1     -26.955 -63.838 -11.972  1.00  0.00    -0.224 N 
ATOM     17  H4  UNL     1     -26.139 -63.873 -11.362  1.00  0.00     0.209 HD
ATOM     18  H3  UNL     1     -25.935 -64.495 -13.511  1.00  0.00     0.207 HD
BRANCH  16  19
HETATM   19  N5  UNL     1     -28.177 -63.406 -11.461  1.00  0.00    -0.229 N 
HETATM   20  C6  UNL     1     -28.759 -63.982 -10.299  1.00  0.00     0.304 C 
HETATM   21  O3  UNL     1     -28.118 -64.919  -9.734  1.00  0.00    -0.628 OA
HETATM   22  O4  UNL     1     -29.962 -63.573  -9.777  1.00  0.00    -0.628 OA
ATOM     23  H5  UNL     1     -28.671 -62.650 -11.936  1.00  0.00     0.194 HD
ENDBRANCH  16  19
ENDBRANCH  10  15
BRANCH  13  24
HETATM   24  O5  UNL     1     -29.936 -62.824 -16.718  1.00  0.00    -0.344 OA
ATOM     25  H5  UNL     1     -29.498 -62.573 -17.523  1.00  0.00     0.219 HD
ENDBRANCH  13  24
ENDBRANCH   6   8
ENDBRANCH   5   6
ENDBRANCH   3   5
BRANCH   2  26
HETATM   26  N7  UNL     1     -32.631 -63.678 -11.790  1.00  0.00    -0.286 N 
ATOM     27  H7  UNL     1     -32.785 -62.765 -12.217  1.00  0.00     0.188 HD
BRANCH  26  28
HETATM   28  N8  UNL     1     -32.876 -63.816 -10.427  1.00  0.00    -0.278 N 
ATOM     29  H8  UNL     1     -32.114 -63.957  -9.765  1.00  0.00     0.189 HD
BRANCH  28  30
HETATM   30  C8  UNL     1     -34.117 -63.759 -10.028  1.00  0.00     0.183 A 
HETATM   31  N9  UNL     1     -35.035 -64.672 -10.413  1.00  0.00    -0.167 N 
HETATM   32  C9  UNL     1     -36.312 -64.695 -10.061  1.00  0.00     0.702 A 
ATOM     33  H9  UNL     1     -34.714 -65.415 -11.035  1.00  0.00     0.186 HD
HETATM   34  N11 UNL     1     -36.953 -63.833  -9.262  1.00  0.00    -0.048 N 
HETATM   35  C10 UNL     1     -36.400 -62.764  -8.661  1.00  0.00     0.327 A 
HETATM   36  O6  UNL     1     -37.077 -61.990  -7.914  1.00  0.00    -0.257 OA
HETATM   37  S1  UNL     1     -34.741 -62.559  -8.994  1.00  0.00     0.011 SA
BRANCH  32  38
HETATM   38  N10 UNL     1     -37.025 -65.681 -10.558  1.00  0.00    -0.233 N 
ATOM     39 2H10 UNL     1     -36.927 -66.589 -10.105  1.00  0.00     0.174 HD
ATOM     40 1H10 UNL     1     -37.616 -65.444 -11.355  1.00  0.00     0.174 HD
ENDBRANCH  32  38
BRANCH  34  41
HETATM   41  N12 UNL     1     -38.340 -64.036  -9.008  1.00  0.00    -0.321 N 
ATOM     42 2H12 UNL     1     -38.977 -63.684  -9.721  1.00  0.00     0.178 HD
ATOM     43 1H12 UNL     1     -38.616 -64.511  -8.148  1.00  0.00     0.178 HD
ENDBRANCH  34  41
ENDBRANCH  28  30
ENDBRANCH  26  28
ENDBRANCH   2  26
TORSDOF 11
ENDMDL
MODEL 5
REMARK VINA RESULT: -8.664643401      3.010      5.082
REMARK  11 active torsions:
REMARK  status: ('A' for Active; 'I' for Inactive)
REMARK    1  A    between atoms: C2_2  and  N7_26 
REMARK    2  A    between atoms: N1_3  and  O1_5 
REMARK    3  A    between atoms: O1_5  and  C3_6 
REMARK    4  A    between atoms: C3_6  and  C4_8 
REMARK    5  A    between atoms: C5_11  and  N3_12 
REMARK    6  A    between atoms: N4_14  and  N5_16 
REMARK       I    between atoms: N5_16  and  C6_18 
REMARK    7  A    between atoms: C7_23  and  O5_24 
REMARK    8  A    between atoms: N7_26  and  N8_28 
REMARK    9  A    between atoms: N8_28  and  C8_30 
REMARK   10  A    between atoms: C9_33  and  N10_34 
REMARK   11  A    between atoms: N11_37  and  N12_38 
ROOT
HETATM    1  C1  UNL     1     -33.661 -61.745 -13.870  1.00  0.00     0.092 C 
HETATM    2  C2  UNL     1     -33.564 -63.169 -13.462  1.00  0.00     0.112 C 
HETATM    3  N1  UNL     1     -33.051 -64.051 -14.247  1.00  0.00    -0.244 N 
ATOM      4  H1  UNL     1     -32.992 -65.026 -13.951  1.00  0.00     0.196 HD
ENDROOT
BRANCH   3   5
HETATM    5  O1  UNL     1     -32.584 -63.679 -15.480  1.00  0.00    -0.192 OA
BRANCH   5   6
HETATM    6  C3  UNL     1     -31.830 -64.590 -16.195  1.00  0.00     0.336 C 
HETATM    7  O2  UNL     1     -32.300 -65.166 -17.199  1.00  0.00    -0.255 OA
BRANCH   6   8
HETATM    8  C4  UNL     1     -30.474 -64.874 -15.764  1.00  0.00     0.177 A 
HETATM    9  N2  UNL     1     -29.321 -64.551 -16.374  1.00  0.00    -0.180 N 
HETATM   10  C5  UNL     1     -28.290 -64.995 -15.650  1.00  0.00     0.700 A 
ATOM     11  H2  UNL     1     -29.244 -64.043 -17.255  1.00  0.00     0.184 HD
HETATM   12  N6  UNL     1     -28.797 -65.606 -14.571  1.00  0.00    -0.167 N 
HETATM   13  C7  UNL     1     -30.128 -65.540 -14.627  1.00  0.00     0.189 A 
ATOM     14  H6  UNL     1     -28.254 -66.049 -13.829  1.00  0.00     0.186 HD
BRANCH  10  15
HETATM   15  N3  UNL     1     -26.885 -64.848 -15.965  1.00  0.00    -0.117 N 
HETATM   16  N4  UNL     1     -26.189 -63.902 -15.527  1.00  0.00    -0.224 N 
ATOM     17  H4  UNL     1     -25.203 -63.844 -15.780  1.00  0.00     0.209 HD
ATOM     18  H3  UNL     1     -26.444 -65.542 -16.569  1.00  0.00     0.207 HD
BRANCH  16  19
HETATM   19  N5  UNL     1     -26.743 -62.929 -14.699  1.00  0.00    -0.229 N 
HETATM   20  C6  UNL     1     -26.907 -63.126 -13.300  1.00  0.00     0.304 C 
HETATM   21  O3  UNL     1     -26.524 -64.237 -12.824  1.00  0.00    -0.628 OA
HETATM   22  O4  UNL     1     -27.451 -62.182 -12.465  1.00  0.00    -0.628 OA
ATOM     23  H5  UNL     1     -27.043 -62.045 -15.110  1.00  0.00     0.194 HD
ENDBRANCH  16  19
ENDBRANCH  10  15
BRANCH  13  24
HETATM   24  O5  UNL     1     -31.056 -66.052 -13.701  1.00  0.00    -0.344 OA
ATOM     25  H5  UNL     1     -31.344 -65.586 -12.925  1.00  0.00     0.219 HD
ENDBRANCH  13  24
ENDBRANCH   6   8
ENDBRANCH   5   6
ENDBRANCH   3   5
BRANCH   2  26
HETATM   26  N7  UNL     1     -34.040 -63.576 -12.195  1.00  0.00    -0.286 N 
ATOM     27  H7  UNL     1     -34.966 -63.263 -11.905  1.00  0.00     0.188 HD
BRANCH  26  28
HETATM   28  N8  UNL     1     -33.315 -64.381 -11.322  1.00  0.00    -0.278 N 
ATOM     29  H8  UNL     1     -33.642 -65.313 -11.068  1.00  0.00     0.189 HD
BRANCH  28  30
HETATM   30  C8  UNL     1     -32.202 -63.900 -10.840  1.00  0.00     0.183 A 
HETATM   31  N9  UNL     1     -31.005 -64.470 -11.097  1.00  0.00    -0.167 N 
HETATM   32  C9  UNL     1     -29.828 -64.055 -10.654  1.00  0.00     0.702 A 
ATOM     33  H9  UNL     1     -31.008 -65.301 -11.690  1.00  0.00     0.186 HD
HETATM   34  N11 UNL     1     -29.580 -62.999  -9.869  1.00  0.00    -0.048 N 
HETATM   35  C10 UNL     1     -30.503 -62.152  -9.380  1.00  0.00     0.327 A 
HETATM   36  O6  UNL     1     -30.187 -61.169  -8.640  1.00  0.00    -0.257 OA
HETATM   37  S1  UNL     1     -32.101 -62.522  -9.844  1.00  0.00     0.011 SA
BRANCH  32  38
HETATM   38  N10 UNL     1     -28.790 -64.766 -11.031  1.00  0.00    -0.233 N 
ATOM     39 2H10 UNL     1     -28.415 -64.571 -11.960  1.00  0.00     0.174 HD
ATOM     40 1H10 UNL     1     -28.452 -65.452 -10.356  1.00  0.00     0.174 HD
ENDBRANCH  32  38
BRANCH  34  41
HETATM   41  N12 UNL     1     -28.231 -62.721  -9.502  1.00  0.00    -0.321 N 
ATOM     42 2H12 UNL     1     -27.920 -61.762  -9.657  1.00  0.00     0.178 HD
ATOM     43 1H12 UNL     1     -27.664 -63.474  -9.113  1.00  0.00     0.178 HD
ENDBRANCH  34  41
ENDBRANCH  28  30
ENDBRANCH  26  28
ENDBRANCH   2  26
TORSDOF 11
ENDMDL
