MODEL 1
REMARK VINA RESULT: -8.696781084      0.000      0.000
REMARK  13 active torsions:
REMARK  status: ('A' for Active; 'I' for Inactive)
REMARK    1  A    between atoms: C2_2  and  C10_31 
REMARK    2  A    between atoms: N1_3  and  N2_5 
REMARK    3  A    between atoms: N2_5  and  C3_7 
REMARK    4  A    between atoms: C3_7  and  O1_8 
REMARK    5  A    between atoms: C5_12  and  S1_13 
REMARK    6  A    between atoms: S1_13  and  S2_14 
REMARK    7  A    between atoms: S2_14  and  C6_15 
REMARK    8  A    between atoms: C6_15  and  N4_19 
REMARK    9  A    between atoms: N4_19  and  C7_21 
REMARK   10  A    between atoms: C7_21  and  C8_22 
REMARK   11  A    between atoms: C8_22  and  O3_23 
REMARK   12  A    between atoms: C9_27  and  N6_28 
REMARK   13  A    between atoms: C11_37  and  N9_38 
ROOT
HETATM    1  C3  UNL     1     -31.882 -62.299 -10.928  1.00  0.00     0.259 C 
HETATM    2  C4  UNL     1     -31.993 -63.131 -12.192  1.00  0.00     0.243 C 
HETATM    3  O2  UNL     1     -32.781 -63.005 -13.149  1.00  0.00    -0.284 OA
HETATM    4  C5  UNL     1     -30.951 -64.129 -12.025  1.00  0.00     0.130 C 
HETATM    5  N5  UNL     1     -30.047 -63.659 -11.196  1.00  0.00    -0.350 N 
ATOM      6  H5  UNL     1     -29.209 -64.163 -10.908  1.00  0.00     0.162 HD
HETATM    7  C9  UNL     1     -30.400 -62.332 -10.747  1.00  0.00     0.320 C 
ENDROOT
BRANCH   1   8
HETATM    8  N2  UNL     1     -32.618 -62.997  -9.914  1.00  0.00    -0.291 N 
ATOM      9  H2  UNL     1     -32.276 -62.967  -8.953  1.00  0.00     0.184 HD
BRANCH   8  10
HETATM   10  N1  UNL     1     -33.783 -63.715 -10.187  1.00  0.00    -0.304 N 
HETATM   11  C2  UNL     1     -34.835 -63.450  -9.450  1.00  0.00     0.054 C 
HETATM   12  C1  UNL     1     -34.757 -62.440  -8.393  1.00  0.00     0.072 C 
ATOM     13  H1  UNL     1     -33.815 -64.415 -10.927  1.00  0.00     0.186 HD
BRANCH  11  14
HETATM   14  C10 UNL     1     -36.039 -64.196  -9.737  1.00  0.00     0.125 A 
HETATM   15  N7  UNL     1     -36.100 -65.309 -10.542  1.00  0.00    -0.236 N 
HETATM   16  O6  UNL     1     -37.308 -65.756 -10.610  1.00  0.00    -0.155 OA
ATOM     17  H7  UNL     1     -35.299 -65.724 -11.018  1.00  0.00     0.197 HD
HETATM   18  N8  UNL     1     -38.071 -65.002  -9.892  1.00  0.00    -0.224 N 
HETATM   19  C11 UNL     1     -37.320 -63.997  -9.315  1.00  0.00     0.152 A 
ATOM     20  H8  UNL     1     -39.076 -65.130  -9.769  1.00  0.00     0.198 HD
BRANCH  19  21
HETATM   21  N9  UNL     1     -37.818 -63.105  -8.551  1.00  0.00    -0.382 N 
ATOM     22  H92 UNL     1     -37.503 -62.135  -8.546  1.00  0.00     0.157 HD
ATOM     23  H91 UNL     1     -38.560 -63.162  -7.853  1.00  0.00     0.157 HD
ENDBRANCH  19  21
ENDBRANCH  11  14
ENDBRANCH   8  10
ENDBRANCH   1   8
BRANCH   1  24
HETATM   24  O1  UNL     1     -32.399 -61.045 -11.228  1.00  0.00    -0.360 OA
ATOM     25  H1  UNL     1     -31.764 -60.454 -11.617  1.00  0.00     0.213 HD
ENDBRANCH   1  24
BRANCH   7  26
HETATM   26  N6  UNL     1     -29.994 -62.059  -9.394  1.00  0.00    -0.125 N 
HETATM   27  O4  UNL     1     -30.626 -61.347  -8.602  1.00  0.00    -0.535 OA
HETATM   28  O5  UNL     1     -28.826 -62.624  -8.947  1.00  0.00    -0.535 OA
ENDBRANCH   7  26
BRANCH   4  29
HETATM   29  S1  UNL     1     -30.918 -65.719 -12.828  1.00  0.00    -0.028 SA
BRANCH  29  30
HETATM   30  S2  UNL     1     -29.771 -65.550 -14.602  1.00  0.00    -0.015 SA
BRANCH  30  31
HETATM   31  C6  UNL     1     -29.881 -63.849 -15.151  1.00  0.00     0.144 C 
HETATM   32  N3  UNL     1     -30.980 -63.347 -15.649  1.00  0.00    -0.379 N 
ATOM     33  H32 UNL     1     -31.822 -63.916 -15.742  1.00  0.00     0.158 HD
ATOM     34  H31 UNL     1     -31.043 -62.378 -15.962  1.00  0.00     0.158 HD
BRANCH  31  35
HETATM   35  N4  UNL     1     -28.719 -63.063 -15.022  1.00  0.00    -0.368 N 
ATOM     36  H4  UNL     1     -28.712 -62.102 -15.368  1.00  0.00     0.161 HD
BRANCH  35  37
HETATM   37  C7  UNL     1     -27.545 -63.612 -14.406  1.00  0.00     0.147 C 
BRANCH  37  38
HETATM   38  C8  UNL     1     -27.199 -62.971 -13.101  1.00  0.00     0.183 C 
BRANCH  38  39
HETATM   39  O3  UNL     1     -27.071 -63.883 -12.072  1.00  0.00    -0.399 OA
ATOM     40  H3  UNL     1     -26.342 -63.688 -11.495  1.00  0.00     0.209 HD
ENDBRANCH  38  39
ENDBRANCH  37  38
ENDBRANCH  35  37
ENDBRANCH  31  35
ENDBRANCH  30  31
ENDBRANCH  29  30
ENDBRANCH   4  29
TORSDOF 13
ENDMDL
MODEL 2
REMARK VINA RESULT: -8.482521068      2.445      7.177
REMARK  13 active torsions:
REMARK  status: ('A' for Active; 'I' for Inactive)
REMARK    1  A    between atoms: C2_2  and  C10_31 
REMARK    2  A    between atoms: N1_3  and  N2_5 
REMARK    3  A    between atoms: N2_5  and  C3_7 
REMARK    4  A    between atoms: C3_7  and  O1_8 
REMARK    5  A    between atoms: C5_12  and  S1_13 
REMARK    6  A    between atoms: S1_13  and  S2_14 
REMARK    7  A    between atoms: S2_14  and  C6_15 
REMARK    8  A    between atoms: C6_15  and  N4_19 
REMARK    9  A    between atoms: N4_19  and  C7_21 
REMARK   10  A    between atoms: C7_21  and  C8_22 
REMARK   11  A    between atoms: C8_22  and  O3_23 
REMARK   12  A    between atoms: C9_27  and  N6_28 
REMARK   13  A    between atoms: C11_37  and  N9_38 
ROOT
HETATM    1  C3  UNL     1     -30.665 -63.450 -10.562  1.00  0.00     0.259 C 
HETATM    2  C4  UNL     1     -31.971 -63.808 -11.246  1.00  0.00     0.243 C 
HETATM    3  O2  UNL     1     -32.422 -64.933 -11.538  1.00  0.00    -0.284 OA
HETATM    4  C5  UNL     1     -32.585 -62.515 -11.488  1.00  0.00     0.130 C 
HETATM    5  N5  UNL     1     -32.093 -61.648 -10.633  1.00  0.00    -0.350 N 
ATOM      6  H5  UNL     1     -32.357 -60.664 -10.590  1.00  0.00     0.162 HD
HETATM    7  C9  UNL     1     -31.126 -62.276  -9.762  1.00  0.00     0.320 C 
ENDROOT
BRANCH   1   8
HETATM    8  N2  UNL     1     -29.734 -63.126 -11.604  1.00  0.00    -0.291 N 
ATOM      9  H2  UNL     1     -29.061 -62.376 -11.444  1.00  0.00     0.184 HD
BRANCH   8  10
HETATM   10  N1  UNL     1     -29.709 -63.796 -12.828  1.00  0.00    -0.304 N 
HETATM   11  C2  UNL     1     -28.642 -63.642 -13.574  1.00  0.00     0.054 C 
HETATM   12  C1  UNL     1     -27.540 -62.794 -13.114  1.00  0.00     0.072 C 
ATOM     13  H1  UNL     1     -30.488 -64.381 -13.130  1.00  0.00     0.186 HD
BRANCH  11  14
HETATM   14  C10 UNL     1     -28.622 -64.338 -14.840  1.00  0.00     0.125 A 
HETATM   15  N7  UNL     1     -27.952 -65.515 -15.077  1.00  0.00    -0.236 N 
HETATM   16  O6  UNL     1     -28.117 -65.894 -16.299  1.00  0.00    -0.155 OA
ATOM     17  H7  UNL     1     -27.400 -66.018 -14.383  1.00  0.00     0.197 HD
HETATM   18  N8  UNL     1     -28.868 -65.034 -16.903  1.00  0.00    -0.224 N 
HETATM   19  C11 UNL     1     -29.217 -64.027 -16.027  1.00  0.00     0.152 A 
ATOM     20  H8  UNL     1     -29.158 -65.091 -17.879  1.00  0.00     0.198 HD
BRANCH  19  21
HETATM   21  N9  UNL     1     -29.957 -63.041 -16.355  1.00  0.00    -0.382 N 
ATOM     22  H92 UNL     1     -30.956 -63.000 -16.151  1.00  0.00     0.157 HD
ATOM     23  H91 UNL     1     -29.734 -62.172 -16.841  1.00  0.00     0.157 HD
ENDBRANCH  19  21
ENDBRANCH  11  14
ENDBRANCH   8  10
ENDBRANCH   1   8
BRANCH   1  24
HETATM   24  O1  UNL     1     -30.293 -64.554  -9.805  1.00  0.00    -0.360 OA
ATOM     25  H1  UNL     1     -31.020 -65.122  -9.577  1.00  0.00     0.213 HD
ENDBRANCH   1  24
BRANCH   7  26
HETATM   26  N6  UNL     1     -30.050 -61.402  -9.377  1.00  0.00    -0.125 N 
HETATM   27  O4  UNL     1     -29.246 -60.889 -10.166  1.00  0.00    -0.535 OA
HETATM   28  O5  UNL     1     -29.901 -61.115  -8.042  1.00  0.00    -0.535 OA
ENDBRANCH   7  26
BRANCH   4  29
HETATM   29  S1  UNL     1     -33.809 -62.181 -12.739  1.00  0.00    -0.028 SA
BRANCH  29  30
HETATM   30  S2  UNL     1     -35.730 -62.446 -11.884  1.00  0.00    -0.015 SA
BRANCH  30  31
HETATM   31  C6  UNL     1     -35.542 -63.526 -10.468  1.00  0.00     0.144 C 
HETATM   32  N3  UNL     1     -35.496 -64.827 -10.585  1.00  0.00    -0.379 N 
ATOM     33  H32 UNL     1     -35.566 -65.274 -11.499  1.00  0.00     0.158 HD
ATOM     34  H31 UNL     1     -35.388 -65.443  -9.778  1.00  0.00     0.158 HD
BRANCH  31  35
HETATM   35  N4  UNL     1     -35.444 -62.909  -9.206  1.00  0.00    -0.368 N 
ATOM     36  H4  UNL     1     -34.994 -63.399  -8.431  1.00  0.00     0.161 HD
BRANCH  35  37
HETATM   37  C7  UNL     1     -35.977 -61.591  -9.008  1.00  0.00     0.147 C 
BRANCH  37  38
HETATM   38  C8  UNL     1     -36.093 -61.202  -7.569  1.00  0.00     0.183 C 
BRANCH  38  39
HETATM   39  O3  UNL     1     -35.256 -61.931  -6.748  1.00  0.00    -0.399 OA
ATOM     40  H3  UNL     1     -34.351 -61.919  -7.038  1.00  0.00     0.209 HD
ENDBRANCH  38  39
ENDBRANCH  37  38
ENDBRANCH  35  37
ENDBRANCH  31  35
ENDBRANCH  30  31
ENDBRANCH  29  30
ENDBRANCH   4  29
TORSDOF 13
ENDMDL
MODEL 3
REMARK VINA RESULT: -8.480611943      2.396      7.354
REMARK  13 active torsions:
REMARK  status: ('A' for Active; 'I' for Inactive)
REMARK    1  A    between atoms: C2_2  and  C10_31 
REMARK    2  A    between atoms: N1_3  and  N2_5 
REMARK    3  A    between atoms: N2_5  and  C3_7 
REMARK    4  A    between atoms: C3_7  and  O1_8 
REMARK    5  A    between atoms: C5_12  and  S1_13 
REMARK    6  A    between atoms: S1_13  and  S2_14 
REMARK    7  A    between atoms: S2_14  and  C6_15 
REMARK    8  A    between atoms: C6_15  and  N4_19 
REMARK    9  A    between atoms: N4_19  and  C7_21 
REMARK   10  A    between atoms: C7_21  and  C8_22 
REMARK   11  A    between atoms: C8_22  and  O3_23 
REMARK   12  A    between atoms: C9_27  and  N6_28 
REMARK   13  A    between atoms: C11_37  and  N9_38 
ROOT
HETATM    1  C3  UNL     1     -30.819 -63.507 -10.627  1.00  0.00     0.259 C 
HETATM    2  C4  UNL     1     -32.100 -63.819 -11.376  1.00  0.00     0.243 C 
HETATM    3  O2  UNL     1     -32.604 -64.927 -11.645  1.00  0.00    -0.284 OA
HETATM    4  C5  UNL     1     -32.615 -62.504 -11.716  1.00  0.00     0.130 C 
HETATM    5  N5  UNL     1     -32.121 -61.628 -10.872  1.00  0.00    -0.350 N 
ATOM      6  H5  UNL     1     -32.324 -60.629 -10.891  1.00  0.00     0.162 HD
HETATM    7  C9  UNL     1     -31.252 -62.269  -9.913  1.00  0.00     0.320 C 
ENDROOT
BRANCH   1   8
HETATM    8  N2  UNL     1     -29.807 -63.293 -11.621  1.00  0.00    -0.291 N 
ATOM      9  H2  UNL     1     -28.945 -62.820 -11.348  1.00  0.00     0.184 HD
BRANCH   8  10
HETATM   10  N1  UNL     1     -29.952 -63.707 -12.946  1.00  0.00    -0.304 N 
HETATM   11  C2  UNL     1     -28.928 -63.526 -13.745  1.00  0.00     0.054 C 
HETATM   12  C1  UNL     1     -27.698 -62.913 -13.238  1.00  0.00     0.072 C 
ATOM     13  H1  UNL     1     -30.817 -64.131 -13.279  1.00  0.00     0.186 HD
BRANCH  11  14
HETATM   14  C10 UNL     1     -29.084 -63.957 -15.116  1.00  0.00     0.125 A 
HETATM   15  N7  UNL     1     -29.841 -63.307 -16.061  1.00  0.00    -0.236 N 
HETATM   16  O6  UNL     1     -29.788 -63.927 -17.191  1.00  0.00    -0.155 OA
ATOM     17  H7  UNL     1     -30.370 -62.452 -15.892  1.00  0.00     0.197 HD
HETATM   18  N8  UNL     1     -29.032 -64.966 -17.060  1.00  0.00    -0.224 N 
HETATM   19  C11 UNL     1     -28.558 -65.035 -15.766  1.00  0.00     0.152 A 
ATOM     20  H8  UNL     1     -28.818 -65.634 -17.801  1.00  0.00     0.198 HD
BRANCH  19  21
HETATM   21  N9  UNL     1     -27.785 -65.962 -15.354  1.00  0.00    -0.382 N 
ATOM     22  H92 UNL     1     -26.794 -65.816 -15.156  1.00  0.00     0.157 HD
ATOM     23  H91 UNL     1     -27.969 -66.945 -15.153  1.00  0.00     0.157 HD
ENDBRANCH  19  21
ENDBRANCH  11  14
ENDBRANCH   8  10
ENDBRANCH   1   8
BRANCH   1  24
HETATM   24  O1  UNL     1     -30.565 -64.593  -9.798  1.00  0.00    -0.360 OA
ATOM     25  H1  UNL     1     -29.957 -65.222 -10.168  1.00  0.00     0.213 HD
ENDBRANCH   1  24
BRANCH   7  26
HETATM   26  N6  UNL     1     -30.147 -61.444  -9.500  1.00  0.00    -0.125 N 
HETATM   27  O4  UNL     1     -29.338 -60.917 -10.274  1.00  0.00    -0.535 OA
HETATM   28  O5  UNL     1     -29.976 -61.225  -8.155  1.00  0.00    -0.535 OA
ENDBRANCH   7  26
BRANCH   4  29
HETATM   29  S1  UNL     1     -33.737 -62.160 -13.057  1.00  0.00    -0.028 SA
BRANCH  29  30
HETATM   30  S2  UNL     1     -35.720 -62.299 -12.323  1.00  0.00    -0.015 SA
BRANCH  30  31
HETATM   31  C6  UNL     1     -35.641 -63.069 -10.709  1.00  0.00     0.144 C 
HETATM   32  N3  UNL     1     -35.535 -64.363 -10.558  1.00  0.00    -0.379 N 
ATOM     33  H32 UNL     1     -35.494 -64.983 -11.367  1.00  0.00     0.158 HD
ATOM     34  H31 UNL     1     -35.491 -64.802  -9.639  1.00  0.00     0.158 HD
BRANCH  31  35
HETATM   35  N4  UNL     1     -35.698 -62.213  -9.592  1.00  0.00    -0.368 N 
ATOM     36  H4  UNL     1     -35.203 -61.320  -9.607  1.00  0.00     0.161 HD
BRANCH  35  37
HETATM   37  C7  UNL     1     -36.452 -62.596  -8.432  1.00  0.00     0.147 C 
BRANCH  37  38
HETATM   38  C8  UNL     1     -37.920 -62.711  -8.684  1.00  0.00     0.183 C 
BRANCH  38  39
HETATM   39  O3  UNL     1     -38.342 -64.019  -8.811  1.00  0.00    -0.399 OA
ATOM     40  H3  UNL     1     -37.848 -64.505  -9.462  1.00  0.00     0.209 HD
ENDBRANCH  38  39
ENDBRANCH  37  38
ENDBRANCH  35  37
ENDBRANCH  31  35
ENDBRANCH  30  31
ENDBRANCH  29  30
ENDBRANCH   4  29
TORSDOF 13
ENDMDL
MODEL 4
REMARK VINA RESULT: -8.473237222      2.380      7.254
REMARK  13 active torsions:
REMARK  status: ('A' for Active; 'I' for Inactive)
REMARK    1  A    between atoms: C2_2  and  C10_31 
REMARK    2  A    between atoms: N1_3  and  N2_5 
REMARK    3  A    between atoms: N2_5  and  C3_7 
REMARK    4  A    between atoms: C3_7  and  O1_8 
REMARK    5  A    between atoms: C5_12  and  S1_13 
REMARK    6  A    between atoms: S1_13  and  S2_14 
REMARK    7  A    between atoms: S2_14  and  C6_15 
REMARK    8  A    between atoms: C6_15  and  N4_19 
REMARK    9  A    between atoms: N4_19  and  C7_21 
REMARK   10  A    between atoms: C7_21  and  C8_22 
REMARK   11  A    between atoms: C8_22  and  O3_23 
REMARK   12  A    between atoms: C9_27  and  N6_28 
REMARK   13  A    between atoms: C11_37  and  N9_38 
ROOT
HETATM    1  C3  UNL     1     -30.846 -63.496 -10.609  1.00  0.00     0.259 C 
HETATM    2  C4  UNL     1     -32.126 -63.780 -11.372  1.00  0.00     0.243 C 
HETATM    3  O2  UNL     1     -32.654 -64.877 -11.640  1.00  0.00    -0.284 OA
HETATM    4  C5  UNL     1     -32.602 -62.455 -11.728  1.00  0.00     0.130 C 
HETATM    5  N5  UNL     1     -32.096 -61.586 -10.884  1.00  0.00    -0.350 N 
ATOM      6  H5  UNL     1     -32.273 -60.582 -10.912  1.00  0.00     0.162 HD
HETATM    7  C9  UNL     1     -31.256 -62.242  -9.909  1.00  0.00     0.320 C 
ENDROOT
BRANCH   1   8
HETATM    8  N2  UNL     1     -29.816 -63.316 -11.591  1.00  0.00    -0.291 N 
ATOM      9  H2  UNL     1     -28.944 -62.869 -11.309  1.00  0.00     0.184 HD
BRANCH   8  10
HETATM   10  N1  UNL     1     -29.959 -63.727 -12.918  1.00  0.00    -0.304 N 
HETATM   11  C2  UNL     1     -28.943 -63.520 -13.721  1.00  0.00     0.054 C 
HETATM   12  C1  UNL     1     -27.725 -62.881 -13.217  1.00  0.00     0.072 C 
ATOM     13  H1  UNL     1     -30.816 -64.169 -13.248  1.00  0.00     0.186 HD
BRANCH  11  14
HETATM   14  C10 UNL     1     -29.096 -63.949 -15.092  1.00  0.00     0.125 A 
HETATM   15  N7  UNL     1     -29.826 -63.281 -16.046  1.00  0.00    -0.236 N 
HETATM   16  O6  UNL     1     -29.779 -63.904 -17.175  1.00  0.00    -0.155 OA
ATOM     17  H7  UNL     1     -30.335 -62.412 -15.884  1.00  0.00     0.197 HD
HETATM   18  N8  UNL     1     -29.051 -64.961 -17.035  1.00  0.00    -0.224 N 
HETATM   19  C11 UNL     1     -28.592 -65.040 -15.736  1.00  0.00     0.152 A 
ATOM     20  H8  UNL     1     -28.847 -65.636 -17.773  1.00  0.00     0.198 HD
BRANCH  19  21
HETATM   21  N9  UNL     1     -27.847 -65.987 -15.315  1.00  0.00    -0.382 N 
ATOM     22  H92 UNL     1     -27.946 -66.405 -14.389  1.00  0.00     0.157 HD
ATOM     23  H91 UNL     1     -27.075 -66.479 -15.764  1.00  0.00     0.157 HD
ENDBRANCH  19  21
ENDBRANCH  11  14
ENDBRANCH   8  10
ENDBRANCH   1   8
BRANCH   1  24
HETATM   24  O1  UNL     1     -30.631 -64.582  -9.769  1.00  0.00    -0.360 OA
ATOM     25  H1  UNL     1     -29.798 -65.015  -9.912  1.00  0.00     0.213 HD
ENDBRANCH   1  24
BRANCH   7  26
HETATM   26  N6  UNL     1     -30.136 -61.443  -9.488  1.00  0.00    -0.125 N 
HETATM   27  O4  UNL     1     -29.305 -60.939 -10.255  1.00  0.00    -0.535 OA
HETATM   28  O5  UNL     1     -29.974 -61.222  -8.142  1.00  0.00    -0.535 OA
ENDBRANCH   7  26
BRANCH   4  29
HETATM   29  S1  UNL     1     -33.697 -62.091 -13.086  1.00  0.00    -0.028 SA
BRANCH  29  30
HETATM   30  S2  UNL     1     -35.695 -62.269 -12.401  1.00  0.00    -0.015 SA
BRANCH  30  31
HETATM   31  C6  UNL     1     -35.631 -62.857 -10.711  1.00  0.00     0.144 C 
HETATM   32  N3  UNL     1     -35.554 -62.043  -9.691  1.00  0.00    -0.379 N 
ATOM     33  H32 UNL     1     -35.529 -61.032  -9.829  1.00  0.00     0.158 HD
ATOM     34  H31 UNL     1     -35.517 -62.377  -8.728  1.00  0.00     0.158 HD
BRANCH  31  35
HETATM   35  N4  UNL     1     -35.666 -64.252 -10.520  1.00  0.00    -0.368 N 
ATOM     36  H4  UNL     1     -34.828 -64.811 -10.685  1.00  0.00     0.161 HD
BRANCH  35  37
HETATM   37  C7  UNL     1     -36.880 -64.888 -10.095  1.00  0.00     0.147 C 
BRANCH  37  38
HETATM   38  C8  UNL     1     -36.822 -66.381 -10.142  1.00  0.00     0.183 C 
BRANCH  38  39
HETATM   39  O3  UNL     1     -37.721 -66.980  -9.283  1.00  0.00    -0.399 OA
ATOM     40  H3  UNL     1     -38.474 -67.347  -9.732  1.00  0.00     0.209 HD
ENDBRANCH  38  39
ENDBRANCH  37  38
ENDBRANCH  35  37
ENDBRANCH  31  35
ENDBRANCH  30  31
ENDBRANCH  29  30
ENDBRANCH   4  29
TORSDOF 13
ENDMDL
MODEL 5
REMARK VINA RESULT: -8.466742564      2.294      7.371
REMARK  13 active torsions:
REMARK  status: ('A' for Active; 'I' for Inactive)
REMARK    1  A    between atoms: C2_2  and  C10_31 
REMARK    2  A    between atoms: N1_3  and  N2_5 
REMARK    3  A    between atoms: N2_5  and  C3_7 
REMARK    4  A    between atoms: C3_7  and  O1_8 
REMARK    5  A    between atoms: C5_12  and  S1_13 
REMARK    6  A    between atoms: S1_13  and  S2_14 
REMARK    7  A    between atoms: S2_14  and  C6_15 
REMARK    8  A    between atoms: C6_15  and  N4_19 
REMARK    9  A    between atoms: N4_19  and  C7_21 
REMARK   10  A    between atoms: C7_21  and  C8_22 
REMARK   11  A    between atoms: C8_22  and  O3_23 
REMARK   12  A    between atoms: C9_27  and  N6_28 
REMARK   13  A    between atoms: C11_37  and  N9_38 
ROOT
HETATM    1  C3  UNL     1     -30.641 -63.481 -10.576  1.00  0.00     0.259 C 
HETATM    2  C4  UNL     1     -31.901 -63.830 -11.345  1.00  0.00     0.243 C 
HETATM    3  O2  UNL     1     -32.360 -64.952 -11.633  1.00  0.00    -0.284 OA
HETATM    4  C5  UNL     1     -32.459 -62.531 -11.676  1.00  0.00     0.130 C 
HETATM    5  N5  UNL     1     -32.008 -61.647 -10.816  1.00  0.00    -0.350 N 
ATOM      6  H5  UNL     1     -32.247 -60.656 -10.825  1.00  0.00     0.162 HD
HETATM    7  C9  UNL     1     -31.128 -62.268  -9.853  1.00  0.00     0.320 C 
ENDROOT
BRANCH   1   8
HETATM    8  N2  UNL     1     -29.625 -63.218 -11.554  1.00  0.00    -0.291 N 
ATOM      9  H2  UNL     1     -28.907 -62.527 -11.339  1.00  0.00     0.184 HD
BRANCH   8  10
HETATM   10  N1  UNL     1     -29.578 -63.871 -12.787  1.00  0.00    -0.304 N 
HETATM   11  C2  UNL     1     -28.521 -63.665 -13.533  1.00  0.00     0.054 C 
HETATM   12  C1  UNL     1     -27.451 -62.780 -13.065  1.00  0.00     0.072 C 
ATOM     13  H1  UNL     1     -30.335 -64.482 -13.093  1.00  0.00     0.186 HD
BRANCH  11  14
HETATM   14  C10 UNL     1     -28.477 -64.344 -14.808  1.00  0.00     0.125 A 
HETATM   15  N7  UNL     1     -27.717 -65.457 -15.079  1.00  0.00    -0.236 N 
HETATM   16  O6  UNL     1     -27.884 -65.836 -16.300  1.00  0.00    -0.155 OA
ATOM     17  H7  UNL     1     -27.105 -65.919 -14.406  1.00  0.00     0.197 HD
HETATM   18  N8  UNL     1     -28.722 -65.037 -16.873  1.00  0.00    -0.224 N 
HETATM   19  C11 UNL     1     -29.130 -64.072 -15.974  1.00  0.00     0.152 A 
ATOM     20  H8  UNL     1     -29.034 -65.108 -17.841  1.00  0.00     0.198 HD
BRANCH  19  21
HETATM   21  N9  UNL     1     -29.960 -63.149 -16.270  1.00  0.00    -0.382 N 
ATOM     22  H92 UNL     1     -30.563 -62.699 -15.581  1.00  0.00     0.157 HD
ATOM     23  H91 UNL     1     -30.177 -62.708 -17.163  1.00  0.00     0.157 HD
ENDBRANCH  19  21
ENDBRANCH  11  14
ENDBRANCH   8  10
ENDBRANCH   1   8
BRANCH   1  24
HETATM   24  O1  UNL     1     -30.358 -64.566  -9.756  1.00  0.00    -0.360 OA
ATOM     25  H1  UNL     1     -31.030 -64.739  -9.106  1.00  0.00     0.213 HD
ENDBRANCH   1  24
BRANCH   7  26
HETATM   26  N6  UNL     1     -30.060 -61.409  -9.416  1.00  0.00    -0.125 N 
HETATM   27  O4  UNL     1     -29.226 -60.888 -10.168  1.00  0.00    -0.535 OA
HETATM   28  O5  UNL     1     -29.955 -61.146  -8.072  1.00  0.00    -0.535 OA
ENDBRANCH   7  26
BRANCH   4  29
HETATM   29  S1  UNL     1     -33.575 -62.211 -13.027  1.00  0.00    -0.028 SA
BRANCH  29  30
HETATM   30  S2  UNL     1     -35.561 -62.314 -12.294  1.00  0.00    -0.015 SA
BRANCH  30  31
HETATM   31  C6  UNL     1     -35.500 -63.115 -10.694  1.00  0.00     0.144 C 
HETATM   32  N3  UNL     1     -35.292 -64.399 -10.564  1.00  0.00    -0.379 N 
ATOM     33  H32 UNL     1     -35.156 -64.993 -11.382  1.00  0.00     0.158 HD
ATOM     34  H31 UNL     1     -35.258 -64.855  -9.652  1.00  0.00     0.158 HD
BRANCH  31  35
HETATM   35  N4  UNL     1     -35.687 -62.294  -9.564  1.00  0.00    -0.368 N 
ATOM     36  H4  UNL     1     -35.234 -61.381  -9.516  1.00  0.00     0.161 HD
BRANCH  35  37
HETATM   37  C7  UNL     1     -36.515 -62.743  -8.481  1.00  0.00     0.147 C 
BRANCH  37  38
HETATM   38  C8  UNL     1     -37.965 -62.832  -8.832  1.00  0.00     0.183 C 
BRANCH  38  39
HETATM   39  O3  UNL     1     -38.456 -64.120  -8.761  1.00  0.00    -0.399 OA
ATOM     40  H3  UNL     1     -39.334 -64.200  -9.117  1.00  0.00     0.209 HD
ENDBRANCH  38  39
ENDBRANCH  37  38
ENDBRANCH  35  37
ENDBRANCH  31  35
ENDBRANCH  30  31
ENDBRANCH  29  30
ENDBRANCH   4  29
TORSDOF 13
ENDMDL
