MODEL 1
REMARK VINA RESULT: -9.915130361      0.000      0.000
REMARK  8 active torsions:
REMARK  status: ('A' for Active; 'I' for Inactive)
REMARK    1  A    between atoms: C3_9  and  C4_10 
REMARK    2  A    between atoms: C6_14  and  N5_15 
REMARK    3  A    between atoms: C7_20  and  C8_21 
REMARK       I    between atoms: C8_21  and  N7_23 
REMARK    4  A    between atoms: N7_23  and  C9_25 
REMARK    5  A    between atoms: C9_25  and  O2_26 
REMARK    6  A    between atoms: C9_25  and  C10_28 
REMARK    7  A    between atoms: C11_32  and  C12_33 
REMARK    8  A    between atoms: C12_33  and  C13_34 
ROOT
HETATM    1  C4  UNL     1     -29.926 -64.236 -12.607  1.00  0.00     0.150 A 
HETATM    2  N4  UNL     1     -30.004 -63.389 -11.569  1.00  0.00    -0.321 N 
ATOM      3  H4  UNL     1     -29.231 -62.820 -11.223  1.00  0.00     0.169 HD
HETATM    4  C5  UNL     1     -31.252 -63.394 -11.044  1.00  0.00     0.191 A 
HETATM    5  C6  UNL     1     -31.846 -62.718  -9.992  1.00  0.00     0.149 A 
HETATM    6  N6  UNL     1     -33.141 -62.942  -9.706  1.00  0.00    -0.320 N 
ATOM      7  H6  UNL     1     -33.588 -62.450  -8.933  1.00  0.00     0.169 HD
HETATM    8  C7  UNL     1     -33.843 -63.819 -10.447  1.00  0.00     0.192 A 
HETATM    9  N10 UNL     1     -33.214 -64.449 -11.461  1.00  0.00    -0.258 N 
ATOM     10  H10 UNL     1     -33.757 -65.111 -12.016  1.00  0.00     0.191 HD
HETATM   11  N11 UNL     1     -31.952 -64.270 -11.785  1.00  0.00    -0.173 N 
HETATM   12  N12 UNL     1     -31.150 -64.776 -12.725  1.00  0.00    -0.262 N 
ATOM     13  H12 UNL     1     -31.425 -65.465 -13.424  1.00  0.00     0.190 HD
ENDROOT
BRANCH   8  14
HETATM   14  C8  UNL     1     -35.245 -64.075 -10.153  1.00  0.00     0.289 C 
HETATM   15  O1  UNL     1     -35.707 -65.226 -10.455  1.00  0.00    -0.264 OA
HETATM   16  N7  UNL     1     -36.139 -63.160  -9.567  1.00  0.00    -0.322 N 
ATOM     17  H7  UNL     1     -35.795 -62.232  -9.317  1.00  0.00     0.165 HD
BRANCH  16  18
HETATM   18  C9  UNL     1     -37.523 -63.479  -9.301  1.00  0.00     0.291 C 
BRANCH  18  19
HETATM   19  O2  UNL     1     -38.131 -64.004 -10.457  1.00  0.00    -0.369 OA
ATOM     20  H2  UNL     1     -38.327 -64.925 -10.335  1.00  0.00     0.212 HD
ENDBRANCH  18  19
BRANCH  18  21
HETATM   21  C10 UNL     1     -38.193 -62.188  -8.917  1.00  0.00     0.153 A 
HETATM   22  N8  UNL     1     -39.394 -61.758  -9.340  1.00  0.00    -0.243 N 
HETATM   23  O3  UNL     1     -39.637 -60.604  -8.795  1.00  0.00    -0.222 OA
ATOM     24  H8  UNL     1     -40.012 -62.256  -9.981  1.00  0.00     0.196 HD
HETATM   25  C11 UNL     1     -38.636 -60.245  -8.019  1.00  0.00     0.158 A 
HETATM   26  N9  UNL     1     -37.737 -61.226  -8.093  1.00  0.00    -0.323 N 
ATOM     27  H9  UNL     1     -36.844 -61.245  -7.602  1.00  0.00     0.169 HD
BRANCH  25  28
HETATM   28  C12 UNL     1     -38.627 -58.970  -7.262  1.00  0.00     0.199 C 
BRANCH  28  29
HETATM   29  C13 UNL     1     -37.240 -58.604  -6.881  1.00  0.00     0.180 C 
HETATM   30  O4  UNL     1     -36.671 -57.634  -7.435  1.00  0.00    -0.648 OA
HETATM   31  O5  UNL     1     -36.623 -59.372  -5.907  1.00  0.00    -0.648 OA
ENDBRANCH  28  29
ENDBRANCH  25  28
ENDBRANCH  18  21
ENDBRANCH  16  18
ENDBRANCH   8  14
BRANCH   5  32
HETATM   32  N5  UNL     1     -31.172 -61.887  -9.294  1.00  0.00    -0.382 N 
ATOM     33  H52 UNL     1     -31.149 -60.901  -9.556  1.00  0.00     0.157 HD
ATOM     34  H51 UNL     1     -30.655 -62.201  -8.473  1.00  0.00     0.157 HD
ENDBRANCH   5  32
BRANCH   1  35
HETATM   35  C3  UNL     1     -28.728 -64.533 -13.467  1.00  0.00     0.310 C 
HETATM   36  N3  UNL     1     -28.812 -63.694 -14.613  1.00  0.00    -0.304 N 
HETATM   37  N2  UNL     1     -27.794 -62.797 -14.794  1.00  0.00    -0.135 NA
ATOM     38  H3  UNL     1     -29.592 -63.758 -15.267  1.00  0.00     0.179 HD
HETATM   39  C2  UNL     1     -26.472 -63.335 -14.576  1.00  0.00     0.218 C 
HETATM   40  C1  UNL     1     -26.385 -64.094 -13.303  1.00  0.00     0.131 C 
HETATM   41  N1  UNL     1     -25.247 -64.489 -12.852  1.00  0.00    -0.382 N 
HETATM   42  O6  UNL     1     -27.593 -64.335 -12.663  1.00  0.00    -0.305 OA
ATOM     43  H12 UNL     1     -24.359 -64.312 -13.322  1.00  0.00     0.158 HD
ATOM     44  H11 UNL     1     -25.187 -65.011 -11.978  1.00  0.00     0.158 HD
ENDBRANCH   1  35
TORSDOF 8
ENDMDL
MODEL 2
REMARK VINA RESULT: -9.662741344      1.247      1.489
REMARK  8 active torsions:
REMARK  status: ('A' for Active; 'I' for Inactive)
REMARK    1  A    between atoms: C3_9  and  C4_10 
REMARK    2  A    between atoms: C6_14  and  N5_15 
REMARK    3  A    between atoms: C7_20  and  C8_21 
REMARK       I    between atoms: C8_21  and  N7_23 
REMARK    4  A    between atoms: N7_23  and  C9_25 
REMARK    5  A    between atoms: C9_25  and  O2_26 
REMARK    6  A    between atoms: C9_25  and  C10_28 
REMARK    7  A    between atoms: C11_32  and  C12_33 
REMARK    8  A    between atoms: C12_33  and  C13_34 
ROOT
HETATM    1  C4  UNL     1     -30.552 -63.881 -13.601  1.00  0.00     0.150 A 
HETATM    2  N4  UNL     1     -30.340 -63.327 -12.397  1.00  0.00    -0.321 N 
ATOM      3  H4  UNL     1     -29.456 -62.920 -12.092  1.00  0.00     0.169 HD
HETATM    4  C5  UNL     1     -31.464 -63.384 -11.643  1.00  0.00     0.191 A 
HETATM    5  C6  UNL     1     -31.772 -62.965 -10.360  1.00  0.00     0.149 A 
HETATM    6  N6  UNL     1     -33.010 -63.169  -9.876  1.00  0.00    -0.320 N 
ATOM      7  H6  UNL     1     -33.248 -62.865  -8.932  1.00  0.00     0.169 HD
HETATM    8  C7  UNL     1     -33.934 -63.776 -10.644  1.00  0.00     0.192 A 
HETATM    9  N10 UNL     1     -33.578 -64.163 -11.887  1.00  0.00    -0.258 N 
ATOM     10  H10 UNL     1     -34.286 -64.622 -12.461  1.00  0.00     0.191 HD
HETATM   11  N11 UNL     1     -32.384 -63.991 -12.412  1.00  0.00    -0.173 N 
HETATM   12  N12 UNL     1     -31.832 -64.289 -13.590  1.00  0.00    -0.262 N 
ATOM     13  H12 UNL     1     -32.309 -64.753 -14.362  1.00  0.00     0.190 HD
ENDROOT
BRANCH   8  14
HETATM   14  C8  UNL     1     -35.278 -64.005 -10.138  1.00  0.00     0.289 C 
HETATM   15  O1  UNL     1     -35.767 -65.176 -10.279  1.00  0.00    -0.264 OA
HETATM   16  N7  UNL     1     -36.090 -63.044  -9.507  1.00  0.00    -0.322 N 
ATOM     17  H7  UNL     1     -35.724 -62.100  -9.384  1.00  0.00     0.165 HD
BRANCH  16  18
HETATM   18  C9  UNL     1     -37.421 -63.338  -9.026  1.00  0.00     0.291 C 
BRANCH  18  19
HETATM   19  O2  UNL     1     -38.182 -63.944 -10.043  1.00  0.00    -0.369 OA
ATOM     20  H2  UNL     1     -37.652 -64.575 -10.517  1.00  0.00     0.212 HD
ENDBRANCH  18  19
BRANCH  18  21
HETATM   21  C10 UNL     1     -38.039 -62.021  -8.646  1.00  0.00     0.153 A 
HETATM   22  N8  UNL     1     -39.251 -61.574  -9.017  1.00  0.00    -0.243 N 
HETATM   23  O3  UNL     1     -39.437 -60.398  -8.495  1.00  0.00    -0.222 OA
ATOM     24  H8  UNL     1     -39.914 -62.074  -9.609  1.00  0.00     0.196 HD
HETATM   25  C11 UNL     1     -38.387 -60.042  -7.785  1.00  0.00     0.158 A 
HETATM   26  N9  UNL     1     -37.517 -61.047  -7.877  1.00  0.00    -0.323 N 
ATOM     27  H9  UNL     1     -36.599 -61.075  -7.434  1.00  0.00     0.169 HD
BRANCH  25  28
HETATM   28  C12 UNL     1     -38.308 -58.747  -7.068  1.00  0.00     0.199 C 
BRANCH  28  29
HETATM   29  C13 UNL     1     -36.924 -58.504  -6.589  1.00  0.00     0.180 C 
HETATM   30  O4  UNL     1     -36.257 -57.549  -7.052  1.00  0.00    -0.648 OA
HETATM   31  O5  UNL     1     -36.421 -59.368  -5.629  1.00  0.00    -0.648 OA
ENDBRANCH  28  29
ENDBRANCH  25  28
ENDBRANCH  18  21
ENDBRANCH  16  18
ENDBRANCH   8  14
BRANCH   5  32
HETATM   32  N5  UNL     1     -30.890 -62.390  -9.637  1.00  0.00    -0.382 N 
ATOM     33  H52 UNL     1     -30.363 -61.600 -10.009  1.00  0.00     0.157 HD
ATOM     34  H51 UNL     1     -30.708 -62.714  -8.688  1.00  0.00     0.157 HD
ENDBRANCH   5  32
BRANCH   1  35
HETATM   35  C3  UNL     1     -29.575 -64.024 -14.736  1.00  0.00     0.310 C 
HETATM   36  N3  UNL     1     -28.362 -63.401 -14.330  1.00  0.00    -0.304 N 
HETATM   37  N2  UNL     1     -27.256 -64.204 -14.254  1.00  0.00    -0.135 NA
ATOM     38  H3  UNL     1     -28.318 -62.407 -14.107  1.00  0.00     0.179 HD
HETATM   39  C2  UNL     1     -27.089 -65.108 -15.367  1.00  0.00     0.218 C 
HETATM   40  C1  UNL     1     -28.343 -65.840 -15.679  1.00  0.00     0.131 C 
HETATM   41  N1  UNL     1     -28.340 -66.817 -16.517  1.00  0.00    -0.382 N 
HETATM   42  O6  UNL     1     -29.478 -65.397 -15.016  1.00  0.00    -0.305 OA
ATOM     43  H12 UNL     1     -27.505 -67.142 -17.004  1.00  0.00     0.158 HD
ATOM     44  H11 UNL     1     -29.200 -67.320 -16.731  1.00  0.00     0.158 HD
ENDBRANCH   1  35
TORSDOF 8
ENDMDL
MODEL 3
REMARK VINA RESULT: -9.635552636      2.238      2.673
REMARK  8 active torsions:
REMARK  status: ('A' for Active; 'I' for Inactive)
REMARK    1  A    between atoms: C3_9  and  C4_10 
REMARK    2  A    between atoms: C6_14  and  N5_15 
REMARK    3  A    between atoms: C7_20  and  C8_21 
REMARK       I    between atoms: C8_21  and  N7_23 
REMARK    4  A    between atoms: N7_23  and  C9_25 
REMARK    5  A    between atoms: C9_25  and  O2_26 
REMARK    6  A    between atoms: C9_25  and  C10_28 
REMARK    7  A    between atoms: C11_32  and  C12_33 
REMARK    8  A    between atoms: C12_33  and  C13_34 
ROOT
HETATM    1  C4  UNL     1     -31.558 -63.645 -14.725  1.00  0.00     0.150 A 
HETATM    2  N4  UNL     1     -32.595 -62.852 -15.038  1.00  0.00    -0.321 N 
ATOM      3  H4  UNL     1     -32.721 -62.387 -15.936  1.00  0.00     0.169 HD
HETATM    4  C5  UNL     1     -33.453 -62.758 -13.994  1.00  0.00     0.191 A 
HETATM    5  C6  UNL     1     -34.647 -62.085 -13.800  1.00  0.00     0.149 A 
HETATM    6  N6  UNL     1     -35.283 -62.190 -12.619  1.00  0.00    -0.320 N 
ATOM      7  H6  UNL     1     -36.163 -61.698 -12.466  1.00  0.00     0.169 HD
HETATM    8  C7  UNL     1     -34.751 -62.947 -11.642  1.00  0.00     0.192 A 
HETATM    9  N10 UNL     1     -33.585 -63.581 -11.886  1.00  0.00    -0.258 N 
ATOM     10  H10 UNL     1     -33.192 -64.153 -11.138  1.00  0.00     0.191 HD
HETATM   11  N11 UNL     1     -32.920 -63.515 -13.019  1.00  0.00    -0.173 N 
HETATM   12  N12 UNL     1     -31.779 -64.047 -13.462  1.00  0.00    -0.262 N 
ATOM     13  H12 UNL     1     -31.170 -64.664 -12.926  1.00  0.00     0.190 HD
ENDROOT
BRANCH   8  14
HETATM   14  C8  UNL     1     -35.424 -63.072 -10.358  1.00  0.00     0.289 C 
HETATM   15  O1  UNL     1     -34.712 -62.939  -9.307  1.00  0.00    -0.264 OA
HETATM   16  N7  UNL     1     -36.795 -63.330 -10.174  1.00  0.00    -0.322 N 
ATOM     17  H7  UNL     1     -37.386 -63.442 -10.998  1.00  0.00     0.165 HD
BRANCH  16  18
HETATM   18  C9  UNL     1     -37.402 -63.443  -8.867  1.00  0.00     0.291 C 
BRANCH  18  19
HETATM   19  O2  UNL     1     -38.413 -64.421  -8.885  1.00  0.00    -0.369 OA
ATOM     20  H2  UNL     1     -38.887 -64.418  -8.061  1.00  0.00     0.212 HD
ENDBRANCH  18  19
BRANCH  18  21
HETATM   21  C10 UNL     1     -38.001 -62.099  -8.557  1.00  0.00     0.153 A 
HETATM   22  N8  UNL     1     -39.189 -61.638  -8.986  1.00  0.00    -0.243 N 
HETATM   23  O3  UNL     1     -39.365 -60.441  -8.514  1.00  0.00    -0.222 OA
ATOM     24  H8  UNL     1     -39.843 -62.145  -9.583  1.00  0.00     0.196 HD
HETATM   25  C11 UNL     1     -38.332 -60.082  -7.781  1.00  0.00     0.158 A 
HETATM   26  N9  UNL     1     -37.483 -61.109  -7.806  1.00  0.00    -0.323 N 
ATOM     27  H9  UNL     1     -36.582 -61.140  -7.331  1.00  0.00     0.169 HD
BRANCH  25  28
HETATM   28  C12 UNL     1     -38.246 -58.763  -7.109  1.00  0.00     0.199 C 
BRANCH  28  29
HETATM   29  C13 UNL     1     -36.868 -58.523  -6.614  1.00  0.00     0.180 C 
HETATM   30  O4  UNL     1     -36.200 -57.558  -7.055  1.00  0.00    -0.648 OA
HETATM   31  O5  UNL     1     -36.370 -59.400  -5.663  1.00  0.00    -0.648 OA
ENDBRANCH  28  29
ENDBRANCH  25  28
ENDBRANCH  18  21
ENDBRANCH  16  18
ENDBRANCH   8  14
BRANCH   5  32
HETATM   32  N5  UNL     1     -35.145 -61.369 -14.733  1.00  0.00    -0.382 N 
ATOM     33  H52 UNL     1     -34.537 -60.960 -15.443  1.00  0.00     0.157 HD
ATOM     34  H51 UNL     1     -36.151 -61.200 -14.774  1.00  0.00     0.157 HD
ENDBRANCH   5  32
BRANCH   1  35
HETATM   35  C3  UNL     1     -30.386 -64.015 -15.592  1.00  0.00     0.310 C 
HETATM   36  N3  UNL     1     -29.293 -63.191 -15.201  1.00  0.00    -0.304 N 
HETATM   37  N2  UNL     1     -28.187 -63.832 -14.712  1.00  0.00    -0.135 NA
ATOM     38  H3  UNL     1     -29.333 -62.176 -15.281  1.00  0.00     0.179 HD
HETATM   39  C2  UNL     1     -27.783 -64.997 -15.462  1.00  0.00     0.218 C 
HETATM   40  C1  UNL     1     -28.928 -65.902 -15.739  1.00  0.00     0.131 C 
HETATM   41  N1  UNL     1     -28.732 -67.073 -16.235  1.00  0.00    -0.382 N 
HETATM   42  O6  UNL     1     -30.182 -65.396 -15.430  1.00  0.00    -0.305 OA
ATOM     43  H12 UNL     1     -27.810 -67.445 -16.462  1.00  0.00     0.158 HD
ATOM     44  H11 UNL     1     -29.518 -67.694 -16.425  1.00  0.00     0.158 HD
ENDBRANCH   1  35
TORSDOF 8
ENDMDL
MODEL 4
REMARK VINA RESULT: -9.632097329      2.002      2.688
REMARK  8 active torsions:
REMARK  status: ('A' for Active; 'I' for Inactive)
REMARK    1  A    between atoms: C3_9  and  C4_10 
REMARK    2  A    between atoms: C6_14  and  N5_15 
REMARK    3  A    between atoms: C7_20  and  C8_21 
REMARK       I    between atoms: C8_21  and  N7_23 
REMARK    4  A    between atoms: N7_23  and  C9_25 
REMARK    5  A    between atoms: C9_25  and  O2_26 
REMARK    6  A    between atoms: C9_25  and  C10_28 
REMARK    7  A    between atoms: C11_32  and  C12_33 
REMARK    8  A    between atoms: C12_33  and  C13_34 
ROOT
HETATM    1  C4  UNL     1     -31.566 -64.063 -12.047  1.00  0.00     0.150 A 
HETATM    2  N4  UNL     1     -32.135 -63.301 -12.994  1.00  0.00    -0.321 N 
ATOM      3  H4  UNL     1     -31.671 -62.990 -13.847  1.00  0.00     0.169 HD
HETATM    4  C5  UNL     1     -33.413 -63.002 -12.659  1.00  0.00     0.191 A 
HETATM    5  C6  UNL     1     -34.412 -62.266 -13.273  1.00  0.00     0.149 A 
HETATM    6  N6  UNL     1     -35.611 -62.147 -12.675  1.00  0.00    -0.320 N 
ATOM      7  H6  UNL     1     -36.353 -61.607 -13.119  1.00  0.00     0.169 HD
HETATM    8  C7  UNL     1     -35.825 -62.745 -11.489  1.00  0.00     0.192 A 
HETATM    9  N10 UNL     1     -34.816 -63.450 -10.936  1.00  0.00    -0.258 N 
ATOM     10  H10 UNL     1     -34.990 -63.900 -10.037  1.00  0.00     0.191 HD
HETATM   11  N11 UNL     1     -33.625 -63.600 -11.473  1.00  0.00    -0.173 N 
HETATM   12  N12 UNL     1     -32.511 -64.238 -11.108  1.00  0.00    -0.262 N 
ATOM     13  H12 UNL     1     -32.395 -64.775 -10.249  1.00  0.00     0.190 HD
ENDROOT
BRANCH   8  14
HETATM   14  C8  UNL     1     -37.115 -62.628 -10.828  1.00  0.00     0.289 C 
HETATM   15  O1  UNL     1     -38.072 -63.344 -11.277  1.00  0.00    -0.264 OA
HETATM   16  N7  UNL     1     -37.402 -61.791  -9.734  1.00  0.00    -0.322 N 
ATOM     17  H7  UNL     1     -36.655 -61.208  -9.356  1.00  0.00     0.165 HD
BRANCH  16  18
HETATM   18  C9  UNL     1     -38.709 -61.723  -9.121  1.00  0.00     0.291 C 
BRANCH  18  19
HETATM   19  O2  UNL     1     -39.702 -61.589 -10.110  1.00  0.00    -0.369 OA
ATOM     20  H2  UNL     1     -39.509 -60.846 -10.670  1.00  0.00     0.212 HD
ENDBRANCH  18  19
BRANCH  18  21
HETATM   21  C10 UNL     1     -38.704 -60.506  -8.237  1.00  0.00     0.153 A 
HETATM   22  N8  UNL     1     -39.773 -59.766  -7.896  1.00  0.00    -0.243 N 
HETATM   23  O3  UNL     1     -39.379 -58.800  -7.122  1.00  0.00    -0.222 OA
ATOM     24  H8  UNL     1     -40.734 -59.936  -8.194  1.00  0.00     0.196 HD
HETATM   25  C11 UNL     1     -38.078 -58.867  -6.933  1.00  0.00     0.158 A 
HETATM   26  N9  UNL     1     -37.656 -59.926  -7.625  1.00  0.00    -0.323 N 
ATOM     27  H9  UNL     1     -36.689 -60.245  -7.681  1.00  0.00     0.169 HD
BRANCH  25  28
HETATM   28  C12 UNL     1     -37.340 -57.895  -6.092  1.00  0.00     0.199 C 
BRANCH  28  29
HETATM   29  C13 UNL     1     -36.485 -58.606  -5.108  1.00  0.00     0.180 C 
HETATM   30  O4  UNL     1     -36.088 -59.770  -5.344  1.00  0.00    -0.648 OA
HETATM   31  O5  UNL     1     -36.159 -57.930  -3.942  1.00  0.00    -0.648 OA
ENDBRANCH  28  29
ENDBRANCH  25  28
ENDBRANCH  18  21
ENDBRANCH  16  18
ENDBRANCH   8  14
BRANCH   5  32
HETATM   32  N5  UNL     1     -34.200 -61.702 -14.399  1.00  0.00    -0.382 N 
ATOM     33  H52 UNL     1     -34.402 -62.201 -15.266  1.00  0.00     0.157 HD
ATOM     34  H51 UNL     1     -33.829 -60.753 -14.440  1.00  0.00     0.157 HD
ENDBRANCH   5  32
BRANCH   1  35
HETATM   35  C3  UNL     1     -30.166 -64.614 -12.025  1.00  0.00     0.310 C 
HETATM   36  N3  UNL     1     -29.619 -64.433 -13.325  1.00  0.00    -0.304 N 
HETATM   37  N2  UNL     1     -28.511 -63.635 -13.418  1.00  0.00    -0.135 NA
ATOM     38  H3  UNL     1     -30.032 -64.874 -14.146  1.00  0.00     0.179 HD
HETATM   39  C2  UNL     1     -27.510 -63.873 -12.406  1.00  0.00     0.218 C 
HETATM   40  C1  UNL     1     -28.099 -63.925 -11.044  1.00  0.00     0.131 C 
HETATM   41  N1  UNL     1     -27.344 -63.946 -10.004  1.00  0.00    -0.382 N 
HETATM   42  O6  UNL     1     -29.486 -63.949 -10.991  1.00  0.00    -0.305 OA
ATOM     43  H12 UNL     1     -26.325 -63.928 -10.044  1.00  0.00     0.158 HD
ATOM     44  H11 UNL     1     -27.748 -63.982  -9.068  1.00  0.00     0.158 HD
ENDBRANCH   1  35
TORSDOF 8
ENDMDL
MODEL 5
REMARK VINA RESULT: -9.626630206      1.638      1.954
REMARK  8 active torsions:
REMARK  status: ('A' for Active; 'I' for Inactive)
REMARK    1  A    between atoms: C3_9  and  C4_10 
REMARK    2  A    between atoms: C6_14  and  N5_15 
REMARK    3  A    between atoms: C7_20  and  C8_21 
REMARK       I    between atoms: C8_21  and  N7_23 
REMARK    4  A    between atoms: N7_23  and  C9_25 
REMARK    5  A    between atoms: C9_25  and  O2_26 
REMARK    6  A    between atoms: C9_25  and  C10_28 
REMARK    7  A    between atoms: C11_32  and  C12_33 
REMARK    8  A    between atoms: C12_33  and  C13_34 
ROOT
HETATM    1  C4  UNL     1     -30.725 -63.986 -13.677  1.00  0.00     0.150 A 
HETATM    2  N4  UNL     1     -30.377 -63.387 -12.528  1.00  0.00    -0.321 N 
ATOM      3  H4  UNL     1     -29.457 -62.993 -12.333  1.00  0.00     0.169 HD
HETATM    4  C5  UNL     1     -31.418 -63.379 -11.662  1.00  0.00     0.191 A 
HETATM    5  C6  UNL     1     -31.584 -62.896 -10.375  1.00  0.00     0.149 A 
HETATM    6  N6  UNL     1     -32.770 -63.043  -9.760  1.00  0.00    -0.320 N 
ATOM      7  H6  UNL     1     -32.903 -62.691  -8.811  1.00  0.00     0.169 HD
HETATM    8  C7  UNL     1     -33.782 -63.655 -10.401  1.00  0.00     0.192 A 
HETATM    9  N10 UNL     1     -33.565 -64.105 -11.655  1.00  0.00    -0.258 N 
ATOM     10  H10 UNL     1     -34.340 -64.567 -12.132  1.00  0.00     0.191 HD
HETATM   11  N11 UNL     1     -32.427 -63.992 -12.305  1.00  0.00    -0.173 N 
HETATM   12  N12 UNL     1     -32.007 -64.356 -13.518  1.00  0.00    -0.262 N 
ATOM     13  H12 UNL     1     -32.571 -64.839 -14.216  1.00  0.00     0.190 HD
ENDROOT
BRANCH   8  14
HETATM   14  C8  UNL     1     -35.073 -63.822  -9.752  1.00  0.00     0.289 C 
HETATM   15  O1  UNL     1     -35.245 -63.239  -8.630  1.00  0.00    -0.264 OA
HETATM   16  N7  UNL     1     -36.151 -64.574 -10.255  1.00  0.00    -0.322 N 
ATOM     17  H7  UNL     1     -36.039 -65.051 -11.149  1.00  0.00     0.165 HD
BRANCH  16  18
HETATM   18  C9  UNL     1     -37.411 -64.699  -9.557  1.00  0.00     0.291 C 
BRANCH  18  19
HETATM   19  O2  UNL     1     -38.285 -65.532 -10.280  1.00  0.00    -0.369 OA
ATOM     20  H2  UNL     1     -39.012 -65.801  -9.730  1.00  0.00     0.212 HD
ENDBRANCH  18  19
BRANCH  18  21
HETATM   21  C10 UNL     1     -37.988 -63.314  -9.467  1.00  0.00     0.153 A 
HETATM   22  N8  UNL     1     -38.401 -62.554 -10.496  1.00  0.00    -0.243 N 
HETATM   23  O3  UNL     1     -38.838 -61.423 -10.029  1.00  0.00    -0.222 OA
ATOM     24  H8  UNL     1     -38.376 -62.822 -11.481  1.00  0.00     0.196 HD
HETATM   25  C11 UNL     1     -38.731 -61.399  -8.717  1.00  0.00     0.158 A 
HETATM   26  N9  UNL     1     -38.203 -62.571  -8.365  1.00  0.00    -0.323 N 
ATOM     27  H9  UNL     1     -37.995 -62.860  -7.410  1.00  0.00     0.169 HD
BRANCH  25  28
HETATM   28  C12 UNL     1     -39.151 -60.235  -7.901  1.00  0.00     0.199 C 
BRANCH  28  29
HETATM   29  C13 UNL     1     -37.963 -59.500  -7.398  1.00  0.00     0.180 C 
HETATM   30  O4  UNL     1     -36.842 -60.059  -7.371  1.00  0.00    -0.648 OA
HETATM   31  O5  UNL     1     -38.155 -58.195  -6.971  1.00  0.00    -0.648 OA
ENDBRANCH  28  29
ENDBRANCH  25  28
ENDBRANCH  18  21
ENDBRANCH  16  18
ENDBRANCH   8  14
BRANCH   5  32
HETATM   32  N5  UNL     1     -30.618 -62.316  -9.773  1.00  0.00    -0.382 N 
ATOM     33  H52 UNL     1     -29.790 -62.848  -9.505  1.00  0.00     0.157 HD
ATOM     34  H51 UNL     1     -30.668 -61.321  -9.556  1.00  0.00     0.157 HD
ENDBRANCH   5  32
BRANCH   1  35
HETATM   35  C3  UNL     1     -29.872 -64.207 -14.897  1.00  0.00     0.310 C 
HETATM   36  N3  UNL     1     -28.652 -63.504 -14.693  1.00  0.00    -0.304 N 
HETATM   37  N2  UNL     1     -27.508 -64.256 -14.668  1.00  0.00    -0.135 NA
ATOM     38  H3  UNL     1     -28.631 -62.492 -14.572  1.00  0.00     0.179 HD
HETATM   39  C2  UNL     1     -27.423 -65.259 -15.702  1.00  0.00     0.218 C 
HETATM   40  C1  UNL     1     -28.668 -66.063 -15.798  1.00  0.00     0.131 C 
HETATM   41  N1  UNL     1     -28.711 -67.118 -16.533  1.00  0.00    -0.382 N 
HETATM   42  O6  UNL     1     -29.743 -65.597 -15.055  1.00  0.00    -0.305 OA
ATOM     43  H12 UNL     1     -27.921 -67.460 -17.079  1.00  0.00     0.158 HD
ATOM     44  H11 UNL     1     -29.566 -67.670 -16.599  1.00  0.00     0.158 HD
ENDBRANCH   1  35
TORSDOF 8
ENDMDL
