MODEL 1
REMARK VINA RESULT: -7.140941860      0.000      0.000
REMARK  10 active torsions:
REMARK  status: ('A' for Active; 'I' for Inactive)
REMARK    1  A    between atoms: N1_2  and  C3_4 
REMARK    2  A    between atoms: C5_8  and  N3_9 
REMARK    3  A    between atoms: C10_17  and  N5_18 
REMARK    4  A    between atoms: N6_21  and  C13_22 
REMARK    5  A    between atoms: C13_22  and  C14_23 
REMARK       I    between atoms: C14_23  and  N7_25 
REMARK    6  A    between atoms: N7_25  and  C15_26 
REMARK    7  A    between atoms: C15_26  and  C16_27 
REMARK    8  A    between atoms: C16_27  and  S1_28 
REMARK    9  A    between atoms: N10_36  and  C21_37 
REMARK   10  A    between atoms: C21_37  and  C22_38 
ROOT
HETATM    1  S1  UNL     1      -6.234   2.606  15.853  1.00  0.00    -0.045 SA
HETATM    2  C17 UNL     1      -4.710   1.722  16.069  1.00  0.00     0.134 C 
HETATM    3  N8  UNL     1      -3.711   1.146  16.197  1.00  0.00    -0.184 NA
ENDROOT
BRANCH   1   4
HETATM    4  C16 UNL     1      -5.890   4.160  15.035  1.00  0.00     0.149 C 
BRANCH   4   5
HETATM    5  C15 UNL     1      -6.442   4.110  13.626  1.00  0.00     0.170 C 
BRANCH   5   6
HETATM    6  N7  UNL     1      -5.773   3.276  12.732  1.00  0.00    -0.386 NA
HETATM    7  C14 UNL     1      -5.133   2.479  11.875  1.00  0.00     0.309 C 
HETATM    8  O2  UNL     1      -5.606   1.877  10.869  1.00  0.00    -0.255 OA
BRANCH   7   9
HETATM    9  C13 UNL     1      -3.648   2.214  12.086  1.00  0.00     0.246 C 
BRANCH   9  10
HETATM   10  N6  UNL     1      -2.873   2.565  10.920  1.00  0.00    -0.361 N 
HETATM   11  C12 UNL     1      -1.614   1.943  10.935  1.00  0.00     0.084 C 
HETATM   12  C11 UNL     1      -0.409   2.821  11.044  1.00  0.00     0.186 C 
HETATM   13  N5  UNL     1      -0.563   3.945  10.151  1.00  0.00    -0.208 N 
HETATM   14  C19 UNL     1      -1.781   4.670  10.159  1.00  0.00     0.186 C 
HETATM   15  C18 UNL     1      -3.008   3.895  10.484  1.00  0.00     0.084 C 
BRANCH  13  16
HETATM   16  C10 UNL     1       0.487   4.304   9.271  1.00  0.00     0.684 A 
HETATM   17  N4  UNL     1       1.627   4.759   9.819  1.00  0.00    -0.174 N 
HETATM   18  C5  UNL     1       2.687   5.173   9.101  1.00  0.00     0.150 A 
ATOM     19  H4  UNL     1       1.692   4.792  10.836  1.00  0.00     0.186 HD
HETATM   20  C4  UNL     1       2.522   5.099   7.722  1.00  0.00     0.139 A 
HETATM   21  N2  UNL     1       3.345   5.419   6.742  1.00  0.00    -0.184 N 
HETATM   22  C20 UNL     1       1.365   4.639   7.123  1.00  0.00     0.170 A 
HETATM   23  C3  UNL     1       2.727   5.165   5.550  1.00  0.00     0.684 A 
ATOM     24  H2  UNL     1       4.287   5.793   6.855  1.00  0.00     0.184 HD
HETATM   25  N10 UNL     1       1.497   4.678   5.783  1.00  0.00    -0.165 N 
HETATM   26  N9  UNL     1       0.368   4.249   7.935  1.00  0.00    -0.173 N 
ATOM     27  H9  UNL     1      -0.500   3.903   7.526  1.00  0.00     0.186 HD
BRANCH  18  28
HETATM   28  N3  UNL     1       3.848   5.635   9.719  1.00  0.00    -0.361 N 
HETATM   29  C6  UNL     1       3.884   7.046  10.174  1.00  0.00     0.150 C 
HETATM   30  C7  UNL     1       4.087   6.875  11.696  1.00  0.00     0.187 C 
HETATM   31  O1  UNL     1       5.357   6.382  11.873  1.00  0.00    -0.388 OA
HETATM   32  C8  UNL     1       5.407   5.056  11.492  1.00  0.00     0.187 C 
HETATM   33  C9  UNL     1       5.066   4.947   9.998  1.00  0.00     0.150 C 
ENDBRANCH  18  28
BRANCH  23  34
HETATM   34  N1  UNL     1       3.389   5.449   4.333  1.00  0.00    -0.226 N 
HETATM   35  C1  UNL     1       4.128   4.452   3.637  1.00  0.00     0.168 C 
HETATM   36  C2  UNL     1       3.292   6.801   3.827  1.00  0.00     0.168 C 
ENDBRANCH  23  34
BRANCH  25  37
HETATM   37  C21 UNL     1       0.533   4.239   4.759  1.00  0.00     0.154 C 
BRANCH  37  38
HETATM   38  C22 UNL     1      -0.526   5.275   4.548  1.00  0.00     0.005 A 
HETATM   39  C23 UNL     1      -0.389   6.377   3.562  1.00  0.00     0.007 A 
HETATM   40  C24 UNL     1      -1.303   5.239   3.252  1.00  0.00     0.007 A 
ENDBRANCH  37  38
ENDBRANCH  25  37
ENDBRANCH  13  16
ENDBRANCH   9  10
ENDBRANCH   7   9
ENDBRANCH   5   6
ENDBRANCH   4   5
ENDBRANCH   1   4
TORSDOF 10
ENDMDL
MODEL 2
REMARK VINA RESULT: -7.110871677      3.642      5.650
REMARK  10 active torsions:
REMARK  status: ('A' for Active; 'I' for Inactive)
REMARK    1  A    between atoms: N1_2  and  C3_4 
REMARK    2  A    between atoms: C5_8  and  N3_9 
REMARK    3  A    between atoms: C10_17  and  N5_18 
REMARK    4  A    between atoms: N6_21  and  C13_22 
REMARK    5  A    between atoms: C13_22  and  C14_23 
REMARK       I    between atoms: C14_23  and  N7_25 
REMARK    6  A    between atoms: N7_25  and  C15_26 
REMARK    7  A    between atoms: C15_26  and  C16_27 
REMARK    8  A    between atoms: C16_27  and  S1_28 
REMARK    9  A    between atoms: N10_36  and  C21_37 
REMARK   10  A    between atoms: C21_37  and  C22_38 
ROOT
HETATM    1  S1  UNL     1      -6.341   2.605  16.148  1.00  0.00    -0.045 SA
HETATM    2  C17 UNL     1      -6.179   0.958  16.789  1.00  0.00     0.134 C 
HETATM    3  N8  UNL     1      -6.071  -0.123  17.195  1.00  0.00    -0.184 NA
ENDROOT
BRANCH   1   4
HETATM    4  C16 UNL     1      -4.981   2.927  15.030  1.00  0.00     0.149 C 
BRANCH   4   5
HETATM    5  C15 UNL     1      -4.524   1.620  14.420  1.00  0.00     0.170 C 
BRANCH   5   6
HETATM    6  N7  UNL     1      -4.561   1.543  13.028  1.00  0.00    -0.386 NA
HETATM    7  C14 UNL     1      -4.597   1.470  11.698  1.00  0.00     0.309 C 
HETATM    8  O2  UNL     1      -5.609   1.524  10.941  1.00  0.00    -0.255 OA
BRANCH   7   9
HETATM    9  C13 UNL     1      -3.291   1.292  10.935  1.00  0.00     0.246 C 
BRANCH   9  10
HETATM   10  N6  UNL     1      -2.609   2.550  10.742  1.00  0.00    -0.361 N 
HETATM   11  C12 UNL     1      -1.244   2.357  10.475  1.00  0.00     0.084 C 
HETATM   12  C11 UNL     1      -0.263   2.866  11.482  1.00  0.00     0.186 C 
HETATM   13  N5  UNL     1      -0.660   4.191  11.897  1.00  0.00    -0.208 N 
HETATM   14  C19 UNL     1      -2.007   4.422  12.269  1.00  0.00     0.186 C 
HETATM   15  C18 UNL     1      -3.034   3.599  11.576  1.00  0.00     0.084 C 
BRANCH  13  16
HETATM   16  C10 UNL     1       0.288   5.243  11.916  1.00  0.00     0.684 A 
HETATM   17  N4  UNL     1       1.545   4.953  11.538  1.00  0.00    -0.174 N 
HETATM   18  C5  UNL     1       2.553   5.845  11.549  1.00  0.00     0.150 A 
ATOM     19  H4  UNL     1       1.746   4.003  11.226  1.00  0.00     0.186 HD
HETATM   20  C4  UNL     1       2.200   7.117  11.988  1.00  0.00     0.139 A 
HETATM   21  N2  UNL     1       2.928   8.209  12.122  1.00  0.00    -0.184 N 
HETATM   22  C20 UNL     1       0.920   7.451  12.386  1.00  0.00     0.170 A 
HETATM   23  C3  UNL     1       2.129   9.213  12.590  1.00  0.00     0.684 A 
ATOM     24  H2  UNL     1       3.923   8.291  11.910  1.00  0.00     0.184 HD
HETATM   25  N10 UNL     1       0.880   8.747  12.754  1.00  0.00    -0.165 N 
HETATM   26  N9  UNL     1      -0.010   6.484  12.335  1.00  0.00    -0.173 N 
ATOM     27  H9  UNL     1      -0.966   6.697  12.620  1.00  0.00     0.186 HD
BRANCH  18  28
HETATM   28  N3  UNL     1       3.840   5.493  11.145  1.00  0.00    -0.361 N 
HETATM   29  C6  UNL     1       4.080   5.264   9.700  1.00  0.00     0.150 C 
HETATM   30  C7  UNL     1       5.133   6.350   9.386  1.00  0.00     0.187 C 
HETATM   31  O1  UNL     1       6.288   5.980  10.031  1.00  0.00    -0.388 OA
HETATM   32  C8  UNL     1       6.156   6.185  11.390  1.00  0.00     0.187 C 
HETATM   33  C9  UNL     1       5.018   5.303  11.925  1.00  0.00     0.150 C 
ENDBRANCH  18  28
BRANCH  23  34
HETATM   34  N1  UNL     1       2.674  10.492  12.849  1.00  0.00    -0.226 N 
HETATM   35  C1  UNL     1       2.621  11.534  11.881  1.00  0.00     0.168 C 
HETATM   36  C2  UNL     1       3.299  10.697  14.137  1.00  0.00     0.168 C 
ENDBRANCH  23  34
BRANCH  25  37
HETATM   37  C21 UNL     1      -0.285   9.532  13.198  1.00  0.00     0.154 C 
BRANCH  37  38
HETATM   38  C22 UNL     1      -0.700   9.131  14.578  1.00  0.00     0.005 A 
HETATM   39  C23 UNL     1      -1.890   9.701  15.259  1.00  0.00     0.007 A 
HETATM   40  C24 UNL     1      -1.958   8.308  14.729  1.00  0.00     0.007 A 
ENDBRANCH  37  38
ENDBRANCH  25  37
ENDBRANCH  13  16
ENDBRANCH   9  10
ENDBRANCH   7   9
ENDBRANCH   5   6
ENDBRANCH   4   5
ENDBRANCH   1   4
TORSDOF 10
ENDMDL
MODEL 3
REMARK VINA RESULT: -7.033536388      1.570      1.962
REMARK  10 active torsions:
REMARK  status: ('A' for Active; 'I' for Inactive)
REMARK    1  A    between atoms: N1_2  and  C3_4 
REMARK    2  A    between atoms: C5_8  and  N3_9 
REMARK    3  A    between atoms: C10_17  and  N5_18 
REMARK    4  A    between atoms: N6_21  and  C13_22 
REMARK    5  A    between atoms: C13_22  and  C14_23 
REMARK       I    between atoms: C14_23  and  N7_25 
REMARK    6  A    between atoms: N7_25  and  C15_26 
REMARK    7  A    between atoms: C15_26  and  C16_27 
REMARK    8  A    between atoms: C16_27  and  S1_28 
REMARK    9  A    between atoms: N10_36  and  C21_37 
REMARK   10  A    between atoms: C21_37  and  C22_38 
ROOT
HETATM    1  S1  UNL     1      -5.055   2.259  15.559  1.00  0.00    -0.045 SA
HETATM    2  C17 UNL     1      -5.663   0.888  16.508  1.00  0.00     0.134 C 
HETATM    3  N8  UNL     1      -6.066   0.001  17.137  1.00  0.00    -0.184 NA
ENDROOT
BRANCH   1   4
HETATM    4  C16 UNL     1      -6.395   3.415  15.289  1.00  0.00     0.149 C 
BRANCH   4   5
HETATM    5  C15 UNL     1      -6.225   4.060  13.930  1.00  0.00     0.170 C 
BRANCH   5   6
HETATM    6  N7  UNL     1      -5.707   3.247  12.924  1.00  0.00    -0.386 NA
HETATM    7  C14 UNL     1      -5.211   2.471  11.960  1.00  0.00     0.309 C 
HETATM    8  O2  UNL     1      -5.779   2.089  10.897  1.00  0.00    -0.255 OA
BRANCH   7   9
HETATM    9  C13 UNL     1      -3.791   1.937  12.102  1.00  0.00     0.246 C 
BRANCH   9  10
HETATM   10  N6  UNL     1      -2.849   2.714  11.332  1.00  0.00    -0.361 N 
HETATM   11  C12 UNL     1      -1.929   1.889  10.666  1.00  0.00     0.084 C 
HETATM   12  C11 UNL     1      -0.493   1.986  11.071  1.00  0.00     0.186 C 
HETATM   13  N5  UNL     1      -0.134   3.379  11.204  1.00  0.00    -0.208 N 
HETATM   14  C19 UNL     1      -0.980   4.240  11.946  1.00  0.00     0.186 C 
HETATM   15  C18 UNL     1      -2.432   3.918  11.927  1.00  0.00     0.084 C 
BRANCH  13  16
HETATM   16  C10 UNL     1       1.041   3.873  10.586  1.00  0.00     0.684 A 
HETATM   17  N4  UNL     1       1.893   4.578  11.350  1.00  0.00    -0.174 N 
HETATM   18  C5  UNL     1       3.023   5.140  10.883  1.00  0.00     0.150 A 
ATOM     19  H4  UNL     1       1.670   4.694  12.338  1.00  0.00     0.186 HD
HETATM   20  C4  UNL     1       3.257   4.939   9.527  1.00  0.00     0.139 A 
HETATM   21  N2  UNL     1       4.251   5.344   8.760  1.00  0.00    -0.184 N 
HETATM   22  C20 UNL     1       2.403   4.221   8.712  1.00  0.00     0.170 A 
HETATM   23  C3  UNL     1       4.035   4.891   7.489  1.00  0.00     0.684 A 
ATOM     24  H2  UNL     1       5.049   5.901   9.065  1.00  0.00     0.184 HD
HETATM   25  N10 UNL     1       2.889   4.192   7.455  1.00  0.00    -0.165 N 
HETATM   26  N9  UNL     1       1.303   3.702   9.281  1.00  0.00    -0.173 N 
ATOM     27  H9  UNL     1       0.652   3.166   8.708  1.00  0.00     0.186 HD
BRANCH  18  28
HETATM   28  N3  UNL     1       3.875   5.862  11.719  1.00  0.00    -0.361 N 
HETATM   29  C6  UNL     1       5.128   5.211  12.170  1.00  0.00     0.150 C 
HETATM   30  C7  UNL     1       6.197   6.155  11.579  1.00  0.00     0.187 C 
HETATM   31  O1  UNL     1       6.108   7.338  12.272  1.00  0.00    -0.388 OA
HETATM   32  C8  UNL     1       4.971   8.024  11.892  1.00  0.00     0.187 C 
HETATM   33  C9  UNL     1       3.734   7.182  12.239  1.00  0.00     0.150 C 
ENDBRANCH  18  28
BRANCH  23  34
HETATM   34  N1  UNL     1       4.947   5.214   6.457  1.00  0.00    -0.226 N 
HETATM   35  C1  UNL     1       6.051   4.370   6.148  1.00  0.00     0.168 C 
HETATM   36  C2  UNL     1       4.718   6.443   5.731  1.00  0.00     0.168 C 
ENDBRANCH  23  34
BRANCH  25  37
HETATM   37  C21 UNL     1       2.331   3.503   6.278  1.00  0.00     0.154 C 
BRANCH  37  38
HETATM   38  C22 UNL     1       1.035   4.124   5.864  1.00  0.00     0.005 A 
HETATM   39  C23 UNL     1       0.938   5.508   5.334  1.00  0.00     0.007 A 
HETATM   40  C24 UNL     1       0.801   4.361   4.390  1.00  0.00     0.007 A 
ENDBRANCH  37  38
ENDBRANCH  25  37
ENDBRANCH  13  16
ENDBRANCH   9  10
ENDBRANCH   7   9
ENDBRANCH   5   6
ENDBRANCH   4   5
ENDBRANCH   1   4
TORSDOF 10
ENDMDL
MODEL 4
REMARK VINA RESULT: -7.018475253      2.252      4.910
REMARK  10 active torsions:
REMARK  status: ('A' for Active; 'I' for Inactive)
REMARK    1  A    between atoms: N1_2  and  C3_4 
REMARK    2  A    between atoms: C5_8  and  N3_9 
REMARK    3  A    between atoms: C10_17  and  N5_18 
REMARK    4  A    between atoms: N6_21  and  C13_22 
REMARK    5  A    between atoms: C13_22  and  C14_23 
REMARK       I    between atoms: C14_23  and  N7_25 
REMARK    6  A    between atoms: N7_25  and  C15_26 
REMARK    7  A    between atoms: C15_26  and  C16_27 
REMARK    8  A    between atoms: C16_27  and  S1_28 
REMARK    9  A    between atoms: N10_36  and  C21_37 
REMARK   10  A    between atoms: C21_37  and  C22_38 
ROOT
HETATM    1  S1  UNL     1      -6.221   2.651  15.749  1.00  0.00    -0.045 SA
HETATM    2  C17 UNL     1      -4.668   1.829  16.006  1.00  0.00     0.134 C 
HETATM    3  N8  UNL     1      -3.651   1.294  16.160  1.00  0.00    -0.184 NA
ENDROOT
BRANCH   1   4
HETATM    4  C16 UNL     1      -5.916   4.227  14.958  1.00  0.00     0.149 C 
BRANCH   4   5
HETATM    5  C15 UNL     1      -6.431   4.173  13.535  1.00  0.00     0.170 C 
BRANCH   5   6
HETATM    6  N7  UNL     1      -5.769   3.299  12.674  1.00  0.00    -0.386 NA
HETATM    7  C14 UNL     1      -5.137   2.465  11.849  1.00  0.00     0.309 C 
HETATM    8  O2  UNL     1      -5.588   1.906  10.808  1.00  0.00    -0.255 OA
BRANCH   7   9
HETATM    9  C13 UNL     1      -3.690   2.091  12.147  1.00  0.00     0.246 C 
BRANCH   9  10
HETATM   10  N6  UNL     1      -2.763   2.962  11.465  1.00  0.00    -0.361 N 
HETATM   11  C12 UNL     1      -1.854   2.231  10.683  1.00  0.00     0.084 C 
HETATM   12  C11 UNL     1      -0.411   2.279  11.071  1.00  0.00     0.186 C 
HETATM   13  N5  UNL     1      -0.050   3.644  11.375  1.00  0.00    -0.208 N 
HETATM   14  C19 UNL     1      -0.882   4.401  12.237  1.00  0.00     0.186 C 
HETATM   15  C18 UNL     1      -2.334   4.081  12.202  1.00  0.00     0.084 C 
BRANCH  13  16
HETATM   16  C10 UNL     1       1.113   4.215  10.805  1.00  0.00     0.684 A 
HETATM   17  N4  UNL     1       1.516   3.743   9.613  1.00  0.00    -0.174 N 
HETATM   18  C5  UNL     1       2.625   4.165   8.978  1.00  0.00     0.150 A 
ATOM     19  H4  UNL     1       0.949   3.024   9.164  1.00  0.00     0.186 HD
HETATM   20  C4  UNL     1       3.345   5.145   9.654  1.00  0.00     0.139 A 
HETATM   21  N2  UNL     1       4.460   5.769   9.324  1.00  0.00    -0.184 N 
HETATM   22  C20 UNL     1       2.963   5.653  10.880  1.00  0.00     0.170 A 
HETATM   23  C3  UNL     1       4.777   6.653  10.316  1.00  0.00     0.684 A 
ATOM     24  H2  UNL     1       4.997   5.617   8.470  1.00  0.00     0.184 HD
HETATM   25  N10 UNL     1       3.848   6.586  11.284  1.00  0.00    -0.165 N 
HETATM   26  N9  UNL     1       1.838   5.161  11.424  1.00  0.00    -0.173 N 
ATOM     27  H9  UNL     1       1.527   5.515  12.329  1.00  0.00     0.186 HD
BRANCH  18  28
HETATM   28  N3  UNL     1       2.998   3.643   7.741  1.00  0.00    -0.361 N 
HETATM   29  C6  UNL     1       2.021   3.716   6.628  1.00  0.00     0.150 C 
HETATM   30  C7  UNL     1       2.783   4.585   5.604  1.00  0.00     0.187 C 
HETATM   31  O1  UNL     1       3.832   3.827   5.144  1.00  0.00    -0.388 OA
HETATM   32  C8  UNL     1       4.805   3.727   6.118  1.00  0.00     0.187 C 
HETATM   33  C9  UNL     1       4.218   3.018   7.347  1.00  0.00     0.150 C 
ENDBRANCH  18  28
BRANCH  23  34
HETATM   34  N1  UNL     1       5.951   7.435  10.222  1.00  0.00    -0.226 N 
HETATM   35  C1  UNL     1       6.051   8.521   9.308  1.00  0.00     0.168 C 
HETATM   36  C2  UNL     1       7.054   7.080  11.087  1.00  0.00     0.168 C 
ENDBRANCH  23  34
BRANCH  25  37
HETATM   37  C21 UNL     1       3.807   7.413  12.502  1.00  0.00     0.154 C 
BRANCH  37  38
HETATM   38  C22 UNL     1       3.314   8.791  12.192  1.00  0.00     0.005 A 
HETATM   39  C23 UNL     1       2.977   9.782  13.245  1.00  0.00     0.007 A 
HETATM   40  C24 UNL     1       4.238   9.954  12.468  1.00  0.00     0.007 A 
ENDBRANCH  37  38
ENDBRANCH  25  37
ENDBRANCH  13  16
ENDBRANCH   9  10
ENDBRANCH   7   9
ENDBRANCH   5   6
ENDBRANCH   4   5
ENDBRANCH   1   4
TORSDOF 10
ENDMDL
MODEL 5
REMARK VINA RESULT: -7.007188447      2.545      4.880
REMARK  10 active torsions:
REMARK  status: ('A' for Active; 'I' for Inactive)
REMARK    1  A    between atoms: N1_2  and  C3_4 
REMARK    2  A    between atoms: C5_8  and  N3_9 
REMARK    3  A    between atoms: C10_17  and  N5_18 
REMARK    4  A    between atoms: N6_21  and  C13_22 
REMARK    5  A    between atoms: C13_22  and  C14_23 
REMARK       I    between atoms: C14_23  and  N7_25 
REMARK    6  A    between atoms: N7_25  and  C15_26 
REMARK    7  A    between atoms: C15_26  and  C16_27 
REMARK    8  A    between atoms: C16_27  and  S1_28 
REMARK    9  A    between atoms: N10_36  and  C21_37 
REMARK   10  A    between atoms: C21_37  and  C22_38 
ROOT
HETATM    1  S1  UNL     1      -6.691   2.538  16.725  1.00  0.00    -0.045 SA
HETATM    2  C17 UNL     1      -6.281   0.835  17.012  1.00  0.00     0.134 C 
HETATM    3  N8  UNL     1      -6.017  -0.281  17.186  1.00  0.00    -0.184 NA
ENDROOT
BRANCH   1   4
HETATM    4  C16 UNL     1      -5.894   3.078  15.216  1.00  0.00     0.149 C 
BRANCH   4   5
HETATM    5  C15 UNL     1      -4.654   2.241  14.986  1.00  0.00     0.170 C 
BRANCH   5   6
HETATM    6  N7  UNL     1      -4.478   1.742  13.697  1.00  0.00    -0.386 NA
HETATM    7  C14 UNL     1      -4.310   1.265  12.464  1.00  0.00     0.309 C 
HETATM    8  O2  UNL     1      -4.488   0.081  12.055  1.00  0.00    -0.255 OA
BRANCH   7   9
HETATM    9  C13 UNL     1      -3.839   2.210  11.365  1.00  0.00     0.246 C 
BRANCH   9  10
HETATM   10  N6  UNL     1      -2.436   2.524  11.498  1.00  0.00    -0.361 N 
HETATM   11  C12 UNL     1      -2.211   3.908  11.422  1.00  0.00     0.084 C 
HETATM   12  C11 UNL     1      -1.421   4.418  10.260  1.00  0.00     0.186 C 
HETATM   13  N5  UNL     1      -0.273   3.565  10.060  1.00  0.00    -0.208 N 
HETATM   14  C19 UNL     1      -0.455   2.160  10.034  1.00  0.00     0.186 C 
HETATM   15  C18 UNL     1      -1.555   1.620  10.876  1.00  0.00     0.084 C 
BRANCH  13  16
HETATM   16  C10 UNL     1       1.016   4.132   9.908  1.00  0.00     0.684 A 
HETATM   17  N4  UNL     1       1.790   3.654   8.918  1.00  0.00    -0.174 N 
HETATM   18  C5  UNL     1       3.049   4.072   8.688  1.00  0.00     0.150 A 
ATOM     19  H4  UNL     1       1.402   2.935   8.308  1.00  0.00     0.186 HD
HETATM   20  C4  UNL     1       3.507   5.051   9.562  1.00  0.00     0.139 A 
HETATM   21  N2  UNL     1       4.671   5.671   9.620  1.00  0.00    -0.184 N 
HETATM   22  C20 UNL     1       2.741   5.565  10.591  1.00  0.00     0.170 A 
HETATM   23  C3  UNL     1       4.642   6.558  10.659  1.00  0.00     0.684 A 
ATOM     24  H2  UNL     1       5.460   5.515   8.994  1.00  0.00     0.184 HD
HETATM   25  N10 UNL     1       3.445   6.496  11.264  1.00  0.00    -0.165 N 
HETATM   26  N9  UNL     1       1.497   5.078  10.730  1.00  0.00    -0.173 N 
ATOM     27  H9  UNL     1       0.904   5.435  11.479  1.00  0.00     0.186 HD
BRANCH  18  28
HETATM   28  N3  UNL     1       3.810   3.544   7.645  1.00  0.00    -0.361 N 
HETATM   29  C6  UNL     1       3.265   3.629   6.270  1.00  0.00     0.150 C 
HETATM   30  C7  UNL     1       4.336   4.488   5.564  1.00  0.00     0.187 C 
HETATM   31  O1  UNL     1       5.470   3.717   5.481  1.00  0.00    -0.388 OA
HETATM   32  C8  UNL     1       6.059   3.606   6.725  1.00  0.00     0.187 C 
HETATM   33  C9  UNL     1       5.084   2.905   7.683  1.00  0.00     0.150 C 
ENDBRANCH  18  28
BRANCH  23  34
HETATM   34  N1  UNL     1       5.785   7.336  10.959  1.00  0.00    -0.226 N 
HETATM   35  C1  UNL     1       5.947   8.651  10.439  1.00  0.00     0.168 C 
HETATM   36  C2  UNL     1       6.789   6.738  11.810  1.00  0.00     0.168 C 
ENDBRANCH  23  34
BRANCH  25  37
HETATM   37  C21 UNL     1       3.004   7.328  12.397  1.00  0.00     0.154 C 
BRANCH  37  38
HETATM   38  C22 UNL     1       2.040   8.378  11.942  1.00  0.00     0.005 A 
HETATM   39  C23 UNL     1       0.634   8.441  12.415  1.00  0.00     0.007 A 
HETATM   40  C24 UNL     1       1.618   9.432  12.939  1.00  0.00     0.007 A 
ENDBRANCH  37  38
ENDBRANCH  25  37
ENDBRANCH  13  16
ENDBRANCH   9  10
ENDBRANCH   7   9
ENDBRANCH   5   6
ENDBRANCH   4   5
ENDBRANCH   1   4
TORSDOF 10
ENDMDL
