MODEL 1
REMARK VINA RESULT: -7.701214427      0.000      0.000
REMARK  10 active torsions:
REMARK  status: ('A' for Active; 'I' for Inactive)
REMARK    1  A    between atoms: C2_2  and  N1_3 
REMARK    2  A    between atoms: N3_8  and  C5_9 
REMARK    3  A    between atoms: C5_9  and  C6_10 
REMARK    4  A    between atoms: C6_10  and  N4_11 
REMARK    5  A    between atoms: C8_13  and  C9_14 
REMARK    6  A    between atoms: C9_14  and  N5_15 
REMARK    7  A    between atoms: N7_26  and  C18_27 
REMARK    8  A    between atoms: C18_27  and  C19_28 
REMARK    9  A    between atoms: C19_28  and  C20_29 
REMARK   10  A    between atoms: C20_29  and  N8_30 
ROOT
HETATM    1  N5  UNL     1      -1.828   7.286  12.177  1.00  0.00    -0.331 N 
HETATM    2  C10 UNL     1      -1.681   8.134  11.130  1.00  0.00     0.184 A 
HETATM    3  N6  UNL     1      -2.864   8.503  10.644  1.00  0.00    -0.349 N 
ATOM      4  H6  UNL     1      -3.041   9.130   9.860  1.00  0.00     0.166 HD
HETATM    5  C11 UNL     1      -3.785   7.865  11.413  1.00  0.00     0.078 A 
HETATM    6  C12 UNL     1      -5.163   7.849  11.410  1.00  0.00     0.020 A 
HETATM    7  C13 UNL     1      -5.803   8.619  10.435  1.00  0.00     0.016 A 
HETATM    8  C14 UNL     1      -7.174   8.639  10.384  1.00  0.00     0.001 A 
HETATM    9  C15 UNL     1      -7.887   7.896  11.301  1.00  0.00     0.002 A 
HETATM   10  C16 UNL     1      -7.222   7.140  12.258  1.00  0.00     0.031 A 
HETATM   11  C17 UNL     1      -5.847   7.101  12.332  1.00  0.00     0.050 A 
HETATM   12  N7  UNL     1      -5.199   6.357  13.271  1.00  0.00    -0.312 N 
HETATM   13  C24 UNL     1      -3.852   6.355  13.298  1.00  0.00     0.277 A 
HETATM   14  O1  UNL     1      -3.203   5.692  14.147  1.00  0.00    -0.265 OA
HETATM   15  C25 UNL     1      -3.121   7.098  12.381  1.00  0.00     0.132 A 
ENDROOT
BRANCH   1  16
HETATM   16  C9  UNL     1      -0.718   6.707  12.875  1.00  0.00     0.190 C 
BRANCH  16  17
HETATM   17  C8  UNL     1      -0.424   5.378  12.257  1.00  0.00     0.062 A 
HETATM   18  C7  UNL     1       0.259   5.134  11.079  1.00  0.00     0.140 A 
HETATM   19  N4  UNL     1       0.297   3.798  10.924  1.00  0.00    -0.285 N 
HETATM   20  N11 UNL     1      -0.328   3.220  11.946  1.00  0.00    -0.241 N 
HETATM   21  N10 UNL     1      -0.755   4.174  12.736  1.00  0.00    -0.287 N 
ATOM     22  H11 UNL     1      -0.453   2.218  12.088  1.00  0.00     0.208 HD
ATOM     23  H10 UNL     1      -1.271   4.018  13.603  1.00  0.00     0.188 HD
BRANCH  19  24
HETATM   24  C6  UNL     1       0.891   3.064   9.859  1.00  0.00     0.171 C 
BRANCH  24  25
HETATM   25  C5  UNL     1       1.734   3.819   8.902  1.00  0.00     0.176 C 
BRANCH  25  26
HETATM   26  N3  UNL     1       1.092   4.108   7.640  1.00  0.00    -0.239 N 
HETATM   27  N2  UNL     1      -0.018   4.811   7.430  1.00  0.00    -0.283 N 
HETATM   28  C3  UNL     1      -0.310   4.885   6.120  1.00  0.00     0.098 A 
ATOM     29  H2  UNL     1      -0.576   5.238   8.169  1.00  0.00     0.188 HD
HETATM   30  N1  UNL     1       0.657   4.203   5.510  1.00  0.00    -0.287 N 
HETATM   31  C4  UNL     1      -1.484   5.597   5.565  1.00  0.00     0.091 C 
HETATM   32  C26 UNL     1       1.521   3.724   6.430  1.00  0.00     0.344 A 
HETATM   33  O2  UNL     1       2.562   3.023   6.184  1.00  0.00    -0.245 OA
BRANCH  30  34
HETATM   34  C2  UNL     1       0.777   4.001   4.095  1.00  0.00     0.131 C 
HETATM   35  C1  UNL     1       1.621   5.096   3.441  1.00  0.00     0.027 C 
ENDBRANCH  30  34
ENDBRANCH  25  26
ENDBRANCH  24  25
ENDBRANCH  19  24
ENDBRANCH  16  17
ENDBRANCH   1  16
BRANCH  12  36
HETATM   36  C18 UNL     1      -5.988   5.633  14.209  1.00  0.00     0.134 C 
BRANCH  36  37
HETATM   37  C19 UNL     1      -6.295   4.205  13.852  1.00  0.00     0.050 C 
BRANCH  37  38
HETATM   38  C20 UNL     1      -6.075   3.304  15.005  1.00  0.00     0.276 C 
BRANCH  38  39
HETATM   39  N8  UNL     1      -4.690   2.900  15.168  1.00  0.00     0.115 N 
HETATM   40  C21 UNL     1      -4.135   2.287  13.990  1.00  0.00     0.302 C 
HETATM   41  C22 UNL     1      -4.506   0.829  14.139  1.00  0.00     0.264 C 
HETATM   42  N9  UNL     1      -4.345   0.621  15.566  1.00  0.00    -0.047 N 
HETATM   43  C23 UNL     1      -4.675   1.863  16.192  1.00  0.00     0.502 C 
ATOM     44  H92 UNL     1      -4.883  -0.168  15.923  1.00  0.00     0.279 HD
ATOM     45  H91 UNL     1      -3.422   0.270  15.822  1.00  0.00     0.279 HD
ENDBRANCH  38  39
ENDBRANCH  37  38
ENDBRANCH  36  37
ENDBRANCH  12  36
TORSDOF 10
ENDMDL
MODEL 2
REMARK VINA RESULT: -7.697350476      3.376      5.082
REMARK  10 active torsions:
REMARK  status: ('A' for Active; 'I' for Inactive)
REMARK    1  A    between atoms: C2_2  and  N1_3 
REMARK    2  A    between atoms: N3_8  and  C5_9 
REMARK    3  A    between atoms: C5_9  and  C6_10 
REMARK    4  A    between atoms: C6_10  and  N4_11 
REMARK    5  A    between atoms: C8_13  and  C9_14 
REMARK    6  A    between atoms: C9_14  and  N5_15 
REMARK    7  A    between atoms: N7_26  and  C18_27 
REMARK    8  A    between atoms: C18_27  and  C19_28 
REMARK    9  A    between atoms: C19_28  and  C20_29 
REMARK   10  A    between atoms: C20_29  and  N8_30 
ROOT
HETATM    1  N5  UNL     1      -0.730   4.724  10.720  1.00  0.00    -0.331 N 
HETATM    2  C10 UNL     1       0.077   3.924   9.980  1.00  0.00     0.184 A 
HETATM    3  N6  UNL     1      -0.384   2.676   9.952  1.00  0.00    -0.349 N 
ATOM      4  H6  UNL     1       0.029   1.876   9.472  1.00  0.00     0.166 HD
HETATM    5  C11 UNL     1      -1.519   2.692  10.698  1.00  0.00     0.078 A 
HETATM    6  C12 UNL     1      -2.437   1.721  11.034  1.00  0.00     0.020 A 
HETATM    7  C13 UNL     1      -2.204   0.433  10.544  1.00  0.00     0.016 A 
HETATM    8  C14 UNL     1      -3.085  -0.574  10.849  1.00  0.00     0.001 A 
HETATM    9  C15 UNL     1      -4.182  -0.286  11.632  1.00  0.00     0.002 A 
HETATM   10  C16 UNL     1      -4.387   1.004  12.104  1.00  0.00     0.031 A 
HETATM   11  C17 UNL     1      -3.519   2.034  11.815  1.00  0.00     0.050 A 
HETATM   12  N7  UNL     1      -3.722   3.298  12.280  1.00  0.00    -0.312 N 
HETATM   13  C24 UNL     1      -2.842   4.267  11.967  1.00  0.00     0.277 A 
HETATM   14  O1  UNL     1      -2.983   5.451  12.365  1.00  0.00    -0.265 OA
HETATM   15  C25 UNL     1      -1.731   3.992  11.179  1.00  0.00     0.132 A 
ENDROOT
BRANCH   1  16
HETATM   16  C9  UNL     1      -0.460   6.113  10.945  1.00  0.00     0.190 C 
BRANCH  16  17
HETATM   17  C8  UNL     1       0.990   6.253  11.286  1.00  0.00     0.062 A 
HETATM   18  C7  UNL     1       1.930   7.035  10.640  1.00  0.00     0.140 A 
HETATM   19  N4  UNL     1       3.093   6.862  11.295  1.00  0.00    -0.285 N 
HETATM   20  N11 UNL     1       2.905   6.016  12.304  1.00  0.00    -0.241 N 
HETATM   21  N10 UNL     1       1.645   5.659  12.289  1.00  0.00    -0.287 N 
ATOM     22  H11 UNL     1       3.613   5.703  12.968  1.00  0.00     0.208 HD
ATOM     23  H10 UNL     1       1.220   5.013  12.954  1.00  0.00     0.188 HD
BRANCH  19  24
HETATM   24  C6  UNL     1       4.352   7.458  11.003  1.00  0.00     0.171 C 
BRANCH  24  25
HETATM   25  C5  UNL     1       5.514   6.550  10.855  1.00  0.00     0.176 C 
BRANCH  25  26
HETATM   26  N3  UNL     1       5.570   5.851   9.591  1.00  0.00    -0.239 N 
HETATM   27  N2  UNL     1       6.318   6.140   8.530  1.00  0.00    -0.283 N 
HETATM   28  C3  UNL     1       6.117   5.260   7.535  1.00  0.00     0.098 A 
ATOM     29  H2  UNL     1       6.962   6.930   8.479  1.00  0.00     0.188 HD
HETATM   30  N1  UNL     1       5.214   4.403   8.007  1.00  0.00    -0.287 N 
HETATM   31  C4  UNL     1       6.801   5.311   6.223  1.00  0.00     0.091 C 
HETATM   32  C26 UNL     1       4.872   4.755   9.265  1.00  0.00     0.344 A 
HETATM   33  O2  UNL     1       4.027   4.147  10.008  1.00  0.00    -0.245 OA
BRANCH  30  34
HETATM   34  C2  UNL     1       4.677   3.275   7.301  1.00  0.00     0.131 C 
HETATM   35  C1  UNL     1       5.474   2.002   7.589  1.00  0.00     0.027 C 
ENDBRANCH  30  34
ENDBRANCH  25  26
ENDBRANCH  24  25
ENDBRANCH  19  24
ENDBRANCH  16  17
ENDBRANCH   1  16
BRANCH  12  36
HETATM   36  C18 UNL     1      -4.888   3.541  13.062  1.00  0.00     0.134 C 
BRANCH  36  37
HETATM   37  C19 UNL     1      -4.654   3.953  14.489  1.00  0.00     0.050 C 
BRANCH  37  38
HETATM   38  C20 UNL     1      -4.404   2.778  15.353  1.00  0.00     0.276 C 
BRANCH  38  39
HETATM   39  N8  UNL     1      -5.543   1.884  15.459  1.00  0.00     0.115 N 
HETATM   40  C21 UNL     1      -6.544   2.349  16.383  1.00  0.00     0.302 C 
HETATM   41  C22 UNL     1      -6.080   1.802  17.715  1.00  0.00     0.264 C 
HETATM   42  N9  UNL     1      -5.565   0.498  17.342  1.00  0.00    -0.047 N 
HETATM   43  C23 UNL     1      -5.044   0.634  16.018  1.00  0.00     0.502 C 
ATOM     44  H92 UNL     1      -4.887   0.125  18.008  1.00  0.00     0.279 HD
ATOM     45  H91 UNL     1      -6.254  -0.250  17.432  1.00  0.00     0.279 HD
ENDBRANCH  38  39
ENDBRANCH  37  38
ENDBRANCH  36  37
ENDBRANCH  12  36
TORSDOF 10
ENDMDL
MODEL 3
REMARK VINA RESULT: -7.697037102      1.030      1.166
REMARK  10 active torsions:
REMARK  status: ('A' for Active; 'I' for Inactive)
REMARK    1  A    between atoms: C2_2  and  N1_3 
REMARK    2  A    between atoms: N3_8  and  C5_9 
REMARK    3  A    between atoms: C5_9  and  C6_10 
REMARK    4  A    between atoms: C6_10  and  N4_11 
REMARK    5  A    between atoms: C8_13  and  C9_14 
REMARK    6  A    between atoms: C9_14  and  N5_15 
REMARK    7  A    between atoms: N7_26  and  C18_27 
REMARK    8  A    between atoms: C18_27  and  C19_28 
REMARK    9  A    between atoms: C19_28  and  C20_29 
REMARK   10  A    between atoms: C20_29  and  N8_30 
ROOT
HETATM    1  N5  UNL     1      -1.763   7.398  12.145  1.00  0.00    -0.331 N 
HETATM    2  C10 UNL     1      -1.645   8.247  11.096  1.00  0.00     0.184 A 
HETATM    3  N6  UNL     1      -2.841   8.589  10.621  1.00  0.00    -0.349 N 
ATOM      4  H6  UNL     1      -3.040   9.212   9.838  1.00  0.00     0.166 HD
HETATM    5  C11 UNL     1      -3.740   7.932  11.400  1.00  0.00     0.078 A 
HETATM    6  C12 UNL     1      -5.117   7.885  11.410  1.00  0.00     0.020 A 
HETATM    7  C13 UNL     1      -5.784   8.640  10.441  1.00  0.00     0.016 A 
HETATM    8  C14 UNL     1      -7.155   8.629  10.404  1.00  0.00     0.001 A 
HETATM    9  C15 UNL     1      -7.842   7.872  11.328  1.00  0.00     0.002 A 
HETATM   10  C16 UNL     1      -7.152   7.133  12.280  1.00  0.00     0.031 A 
HETATM   11  C17 UNL     1      -5.775   7.124  12.340  1.00  0.00     0.050 A 
HETATM   12  N7  UNL     1      -5.102   6.396  13.274  1.00  0.00    -0.312 N 
HETATM   13  C24 UNL     1      -3.755   6.424  13.288  1.00  0.00     0.277 A 
HETATM   14  O1  UNL     1      -3.083   5.777  14.131  1.00  0.00    -0.265 OA
HETATM   15  C25 UNL     1      -3.049   7.182  12.362  1.00  0.00     0.132 A 
ENDROOT
BRANCH   1  16
HETATM   16  C9  UNL     1      -0.634   6.845  12.834  1.00  0.00     0.190 C 
BRANCH  16  17
HETATM   17  C8  UNL     1      -0.343   5.502  12.243  1.00  0.00     0.062 A 
HETATM   18  C7  UNL     1       0.335   5.233  11.068  1.00  0.00     0.140 A 
HETATM   19  N4  UNL     1       0.371   3.893  10.941  1.00  0.00    -0.285 N 
HETATM   20  N11 UNL     1      -0.251   3.338  11.977  1.00  0.00    -0.241 N 
HETATM   21  N10 UNL     1      -0.673   4.309  12.749  1.00  0.00    -0.287 N 
ATOM     22  H11 UNL     1      -0.376   2.340  12.142  1.00  0.00     0.208 HD
ATOM     23  H10 UNL     1      -1.186   4.173  13.621  1.00  0.00     0.188 HD
BRANCH  19  24
HETATM   24  C6  UNL     1       0.960   3.136   9.890  1.00  0.00     0.171 C 
BRANCH  24  25
HETATM   25  C5  UNL     1       1.794   3.871   8.909  1.00  0.00     0.176 C 
BRANCH  25  26
HETATM   26  N3  UNL     1       1.135   4.147   7.653  1.00  0.00    -0.239 N 
HETATM   27  N2  UNL     1       0.036   4.866   7.447  1.00  0.00    -0.283 N 
HETATM   28  C3  UNL     1      -0.278   4.919   6.141  1.00  0.00     0.098 A 
ATOM     29  H2  UNL     1      -0.500   5.321   8.187  1.00  0.00     0.188 HD
HETATM   30  N1  UNL     1       0.665   4.205   5.529  1.00  0.00    -0.287 N 
HETATM   31  C4  UNL     1      -1.447   5.643   5.592  1.00  0.00     0.091 C 
HETATM   32  C26 UNL     1       1.535   3.728   6.444  1.00  0.00     0.344 A 
HETATM   33  O2  UNL     1       2.558   3.002   6.195  1.00  0.00    -0.245 OA
BRANCH  30  34
HETATM   34  C2  UNL     1       0.756   3.970   4.117  1.00  0.00     0.131 C 
HETATM   35  C1  UNL     1       1.605   5.037   3.425  1.00  0.00     0.027 C 
ENDBRANCH  30  34
ENDBRANCH  25  26
ENDBRANCH  24  25
ENDBRANCH  19  24
ENDBRANCH  16  17
ENDBRANCH   1  16
BRANCH  12  36
HETATM   36  C18 UNL     1      -5.865   5.655  14.221  1.00  0.00     0.134 C 
BRANCH  36  37
HETATM   37  C19 UNL     1      -5.647   4.168  14.228  1.00  0.00     0.050 C 
BRANCH  37  38
HETATM   38  C20 UNL     1      -5.665   3.615  12.856  1.00  0.00     0.276 C 
BRANCH  38  39
HETATM   39  N8  UNL     1      -4.388   3.070  12.434  1.00  0.00     0.115 N 
HETATM   40  C21 UNL     1      -4.354   2.718  11.039  1.00  0.00     0.302 C 
HETATM   41  C22 UNL     1      -4.888   1.303  11.016  1.00  0.00     0.264 C 
HETATM   42  N9  UNL     1      -4.307   0.742  12.221  1.00  0.00    -0.047 N 
HETATM   43  C23 UNL     1      -4.208   1.817  13.158  1.00  0.00     0.502 C 
ATOM     44  H92 UNL     1      -4.819  -0.063  12.582  1.00  0.00     0.279 HD
ATOM     45  H91 UNL     1      -3.420   0.264  12.059  1.00  0.00     0.279 HD
ENDBRANCH  38  39
ENDBRANCH  37  38
ENDBRANCH  36  37
ENDBRANCH  12  36
TORSDOF 10
ENDMDL
MODEL 4
REMARK VINA RESULT: -7.651663226      2.204      8.100
REMARK  10 active torsions:
REMARK  status: ('A' for Active; 'I' for Inactive)
REMARK    1  A    between atoms: C2_2  and  N1_3 
REMARK    2  A    between atoms: N3_8  and  C5_9 
REMARK    3  A    between atoms: C5_9  and  C6_10 
REMARK    4  A    between atoms: C6_10  and  N4_11 
REMARK    5  A    between atoms: C8_13  and  C9_14 
REMARK    6  A    between atoms: C9_14  and  N5_15 
REMARK    7  A    between atoms: N7_26  and  C18_27 
REMARK    8  A    between atoms: C18_27  and  C19_28 
REMARK    9  A    between atoms: C19_28  and  C20_29 
REMARK   10  A    between atoms: C20_29  and  N8_30 
ROOT
HETATM    1  N5  UNL     1       1.184   4.928   8.421  1.00  0.00    -0.331 N 
HETATM    2  C10 UNL     1       2.152   4.103   7.951  1.00  0.00     0.184 A 
HETATM    3  N6  UNL     1       1.984   3.859   6.654  1.00  0.00    -0.349 N 
ATOM      4  H6  UNL     1       2.565   3.273   6.055  1.00  0.00     0.166 HD
HETATM    5  C11 UNL     1       0.873   4.556   6.296  1.00  0.00     0.078 A 
HETATM    6  C12 UNL     1       0.204   4.708   5.102  1.00  0.00     0.020 A 
HETATM    7  C13 UNL     1       0.718   4.025   3.995  1.00  0.00     0.016 A 
HETATM    8  C14 UNL     1       0.091   4.140   2.781  1.00  0.00     0.001 A 
HETATM    9  C15 UNL     1      -1.035   4.930   2.683  1.00  0.00     0.002 A 
HETATM   10  C16 UNL     1      -1.522   5.596   3.799  1.00  0.00     0.031 A 
HETATM   11  C17 UNL     1      -0.913   5.499   5.032  1.00  0.00     0.050 A 
HETATM   12  N7  UNL     1      -1.395   6.154   6.125  1.00  0.00    -0.312 N 
HETATM   13  C24 UNL     1      -0.760   6.023   7.305  1.00  0.00     0.277 A 
HETATM   14  O1  UNL     1      -1.157   6.608   8.345  1.00  0.00    -0.265 OA
HETATM   15  C25 UNL     1       0.375   5.230   7.420  1.00  0.00     0.132 A 
ENDROOT
BRANCH   1  16
HETATM   16  C9  UNL     1       1.103   5.336   9.792  1.00  0.00     0.190 C 
BRANCH  16  17
HETATM   17  C8  UNL     1       0.331   4.295  10.540  1.00  0.00     0.062 A 
HETATM   18  C7  UNL     1      -0.702   3.511  10.058  1.00  0.00     0.140 A 
HETATM   19  N4  UNL     1      -1.084   2.712  11.071  1.00  0.00    -0.285 N 
HETATM   20  N11 UNL     1      -0.337   2.972  12.140  1.00  0.00    -0.241 N 
HETATM   21  N10 UNL     1       0.505   3.919  11.811  1.00  0.00    -0.287 N 
ATOM     22  H11 UNL     1      -0.407   2.516  13.050  1.00  0.00     0.208 HD
ATOM     23  H10 UNL     1       1.202   4.318  12.441  1.00  0.00     0.188 HD
BRANCH  19  24
HETATM   24  C6  UNL     1      -2.115   1.731  11.062  1.00  0.00     0.171 C 
BRANCH  24  25
HETATM   25  C5  UNL     1      -3.514   2.217  11.036  1.00  0.00     0.176 C 
BRANCH  25  26
HETATM   26  N3  UNL     1      -4.094   2.439  12.341  1.00  0.00    -0.239 N 
HETATM   27  N2  UNL     1      -3.781   1.840  13.486  1.00  0.00    -0.283 N 
HETATM   28  C3  UNL     1      -4.522   2.313  14.504  1.00  0.00     0.098 A 
ATOM     29  H2  UNL     1      -3.070   1.115  13.580  1.00  0.00     0.188 HD
HETATM   30  N1  UNL     1      -5.314   3.233  13.959  1.00  0.00    -0.287 N 
HETATM   31  C4  UNL     1      -4.410   1.847  15.905  1.00  0.00     0.091 C 
HETATM   32  C26 UNL     1      -5.061   3.319  12.635  1.00  0.00     0.344 A 
HETATM   33  O2  UNL     1      -5.647   4.103  11.812  1.00  0.00    -0.245 OA
BRANCH  30  34
HETATM   34  C2  UNL     1      -6.291   4.020  14.655  1.00  0.00     0.131 C 
HETATM   35  C1  UNL     1      -5.834   5.471  14.811  1.00  0.00     0.027 C 
ENDBRANCH  30  34
ENDBRANCH  25  26
ENDBRANCH  24  25
ENDBRANCH  19  24
ENDBRANCH  16  17
ENDBRANCH   1  16
BRANCH  12  36
HETATM   36  C18 UNL     1      -2.544   6.977   5.957  1.00  0.00     0.134 C 
BRANCH  36  37
HETATM   37  C19 UNL     1      -3.858   6.372   6.367  1.00  0.00     0.050 C 
BRANCH  37  38
HETATM   38  C20 UNL     1      -4.522   7.186   7.408  1.00  0.00     0.276 C 
BRANCH  38  39
HETATM   39  N8  UNL     1      -5.127   6.395   8.464  1.00  0.00     0.115 N 
HETATM   40  C21 UNL     1      -5.365   7.144   9.670  1.00  0.00     0.302 C 
HETATM   41  C22 UNL     1      -4.061   7.027  10.425  1.00  0.00     0.264 C 
HETATM   42  N9  UNL     1      -3.667   5.661  10.137  1.00  0.00    -0.047 N 
HETATM   43  C23 UNL     1      -4.157   5.368   8.827  1.00  0.00     0.502 C 
ATOM     44  H92 UNL     1      -2.665   5.497  10.240  1.00  0.00     0.279 HD
ATOM     45  H91 UNL     1      -3.977   4.993  10.844  1.00  0.00     0.279 HD
ENDBRANCH  38  39
ENDBRANCH  37  38
ENDBRANCH  36  37
ENDBRANCH  12  36
TORSDOF 10
ENDMDL
MODEL 5
REMARK VINA RESULT: -7.573021770      3.028      6.506
REMARK  10 active torsions:
REMARK  status: ('A' for Active; 'I' for Inactive)
REMARK    1  A    between atoms: C2_2  and  N1_3 
REMARK    2  A    between atoms: N3_8  and  C5_9 
REMARK    3  A    between atoms: C5_9  and  C6_10 
REMARK    4  A    between atoms: C6_10  and  N4_11 
REMARK    5  A    between atoms: C8_13  and  C9_14 
REMARK    6  A    between atoms: C9_14  and  N5_15 
REMARK    7  A    between atoms: N7_26  and  C18_27 
REMARK    8  A    between atoms: C18_27  and  C19_28 
REMARK    9  A    between atoms: C19_28  and  C20_29 
REMARK   10  A    between atoms: C20_29  and  N8_30 
ROOT
HETATM    1  N5  UNL     1      -0.707   4.640  10.771  1.00  0.00    -0.331 N 
HETATM    2  C10 UNL     1       0.084   3.854  10.000  1.00  0.00     0.184 A 
HETATM    3  N6  UNL     1      -0.385   2.610   9.947  1.00  0.00    -0.349 N 
ATOM      4  H6  UNL     1       0.015   1.820   9.441  1.00  0.00     0.166 HD
HETATM    5  C11 UNL     1      -1.510   2.615  10.709  1.00  0.00     0.078 A 
HETATM    6  C12 UNL     1      -2.429   1.641  11.034  1.00  0.00     0.020 A 
HETATM    7  C13 UNL     1      -2.212   0.364  10.508  1.00  0.00     0.016 A 
HETATM    8  C14 UNL     1      -3.095  -0.644  10.800  1.00  0.00     0.001 A 
HETATM    9  C15 UNL     1      -4.179  -0.369  11.606  1.00  0.00     0.002 A 
HETATM   10  C16 UNL     1      -4.369   0.910  12.113  1.00  0.00     0.031 A 
HETATM   11  C17 UNL     1      -3.498   1.941  11.837  1.00  0.00     0.050 A 
HETATM   12  N7  UNL     1      -3.687   3.194  12.337  1.00  0.00    -0.312 N 
HETATM   13  C24 UNL     1      -2.804   4.165  12.036  1.00  0.00     0.277 A 
HETATM   14  O1  UNL     1      -2.932   5.340  12.465  1.00  0.00    -0.265 OA
HETATM   15  C25 UNL     1      -1.706   3.903  11.225  1.00  0.00     0.132 A 
ENDROOT
BRANCH   1  16
HETATM   16  C9  UNL     1      -0.424   6.021  11.027  1.00  0.00     0.190 C 
BRANCH  16  17
HETATM   17  C8  UNL     1      -0.926   6.820   9.866  1.00  0.00     0.062 A 
HETATM   18  C7  UNL     1      -2.185   6.769   9.296  1.00  0.00     0.140 A 
HETATM   19  N4  UNL     1      -2.191   7.666   8.292  1.00  0.00    -0.285 N 
HETATM   20  N11 UNL     1      -1.001   8.256   8.225  1.00  0.00    -0.241 N 
HETATM   21  N10 UNL     1      -0.253   7.743   9.169  1.00  0.00    -0.287 N 
ATOM     22  H11 UNL     1      -0.722   8.976   7.559  1.00  0.00     0.208 HD
ATOM     23  H10 UNL     1       0.714   8.011   9.350  1.00  0.00     0.188 HD
BRANCH  19  24
HETATM   24  C6  UNL     1      -3.265   7.975   7.410  1.00  0.00     0.171 C 
BRANCH  24  25
HETATM   25  C5  UNL     1      -4.067   9.183   7.716  1.00  0.00     0.176 C 
BRANCH  25  26
HETATM   26  N3  UNL     1      -5.302   8.919   8.418  1.00  0.00    -0.239 N 
HETATM   27  N2  UNL     1      -6.511   8.722   7.900  1.00  0.00    -0.283 N 
HETATM   28  C3  UNL     1      -7.423   8.490   8.859  1.00  0.00     0.098 A 
ATOM     29  H2  UNL     1      -6.719   8.745   6.901  1.00  0.00     0.188 HD
HETATM   30  N1  UNL     1      -6.745   8.546  10.004  1.00  0.00    -0.287 N 
HETATM   31  C4  UNL     1      -8.859   8.234   8.602  1.00  0.00     0.091 C 
HETATM   32  C26 UNL     1      -5.446   8.808   9.746  1.00  0.00     0.344 A 
HETATM   33  O2  UNL     1      -4.521   8.931  10.620  1.00  0.00    -0.245 OA
BRANCH  30  34
HETATM   34  C2  UNL     1      -7.295   8.360  11.315  1.00  0.00     0.131 C 
HETATM   35  C1  UNL     1      -6.829   7.043  11.937  1.00  0.00     0.027 C 
ENDBRANCH  30  34
ENDBRANCH  25  26
ENDBRANCH  24  25
ENDBRANCH  19  24
ENDBRANCH  16  17
ENDBRANCH   1  16
BRANCH  12  36
HETATM   36  C18 UNL     1      -4.839   3.425  13.141  1.00  0.00     0.134 C 
BRANCH  36  37
HETATM   37  C19 UNL     1      -4.613   3.462  14.627  1.00  0.00     0.050 C 
BRANCH  37  38
HETATM   38  C20 UNL     1      -5.884   3.299  15.367  1.00  0.00     0.276 C 
BRANCH  38  39
HETATM   39  N8  UNL     1      -6.234   1.913  15.619  1.00  0.00     0.115 N 
HETATM   40  C21 UNL     1      -7.115   1.746  16.745  1.00  0.00     0.302 C 
HETATM   41  C22 UNL     1      -6.173   1.649  17.923  1.00  0.00     0.264 C 
HETATM   42  N9  UNL     1      -5.074   0.882  17.368  1.00  0.00    -0.047 N 
HETATM   43  C23 UNL     1      -5.000   1.229  15.983  1.00  0.00     0.502 C 
ATOM     44  H92 UNL     1      -4.194   1.015  17.866  1.00  0.00     0.279 HD
ATOM     45  H91 UNL     1      -5.159  -0.122  17.530  1.00  0.00     0.279 HD
ENDBRANCH  38  39
ENDBRANCH  37  38
ENDBRANCH  36  37
ENDBRANCH  12  36
TORSDOF 10
ENDMDL
