MODEL 1
REMARK VINA RESULT: -7.509867036      0.000      0.000
REMARK  11 active torsions:
REMARK  status: ('A' for Active; 'I' for Inactive)
REMARK    1  A    between atoms: N2_5  and  C4_6 
REMARK    2  A    between atoms: N6_15  and  C7_16 
REMARK    3  A    between atoms: N8_25  and  C14_26 
REMARK    4  A    between atoms: C14_26  and  C15_27 
REMARK    5  A    between atoms: C15_27  and  C16_28 
REMARK    6  A    between atoms: C16_28  and  C17_29 
REMARK    7  A    between atoms: C17_29  and  C18_30 
REMARK    8  A    between atoms: C18_30  and  N9_31 
REMARK    9  A    between atoms: N10_34  and  C21_35 
REMARK   10  A    between atoms: C21_35  and  C22_36 
REMARK   11  A    between atoms: C22_36  and  O1_37 
ROOT
HETATM    1  C7  UNL     1      -0.540   4.866  10.105  1.00  0.00     0.062 A 
HETATM    2  C8  UNL     1      -1.598   5.692   9.802  1.00  0.00     0.034 A 
HETATM    3  C9  UNL     1      -2.437   6.082  10.821  1.00  0.00     0.034 A 
HETATM    4  C10 UNL     1      -2.237   5.668  12.121  1.00  0.00     0.062 A 
HETATM    5  C11 UNL     1      -1.169   4.843  12.388  1.00  0.00     0.062 A 
HETATM    6  C12 UNL     1      -0.303   4.429  11.387  1.00  0.00     0.063 A 
HETATM    7  N7  UNL     1      -1.214   4.598  13.720  1.00  0.00    -0.350 N 
ATOM      8  H7  UNL     1      -0.554   4.015  14.234  1.00  0.00     0.166 HD
HETATM    9  C13 UNL     1      -2.261   5.240  14.256  1.00  0.00     0.183 A 
HETATM   10  N8  UNL     1      -2.893   5.897  13.290  1.00  0.00    -0.341 N 
ENDROOT
BRANCH   1  11
HETATM   11  N6  UNL     1       0.326   4.461   9.062  1.00  0.00    -0.223 N 
HETATM   12  N5  UNL     1      -0.017   3.938   7.898  1.00  0.00    -0.233 N 
HETATM   13  N4  UNL     1       1.065   3.689   7.187  1.00  0.00    -0.281 N 
ATOM     14  H5  UNL     1      -0.974   3.754   7.595  1.00  0.00     0.209 HD
HETATM   15  C6  UNL     1       2.147   4.050   7.886  1.00  0.00     0.111 A 
ATOM     16  H4  UNL     1       1.076   3.285   6.251  1.00  0.00     0.188 HD
HETATM   17  C5  UNL     1       3.505   4.029   7.671  1.00  0.00     0.141 A 
HETATM   18  C25 UNL     1       1.667   4.544   9.085  1.00  0.00     0.173 A 
HETATM   19  N3  UNL     1       4.328   4.487   8.627  1.00  0.00    -0.199 N 
HETATM   20  C4  UNL     1       3.885   4.971   9.797  1.00  0.00     0.681 A 
ATOM     21  H3  UNL     1       5.333   4.467   8.457  1.00  0.00     0.183 HD
HETATM   22  N11 UNL     1       2.561   4.992  10.011  1.00  0.00    -0.172 N 
ATOM     23  H11 UNL     1       2.210   5.357  10.897  1.00  0.00     0.186 HD
BRANCH  20  24
HETATM   24  N2  UNL     1       4.753   5.450  10.794  1.00  0.00    -0.214 N 
HETATM   25  C3  UNL     1       5.898   6.256  10.471  1.00  0.00     0.171 C 
HETATM   26  C2  UNL     1       5.807   7.510  11.311  1.00  0.00     0.292 C 
HETATM   27  N1  UNL     1       5.652   7.246  12.706  1.00  0.00     0.087 N 
HETATM   28  C1  UNL     1       5.351   8.535  13.351  1.00  0.00     0.310 C 
HETATM   29  C27 UNL     1       4.565   6.367  13.031  1.00  0.00     0.292 C 
HETATM   30  C26 UNL     1       4.501   5.133  12.175  1.00  0.00     0.171 C 
ENDBRANCH  20  24
ENDBRANCH   1  11
BRANCH  10  31
HETATM   31  C14 UNL     1      -4.084   6.736  13.374  1.00  0.00     0.130 C 
BRANCH  31  32
HETATM   32  C15 UNL     1      -4.595   6.702  14.814  1.00  0.00     0.021 C 
BRANCH  32  33
HETATM   33  C16 UNL     1      -6.071   6.345  14.840  1.00  0.00     0.007 C 
BRANCH  33  34
HETATM   34  C17 UNL     1      -6.452   5.276  13.893  1.00  0.00     0.044 C 
BRANCH  34  35
HETATM   35  C18 UNL     1      -6.064   3.898  14.258  1.00  0.00     0.058 C 
BRANCH  35  36
HETATM   36  N9  UNL     1      -5.262   3.184  13.388  1.00  0.00    -0.390 N 
HETATM   37  C19 UNL     1      -5.160   3.386  12.026  1.00  0.00     0.152 C 
HETATM   38  C20 UNL     1      -5.038   2.068  11.229  1.00  0.00     0.292 C 
HETATM   39  N10 UNL     1      -4.038   1.195  11.859  1.00  0.00     0.093 N 
HETATM   40  C23 UNL     1      -4.322   1.001  13.245  1.00  0.00     0.292 C 
HETATM   41  C24 UNL     1      -4.338   2.299  14.025  1.00  0.00     0.152 C 
BRANCH  39  42
HETATM   42  C21 UNL     1      -2.753   1.734  11.550  1.00  0.00     0.298 C 
BRANCH  42  43
HETATM   43  C22 UNL     1      -1.967   0.761  10.732  1.00  0.00     0.194 C 
BRANCH  43  44
HETATM   44  O1  UNL     1      -1.275   1.524   9.767  1.00  0.00    -0.399 OA
ATOM     45  H1  UNL     1      -0.451   1.775  10.168  1.00  0.00     0.209 HD
ENDBRANCH  43  44
ENDBRANCH  42  43
ENDBRANCH  39  42
ENDBRANCH  35  36
ENDBRANCH  34  35
ENDBRANCH  33  34
ENDBRANCH  32  33
ENDBRANCH  31  32
ENDBRANCH  10  31
TORSDOF 11
ENDMDL
MODEL 2
REMARK VINA RESULT: -7.274723179      2.665      4.814
REMARK  11 active torsions:
REMARK  status: ('A' for Active; 'I' for Inactive)
REMARK    1  A    between atoms: N2_5  and  C4_6 
REMARK    2  A    between atoms: N6_15  and  C7_16 
REMARK    3  A    between atoms: N8_25  and  C14_26 
REMARK    4  A    between atoms: C14_26  and  C15_27 
REMARK    5  A    between atoms: C15_27  and  C16_28 
REMARK    6  A    between atoms: C16_28  and  C17_29 
REMARK    7  A    between atoms: C17_29  and  C18_30 
REMARK    8  A    between atoms: C18_30  and  N9_31 
REMARK    9  A    between atoms: N10_34  and  C21_35 
REMARK   10  A    between atoms: C21_35  and  C22_36 
REMARK   11  A    between atoms: C22_36  and  O1_37 
ROOT
HETATM    1  C7  UNL     1      -1.902   5.392  10.485  1.00  0.00     0.062 A 
HETATM    2  C8  UNL     1      -2.191   6.335  11.445  1.00  0.00     0.034 A 
HETATM    3  C9  UNL     1      -3.425   6.943  11.417  1.00  0.00     0.034 A 
HETATM    4  C10 UNL     1      -4.365   6.627  10.457  1.00  0.00     0.062 A 
HETATM    5  C11 UNL     1      -4.043   5.679   9.514  1.00  0.00     0.062 A 
HETATM    6  C12 UNL     1      -2.809   5.046   9.511  1.00  0.00     0.063 A 
HETATM    7  N7  UNL     1      -5.130   5.571   8.713  1.00  0.00    -0.350 N 
ATOM      8  H7  UNL     1      -5.211   4.947   7.910  1.00  0.00     0.166 HD
HETATM    9  C13 UNL     1      -6.084   6.410   9.138  1.00  0.00     0.183 A 
HETATM   10  N8  UNL     1      -5.628   7.060  10.203  1.00  0.00    -0.341 N 
ENDROOT
BRANCH   1  11
HETATM   11  N6  UNL     1      -0.636   4.764  10.509  1.00  0.00    -0.223 N 
HETATM   12  N5  UNL     1      -0.042   4.202  11.549  1.00  0.00    -0.233 N 
HETATM   13  N4  UNL     1       1.130   3.721  11.184  1.00  0.00    -0.281 N 
ATOM     14  H5  UNL     1      -0.431   4.150  12.490  1.00  0.00     0.209 HD
HETATM   15  C6  UNL     1       1.324   3.965   9.883  1.00  0.00     0.111 A 
ATOM     16  H4  UNL     1       1.787   3.239  11.797  1.00  0.00     0.188 HD
HETATM   17  C5  UNL     1       2.326   3.711   8.976  1.00  0.00     0.141 A 
HETATM   18  C25 UNL     1       0.190   4.633   9.457  1.00  0.00     0.173 A 
HETATM   19  N3  UNL     1       2.179   4.115   7.705  1.00  0.00    -0.199 N 
HETATM   20  C4  UNL     1       1.089   4.763   7.269  1.00  0.00     0.681 A 
ATOM     21  H3  UNL     1       2.929   3.921   7.041  1.00  0.00     0.183 HD
HETATM   22  N11 UNL     1       0.109   5.013   8.151  1.00  0.00    -0.172 N 
ATOM     23  H11 UNL     1      -0.726   5.506   7.833  1.00  0.00     0.186 HD
BRANCH  20  24
HETATM   24  N2  UNL     1       0.940   5.182   5.936  1.00  0.00    -0.214 N 
HETATM   25  C3  UNL     1       1.720   4.606   4.874  1.00  0.00     0.171 C 
HETATM   26  C2  UNL     1       0.748   4.137   3.816  1.00  0.00     0.292 C 
HETATM   27  N1  UNL     1      -0.158   5.156   3.389  1.00  0.00     0.087 N 
HETATM   28  C1  UNL     1      -1.169   4.498   2.545  1.00  0.00     0.310 C 
HETATM   29  C27 UNL     1      -0.875   5.801   4.453  1.00  0.00     0.292 C 
HETATM   30  C26 UNL     1      -0.010   6.212   5.611  1.00  0.00     0.171 C 
ENDBRANCH  20  24
ENDBRANCH   1  11
BRANCH  10  31
HETATM   31  C14 UNL     1      -6.292   8.074  11.016  1.00  0.00     0.130 C 
BRANCH  31  32
HETATM   32  C15 UNL     1      -7.349   7.383  11.877  1.00  0.00     0.021 C 
BRANCH  32  33
HETATM   33  C16 UNL     1      -6.706   6.766  13.106  1.00  0.00     0.007 C 
BRANCH  33  34
HETATM   34  C17 UNL     1      -7.017   5.334  13.298  1.00  0.00     0.044 C 
BRANCH  34  35
HETATM   35  C18 UNL     1      -6.011   4.528  14.020  1.00  0.00     0.058 C 
BRANCH  35  36
HETATM   36  N9  UNL     1      -5.232   3.642  13.299  1.00  0.00    -0.390 N 
HETATM   37  C19 UNL     1      -5.176   3.545  11.923  1.00  0.00     0.152 C 
HETATM   38  C20 UNL     1      -5.071   2.085  11.426  1.00  0.00     0.292 C 
HETATM   39  N10 UNL     1      -4.047   1.368  12.196  1.00  0.00     0.093 N 
HETATM   40  C23 UNL     1      -4.285   1.479  13.600  1.00  0.00     0.292 C 
HETATM   41  C24 UNL     1      -4.283   2.914  14.082  1.00  0.00     0.152 C 
BRANCH  39  42
HETATM   42  C21 UNL     1      -2.775   1.827  11.737  1.00  0.00     0.298 C 
BRANCH  42  43
HETATM   43  C22 UNL     1      -2.191   0.847  10.771  1.00  0.00     0.194 C 
BRANCH  43  44
HETATM   44  O1  UNL     1      -1.131   1.516  10.122  1.00  0.00    -0.399 OA
ATOM     45  H1  UNL     1      -1.492   2.332   9.797  1.00  0.00     0.209 HD
ENDBRANCH  43  44
ENDBRANCH  42  43
ENDBRANCH  39  42
ENDBRANCH  35  36
ENDBRANCH  34  35
ENDBRANCH  33  34
ENDBRANCH  32  33
ENDBRANCH  31  32
ENDBRANCH  10  31
TORSDOF 11
ENDMDL
MODEL 3
REMARK VINA RESULT: -6.974153491      3.459      4.805
REMARK  11 active torsions:
REMARK  status: ('A' for Active; 'I' for Inactive)
REMARK    1  A    between atoms: N2_5  and  C4_6 
REMARK    2  A    between atoms: N6_15  and  C7_16 
REMARK    3  A    between atoms: N8_25  and  C14_26 
REMARK    4  A    between atoms: C14_26  and  C15_27 
REMARK    5  A    between atoms: C15_27  and  C16_28 
REMARK    6  A    between atoms: C16_28  and  C17_29 
REMARK    7  A    between atoms: C17_29  and  C18_30 
REMARK    8  A    between atoms: C18_30  and  N9_31 
REMARK    9  A    between atoms: N10_34  and  C21_35 
REMARK   10  A    between atoms: C21_35  and  C22_36 
REMARK   11  A    between atoms: C22_36  and  O1_37 
ROOT
HETATM    1  C7  UNL     1      -2.695   6.441   5.928  1.00  0.00     0.062 A 
HETATM    2  C8  UNL     1      -3.558   5.633   6.632  1.00  0.00     0.034 A 
HETATM    3  C9  UNL     1      -4.521   6.228   7.416  1.00  0.00     0.034 A 
HETATM    4  C10 UNL     1      -4.634   7.600   7.505  1.00  0.00     0.062 A 
HETATM    5  C11 UNL     1      -3.754   8.376   6.787  1.00  0.00     0.062 A 
HETATM    6  C12 UNL     1      -2.772   7.812   5.987  1.00  0.00     0.063 A 
HETATM    7  N7  UNL     1      -4.090   9.661   7.058  1.00  0.00    -0.350 N 
ATOM      8  H7  UNL     1      -3.624  10.484   6.677  1.00  0.00     0.166 HD
HETATM    9  C13 UNL     1      -5.129   9.682   7.904  1.00  0.00     0.183 A 
HETATM   10  N8  UNL     1      -5.469   8.430   8.184  1.00  0.00    -0.341 N 
ENDROOT
BRANCH   1  11
HETATM   11  N6  UNL     1      -1.704   5.835   5.121  1.00  0.00    -0.223 N 
HETATM   12  N5  UNL     1      -1.657   5.807   3.800  1.00  0.00    -0.233 N 
HETATM   13  N4  UNL     1      -0.582   5.151   3.408  1.00  0.00    -0.281 N 
ATOM     14  H5  UNL     1      -2.347   6.229   3.179  1.00  0.00     0.209 HD
HETATM   15  C6  UNL     1       0.097   4.733   4.481  1.00  0.00     0.111 A 
ATOM     16  H4  UNL     1      -0.312   4.988   2.439  1.00  0.00     0.188 HD
HETATM   17  C5  UNL     1       1.256   4.022   4.693  1.00  0.00     0.141 A 
HETATM   18  C25 UNL     1      -0.625   5.174   5.575  1.00  0.00     0.173 A 
HETATM   19  N3  UNL     1       1.654   3.776   5.951  1.00  0.00    -0.199 N 
HETATM   20  C4  UNL     1       0.970   4.194   7.025  1.00  0.00     0.681 A 
ATOM     21  H3  UNL     1       2.514   3.247   6.096  1.00  0.00     0.183 HD
HETATM   22  N11 UNL     1      -0.161   4.887   6.823  1.00  0.00    -0.172 N 
ATOM     23  H11 UNL     1      -0.692   5.211   7.632  1.00  0.00     0.186 HD
BRANCH  20  24
HETATM   24  N2  UNL     1       1.393   3.933   8.340  1.00  0.00    -0.214 N 
HETATM   25  C3  UNL     1       2.786   3.939   8.698  1.00  0.00     0.171 C 
HETATM   26  C2  UNL     1       2.937   4.882   9.869  1.00  0.00     0.292 C 
HETATM   27  N1  UNL     1       2.056   4.583  10.954  1.00  0.00     0.087 N 
HETATM   28  C1  UNL     1       2.157   5.704  11.903  1.00  0.00     0.310 C 
HETATM   29  C27 UNL     1       0.671   4.484  10.588  1.00  0.00     0.292 C 
HETATM   30  C26 UNL     1       0.421   3.651   9.363  1.00  0.00     0.171 C 
ENDBRANCH  20  24
ENDBRANCH   1  11
BRANCH  10  31
HETATM   31  C14 UNL     1      -6.534   7.938   9.053  1.00  0.00     0.130 C 
BRANCH  31  32
HETATM   32  C15 UNL     1      -6.205   8.338  10.490  1.00  0.00     0.021 C 
BRANCH  32  33
HETATM   33  C16 UNL     1      -7.296   7.861  11.433  1.00  0.00     0.007 C 
BRANCH  33  34
HETATM   34  C17 UNL     1      -6.843   6.869  12.430  1.00  0.00     0.044 C 
BRANCH  34  35
HETATM   35  C18 UNL     1      -5.831   5.892  11.979  1.00  0.00     0.058 C 
BRANCH  35  36
HETATM   36  N9  UNL     1      -5.505   4.841  12.817  1.00  0.00    -0.390 N 
HETATM   37  C19 UNL     1      -6.399   4.046  13.506  1.00  0.00     0.152 C 
HETATM   38  C20 UNL     1      -5.910   3.679  14.925  1.00  0.00     0.292 C 
HETATM   39  N10 UNL     1      -4.511   3.233  14.871  1.00  0.00     0.093 N 
HETATM   40  C23 UNL     1      -3.688   4.197  14.213  1.00  0.00     0.292 C 
HETATM   41  C24 UNL     1      -4.126   4.466  12.789  1.00  0.00     0.152 C 
BRANCH  39  42
HETATM   42  C21 UNL     1      -4.508   1.919  14.314  1.00  0.00     0.298 C 
BRANCH  42  43
HETATM   43  C22 UNL     1      -4.559   0.896  15.403  1.00  0.00     0.194 C 
BRANCH  43  44
HETATM   44  O1  UNL     1      -3.455   1.159  16.242  1.00  0.00    -0.399 OA
ATOM     45  H1  UNL     1      -2.999   0.333  16.348  1.00  0.00     0.209 HD
ENDBRANCH  43  44
ENDBRANCH  42  43
ENDBRANCH  39  42
ENDBRANCH  35  36
ENDBRANCH  34  35
ENDBRANCH  33  34
ENDBRANCH  32  33
ENDBRANCH  31  32
ENDBRANCH  10  31
TORSDOF 11
ENDMDL
MODEL 4
REMARK VINA RESULT: -6.951565556      2.527      3.493
REMARK  11 active torsions:
REMARK  status: ('A' for Active; 'I' for Inactive)
REMARK    1  A    between atoms: N2_5  and  C4_6 
REMARK    2  A    between atoms: N6_15  and  C7_16 
REMARK    3  A    between atoms: N8_25  and  C14_26 
REMARK    4  A    between atoms: C14_26  and  C15_27 
REMARK    5  A    between atoms: C15_27  and  C16_28 
REMARK    6  A    between atoms: C16_28  and  C17_29 
REMARK    7  A    between atoms: C17_29  and  C18_30 
REMARK    8  A    between atoms: C18_30  and  N9_31 
REMARK    9  A    between atoms: N10_34  and  C21_35 
REMARK   10  A    between atoms: C21_35  and  C22_36 
REMARK   11  A    between atoms: C22_36  and  O1_37 
ROOT
HETATM    1  C7  UNL     1      -2.381   5.960   7.117  1.00  0.00     0.062 A 
HETATM    2  C8  UNL     1      -1.958   6.698   8.199  1.00  0.00     0.034 A 
HETATM    3  C9  UNL     1      -2.886   7.065   9.146  1.00  0.00     0.034 A 
HETATM    4  C10 UNL     1      -4.214   6.711   9.033  1.00  0.00     0.062 A 
HETATM    5  C11 UNL     1      -4.602   5.973   7.938  1.00  0.00     0.062 A 
HETATM    6  C12 UNL     1      -3.695   5.585   6.964  1.00  0.00     0.063 A 
HETATM    7  N7  UNL     1      -5.935   5.772   8.082  1.00  0.00    -0.350 N 
ATOM      8  H7  UNL     1      -6.526   5.256   7.431  1.00  0.00     0.166 HD
HETATM    9  C13 UNL     1      -6.355   6.357   9.212  1.00  0.00     0.183 A 
HETATM   10  N8  UNL     1      -5.313   6.933   9.801  1.00  0.00    -0.341 N 
ENDROOT
BRANCH   1  11
HETATM   11  N6  UNL     1      -1.432   5.580   6.141  1.00  0.00    -0.223 N 
HETATM   12  N5  UNL     1      -1.580   5.615   4.827  1.00  0.00    -0.233 N 
HETATM   13  N4  UNL     1      -0.478   5.184   4.245  1.00  0.00    -0.281 N 
ATOM     14  H5  UNL     1      -2.418   5.928   4.339  1.00  0.00     0.209 HD
HETATM   15  C6  UNL     1       0.418   4.854   5.182  1.00  0.00     0.111 A 
ATOM     16  H4  UNL     1      -0.332   5.112   3.238  1.00  0.00     0.188 HD
HETATM   17  C5  UNL     1       1.701   4.361   5.180  1.00  0.00     0.141 A 
HETATM   18  C25 UNL     1      -0.198   5.110   6.393  1.00  0.00     0.173 A 
HETATM   19  N3  UNL     1       2.322   4.140   6.350  1.00  0.00    -0.199 N 
HETATM   20  C4  UNL     1       1.744   4.382   7.536  1.00  0.00     0.681 A 
ATOM     21  H3  UNL     1       3.273   3.774   6.337  1.00  0.00     0.183 HD
HETATM   22  N11 UNL     1       0.491   4.863   7.541  1.00  0.00    -0.172 N 
ATOM     23  H11 UNL     1       0.040   5.051   8.437  1.00  0.00     0.186 HD
BRANCH  20  24
HETATM   24  N2  UNL     1       2.399   4.150   8.758  1.00  0.00    -0.214 N 
HETATM   25  C3  UNL     1       3.813   4.366   8.906  1.00  0.00     0.171 C 
HETATM   26  C2  UNL     1       3.998   5.283  10.093  1.00  0.00     0.292 C 
HETATM   27  N1  UNL     1       3.350   4.814  11.277  1.00  0.00     0.087 N 
HETATM   28  C1  UNL     1       3.424   5.906  12.262  1.00  0.00     0.310 C 
HETATM   29  C27 UNL     1       1.957   4.508  11.114  1.00  0.00     0.292 C 
HETATM   30  C26 UNL     1       1.651   3.685   9.895  1.00  0.00     0.171 C 
ENDBRANCH  20  24
ENDBRANCH   1  11
BRANCH  10  31
HETATM   31  C14 UNL     1      -5.263   7.690  11.048  1.00  0.00     0.130 C 
BRANCH  31  32
HETATM   32  C15 UNL     1      -6.410   7.220  11.941  1.00  0.00     0.021 C 
BRANCH  32  33
HETATM   33  C16 UNL     1      -5.918   6.170  12.923  1.00  0.00     0.007 C 
BRANCH  33  34
HETATM   34  C17 UNL     1      -4.527   6.374  13.380  1.00  0.00     0.044 C 
BRANCH  34  35
HETATM   35  C18 UNL     1      -3.759   5.160  13.725  1.00  0.00     0.058 C 
BRANCH  35  36
HETATM   36  N9  UNL     1      -3.690   4.135  12.799  1.00  0.00    -0.390 N 
HETATM   37  C19 UNL     1      -3.032   4.180  11.587  1.00  0.00     0.152 C 
HETATM   38  C20 UNL     1      -3.799   3.456  10.458  1.00  0.00     0.292 C 
HETATM   39  N10 UNL     1      -4.257   2.143  10.929  1.00  0.00     0.093 N 
HETATM   40  C23 UNL     1      -5.001   2.261  12.142  1.00  0.00     0.292 C 
HETATM   41  C24 UNL     1      -4.196   2.882  13.264  1.00  0.00     0.152 C 
BRANCH  39  42
HETATM   42  C21 UNL     1      -3.115   1.288  10.973  1.00  0.00     0.298 C 
BRANCH  42  43
HETATM   43  C22 UNL     1      -3.438  -0.037  10.361  1.00  0.00     0.194 C 
BRANCH  43  44
HETATM   44  O1  UNL     1      -4.166   0.239   9.184  1.00  0.00    -0.399 OA
ATOM     45  H1  UNL     1      -4.097  -0.538   8.641  1.00  0.00     0.209 HD
ENDBRANCH  43  44
ENDBRANCH  42  43
ENDBRANCH  39  42
ENDBRANCH  35  36
ENDBRANCH  34  35
ENDBRANCH  33  34
ENDBRANCH  32  33
ENDBRANCH  31  32
ENDBRANCH  10  31
TORSDOF 11
ENDMDL
MODEL 5
REMARK VINA RESULT: -6.948196416      3.245      4.474
REMARK  11 active torsions:
REMARK  status: ('A' for Active; 'I' for Inactive)
REMARK    1  A    between atoms: N2_5  and  C4_6 
REMARK    2  A    between atoms: N6_15  and  C7_16 
REMARK    3  A    between atoms: N8_25  and  C14_26 
REMARK    4  A    between atoms: C14_26  and  C15_27 
REMARK    5  A    between atoms: C15_27  and  C16_28 
REMARK    6  A    between atoms: C16_28  and  C17_29 
REMARK    7  A    between atoms: C17_29  and  C18_30 
REMARK    8  A    between atoms: C18_30  and  N9_31 
REMARK    9  A    between atoms: N10_34  and  C21_35 
REMARK   10  A    between atoms: C21_35  and  C22_36 
REMARK   11  A    between atoms: C22_36  and  O1_37 
ROOT
HETATM    1  C7  UNL     1      -2.807   6.435   6.094  1.00  0.00     0.062 A 
HETATM    2  C8  UNL     1      -3.578   5.608   6.878  1.00  0.00     0.034 A 
HETATM    3  C9  UNL     1      -4.536   6.176   7.686  1.00  0.00     0.034 A 
HETATM    4  C10 UNL     1      -4.736   7.541   7.722  1.00  0.00     0.062 A 
HETATM    5  C11 UNL     1      -3.947   8.337   6.924  1.00  0.00     0.062 A 
HETATM    6  C12 UNL     1      -2.972   7.800   6.098  1.00  0.00     0.063 A 
HETATM    7  N7  UNL     1      -4.353   9.609   7.156  1.00  0.00    -0.350 N 
ATOM      8  H7  UNL     1      -3.962  10.442   6.716  1.00  0.00     0.166 HD
HETATM    9  C13 UNL     1      -5.346   9.604   8.055  1.00  0.00     0.183 A 
HETATM   10  N8  UNL     1      -5.588   8.347   8.408  1.00  0.00    -0.341 N 
ENDROOT
BRANCH   1  11
HETATM   11  N6  UNL     1      -1.821   5.857   5.262  1.00  0.00    -0.223 N 
HETATM   12  N5  UNL     1      -1.796   5.847   3.940  1.00  0.00    -0.233 N 
HETATM   13  N4  UNL     1      -0.718   5.214   3.521  1.00  0.00    -0.281 N 
ATOM     14  H5  UNL     1      -2.503   6.266   3.336  1.00  0.00     0.209 HD
HETATM   15  C6  UNL     1      -0.013   4.793   4.576  1.00  0.00     0.111 A 
ATOM     16  H4  UNL     1      -0.462   5.068   2.545  1.00  0.00     0.188 HD
HETATM   17  C5  UNL     1       1.160   4.099   4.758  1.00  0.00     0.141 A 
HETATM   18  C25 UNL     1      -0.724   5.207   5.688  1.00  0.00     0.173 A 
HETATM   19  N3  UNL     1       1.585   3.842   6.005  1.00  0.00    -0.199 N 
HETATM   20  C4  UNL     1       0.912   4.234   7.097  1.00  0.00     0.681 A 
ATOM     21  H3  UNL     1       2.456   3.326   6.128  1.00  0.00     0.183 HD
HETATM   22  N11 UNL     1      -0.233   4.911   6.924  1.00  0.00    -0.172 N 
ATOM     23  H11 UNL     1      -0.755   5.216   7.746  1.00  0.00     0.186 HD
BRANCH  20  24
HETATM   24  N2  UNL     1       1.362   3.962   8.401  1.00  0.00    -0.214 N 
HETATM   25  C3  UNL     1       2.764   3.870   8.709  1.00  0.00     0.171 C 
HETATM   26  C2  UNL     1       3.027   4.817   9.858  1.00  0.00     0.292 C 
HETATM   27  N1  UNL     1       2.166   4.601  10.978  1.00  0.00     0.087 N 
HETATM   28  C1  UNL     1       2.384   5.726  11.903  1.00  0.00     0.310 C 
HETATM   29  C27 UNL     1       0.766   4.601  10.663  1.00  0.00     0.292 C 
HETATM   30  C26 UNL     1       0.410   3.770   9.462  1.00  0.00     0.171 C 
ENDBRANCH  20  24
ENDBRANCH   1  11
BRANCH  10  31
HETATM   31  C14 UNL     1      -6.573   7.829   9.353  1.00  0.00     0.130 C 
BRANCH  31  32
HETATM   32  C15 UNL     1      -5.996   7.955  10.763  1.00  0.00     0.021 C 
BRANCH  32  33
HETATM   33  C16 UNL     1      -6.842   7.167  11.750  1.00  0.00     0.007 C 
BRANCH  33  34
HETATM   34  C17 UNL     1      -6.129   6.045  12.396  1.00  0.00     0.044 C 
BRANCH  34  35
HETATM   35  C18 UNL     1      -4.938   5.524  11.694  1.00  0.00     0.058 C 
BRANCH  35  36
HETATM   36  N9  UNL     1      -4.702   4.162  11.710  1.00  0.00    -0.390 N 
HETATM   37  C19 UNL     1      -5.270   3.251  12.579  1.00  0.00     0.152 C 
HETATM   38  C20 UNL     1      -4.281   2.155  13.034  1.00  0.00     0.292 C 
HETATM   39  N10 UNL     1      -3.558   1.622  11.872  1.00  0.00     0.093 N 
HETATM   40  C23 UNL     1      -2.946   2.669  11.119  1.00  0.00     0.292 C 
HETATM   41  C24 UNL     1      -3.947   3.677  10.598  1.00  0.00     0.152 C 
BRANCH  39  42
HETATM   42  C21 UNL     1      -4.468   0.784  11.158  1.00  0.00     0.298 C 
BRANCH  42  43
HETATM   43  C22 UNL     1      -3.715  -0.200  10.322  1.00  0.00     0.194 C 
BRANCH  43  44
HETATM   44  O1  UNL     1      -4.120   0.024   8.988  1.00  0.00    -0.399 OA
ATOM     45  H1  UNL     1      -4.535  -0.780   8.698  1.00  0.00     0.209 HD
ENDBRANCH  43  44
ENDBRANCH  42  43
ENDBRANCH  39  42
ENDBRANCH  35  36
ENDBRANCH  34  35
ENDBRANCH  33  34
ENDBRANCH  32  33
ENDBRANCH  31  32
ENDBRANCH  10  31
TORSDOF 11
ENDMDL
