MODEL 1
REMARK VINA RESULT: -8.373634423      0.000      0.000
REMARK  10 active torsions:
REMARK  status: ('A' for Active; 'I' for Inactive)
REMARK    1  A    between atoms: N1_2  and  C3_4 
REMARK    2  A    between atoms: C4_7  and  N3_8 
REMARK    3  A    between atoms: N3_8  and  C6_10 
REMARK    4  A    between atoms: C6_10  and  C7_11 
REMARK    5  A    between atoms: C7_11  and  C8_12 
REMARK    6  A    between atoms: C8_12  and  N4_13 
REMARK       I    between atoms: N4_13  and  C9_14 
REMARK    7  A    between atoms: C9_14  and  C10_16 
REMARK    8  A    between atoms: C13_19  and  C14_20 
REMARK    9  A    between atoms: C14_20  and  N5_21 
REMARK   10  A    between atoms: C22_35  and  N9_36 
ROOT
HETATM    1  N5  UNL     1      -6.645   9.580   7.624  1.00  0.00    -0.252 N 
HETATM    2  N6  UNL     1      -6.258   9.042   6.495  1.00  0.00    -0.285 N 
ATOM      3  H6  UNL     1      -6.723   8.181   6.206  1.00  0.00     0.188 HD
HETATM    4  C15 UNL     1      -5.300   9.525   5.682  1.00  0.00     0.128 A 
HETATM    5  C16 UNL     1      -4.895   8.904   4.461  1.00  0.00     0.119 C 
HETATM    6  N7  UNL     1      -4.548   8.411   3.445  1.00  0.00    -0.190 NA
HETATM    7  C17 UNL     1      -4.703  10.687   6.112  1.00  0.00     0.048 A 
HETATM    8  C18 UNL     1      -5.083  11.303   7.315  1.00  0.00     0.079 A 
HETATM    9  C19 UNL     1      -6.078  10.715   8.070  1.00  0.00     0.262 A 
HETATM   10  O2  UNL     1      -6.385  11.297   9.147  1.00  0.00    -0.267 OA
ENDROOT
BRANCH   1  11
HETATM   11  C14 UNL     1      -7.662   8.972   8.427  1.00  0.00     0.191 C 
BRANCH  11  12
HETATM   12  C13 UNL     1      -7.176   8.186   9.596  1.00  0.00    -0.038 A 
HETATM   13  C12 UNL     1      -7.709   8.430  10.868  1.00  0.00     0.010 A 
HETATM   14  C11 UNL     1      -7.309   7.673  11.959  1.00  0.00     0.019 A 
HETATM   15  C10 UNL     1      -6.386   6.687  11.762  1.00  0.00     0.046 A 
HETATM   16  C21 UNL     1      -5.862   6.443  10.541  1.00  0.00     0.019 A 
HETATM   17  C20 UNL     1      -6.251   7.189   9.443  1.00  0.00     0.010 A 
BRANCH  15  18
HETATM   18  C9  UNL     1      -6.001   5.824  12.953  1.00  0.00     0.321 C 
HETATM   19  N4  UNL     1      -5.239   6.383  13.860  1.00  0.00    -0.411 NA
HETATM   20  O1  UNL     1      -6.497   4.648  12.879  1.00  0.00    -0.251 OA
BRANCH  19  21
HETATM   21  C8  UNL     1      -4.418   6.982  14.838  1.00  0.00     0.227 C 
BRANCH  21  22
HETATM   22  C7  UNL     1      -3.063   7.303  14.167  1.00  0.00     0.079 C 
BRANCH  22  23
HETATM   23  C6  UNL     1      -2.169   6.172  14.082  1.00  0.00     0.084 C 
BRANCH  23  24
HETATM   24  N3  UNL     1      -2.189   5.248  13.019  1.00  0.00    -0.200 N 
HETATM   25  C5  UNL     1      -1.443   5.445  11.770  1.00  0.00     0.174 C 
BRANCH  24  26
HETATM   26  C4  UNL     1      -2.871   4.007  13.144  1.00  0.00     0.712 A 
HETATM   27  N2  UNL     1      -2.841   3.085  12.181  1.00  0.00    -0.021 N 
HETATM   28  C3  UNL     1      -3.500   1.911  12.305  1.00  0.00     0.708 A 
ATOM     29  H2  UNL     1      -2.309   3.269  11.331  1.00  0.00     0.203 HD
HETATM   30  N10 UNL     1      -4.191   1.703  13.428  1.00  0.00    -0.021 N 
HETATM   31  C22 UNL     1      -4.263   2.585  14.430  1.00  0.00     0.709 A 
ATOM     32  H10 UNL     1      -4.692   0.820  13.528  1.00  0.00     0.203 HD
HETATM   33  N8  UNL     1      -3.575   3.755  14.256  1.00  0.00    -0.021 N 
ATOM     34  H8  UNL     1      -3.600   4.458  14.995  1.00  0.00     0.203 HD
BRANCH  28  35
HETATM   35  N1  UNL     1      -3.462   0.868  11.352  1.00  0.00    -0.225 N 
HETATM   36  C1  UNL     1      -2.202   0.654  10.617  1.00  0.00     0.168 C 
HETATM   37  C2  UNL     1      -4.548  -0.020  11.037  1.00  0.00     0.168 C 
ENDBRANCH  28  35
BRANCH  31  38
HETATM   38  N9  UNL     1      -4.991   2.336  15.617  1.00  0.00    -0.213 N 
HETATM   39  C23 UNL     1      -6.244   3.007  15.858  1.00  0.00     0.167 C 
HETATM   40  C24 UNL     1      -7.309   2.014  16.308  1.00  0.00     0.188 C 
HETATM   41  O3  UNL     1      -6.829   1.084  17.198  1.00  0.00    -0.388 OA
HETATM   42  C25 UNL     1      -5.690   0.428  16.817  1.00  0.00     0.188 C 
HETATM   43  C26 UNL     1      -4.515   1.388  16.587  1.00  0.00     0.167 C 
ENDBRANCH  31  38
ENDBRANCH  24  26
ENDBRANCH  23  24
ENDBRANCH  22  23
ENDBRANCH  21  22
ENDBRANCH  19  21
ENDBRANCH  15  18
ENDBRANCH  11  12
ENDBRANCH   1  11
TORSDOF 10
ENDMDL
MODEL 2
REMARK VINA RESULT: -8.235102529      3.622      5.721
REMARK  10 active torsions:
REMARK  status: ('A' for Active; 'I' for Inactive)
REMARK    1  A    between atoms: N1_2  and  C3_4 
REMARK    2  A    between atoms: C4_7  and  N3_8 
REMARK    3  A    between atoms: N3_8  and  C6_10 
REMARK    4  A    between atoms: C6_10  and  C7_11 
REMARK    5  A    between atoms: C7_11  and  C8_12 
REMARK    6  A    between atoms: C8_12  and  N4_13 
REMARK       I    between atoms: N4_13  and  C9_14 
REMARK    7  A    between atoms: C9_14  and  C10_16 
REMARK    8  A    between atoms: C13_19  and  C14_20 
REMARK    9  A    between atoms: C14_20  and  N5_21 
REMARK   10  A    between atoms: C22_35  and  N9_36 
ROOT
HETATM    1  N5  UNL     1       1.382   4.251   8.106  1.00  0.00    -0.252 N 
HETATM    2  N6  UNL     1       0.206   4.766   7.851  1.00  0.00    -0.285 N 
ATOM      3  H6  UNL     1      -0.332   5.116   8.644  1.00  0.00     0.188 HD
HETATM    4  C15 UNL     1      -0.356   4.873   6.632  1.00  0.00     0.128 A 
HETATM    5  C16 UNL     1      -1.649   5.432   6.391  1.00  0.00     0.119 C 
HETATM    6  N7  UNL     1      -2.712   5.895   6.167  1.00  0.00    -0.190 NA
HETATM    7  C17 UNL     1       0.405   4.389   5.595  1.00  0.00     0.048 A 
HETATM    8  C18 UNL     1       1.673   3.829   5.818  1.00  0.00     0.079 A 
HETATM    9  C19 UNL     1       2.148   3.769   7.112  1.00  0.00     0.262 A 
HETATM   10  O2  UNL     1       3.289   3.251   7.270  1.00  0.00    -0.267 OA
ENDROOT
BRANCH   1  11
HETATM   11  C14 UNL     1       1.880   4.165   9.446  1.00  0.00     0.191 C 
BRANCH  11  12
HETATM   12  C13 UNL     1       0.893   4.465  10.522  1.00  0.00    -0.038 A 
HETATM   13  C12 UNL     1      -0.048   3.496  10.891  1.00  0.00     0.010 A 
HETATM   14  C11 UNL     1      -0.940   3.737  11.926  1.00  0.00     0.019 A 
HETATM   15  C10 UNL     1      -0.877   4.937  12.572  1.00  0.00     0.046 A 
HETATM   16  C21 UNL     1       0.024   5.881  12.224  1.00  0.00     0.019 A 
HETATM   17  C20 UNL     1       0.920   5.657  11.195  1.00  0.00     0.010 A 
BRANCH  15  18
HETATM   18  C9  UNL     1      -1.819   5.165  13.744  1.00  0.00     0.321 C 
HETATM   19  N4  UNL     1      -2.702   6.122  13.609  1.00  0.00    -0.411 NA
HETATM   20  O1  UNL     1      -1.591   4.360  14.712  1.00  0.00    -0.251 OA
BRANCH  19  21
HETATM   21  C8  UNL     1      -3.654   7.153  13.465  1.00  0.00     0.227 C 
BRANCH  21  22
HETATM   22  C7  UNL     1      -4.024   7.232  11.967  1.00  0.00     0.079 C 
BRANCH  22  23
HETATM   23  C6  UNL     1      -5.037   6.287  11.562  1.00  0.00     0.084 C 
BRANCH  23  24
HETATM   24  N3  UNL     1      -4.750   5.087  10.882  1.00  0.00    -0.200 N 
HETATM   25  C5  UNL     1      -4.522   5.021   9.433  1.00  0.00     0.174 C 
BRANCH  24  26
HETATM   26  C4  UNL     1      -4.570   3.870  11.594  1.00  0.00     0.712 A 
HETATM   27  N2  UNL     1      -4.130   2.762  10.997  1.00  0.00    -0.021 N 
HETATM   28  C3  UNL     1      -3.970   1.606  11.680  1.00  0.00     0.708 A 
ATOM     29  H2  UNL     1      -3.908   2.786  10.001  1.00  0.00     0.203 HD
HETATM   30  N10 UNL     1      -4.273   1.607  12.980  1.00  0.00    -0.021 N 
HETATM   31  C22 UNL     1      -4.719   2.681  13.638  1.00  0.00     0.709 A 
ATOM     32  H10 UNL     1      -4.156   0.739  13.501  1.00  0.00     0.203 HD
HETATM   33  N8  UNL     1      -4.860   3.826  12.901  1.00  0.00    -0.021 N 
ATOM     34  H8  UNL     1      -5.196   4.672  13.362  1.00  0.00     0.203 HD
BRANCH  28  35
HETATM   35  N1  UNL     1      -3.452   0.414  11.125  1.00  0.00    -0.225 N 
HETATM   36  C1  UNL     1      -2.078   0.446  10.588  1.00  0.00     0.168 C 
HETATM   37  C2  UNL     1      -4.144  -0.843  11.043  1.00  0.00     0.168 C 
ENDBRANCH  28  35
BRANCH  31  38
HETATM   38  N9  UNL     1      -5.020   2.661  15.020  1.00  0.00    -0.213 N 
HETATM   39  C23 UNL     1      -6.127   3.428  15.535  1.00  0.00     0.167 C 
HETATM   40  C24 UNL     1      -6.987   2.576  16.463  1.00  0.00     0.188 C 
HETATM   41  O3  UNL     1      -6.242   1.773  17.292  1.00  0.00    -0.388 OA
HETATM   42  C25 UNL     1      -5.289   1.006  16.680  1.00  0.00     0.188 C 
HETATM   43  C26 UNL     1      -4.254   1.854  15.929  1.00  0.00     0.167 C 
ENDBRANCH  31  38
ENDBRANCH  24  26
ENDBRANCH  23  24
ENDBRANCH  22  23
ENDBRANCH  21  22
ENDBRANCH  19  21
ENDBRANCH  15  18
ENDBRANCH  11  12
ENDBRANCH   1  11
TORSDOF 10
ENDMDL
MODEL 3
REMARK VINA RESULT: -7.968268092      4.502      8.682
REMARK  10 active torsions:
REMARK  status: ('A' for Active; 'I' for Inactive)
REMARK    1  A    between atoms: N1_2  and  C3_4 
REMARK    2  A    between atoms: C4_7  and  N3_8 
REMARK    3  A    between atoms: N3_8  and  C6_10 
REMARK    4  A    between atoms: C6_10  and  C7_11 
REMARK    5  A    between atoms: C7_11  and  C8_12 
REMARK    6  A    between atoms: C8_12  and  N4_13 
REMARK       I    between atoms: N4_13  and  C9_14 
REMARK    7  A    between atoms: C9_14  and  C10_16 
REMARK    8  A    between atoms: C13_19  and  C14_20 
REMARK    9  A    between atoms: C14_20  and  N5_21 
REMARK   10  A    between atoms: C22_35  and  N9_36 
ROOT
HETATM    1  N5  UNL     1      -5.107   3.666  12.635  1.00  0.00    -0.252 N 
HETATM    2  N6  UNL     1      -4.867   3.130  13.804  1.00  0.00    -0.285 N 
ATOM      3  H6  UNL     1      -4.986   3.725  14.623  1.00  0.00     0.188 HD
HETATM    4  C15 UNL     1      -4.475   1.859  14.019  1.00  0.00     0.128 A 
HETATM    5  C16 UNL     1      -4.211   1.308  15.310  1.00  0.00     0.119 C 
HETATM    6  N7  UNL     1      -3.992   0.830  16.368  1.00  0.00    -0.190 NA
HETATM    7  C17 UNL     1      -4.329   1.095  12.885  1.00  0.00     0.048 A 
HETATM    8  C18 UNL     1      -4.575   1.625  11.609  1.00  0.00     0.079 A 
HETATM    9  C19 UNL     1      -4.971   2.944  11.509  1.00  0.00     0.262 A 
HETATM   10  O2  UNL     1      -5.175   3.383  10.343  1.00  0.00    -0.267 OA
ENDROOT
BRANCH   1  11
HETATM   11  C14 UNL     1      -5.500   5.038  12.514  1.00  0.00     0.191 C 
BRANCH  11  12
HETATM   12  C13 UNL     1      -4.488   6.040  12.954  1.00  0.00    -0.038 A 
HETATM   13  C12 UNL     1      -3.703   6.700  12.001  1.00  0.00     0.010 A 
HETATM   14  C11 UNL     1      -2.794   7.674  12.387  1.00  0.00     0.019 A 
HETATM   15  C10 UNL     1      -2.684   7.970  13.714  1.00  0.00     0.046 A 
HETATM   16  C21 UNL     1      -3.434   7.339  14.644  1.00  0.00     0.019 A 
HETATM   17  C20 UNL     1      -4.345   6.367  14.276  1.00  0.00     0.010 A 
BRANCH  15  18
HETATM   18  C9  UNL     1      -1.729   9.083  14.118  1.00  0.00     0.321 C 
HETATM   19  N4  UNL     1      -0.597   9.149  13.463  1.00  0.00    -0.411 NA
HETATM   20  O1  UNL     1      -2.195   9.801  15.068  1.00  0.00    -0.251 OA
BRANCH  19  21
HETATM   21  C8  UNL     1       0.623   9.223  12.758  1.00  0.00     0.227 C 
BRANCH  21  22
HETATM   22  C7  UNL     1       0.980   7.789  12.305  1.00  0.00     0.079 C 
BRANCH  22  23
HETATM   23  C6  UNL     1       2.398   7.530  12.240  1.00  0.00     0.084 C 
BRANCH  23  24
HETATM   24  N3  UNL     1       2.944   6.240  12.089  1.00  0.00    -0.200 N 
HETATM   25  C5  UNL     1       4.115   5.772  12.841  1.00  0.00     0.174 C 
BRANCH  24  26
HETATM   26  C4  UNL     1       2.319   5.275  11.253  1.00  0.00     0.712 A 
HETATM   27  N2  UNL     1       1.195   4.654  11.611  1.00  0.00    -0.021 N 
HETATM   28  C3  UNL     1       0.612   3.732  10.813  1.00  0.00     0.708 A 
ATOM     29  H2  UNL     1       0.764   4.880  12.508  1.00  0.00     0.203 HD
HETATM   30  N10 UNL     1       1.202   3.458   9.648  1.00  0.00    -0.021 N 
HETATM   31  C22 UNL     1       2.329   4.042   9.231  1.00  0.00     0.709 A 
ATOM     32  H10 UNL     1       0.769   2.762   9.041  1.00  0.00     0.203 HD
HETATM   33  N8  UNL     1       2.877   4.971  10.074  1.00  0.00    -0.021 N 
ATOM     34  H8  UNL     1       3.736   5.445   9.796  1.00  0.00     0.203 HD
BRANCH  28  35
HETATM   35  N1  UNL     1      -0.610   3.081  11.102  1.00  0.00    -0.225 N 
HETATM   36  C1  UNL     1      -1.532   3.738  12.047  1.00  0.00     0.168 C 
HETATM   37  C2  UNL     1      -1.044   1.829  10.547  1.00  0.00     0.168 C 
ENDBRANCH  28  35
BRANCH  31  38
HETATM   38  N9  UNL     1       2.929   3.744   7.985  1.00  0.00    -0.213 N 
HETATM   39  C23 UNL     1       2.161   3.828   6.767  1.00  0.00     0.167 C 
HETATM   40  C24 UNL     1       2.927   4.603   5.701  1.00  0.00     0.188 C 
HETATM   41  O3  UNL     1       4.263   4.287   5.667  1.00  0.00    -0.388 OA
HETATM   42  C25 UNL     1       4.919   4.344   6.866  1.00  0.00     0.188 C 
HETATM   43  C26 UNL     1       4.319   3.386   7.904  1.00  0.00     0.167 C 
ENDBRANCH  31  38
ENDBRANCH  24  26
ENDBRANCH  23  24
ENDBRANCH  22  23
ENDBRANCH  21  22
ENDBRANCH  19  21
ENDBRANCH  15  18
ENDBRANCH  11  12
ENDBRANCH   1  11
TORSDOF 10
ENDMDL
MODEL 4
REMARK VINA RESULT: -7.950859783      5.950      9.944
REMARK  10 active torsions:
REMARK  status: ('A' for Active; 'I' for Inactive)
REMARK    1  A    between atoms: N1_2  and  C3_4 
REMARK    2  A    between atoms: C4_7  and  N3_8 
REMARK    3  A    between atoms: N3_8  and  C6_10 
REMARK    4  A    between atoms: C6_10  and  C7_11 
REMARK    5  A    between atoms: C7_11  and  C8_12 
REMARK    6  A    between atoms: C8_12  and  N4_13 
REMARK       I    between atoms: N4_13  and  C9_14 
REMARK    7  A    between atoms: C9_14  and  C10_16 
REMARK    8  A    between atoms: C13_19  and  C14_20 
REMARK    9  A    between atoms: C14_20  and  N5_21 
REMARK   10  A    between atoms: C22_35  and  N9_36 
ROOT
HETATM    1  N5  UNL     1      -4.732   3.402  12.355  1.00  0.00    -0.252 N 
HETATM    2  N6  UNL     1      -4.385   2.528  13.265  1.00  0.00    -0.285 N 
ATOM      3  H6  UNL     1      -3.699   1.822  12.996  1.00  0.00     0.188 HD
HETATM    4  C15 UNL     1      -4.854   2.479  14.526  1.00  0.00     0.128 A 
HETATM    5  C16 UNL     1      -4.460   1.502  15.492  1.00  0.00     0.119 C 
HETATM    6  N7  UNL     1      -4.144   0.708  16.308  1.00  0.00    -0.190 NA
HETATM    7  C17 UNL     1      -5.774   3.450  14.844  1.00  0.00     0.048 A 
HETATM    8  C18 UNL     1      -6.178   4.410  13.903  1.00  0.00     0.079 A 
HETATM    9  C19 UNL     1      -5.630   4.362  12.636  1.00  0.00     0.262 A 
HETATM   10  O2  UNL     1      -6.026   5.239  11.819  1.00  0.00    -0.267 OA
ENDROOT
BRANCH   1  11
HETATM   11  C14 UNL     1      -4.187   3.354  11.032  1.00  0.00     0.191 C 
BRANCH  11  12
HETATM   12  C13 UNL     1      -2.710   3.528  10.936  1.00  0.00    -0.038 A 
HETATM   13  C12 UNL     1      -1.889   2.411  10.743  1.00  0.00     0.010 A 
HETATM   14  C11 UNL     1      -0.517   2.559  10.598  1.00  0.00     0.019 A 
HETATM   15  C10 UNL     1       0.009   3.817  10.648  1.00  0.00     0.046 A 
HETATM   16  C21 UNL     1      -0.771   4.903  10.836  1.00  0.00     0.019 A 
HETATM   17  C20 UNL     1      -2.140   4.772  10.982  1.00  0.00     0.010 A 
BRANCH  15  18
HETATM   18  C9  UNL     1       1.506   3.971  10.426  1.00  0.00     0.321 C 
HETATM   19  N4  UNL     1       2.102   4.925  11.097  1.00  0.00    -0.411 NA
HETATM   20  O1  UNL     1       1.963   3.118   9.590  1.00  0.00    -0.251 OA
BRANCH  19  21
HETATM   21  C8  UNL     1       2.746   5.953  11.818  1.00  0.00     0.227 C 
BRANCH  21  22
HETATM   22  C7  UNL     1       4.088   5.383  12.331  1.00  0.00     0.079 C 
BRANCH  22  23
HETATM   23  C6  UNL     1       4.956   4.894  11.287  1.00  0.00     0.084 C 
BRANCH  23  24
HETATM   24  N3  UNL     1       5.230   5.613  10.107  1.00  0.00    -0.200 N 
HETATM   25  C5  UNL     1       5.991   6.868  10.091  1.00  0.00     0.174 C 
BRANCH  24  26
HETATM   26  C4  UNL     1       4.855   5.099   8.836  1.00  0.00     0.712 A 
HETATM   27  N2  UNL     1       5.642   4.269   8.150  1.00  0.00    -0.021 N 
HETATM   28  C3  UNL     1       5.280   3.793   6.937  1.00  0.00     0.708 A 
ATOM     29  H2  UNL     1       6.537   3.988   8.548  1.00  0.00     0.203 HD
HETATM   30  N10 UNL     1       4.104   4.184   6.442  1.00  0.00    -0.021 N 
HETATM   31  C22 UNL     1       3.270   5.013   7.077  1.00  0.00     0.709 A 
ATOM     32  H10 UNL     1       3.825   3.829   5.528  1.00  0.00     0.203 HD
HETATM   33  N8  UNL     1       3.682   5.464   8.302  1.00  0.00    -0.021 N 
ATOM     34  H8  UNL     1       3.076   6.098   8.825  1.00  0.00     0.203 HD
BRANCH  28  35
HETATM   35  N1  UNL     1       6.036   2.865   6.184  1.00  0.00    -0.225 N 
HETATM   36  C1  UNL     1       5.651   1.443   6.258  1.00  0.00     0.168 C 
HETATM   37  C2  UNL     1       7.152   3.185   5.337  1.00  0.00     0.168 C 
ENDBRANCH  28  35
BRANCH  31  38
HETATM   38  N9  UNL     1       2.022   5.403   6.538  1.00  0.00    -0.213 N 
HETATM   39  C23 UNL     1       1.772   5.289   5.122  1.00  0.00     0.167 C 
HETATM   40  C24 UNL     1       0.427   4.620   4.865  1.00  0.00     0.188 C 
HETATM   41  O3  UNL     1      -0.557   5.055   5.718  1.00  0.00    -0.388 OA
HETATM   42  C25 UNL     1      -0.249   5.019   7.051  1.00  0.00     0.188 C 
HETATM   43  C26 UNL     1       0.970   5.887   7.390  1.00  0.00     0.167 C 
ENDBRANCH  31  38
ENDBRANCH  24  26
ENDBRANCH  23  24
ENDBRANCH  22  23
ENDBRANCH  21  22
ENDBRANCH  19  21
ENDBRANCH  15  18
ENDBRANCH  11  12
ENDBRANCH   1  11
TORSDOF 10
ENDMDL
MODEL 5
REMARK VINA RESULT: -7.887398935      1.215      3.263
REMARK  10 active torsions:
REMARK  status: ('A' for Active; 'I' for Inactive)
REMARK    1  A    between atoms: N1_2  and  C3_4 
REMARK    2  A    between atoms: C4_7  and  N3_8 
REMARK    3  A    between atoms: N3_8  and  C6_10 
REMARK    4  A    between atoms: C6_10  and  C7_11 
REMARK    5  A    between atoms: C7_11  and  C8_12 
REMARK    6  A    between atoms: C8_12  and  N4_13 
REMARK       I    between atoms: N4_13  and  C9_14 
REMARK    7  A    between atoms: C9_14  and  C10_16 
REMARK    8  A    between atoms: C13_19  and  C14_20 
REMARK    9  A    between atoms: C14_20  and  N5_21 
REMARK   10  A    between atoms: C22_35  and  N9_36 
ROOT
HETATM    1  N5  UNL     1      -6.810   9.690   7.572  1.00  0.00    -0.252 N 
HETATM    2  N6  UNL     1      -6.441   9.163   6.432  1.00  0.00    -0.285 N 
ATOM      3  H6  UNL     1      -6.884   8.285   6.159  1.00  0.00     0.188 HD
HETATM    4  C15 UNL     1      -5.526   9.677   5.589  1.00  0.00     0.128 A 
HETATM    5  C16 UNL     1      -5.138   9.068   4.356  1.00  0.00     0.119 C 
HETATM    6  N7  UNL     1      -4.807   8.585   3.330  1.00  0.00    -0.190 NA
HETATM    7  C17 UNL     1      -4.956  10.860   5.998  1.00  0.00     0.048 A 
HETATM    8  C18 UNL     1      -5.320  11.465   7.212  1.00  0.00     0.079 A 
HETATM    9  C19 UNL     1      -6.270  10.845   7.998  1.00  0.00     0.262 A 
HETATM   10  O2  UNL     1      -6.562  11.418   9.084  1.00  0.00    -0.267 OA
ENDROOT
BRANCH   1  11
HETATM   11  C14 UNL     1      -7.780   9.049   8.407  1.00  0.00     0.191 C 
BRANCH  11  12
HETATM   12  C13 UNL     1      -7.228   8.235   9.528  1.00  0.00    -0.038 A 
HETATM   13  C12 UNL     1      -7.740   8.396  10.821  1.00  0.00     0.010 A 
HETATM   14  C11 UNL     1      -7.277   7.610  11.867  1.00  0.00     0.019 A 
HETATM   15  C10 UNL     1      -6.314   6.680  11.603  1.00  0.00     0.046 A 
HETATM   16  C21 UNL     1      -5.810   6.517  10.360  1.00  0.00     0.019 A 
HETATM   17  C20 UNL     1      -6.261   7.291   9.308  1.00  0.00     0.010 A 
BRANCH  15  18
HETATM   18  C9  UNL     1      -5.859   5.784  12.744  1.00  0.00     0.321 C 
HETATM   19  N4  UNL     1      -5.208   6.363  13.721  1.00  0.00    -0.411 NA
HETATM   20  O1  UNL     1      -6.194   4.563  12.564  1.00  0.00    -0.251 OA
BRANCH  19  21
HETATM   21  C8  UNL     1      -4.505   6.986  14.774  1.00  0.00     0.227 C 
BRANCH  21  22
HETATM   22  C7  UNL     1      -3.153   7.469  14.202  1.00  0.00     0.079 C 
BRANCH  22  23
HETATM   23  C6  UNL     1      -2.063   6.545  14.414  1.00  0.00     0.084 C 
BRANCH  23  24
HETATM   24  N3  UNL     1      -1.783   5.467  13.551  1.00  0.00    -0.200 N 
HETATM   25  C5  UNL     1      -0.591   5.413  12.696  1.00  0.00     0.174 C 
BRANCH  24  26
HETATM   26  C4  UNL     1      -2.610   4.311  13.535  1.00  0.00     0.712 A 
HETATM   27  N2  UNL     1      -3.394   3.990  14.565  1.00  0.00    -0.021 N 
HETATM   28  C3  UNL     1      -4.171   2.884  14.543  1.00  0.00     0.708 A 
ATOM     29  H2  UNL     1      -3.408   4.592  15.388  1.00  0.00     0.203 HD
HETATM   30  N10 UNL     1      -4.126   2.115  13.453  1.00  0.00    -0.021 N 
HETATM   31  C22 UNL     1      -3.362   2.379  12.389  1.00  0.00     0.709 A 
ATOM     32  H10 UNL     1      -4.709   1.278  13.431  1.00  0.00     0.203 HD
HETATM   33  N8  UNL     1      -2.598   3.512  12.460  1.00  0.00    -0.021 N 
ATOM     34  H8  UNL     1      -2.000   3.756  11.669  1.00  0.00     0.203 HD
BRANCH  28  35
HETATM   35  N1  UNL     1      -5.068   2.516  15.573  1.00  0.00    -0.225 N 
HETATM   36  C1  UNL     1      -6.320   3.287  15.701  1.00  0.00     0.168 C 
HETATM   37  C2  UNL     1      -4.876   1.444  16.509  1.00  0.00     0.168 C 
ENDBRANCH  28  35
BRANCH  31  38
HETATM   38  N9  UNL     1      -3.342   1.556  11.239  1.00  0.00    -0.213 N 
HETATM   39  C23 UNL     1      -2.095   1.034  10.738  1.00  0.00     0.167 C 
HETATM   40  C24 UNL     1      -2.213  -0.459  10.450  1.00  0.00     0.188 C 
HETATM   41  O3  UNL     1      -3.404  -0.794   9.854  1.00  0.00    -0.388 OA
HETATM   42  C25 UNL     1      -4.532  -0.334  10.477  1.00  0.00     0.188 C 
HETATM   43  C26 UNL     1      -4.562   1.197  10.568  1.00  0.00     0.167 C 
ENDBRANCH  31  38
ENDBRANCH  24  26
ENDBRANCH  23  24
ENDBRANCH  22  23
ENDBRANCH  21  22
ENDBRANCH  19  21
ENDBRANCH  15  18
ENDBRANCH  11  12
ENDBRANCH   1  11
TORSDOF 10
ENDMDL
