MODEL 1
REMARK VINA RESULT: -7.651725283      0.000      0.000
REMARK  7 active torsions:
REMARK  status: ('A' for Active; 'I' for Inactive)
REMARK    1  A    between atoms: N1_1  and  C1_4 
REMARK    2  A    between atoms: C3_6  and  C4_7 
REMARK    3  A    between atoms: C4_7  and  C5_8 
REMARK    4  A    between atoms: C5_8  and  C6_9 
REMARK    5  A    between atoms: C9_12  and  C10_13 
REMARK    6  A    between atoms: C10_13  and  C11_14 
REMARK    7  A    between atoms: C11_14  and  N2_15 
ROOT
HETATM    1  C6  UNL     1     -15.727 -31.058  12.759  1.00  0.00     0.023 A 
HETATM    2  C7  UNL     1     -14.727 -30.466  13.395  1.00  0.00     0.003 A 
HETATM    3  C8  UNL     1     -13.393 -30.294  13.006  1.00  0.00     0.021 A 
HETATM    4  C9  UNL     1     -12.502 -29.639  13.829  1.00  0.00    -0.056 A 
HETATM    5  C13 UNL     1     -12.912 -29.144  15.050  1.00  0.00     0.009 A 
HETATM    6  C14 UNL     1     -14.228 -29.320  15.420  1.00  0.00     0.031 A 
HETATM    7  C15 UNL     1     -15.149 -29.976  14.612  1.00  0.00     0.046 A 
HETATM    8  N5  UNL     1     -16.423 -30.241  14.782  1.00  0.00    -0.322 N 
ATOM      9  H5  UNL     1     -16.984 -29.988  15.596  1.00  0.00     0.169 HD
HETATM   10  C16 UNL     1     -16.883 -30.939  13.637  1.00  0.00     0.253 A 
HETATM   11  O1  UNL     1     -18.061 -31.377  13.408  1.00  0.00    -0.268 OA
ENDROOT
BRANCH   1  12
HETATM   12  C5  UNL     1     -15.679 -31.703  11.440  1.00  0.00     0.051 C 
BRANCH  12  13
HETATM   13  C4  UNL     1     -16.812 -31.154  10.578  1.00  0.00     0.063 C 
BRANCH  13  14
HETATM   14  C3  UNL     1     -16.463 -29.755  10.144  1.00  0.00     0.029 A 
HETATM   15  C2  UNL     1     -16.804 -28.574  10.776  1.00  0.00     0.075 A 
HETATM   16  C1  UNL     1     -16.285 -27.496  10.049  1.00  0.00     0.115 A 
HETATM   17  N7  UNL     1     -15.653 -28.065   9.012  1.00  0.00    -0.286 N 
HETATM   18  N6  UNL     1     -15.756 -29.385   9.063  1.00  0.00    -0.303 N 
ATOM     19  H7  UNL     1     -15.160 -27.551   8.282  1.00  0.00     0.188 HD
ATOM     20  H6  UNL     1     -15.356 -30.028   8.380  1.00  0.00     0.186 HD
BRANCH  16  21
HETATM   21  N1  UNL     1     -16.388 -26.240  10.315  1.00  0.00    -0.384 N 
ATOM     22  H12 UNL     1     -16.416 -25.463   9.654  1.00  0.00     0.157 HD
ATOM     23  H11 UNL     1     -16.458 -25.797  11.230  1.00  0.00     0.157 HD
ENDBRANCH  16  21
ENDBRANCH  13  14
ENDBRANCH  12  13
ENDBRANCH   1  12
BRANCH   4  24
HETATM   24  C10 UNL     1     -11.080 -29.464  13.394  1.00  0.00     0.058 C 
BRANCH  24  25
HETATM   25  C11 UNL     1     -10.620 -28.096  13.876  1.00  0.00     0.126 C 
BRANCH  25  26
HETATM   26  N2  UNL     1     -10.672 -27.143  12.806  1.00  0.00    -0.367 N 
HETATM   27  C12 UNL     1     -11.512 -26.173  12.767  1.00  0.00     0.196 C 
HETATM   28  N3  UNL     1     -12.462 -25.981  13.802  1.00  0.00    -0.067 NA
HETATM   29  N4  UNL     1     -11.508 -25.267  11.678  1.00  0.00    -0.067 NA
ATOM     30  H2  UNL     1     -10.008 -27.240  12.039  1.00  0.00     0.161 HD
ENDBRANCH  25  26
ENDBRANCH  24  25
ENDBRANCH   4  24
TORSDOF 7
ENDMDL
MODEL 2
REMARK VINA RESULT: -7.650674027      1.825      4.983
REMARK  7 active torsions:
REMARK  status: ('A' for Active; 'I' for Inactive)
REMARK    1  A    between atoms: N1_1  and  C1_4 
REMARK    2  A    between atoms: C3_6  and  C4_7 
REMARK    3  A    between atoms: C4_7  and  C5_8 
REMARK    4  A    between atoms: C5_8  and  C6_9 
REMARK    5  A    between atoms: C9_12  and  C10_13 
REMARK    6  A    between atoms: C10_13  and  C11_14 
REMARK    7  A    between atoms: C11_14  and  N2_15 
ROOT
HETATM    1  C6  UNL     1     -14.072 -30.047  14.158  1.00  0.00     0.023 A 
HETATM    2  C7  UNL     1     -14.882 -30.489  13.207  1.00  0.00     0.003 A 
HETATM    3  C8  UNL     1     -14.611 -30.795  11.868  1.00  0.00     0.021 A 
HETATM    4  C9  UNL     1     -15.613 -31.246  11.036  1.00  0.00    -0.056 A 
HETATM    5  C13 UNL     1     -16.898 -31.404  11.511  1.00  0.00     0.009 A 
HETATM    6  C14 UNL     1     -17.151 -31.100  12.831  1.00  0.00     0.031 A 
HETATM    7  C15 UNL     1     -16.162 -30.642  13.694  1.00  0.00     0.046 A 
HETATM    8  N5  UNL     1     -16.201 -30.304  14.962  1.00  0.00    -0.322 N 
ATOM      9  H5  UNL     1     -17.025 -30.326  15.562  1.00  0.00     0.169 HD
HETATM   10  C16 UNL     1     -14.897 -29.905  15.350  1.00  0.00     0.253 A 
HETATM   11  O1  UNL     1     -14.511 -29.504  16.500  1.00  0.00    -0.268 OA
ENDROOT
BRANCH   1  12
HETATM   12  C5  UNL     1     -12.637 -29.759  14.035  1.00  0.00     0.051 C 
BRANCH  12  13
HETATM   13  C4  UNL     1     -12.342 -28.413  14.689  1.00  0.00     0.063 C 
BRANCH  13  14
HETATM   14  C3  UNL     1     -13.114 -27.340  13.969  1.00  0.00     0.029 A 
HETATM   15  C2  UNL     1     -13.199 -27.145  12.603  1.00  0.00     0.075 A 
HETATM   16  C1  UNL     1     -14.018 -26.038  12.345  1.00  0.00     0.115 A 
HETATM   17  N7  UNL     1     -14.394 -25.611  13.559  1.00  0.00    -0.286 N 
HETATM   18  N6  UNL     1     -13.868 -26.369  14.510  1.00  0.00    -0.303 N 
ATOM     19  H7  UNL     1     -15.004 -24.811  13.727  1.00  0.00     0.188 HD
ATOM     20  H6  UNL     1     -14.014 -26.234  15.511  1.00  0.00     0.186 HD
BRANCH  16  21
HETATM   21  N1  UNL     1     -14.339 -25.541  11.201  1.00  0.00    -0.384 N 
ATOM     22  H12 UNL     1     -13.766 -24.958  10.592  1.00  0.00     0.157 HD
ATOM     23  H11 UNL     1     -15.221 -25.640  10.700  1.00  0.00     0.157 HD
ENDBRANCH  16  21
ENDBRANCH  13  14
ENDBRANCH  12  13
ENDBRANCH   1  12
BRANCH   4  24
HETATM   24  C10 UNL     1     -15.302 -31.569   9.607  1.00  0.00     0.058 C 
BRANCH  24  25
HETATM   25  C11 UNL     1     -16.203 -30.705   8.738  1.00  0.00     0.126 C 
BRANCH  25  26
HETATM   26  N2  UNL     1     -15.748 -29.345   8.737  1.00  0.00    -0.367 N 
HETATM   27  C12 UNL     1     -16.496 -28.352   9.055  1.00  0.00     0.196 C 
HETATM   28  N3  UNL     1     -17.849 -28.541   9.436  1.00  0.00    -0.067 NA
HETATM   29  N4  UNL     1     -15.982 -27.033   9.031  1.00  0.00    -0.067 NA
ATOM     30  H2  UNL     1     -14.783 -29.158   8.470  1.00  0.00     0.161 HD
ENDBRANCH  25  26
ENDBRANCH  24  25
ENDBRANCH   4  24
TORSDOF 7
ENDMDL
MODEL 3
REMARK VINA RESULT: -7.624378412      2.320      5.444
REMARK  7 active torsions:
REMARK  status: ('A' for Active; 'I' for Inactive)
REMARK    1  A    between atoms: N1_1  and  C1_4 
REMARK    2  A    between atoms: C3_6  and  C4_7 
REMARK    3  A    between atoms: C4_7  and  C5_8 
REMARK    4  A    between atoms: C5_8  and  C6_9 
REMARK    5  A    between atoms: C9_12  and  C10_13 
REMARK    6  A    between atoms: C10_13  and  C11_14 
REMARK    7  A    between atoms: C11_14  and  N2_15 
ROOT
HETATM    1  C6  UNL     1     -14.412 -31.439  12.557  1.00  0.00     0.023 A 
HETATM    2  C7  UNL     1     -14.984 -31.352  11.365  1.00  0.00     0.003 A 
HETATM    3  C8  UNL     1     -15.955 -30.458  10.899  1.00  0.00     0.021 A 
HETATM    4  C9  UNL     1     -16.421 -30.543   9.605  1.00  0.00    -0.056 A 
HETATM    5  C13 UNL     1     -15.937 -31.510   8.749  1.00  0.00     0.009 A 
HETATM    6  C14 UNL     1     -14.981 -32.382   9.221  1.00  0.00     0.031 A 
HETATM    7  C15 UNL     1     -14.491 -32.323  10.521  1.00  0.00     0.046 A 
HETATM    8  N5  UNL     1     -13.597 -33.050  11.149  1.00  0.00    -0.322 N 
ATOM      9  H5  UNL     1     -13.078 -33.834  10.754  1.00  0.00     0.169 HD
HETATM   10  C16 UNL     1     -13.479 -32.553  12.472  1.00  0.00     0.253 A 
HETATM   11  O1  UNL     1     -12.718 -32.983  13.403  1.00  0.00    -0.268 OA
ENDROOT
BRANCH   1  12
HETATM   12  C5  UNL     1     -14.667 -30.585  13.726  1.00  0.00     0.051 C 
BRANCH  12  13
HETATM   13  C4  UNL     1     -13.433 -29.731  13.996  1.00  0.00     0.063 C 
BRANCH  13  14
HETATM   14  C3  UNL     1     -13.755 -28.294  13.684  1.00  0.00     0.029 A 
HETATM   15  C2  UNL     1     -13.961 -27.735  12.437  1.00  0.00     0.075 A 
HETATM   16  C1  UNL     1     -14.236 -26.370  12.582  1.00  0.00     0.115 A 
HETATM   17  N7  UNL     1     -14.186 -26.158  13.905  1.00  0.00    -0.286 N 
HETATM   18  N6  UNL     1     -13.905 -27.280  14.553  1.00  0.00    -0.303 N 
ATOM     19  H7  UNL     1     -14.344 -25.256  14.354  1.00  0.00     0.188 HD
ATOM     20  H6  UNL     1     -13.815 -27.362  15.566  1.00  0.00     0.186 HD
BRANCH  16  21
HETATM   21  N1  UNL     1     -14.482 -25.509  11.657  1.00  0.00    -0.384 N 
ATOM     22  H12 UNL     1     -13.910 -25.290  10.841  1.00  0.00     0.157 HD
ATOM     23  H11 UNL     1     -15.290 -24.892  11.573  1.00  0.00     0.157 HD
ENDBRANCH  16  21
ENDBRANCH  13  14
ENDBRANCH  12  13
ENDBRANCH   1  12
BRANCH   4  24
HETATM   24  C10 UNL     1     -17.460 -29.576   9.125  1.00  0.00     0.058 C 
BRANCH  24  25
HETATM   25  C11 UNL     1     -17.094 -28.204   9.671  1.00  0.00     0.126 C 
BRANCH  25  26
HETATM   26  N2  UNL     1     -17.060 -27.235   8.615  1.00  0.00    -0.367 N 
HETATM   27  C12 UNL     1     -17.100 -25.969   8.820  1.00  0.00     0.196 C 
HETATM   28  N3  UNL     1     -17.182 -25.438  10.132  1.00  0.00    -0.067 NA
HETATM   29  N4  UNL     1     -17.062 -25.067   7.729  1.00  0.00    -0.067 NA
ATOM     30  H2  UNL     1     -17.000 -27.569   7.654  1.00  0.00     0.161 HD
ENDBRANCH  25  26
ENDBRANCH  24  25
ENDBRANCH   4  24
TORSDOF 7
ENDMDL
MODEL 4
REMARK VINA RESULT: -7.591840487      1.365      1.742
REMARK  7 active torsions:
REMARK  status: ('A' for Active; 'I' for Inactive)
REMARK    1  A    between atoms: N1_1  and  C1_4 
REMARK    2  A    between atoms: C3_6  and  C4_7 
REMARK    3  A    between atoms: C4_7  and  C5_8 
REMARK    4  A    between atoms: C5_8  and  C6_9 
REMARK    5  A    between atoms: C9_12  and  C10_13 
REMARK    6  A    between atoms: C10_13  and  C11_14 
REMARK    7  A    between atoms: C11_14  and  N2_15 
ROOT
HETATM    1  C6  UNL     1     -15.336 -30.871  12.226  1.00  0.00     0.023 A 
HETATM    2  C7  UNL     1     -14.449 -30.137  12.882  1.00  0.00     0.003 A 
HETATM    3  C8  UNL     1     -13.356 -29.406  12.401  1.00  0.00     0.021 A 
HETATM    4  C9  UNL     1     -12.547 -28.703  13.267  1.00  0.00    -0.056 A 
HETATM    5  C13 UNL     1     -12.804 -28.708  14.623  1.00  0.00     0.009 A 
HETATM    6  C14 UNL     1     -13.883 -29.431  15.083  1.00  0.00     0.031 A 
HETATM    7  C15 UNL     1     -14.716 -30.151  14.234  1.00  0.00     0.046 A 
HETATM    8  N5  UNL     1     -15.774 -30.889  14.473  1.00  0.00    -0.322 N 
ATOM      9  H5  UNL     1     -16.187 -31.065  15.389  1.00  0.00     0.169 HD
HETATM   10  C16 UNL     1     -16.243 -31.397  13.235  1.00  0.00     0.253 A 
HETATM   11  O1  UNL     1     -17.250 -32.157  13.032  1.00  0.00    -0.268 OA
ENDROOT
BRANCH   1  12
HETATM   12  C5  UNL     1     -15.390 -31.105  10.776  1.00  0.00     0.051 C 
BRANCH  12  13
HETATM   13  C4  UNL     1     -16.666 -30.479  10.220  1.00  0.00     0.063 C 
BRANCH  13  14
HETATM   14  C3  UNL     1     -16.315 -29.194   9.520  1.00  0.00     0.029 A 
HETATM   15  C2  UNL     1     -16.540 -28.875   8.194  1.00  0.00     0.075 A 
HETATM   16  C1  UNL     1     -16.064 -27.582   7.944  1.00  0.00     0.115 A 
HETATM   17  N7  UNL     1     -15.574 -27.172   9.122  1.00  0.00    -0.286 N 
HETATM   18  N6  UNL     1     -15.718 -28.111  10.046  1.00  0.00    -0.303 N 
ATOM     19  H7  UNL     1     -15.147 -26.260   9.286  1.00  0.00     0.188 HD
ATOM     20  H6  UNL     1     -15.418 -28.025  11.017  1.00  0.00     0.186 HD
BRANCH  16  21
HETATM   21  N1  UNL     1     -16.091 -26.930   6.833  1.00  0.00    -0.384 N 
ATOM     22  H12 UNL     1     -16.050 -27.308   5.887  1.00  0.00     0.157 HD
ATOM     23  H11 UNL     1     -16.157 -25.921   6.700  1.00  0.00     0.157 HD
ENDBRANCH  16  21
ENDBRANCH  13  14
ENDBRANCH  12  13
ENDBRANCH   1  12
BRANCH   4  24
HETATM   24  C10 UNL     1     -11.384 -27.926  12.733  1.00  0.00     0.058 C 
BRANCH  24  25
HETATM   25  C11 UNL     1     -11.715 -26.449  12.879  1.00  0.00     0.126 C 
BRANCH  25  26
HETATM   26  N2  UNL     1     -12.791 -26.085  12.005  1.00  0.00    -0.367 N 
HETATM   27  C12 UNL     1     -13.965 -25.777  12.423  1.00  0.00     0.196 C 
HETATM   28  N3  UNL     1     -14.277 -25.776  13.806  1.00  0.00    -0.067 NA
HETATM   29  N4  UNL     1     -14.984 -25.428  11.503  1.00  0.00    -0.067 NA
ATOM     30  H2  UNL     1     -12.616 -26.071  11.001  1.00  0.00     0.161 HD
ENDBRANCH  25  26
ENDBRANCH  24  25
ENDBRANCH   4  24
TORSDOF 7
ENDMDL
MODEL 5
REMARK VINA RESULT: -7.544771272      2.111      5.231
REMARK  7 active torsions:
REMARK  status: ('A' for Active; 'I' for Inactive)
REMARK    1  A    between atoms: N1_1  and  C1_4 
REMARK    2  A    between atoms: C3_6  and  C4_7 
REMARK    3  A    between atoms: C4_7  and  C5_8 
REMARK    4  A    between atoms: C5_8  and  C6_9 
REMARK    5  A    between atoms: C9_12  and  C10_13 
REMARK    6  A    between atoms: C10_13  and  C11_14 
REMARK    7  A    between atoms: C11_14  and  N2_15 
ROOT
HETATM    1  C6  UNL     1     -14.574 -31.488  12.432  1.00  0.00     0.023 A 
HETATM    2  C7  UNL     1     -15.030 -31.186  11.225  1.00  0.00     0.003 A 
HETATM    3  C8  UNL     1     -15.917 -30.178  10.827  1.00  0.00     0.021 A 
HETATM    4  C9  UNL     1     -16.265 -30.035   9.501  1.00  0.00    -0.056 A 
HETATM    5  C13 UNL     1     -15.744 -30.884   8.546  1.00  0.00     0.009 A 
HETATM    6  C14 UNL     1     -14.872 -31.870   8.952  1.00  0.00     0.031 A 
HETATM    7  C15 UNL     1     -14.503 -32.040  10.281  1.00  0.00     0.046 A 
HETATM    8  N5  UNL     1     -13.700 -32.903  10.859  1.00  0.00    -0.322 N 
ATOM      9  H5  UNL     1     -13.180 -33.644  10.389  1.00  0.00     0.169 HD
HETATM   10  C16 UNL     1     -13.684 -32.625  12.249  1.00  0.00     0.253 A 
HETATM   11  O1  UNL     1     -13.030 -33.235  13.161  1.00  0.00    -0.268 OA
ENDROOT
BRANCH   1  12
HETATM   12  C5  UNL     1     -14.901 -30.813  13.696  1.00  0.00     0.051 C 
BRANCH  12  13
HETATM   13  C4  UNL     1     -13.653 -30.110  14.221  1.00  0.00     0.063 C 
BRANCH  13  14
HETATM   14  C3  UNL     1     -13.649 -28.688  13.729  1.00  0.00     0.029 A 
HETATM   15  C2  UNL     1     -12.626 -28.034  13.067  1.00  0.00     0.075 A 
HETATM   16  C1  UNL     1     -13.024 -26.722  12.783  1.00  0.00     0.115 A 
HETATM   17  N7  UNL     1     -14.266 -26.635  13.281  1.00  0.00    -0.286 N 
HETATM   18  N6  UNL     1     -14.634 -27.781  13.835  1.00  0.00    -0.303 N 
ATOM     19  H7  UNL     1     -14.848 -25.798  13.240  1.00  0.00     0.188 HD
ATOM     20  H6  UNL     1     -15.537 -27.951  14.279  1.00  0.00     0.186 HD
BRANCH  16  21
HETATM   21  N1  UNL     1     -12.352 -25.805  12.179  1.00  0.00    -0.384 N 
ATOM     22  H12 UNL     1     -11.625 -25.926  11.474  1.00  0.00     0.157 HD
ATOM     23  H11 UNL     1     -12.424 -24.794  12.298  1.00  0.00     0.157 HD
ENDBRANCH  16  21
ENDBRANCH  13  14
ENDBRANCH  12  13
ENDBRANCH   1  12
BRANCH   4  24
HETATM   24  C10 UNL     1     -17.215 -28.951   9.095  1.00  0.00     0.058 C 
BRANCH  24  25
HETATM   25  C11 UNL     1     -16.410 -27.891   8.359  1.00  0.00     0.126 C 
BRANCH  25  26
HETATM   26  N2  UNL     1     -15.645 -27.106   9.283  1.00  0.00    -0.367 N 
HETATM   27  C12 UNL     1     -16.147 -26.152   9.980  1.00  0.00     0.196 C 
HETATM   28  N3  UNL     1     -17.518 -25.807   9.876  1.00  0.00    -0.067 NA
HETATM   29  N4  UNL     1     -15.333 -25.416  10.875  1.00  0.00    -0.067 NA
ATOM     30  H2  UNL     1     -14.654 -27.316   9.393  1.00  0.00     0.161 HD
ENDBRANCH  25  26
ENDBRANCH  24  25
ENDBRANCH   4  24
TORSDOF 7
ENDMDL
