MODEL 1
REMARK VINA RESULT: -6.638144308      0.000      0.000
REMARK  7 active torsions:
REMARK  status: ('A' for Active; 'I' for Inactive)
REMARK    1  A    between atoms: C3_3  and  N1_4 
REMARK    2  A    between atoms: C5_6  and  C6_7 
REMARK    3  A    between atoms: C7_10  and  C8_11 
REMARK    4  A    between atoms: C8_11  and  N3_12 
REMARK    5  A    between atoms: N3_12  and  C9_15 
REMARK    6  A    between atoms: C9_15  and  C10_16 
REMARK    7  A    between atoms: C10_16  and  N4_17 
REMARK       I    between atoms: N4_17  and  C11_19 
ROOT
HETATM    1  C1  UNL     1     -12.313 -26.157  13.096  1.00  0.00     0.014 C 
HETATM    2  C2  UNL     1     -12.249 -27.160  13.771  1.00  0.00    -0.097 C 
HETATM    3  C3  UNL     1     -12.157 -28.396  14.577  1.00  0.00     0.225 C 
ENDROOT
BRANCH   3   4
HETATM    4  N1  UNL     1     -13.412 -29.143  14.450  1.00  0.00    -0.298 N 
HETATM    5  C4  UNL     1     -13.687 -29.726  13.237  1.00  0.00     0.113 A 
HETATM    6  C5  UNL     1     -14.839 -30.413  13.102  1.00  0.00     0.039 A 
HETATM    7  C14 UNL     1     -15.674 -30.488  14.200  1.00  0.00     0.109 A 
HETATM    8  N8  UNL     1     -15.392 -29.922  15.352  1.00  0.00    -0.318 N 
HETATM    9  C15 UNL     1     -14.258 -29.246  15.482  1.00  0.00     0.327 A 
ATOM     10  H8  UNL     1     -16.038 -30.002  16.137  1.00  0.00     0.170 HD
HETATM   11  O1  UNL     1     -14.010 -28.707  16.609  1.00  0.00    -0.246 OA
BRANCH   6  12
HETATM   12  C6  UNL     1     -15.277 -31.055  11.839  1.00  0.00     0.120 A 
HETATM   13  N2  UNL     1     -16.461 -30.773  11.226  1.00  0.00    -0.342 N 
HETATM   14  C7  UNL     1     -16.606 -31.461  10.087  1.00  0.00     0.052 A 
ATOM     15  H2  UNL     1     -17.152 -30.118  11.591  1.00  0.00     0.167 HD
HETATM   16  C12 UNL     1     -15.472 -32.211   9.965  1.00  0.00     0.118 A 
HETATM   17  N7  UNL     1     -14.681 -31.939  11.052  1.00  0.00    -0.345 N 
HETATM   18  C13 UNL     1     -13.378 -32.557  11.223  1.00  0.00     0.157 C 
BRANCH  14  19
HETATM   19  C8  UNL     1     -17.787 -31.401   9.148  1.00  0.00     0.290 C 
BRANCH  19  20
HETATM   20  N3  UNL     1     -18.004 -30.030   8.746  1.00  0.00    -0.068 N 
ATOM     21  H32 UNL     1     -18.954 -29.866   8.415  1.00  0.00     0.277 HD
ATOM     22  H31 UNL     1     -18.018 -29.389   9.539  1.00  0.00     0.277 HD
BRANCH  20  23
HETATM   23  C9  UNL     1     -17.010 -29.674   7.766  1.00  0.00     0.252 C 
BRANCH  23  24
HETATM   24  C10 UNL     1     -16.543 -28.261   7.914  1.00  0.00     0.150 C 
BRANCH  24  25
HETATM   25  N4  UNL     1     -15.785 -28.167   9.138  1.00  0.00    -0.363 N 
HETATM   26  C11 UNL     1     -16.287 -27.338  10.165  1.00  0.00     0.181 C 
HETATM   27  N5  UNL     1     -15.947 -26.136  10.410  1.00  0.00    -0.374 N 
HETATM   28  N6  UNL     1     -17.281 -27.904  11.020  1.00  0.00    -0.064 NA
ATOM     29  H52 UNL     1     -15.237 -25.731   9.799  1.00  0.00     0.158 HD
ATOM     30  H51 UNL     1     -16.310 -25.536  11.151  1.00  0.00     0.158 HD
ATOM     31  H4  UNL     1     -14.914 -28.684   9.259  1.00  0.00     0.162 HD
ENDBRANCH  24  25
ENDBRANCH  23  24
ENDBRANCH  20  23
ENDBRANCH  19  20
ENDBRANCH  14  19
ENDBRANCH   6  12
ENDBRANCH   3   4
TORSDOF 7
ENDMDL
MODEL 2
REMARK VINA RESULT: -6.519742130      1.595      1.862
REMARK  7 active torsions:
REMARK  status: ('A' for Active; 'I' for Inactive)
REMARK    1  A    between atoms: C3_3  and  N1_4 
REMARK    2  A    between atoms: C5_6  and  C6_7 
REMARK    3  A    between atoms: C7_10  and  C8_11 
REMARK    4  A    between atoms: C8_11  and  N3_12 
REMARK    5  A    between atoms: N3_12  and  C9_15 
REMARK    6  A    between atoms: C9_15  and  C10_16 
REMARK    7  A    between atoms: C10_16  and  N4_17 
REMARK       I    between atoms: N4_17  and  C11_19 
ROOT
HETATM    1  C1  UNL     1     -10.777 -28.922  14.552  1.00  0.00     0.014 C 
HETATM    2  C2  UNL     1     -11.944 -28.610  14.483  1.00  0.00    -0.097 C 
HETATM    3  C3  UNL     1     -13.373 -28.233  14.424  1.00  0.00     0.225 C 
ENDROOT
BRANCH   3   4
HETATM    4  N1  UNL     1     -14.144 -29.367  13.903  1.00  0.00    -0.298 N 
HETATM    5  C4  UNL     1     -14.042 -29.644  12.562  1.00  0.00     0.113 A 
HETATM    6  C5  UNL     1     -14.746 -30.680  12.066  1.00  0.00     0.039 A 
HETATM    7  C14 UNL     1     -15.530 -31.403  12.946  1.00  0.00     0.109 A 
HETATM    8  N8  UNL     1     -15.614 -31.120  14.226  1.00  0.00    -0.318 N 
HETATM    9  C15 UNL     1     -14.920 -30.099  14.712  1.00  0.00     0.327 A 
ATOM     10  H8  UNL     1     -16.206 -31.680  14.840  1.00  0.00     0.170 HD
HETATM   11  O1  UNL     1     -15.019 -29.847  15.956  1.00  0.00    -0.246 OA
BRANCH   6  12
HETATM   12  C6  UNL     1     -14.760 -31.062  10.634  1.00  0.00     0.120 A 
HETATM   13  N2  UNL     1     -15.381 -30.328   9.668  1.00  0.00    -0.342 N 
HETATM   14  C7  UNL     1     -15.220 -30.869   8.454  1.00  0.00     0.052 A 
ATOM     15  H2  UNL     1     -15.903 -29.471   9.848  1.00  0.00     0.167 HD
HETATM   16  C12 UNL     1     -14.469 -31.992   8.650  1.00  0.00     0.118 A 
HETATM   17  N7  UNL     1     -14.205 -32.080   9.992  1.00  0.00    -0.345 N 
HETATM   18  C13 UNL     1     -13.400 -33.156  10.544  1.00  0.00     0.157 C 
BRANCH  14  19
HETATM   19  C8  UNL     1     -15.766 -30.330   7.152  1.00  0.00     0.290 C 
BRANCH  19  20
HETATM   20  N3  UNL     1     -15.105 -29.084   6.842  1.00  0.00    -0.068 N 
ATOM     21  H32 UNL     1     -14.360 -28.861   7.502  1.00  0.00     0.277 HD
ATOM     22  H31 UNL     1     -14.531 -29.146   6.000  1.00  0.00     0.277 HD
BRANCH  20  23
HETATM   23  C9  UNL     1     -16.097 -28.043   6.758  1.00  0.00     0.252 C 
BRANCH  23  24
HETATM   24  C10 UNL     1     -15.806 -26.901   7.677  1.00  0.00     0.150 C 
BRANCH  24  25
HETATM   25  N4  UNL     1     -16.216 -27.282   9.007  1.00  0.00    -0.363 N 
HETATM   26  C11 UNL     1     -16.111 -26.317  10.033  1.00  0.00     0.181 C 
HETATM   27  N5  UNL     1     -15.158 -26.190  10.868  1.00  0.00    -0.374 N 
HETATM   28  N6  UNL     1     -17.187 -25.385  10.150  1.00  0.00    -0.064 NA
ATOM     29  H52 UNL     1     -14.390 -26.857  10.784  1.00  0.00     0.158 HD
ATOM     30  H51 UNL     1     -15.083 -25.493  11.609  1.00  0.00     0.158 HD
ATOM     31  H4  UNL     1     -16.570 -28.218   9.200  1.00  0.00     0.162 HD
ENDBRANCH  24  25
ENDBRANCH  23  24
ENDBRANCH  20  23
ENDBRANCH  19  20
ENDBRANCH  14  19
ENDBRANCH   6  12
ENDBRANCH   3   4
TORSDOF 7
ENDMDL
MODEL 3
REMARK VINA RESULT: -6.458061220      2.224      3.061
REMARK  7 active torsions:
REMARK  status: ('A' for Active; 'I' for Inactive)
REMARK    1  A    between atoms: C3_3  and  N1_4 
REMARK    2  A    between atoms: C5_6  and  C6_7 
REMARK    3  A    between atoms: C7_10  and  C8_11 
REMARK    4  A    between atoms: C8_11  and  N3_12 
REMARK    5  A    between atoms: N3_12  and  C9_15 
REMARK    6  A    between atoms: C9_15  and  C10_16 
REMARK    7  A    between atoms: C10_16  and  N4_17 
REMARK       I    between atoms: N4_17  and  C11_19 
ROOT
HETATM    1  C1  UNL     1     -10.609 -29.496  15.184  1.00  0.00     0.014 C 
HETATM    2  C2  UNL     1     -10.602 -28.831  14.173  1.00  0.00    -0.097 C 
HETATM    3  C3  UNL     1     -10.587 -27.998  12.951  1.00  0.00     0.225 C 
ENDROOT
BRANCH   3   4
HETATM    4  N1  UNL     1     -11.962 -27.611  12.621  1.00  0.00    -0.298 N 
HETATM    5  C4  UNL     1     -12.877 -28.615  12.418  1.00  0.00     0.113 A 
HETATM    6  C5  UNL     1     -14.144 -28.277  12.111  1.00  0.00     0.039 A 
HETATM    7  C14 UNL     1     -14.444 -26.931  12.020  1.00  0.00     0.109 A 
HETATM    8  N8  UNL     1     -13.554 -25.985  12.217  1.00  0.00    -0.318 N 
HETATM    9  C15 UNL     1     -12.306 -26.321  12.519  1.00  0.00     0.327 A 
ATOM     10  H8  UNL     1     -13.819 -25.003  12.139  1.00  0.00     0.170 HD
HETATM   11  O1  UNL     1     -11.464 -25.385  12.705  1.00  0.00    -0.246 OA
BRANCH   6  12
HETATM   12  C6  UNL     1     -15.218 -29.258  11.827  1.00  0.00     0.120 A 
HETATM   13  N2  UNL     1     -15.666 -29.537  10.571  1.00  0.00    -0.342 N 
HETATM   14  C7  UNL     1     -16.616 -30.480  10.580  1.00  0.00     0.052 A 
ATOM     15  H2  UNL     1     -15.320 -29.082   9.726  1.00  0.00     0.167 HD
HETATM   16  C12 UNL     1     -16.782 -30.819  11.892  1.00  0.00     0.118 A 
HETATM   17  N7  UNL     1     -15.912 -30.055  12.626  1.00  0.00    -0.345 N 
HETATM   18  C13 UNL     1     -15.814 -30.182  14.070  1.00  0.00     0.157 C 
BRANCH  14  19
HETATM   19  C8  UNL     1     -17.338 -31.038   9.377  1.00  0.00     0.290 C 
BRANCH  19  20
HETATM   20  N3  UNL     1     -17.292 -30.071   8.305  1.00  0.00    -0.068 N 
ATOM     21  H32 UNL     1     -16.580 -29.356   8.455  1.00  0.00     0.277 HD
ATOM     22  H31 UNL     1     -16.917 -30.463   7.441  1.00  0.00     0.277 HD
BRANCH  20  23
HETATM   23  C9  UNL     1     -18.607 -29.510   8.132  1.00  0.00     0.252 C 
BRANCH  23  24
HETATM   24  C10 UNL     1     -18.571 -28.042   7.852  1.00  0.00     0.150 C 
BRANCH  24  25
HETATM   25  N4  UNL     1     -17.820 -27.405   8.908  1.00  0.00    -0.363 N 
HETATM   26  C11 UNL     1     -16.787 -26.515   8.541  1.00  0.00     0.181 C 
HETATM   27  N5  UNL     1     -15.546 -26.781   8.454  1.00  0.00    -0.374 N 
HETATM   28  N6  UNL     1     -17.174 -25.175   8.234  1.00  0.00    -0.064 NA
ATOM     29  H52 UNL     1     -15.270 -27.738   8.674  1.00  0.00     0.158 HD
ATOM     30  H51 UNL     1     -14.799 -26.138   8.189  1.00  0.00     0.158 HD
ATOM     31  H4  UNL     1     -18.030 -27.592   9.888  1.00  0.00     0.162 HD
ENDBRANCH  24  25
ENDBRANCH  23  24
ENDBRANCH  20  23
ENDBRANCH  19  20
ENDBRANCH  14  19
ENDBRANCH   6  12
ENDBRANCH   3   4
TORSDOF 7
ENDMDL
MODEL 4
REMARK VINA RESULT: -6.388868423      2.659      6.149
REMARK  7 active torsions:
REMARK  status: ('A' for Active; 'I' for Inactive)
REMARK    1  A    between atoms: C3_3  and  N1_4 
REMARK    2  A    between atoms: C5_6  and  C6_7 
REMARK    3  A    between atoms: C7_10  and  C8_11 
REMARK    4  A    between atoms: C8_11  and  N3_12 
REMARK    5  A    between atoms: N3_12  and  C9_15 
REMARK    6  A    between atoms: C9_15  and  C10_16 
REMARK    7  A    between atoms: C10_16  and  N4_17 
REMARK       I    between atoms: N4_17  and  C11_19 
ROOT
HETATM    1  C1  UNL     1     -15.100 -28.589   5.749  1.00  0.00     0.014 C 
HETATM    2  C2  UNL     1     -16.085 -28.843   6.405  1.00  0.00    -0.097 C 
HETATM    3  C3  UNL     1     -17.299 -29.132   7.197  1.00  0.00     0.225 C 
ENDROOT
BRANCH   3   4
HETATM    4  N1  UNL     1     -17.077 -28.707   8.583  1.00  0.00    -0.298 N 
HETATM    5  C4  UNL     1     -16.246 -29.477   9.360  1.00  0.00     0.113 A 
HETATM    6  C5  UNL     1     -16.033 -29.103  10.637  1.00  0.00     0.039 A 
HETATM    7  C14 UNL     1     -16.668 -27.960  11.085  1.00  0.00     0.109 A 
HETATM    8  N8  UNL     1     -17.459 -27.237  10.325  1.00  0.00    -0.318 N 
HETATM    9  C15 UNL     1     -17.668 -27.609   9.068  1.00  0.00     0.327 A 
ATOM     10  H8  UNL     1     -17.908 -26.400  10.697  1.00  0.00     0.170 HD
HETATM   11  O1  UNL     1     -18.439 -26.890   8.353  1.00  0.00    -0.246 OA
BRANCH   6  12
HETATM   12  C6  UNL     1     -15.196 -29.864  11.594  1.00  0.00     0.120 A 
HETATM   13  N2  UNL     1     -13.878 -29.596  11.816  1.00  0.00    -0.342 N 
HETATM   14  C7  UNL     1     -13.357 -30.403  12.748  1.00  0.00     0.052 A 
ATOM     15  H2  UNL     1     -13.353 -28.869  11.331  1.00  0.00     0.167 HD
HETATM   16  C12 UNL     1     -14.380 -31.219  13.139  1.00  0.00     0.118 A 
HETATM   17  N7  UNL     1     -15.488 -30.863  12.415  1.00  0.00    -0.345 N 
HETATM   18  C13 UNL     1     -16.769 -31.523  12.603  1.00  0.00     0.157 C 
BRANCH  14  19
HETATM   19  C8  UNL     1     -11.932 -30.394  13.249  1.00  0.00     0.290 C 
BRANCH  19  20
HETATM   20  N3  UNL     1     -11.806 -29.409  14.298  1.00  0.00    -0.068 N 
ATOM     21  H32 UNL     1     -12.652 -28.851  14.415  1.00  0.00     0.277 HD
ATOM     22  H31 UNL     1     -11.785 -29.829  15.227  1.00  0.00     0.277 HD
BRANCH  20  23
HETATM   23  C9  UNL     1     -10.644 -28.599  14.033  1.00  0.00     0.252 C 
BRANCH  23  24
HETATM   24  C10 UNL     1     -10.822 -27.719  12.837  1.00  0.00     0.150 C 
BRANCH  24  25
HETATM   25  N4  UNL     1     -11.499 -26.518  13.263  1.00  0.00    -0.363 N 
HETATM   26  C11 UNL     1     -12.864 -26.374  12.931  1.00  0.00     0.181 C 
HETATM   27  N5  UNL     1     -13.346 -25.736  11.941  1.00  0.00    -0.374 N 
HETATM   28  N6  UNL     1     -13.806 -27.012  13.795  1.00  0.00    -0.064 NA
ATOM     29  H52 UNL     1     -12.673 -25.281  11.324  1.00  0.00     0.158 HD
ATOM     30  H51 UNL     1     -14.331 -25.633  11.700  1.00  0.00     0.158 HD
ATOM     31  H4  UNL     1     -11.007 -25.796  13.788  1.00  0.00     0.162 HD
ENDBRANCH  24  25
ENDBRANCH  23  24
ENDBRANCH  20  23
ENDBRANCH  19  20
ENDBRANCH  14  19
ENDBRANCH   6  12
ENDBRANCH   3   4
TORSDOF 7
ENDMDL
MODEL 5
REMARK VINA RESULT: -6.383182847      1.882      2.279
REMARK  7 active torsions:
REMARK  status: ('A' for Active; 'I' for Inactive)
REMARK    1  A    between atoms: C3_3  and  N1_4 
REMARK    2  A    between atoms: C5_6  and  C6_7 
REMARK    3  A    between atoms: C7_10  and  C8_11 
REMARK    4  A    between atoms: C8_11  and  N3_12 
REMARK    5  A    between atoms: N3_12  and  C9_15 
REMARK    6  A    between atoms: C9_15  and  C10_16 
REMARK    7  A    between atoms: C10_16  and  N4_17 
REMARK       I    between atoms: N4_17  and  C11_19 
ROOT
HETATM    1  C1  UNL     1     -13.883 -25.793  14.149  1.00  0.00     0.014 C 
HETATM    2  C2  UNL     1     -12.965 -26.449  13.711  1.00  0.00    -0.097 C 
HETATM    3  C3  UNL     1     -11.848 -27.241  13.153  1.00  0.00     0.225 C 
ENDROOT
BRANCH   3   4
HETATM    4  N1  UNL     1     -12.302 -28.618  12.937  1.00  0.00    -0.298 N 
HETATM    5  C4  UNL     1     -13.437 -28.805  12.187  1.00  0.00     0.113 A 
HETATM    6  C5  UNL     1     -13.870 -30.065  11.981  1.00  0.00     0.039 A 
HETATM    7  C14 UNL     1     -13.137 -31.094  12.541  1.00  0.00     0.109 A 
HETATM    8  N8  UNL     1     -12.053 -30.894  13.256  1.00  0.00    -0.318 N 
HETATM    9  C15 UNL     1     -11.630 -29.652  13.458  1.00  0.00     0.327 A 
ATOM     10  H8  UNL     1     -11.543 -31.684  13.651  1.00  0.00     0.170 HD
HETATM   11  O1  UNL     1     -10.577 -29.486  14.154  1.00  0.00    -0.246 OA
BRANCH   6  12
HETATM   12  C6  UNL     1     -15.100 -30.405  11.228  1.00  0.00     0.120 A 
HETATM   13  N2  UNL     1     -15.158 -30.453   9.868  1.00  0.00    -0.342 N 
HETATM   14  C7  UNL     1     -16.372 -30.814   9.435  1.00  0.00     0.052 A 
ATOM     15  H2  UNL     1     -14.372 -30.239   9.254  1.00  0.00     0.167 HD
HETATM   16  C12 UNL     1     -17.120 -31.006  10.560  1.00  0.00     0.118 A 
HETATM   17  N7  UNL     1     -16.313 -30.748  11.638  1.00  0.00    -0.345 N 
HETATM   18  C13 UNL     1     -16.794 -30.881  13.002  1.00  0.00     0.157 C 
BRANCH  14  19
HETATM   19  C8  UNL     1     -16.801 -30.972   7.995  1.00  0.00     0.290 C 
BRANCH  19  20
HETATM   20  N3  UNL     1     -17.900 -30.074   7.727  1.00  0.00    -0.068 N 
ATOM     21  H32 UNL     1     -18.507 -30.412   6.980  1.00  0.00     0.277 HD
ATOM     22  H31 UNL     1     -18.591 -30.068   8.477  1.00  0.00     0.277 HD
BRANCH  20  23
HETATM   23  C9  UNL     1     -17.369 -28.763   7.455  1.00  0.00     0.252 C 
BRANCH  23  24
HETATM   24  C10 UNL     1     -18.145 -27.681   8.135  1.00  0.00     0.150 C 
BRANCH  24  25
HETATM   25  N4  UNL     1     -17.726 -27.629   9.515  1.00  0.00    -0.363 N 
HETATM   26  C11 UNL     1     -16.733 -26.690   9.870  1.00  0.00     0.181 C 
HETATM   27  N5  UNL     1     -15.484 -26.906   9.985  1.00  0.00    -0.374 N 
HETATM   28  N6  UNL     1     -17.174 -25.356  10.128  1.00  0.00    -0.064 NA
ATOM     29  H52 UNL     1     -15.169 -27.859   9.800  1.00  0.00     0.158 HD
ATOM     30  H51 UNL     1     -14.767 -26.228  10.241  1.00  0.00     0.158 HD
ATOM     31  H4  UNL     1     -18.134 -28.252  10.211  1.00  0.00     0.162 HD
ENDBRANCH  24  25
ENDBRANCH  23  24
ENDBRANCH  20  23
ENDBRANCH  19  20
ENDBRANCH  14  19
ENDBRANCH   6  12
ENDBRANCH   3   4
TORSDOF 7
ENDMDL
