MODEL 1
REMARK VINA RESULT: -7.036907503      0.000      0.000
REMARK  9 active torsions:
REMARK  status: ('A' for Active; 'I' for Inactive)
REMARK    1  A    between atoms: C2_2  and  C3_3 
REMARK    2  A    between atoms: C5_10  and  C6_11 
REMARK    3  A    between atoms: C6_11  and  C7_12 
REMARK    4  A    between atoms: C7_12  and  C8_13 
REMARK    5  A    between atoms: C8_13  and  N3_14 
REMARK    6  A    between atoms: N3_14  and  S1_16 
REMARK    7  A    between atoms: S1_16  and  N4_19 
REMARK    8  A    between atoms: N4_19  and  C9_21 
REMARK    9  A    between atoms: C9_21  and  C10_22 
ROOT
HETATM    1  N3  UNL     1     -12.452 -25.782  11.969  1.00  0.00    -0.303 N 
ATOM      2  H3  UNL     1     -12.078 -25.301  11.150  1.00  0.00     0.173 HD
ENDROOT
BRANCH   1   3
HETATM    3  C8  UNL     1     -11.654 -26.176  13.109  1.00  0.00     0.137 C 
BRANCH   3   4
HETATM    4  C7  UNL     1     -10.966 -27.470  12.724  1.00  0.00     0.049 C 
BRANCH   4   5
HETATM    5  C6  UNL     1     -11.014 -28.449  13.878  1.00  0.00     0.007 C 
BRANCH   5   6
HETATM    6  C5  UNL     1     -12.196 -28.712  14.384  1.00  0.00     0.059 A 
HETATM    7  C3  UNL     1     -13.098 -29.642  13.933  1.00  0.00     0.057 A 
HETATM    8  C4  UNL     1     -14.196 -29.514  14.828  1.00  0.00     0.272 A 
HETATM    9  O1  UNL     1     -15.240 -30.199  14.755  1.00  0.00    -0.266 OA
HETATM   10  N1  UNL     1     -13.935 -28.572  15.731  1.00  0.00    -0.265 N 
HETATM   11  N2  UNL     1     -12.743 -28.093  15.466  1.00  0.00    -0.297 N 
ATOM     12  H1  UNL     1     -14.549 -28.277  16.490  1.00  0.00     0.190 HD
ATOM     13  H2  UNL     1     -12.286 -27.355  16.001  1.00  0.00     0.187 HD
BRANCH   7  14
HETATM   14  C2  UNL     1     -13.073 -30.488  12.945  1.00  0.00    -0.012 C 
HETATM   15  C1  UNL     1     -12.868 -31.926  12.997  1.00  0.00     0.037 C 
ENDBRANCH   7  14
ENDBRANCH   5   6
ENDBRANCH   4   5
ENDBRANCH   3   4
ENDBRANCH   1   3
BRANCH   1  16
HETATM   16  S1  UNL     1     -14.095 -26.214  12.154  1.00  0.00     0.315 S 
HETATM   17  O2  UNL     1     -14.485 -26.261  13.625  1.00  0.00    -0.183 OA
HETATM   18  O3  UNL     1     -14.970 -25.157  11.537  1.00  0.00    -0.183 OA
BRANCH  16  19
HETATM   19  N4  UNL     1     -14.375 -27.760  11.505  1.00  0.00    -0.297 N 
ATOM     20  H4  UNL     1     -13.654 -28.481  11.483  1.00  0.00     0.174 HD
BRANCH  19  21
HETATM   21  C9  UNL     1     -15.698 -27.979  10.992  1.00  0.00     0.190 C 
BRANCH  21  22
HETATM   22  C10 UNL     1     -15.997 -29.435  11.105  1.00  0.00     0.027 A 
HETATM   23  C11 UNL     1     -15.689 -30.424  10.185  1.00  0.00     0.028 A 
HETATM   24  C12 UNL     1     -16.124 -31.644  10.640  1.00  0.00     0.019 A 
HETATM   25  C13 UNL     1     -16.706 -31.405  11.855  1.00  0.00     0.088 A 
HETATM   26  N5  UNL     1     -16.623 -30.073  12.123  1.00  0.00    -0.368 N 
ATOM     27  H5  UNL     1     -16.980 -29.622  12.965  1.00  0.00     0.165 HD
ENDBRANCH  21  22
ENDBRANCH  19  21
ENDBRANCH  16  19
ENDBRANCH   1  16
TORSDOF 9
ENDMDL
MODEL 2
REMARK VINA RESULT: -7.002855481      1.935      4.525
REMARK  9 active torsions:
REMARK  status: ('A' for Active; 'I' for Inactive)
REMARK    1  A    between atoms: C2_2  and  C3_3 
REMARK    2  A    between atoms: C5_10  and  C6_11 
REMARK    3  A    between atoms: C6_11  and  C7_12 
REMARK    4  A    between atoms: C7_12  and  C8_13 
REMARK    5  A    between atoms: C8_13  and  N3_14 
REMARK    6  A    between atoms: N3_14  and  S1_16 
REMARK    7  A    between atoms: S1_16  and  N4_19 
REMARK    8  A    between atoms: N4_19  and  C9_21 
REMARK    9  A    between atoms: C9_21  and  C10_22 
ROOT
HETATM    1  N3  UNL     1     -16.511 -29.877  10.290  1.00  0.00    -0.303 N 
ATOM      2  H3  UNL     1     -17.330 -30.195   9.772  1.00  0.00     0.173 HD
ENDROOT
BRANCH   1   3
HETATM    3  C8  UNL     1     -15.249 -30.582  10.319  1.00  0.00     0.137 C 
BRANCH   3   4
HETATM    4  C7  UNL     1     -15.441 -31.769  11.239  1.00  0.00     0.049 C 
BRANCH   4   5
HETATM    5  C6  UNL     1     -14.349 -31.799  12.287  1.00  0.00     0.007 C 
BRANCH   5   6
HETATM    6  C5  UNL     1     -14.526 -31.051  13.350  1.00  0.00     0.059 A 
HETATM    7  C3  UNL     1     -13.698 -30.057  13.806  1.00  0.00     0.057 A 
HETATM    8  C4  UNL     1     -14.353 -29.578  14.976  1.00  0.00     0.272 A 
HETATM    9  O1  UNL     1     -13.911 -28.656  15.695  1.00  0.00    -0.266 OA
HETATM   10  N1  UNL     1     -15.480 -30.257  15.172  1.00  0.00    -0.265 N 
HETATM   11  N2  UNL     1     -15.584 -31.136  14.203  1.00  0.00    -0.297 N 
ATOM     12  H1  UNL     1     -16.142 -30.120  15.935  1.00  0.00     0.190 HD
ATOM     13  H2  UNL     1     -16.355 -31.795  14.103  1.00  0.00     0.187 HD
BRANCH   7  14
HETATM   14  C2  UNL     1     -12.571 -29.578  13.369  1.00  0.00    -0.012 C 
HETATM   15  C1  UNL     1     -11.227 -29.863  13.843  1.00  0.00     0.037 C 
ENDBRANCH   7  14
ENDBRANCH   5   6
ENDBRANCH   4   5
ENDBRANCH   3   4
ENDBRANCH   1   3
BRANCH   1  16
HETATM   16  S1  UNL     1     -16.471 -28.448  11.226  1.00  0.00     0.315 S 
HETATM   17  O2  UNL     1     -17.519 -27.452  10.749  1.00  0.00    -0.183 OA
HETATM   18  O3  UNL     1     -16.831 -28.765  12.652  1.00  0.00    -0.183 OA
BRANCH  16  19
HETATM   19  N4  UNL     1     -14.954 -27.693  11.085  1.00  0.00    -0.297 N 
ATOM     20  H4  UNL     1     -14.128 -28.186  10.744  1.00  0.00     0.174 HD
BRANCH  19  21
HETATM   21  C9  UNL     1     -14.917 -26.313  11.478  1.00  0.00     0.190 C 
BRANCH  21  22
HETATM   22  C10 UNL     1     -13.728 -26.120  12.358  1.00  0.00     0.027 A 
HETATM   23  C11 UNL     1     -13.712 -26.083  13.742  1.00  0.00     0.028 A 
HETATM   24  C12 UNL     1     -12.431 -25.888  14.195  1.00  0.00     0.019 A 
HETATM   25  C13 UNL     1     -11.647 -25.804  13.077  1.00  0.00     0.088 A 
HETATM   26  N5  UNL     1     -12.440 -25.945  11.979  1.00  0.00    -0.368 N 
ATOM     27  H5  UNL     1     -12.112 -25.922  11.013  1.00  0.00     0.165 HD
ENDBRANCH  21  22
ENDBRANCH  19  21
ENDBRANCH  16  19
ENDBRANCH   1  16
TORSDOF 9
ENDMDL
MODEL 3
REMARK VINA RESULT: -6.967094498      1.714      4.556
REMARK  9 active torsions:
REMARK  status: ('A' for Active; 'I' for Inactive)
REMARK    1  A    between atoms: C2_2  and  C3_3 
REMARK    2  A    between atoms: C5_10  and  C6_11 
REMARK    3  A    between atoms: C6_11  and  C7_12 
REMARK    4  A    between atoms: C7_12  and  C8_13 
REMARK    5  A    between atoms: C8_13  and  N3_14 
REMARK    6  A    between atoms: N3_14  and  S1_16 
REMARK    7  A    between atoms: S1_16  and  N4_19 
REMARK    8  A    between atoms: N4_19  and  C9_21 
REMARK    9  A    between atoms: C9_21  and  C10_22 
ROOT
HETATM    1  N3  UNL     1     -15.950 -28.985   9.535  1.00  0.00    -0.303 N 
ATOM      2  H3  UNL     1     -15.535 -28.810   8.620  1.00  0.00     0.173 HD
ENDROOT
BRANCH   1   3
HETATM    3  C8  UNL     1     -16.730 -30.160   9.858  1.00  0.00     0.137 C 
BRANCH   3   4
HETATM    4  C7  UNL     1     -15.741 -31.231  10.270  1.00  0.00     0.049 C 
BRANCH   4   5
HETATM    5  C6  UNL     1     -16.239 -31.954  11.503  1.00  0.00     0.007 C 
BRANCH   5   6
HETATM    6  C5  UNL     1     -16.139 -31.318  12.646  1.00  0.00     0.059 A 
HETATM    7  C3  UNL     1     -14.986 -31.036  13.333  1.00  0.00     0.057 A 
HETATM    8  C4  UNL     1     -15.440 -30.342  14.490  1.00  0.00     0.272 A 
HETATM    9  O1  UNL     1     -14.684 -29.907  15.385  1.00  0.00    -0.266 OA
HETATM   10  N1  UNL     1     -16.767 -30.237  14.461  1.00  0.00    -0.265 N 
HETATM   11  N2  UNL     1     -17.183 -30.819  13.362  1.00  0.00    -0.297 N 
ATOM     12  H1  UNL     1     -17.352 -29.787  15.165  1.00  0.00     0.190 HD
ATOM     13  H2  UNL     1     -18.161 -30.889  13.082  1.00  0.00     0.187 HD
BRANCH   7  14
HETATM   14  C2  UNL     1     -13.732 -31.285  13.094  1.00  0.00    -0.012 C 
HETATM   15  C1  UNL     1     -13.108 -32.565  12.804  1.00  0.00     0.037 C 
ENDBRANCH   7  14
ENDBRANCH   5   6
ENDBRANCH   4   5
ENDBRANCH   3   4
ENDBRANCH   1   3
BRANCH   1  16
HETATM   16  S1  UNL     1     -15.806 -27.923  10.866  1.00  0.00     0.315 S 
HETATM   17  O2  UNL     1     -16.049 -26.481  10.444  1.00  0.00    -0.183 OA
HETATM   18  O3  UNL     1     -16.874 -28.234  11.880  1.00  0.00    -0.183 OA
BRANCH  16  19
HETATM   19  N4  UNL     1     -14.238 -28.004  11.518  1.00  0.00    -0.297 N 
ATOM     20  H4  UNL     1     -13.493 -28.548  11.082  1.00  0.00     0.174 HD
BRANCH  19  21
HETATM   21  C9  UNL     1     -14.037 -27.253  12.725  1.00  0.00     0.190 C 
BRANCH  21  22
HETATM   22  C10 UNL     1     -12.809 -27.776  13.389  1.00  0.00     0.027 A 
HETATM   23  C11 UNL     1     -11.667 -28.258  12.771  1.00  0.00     0.028 A 
HETATM   24  C12 UNL     1     -10.749 -28.651  13.714  1.00  0.00     0.019 A 
HETATM   25  C13 UNL     1     -11.331 -28.407  14.928  1.00  0.00     0.088 A 
HETATM   26  N5  UNL     1     -12.570 -27.881  14.719  1.00  0.00    -0.368 N 
ATOM     27  H5  UNL     1     -13.221 -27.608  15.454  1.00  0.00     0.165 HD
ENDBRANCH  21  22
ENDBRANCH  19  21
ENDBRANCH  16  19
ENDBRANCH   1  16
TORSDOF 9
ENDMDL
MODEL 4
REMARK VINA RESULT: -6.791811791      1.428      2.153
REMARK  9 active torsions:
REMARK  status: ('A' for Active; 'I' for Inactive)
REMARK    1  A    between atoms: C2_2  and  C3_3 
REMARK    2  A    between atoms: C5_10  and  C6_11 
REMARK    3  A    between atoms: C6_11  and  C7_12 
REMARK    4  A    between atoms: C7_12  and  C8_13 
REMARK    5  A    between atoms: C8_13  and  N3_14 
REMARK    6  A    between atoms: N3_14  and  S1_16 
REMARK    7  A    between atoms: S1_16  and  N4_19 
REMARK    8  A    between atoms: N4_19  and  C9_21 
REMARK    9  A    between atoms: C9_21  and  C10_22 
ROOT
HETATM    1  N3  UNL     1     -12.439 -25.794  12.011  1.00  0.00    -0.303 N 
ATOM      2  H3  UNL     1     -12.050 -25.297  11.210  1.00  0.00     0.173 HD
ENDROOT
BRANCH   1   3
HETATM    3  C8  UNL     1     -11.663 -26.206  13.160  1.00  0.00     0.137 C 
BRANCH   3   4
HETATM    4  C7  UNL     1     -11.072 -27.557  12.818  1.00  0.00     0.049 C 
BRANCH   4   5
HETATM    5  C6  UNL     1     -11.171 -28.487  14.008  1.00  0.00     0.007 C 
BRANCH   5   6
HETATM    6  C5  UNL     1     -12.378 -28.819  14.403  1.00  0.00     0.059 A 
HETATM    7  C3  UNL     1     -13.193 -29.772  13.849  1.00  0.00     0.057 A 
HETATM    8  C4  UNL     1     -14.368 -29.723  14.650  1.00  0.00     0.272 A 
HETATM    9  O1  UNL     1     -15.369 -30.450  14.468  1.00  0.00    -0.266 OA
HETATM   10  N1  UNL     1     -14.229 -28.800  15.599  1.00  0.00    -0.265 N 
HETATM   11  N2  UNL     1     -13.043 -28.260  15.451  1.00  0.00    -0.297 N 
ATOM     12  H1  UNL     1     -14.919 -28.557  16.309  1.00  0.00     0.190 HD
ATOM     13  H2  UNL     1     -12.668 -27.520  16.044  1.00  0.00     0.187 HD
BRANCH   7  14
HETATM   14  C2  UNL     1     -13.045 -30.585  12.843  1.00  0.00    -0.012 C 
HETATM   15  C1  UNL     1     -12.751 -32.007  12.871  1.00  0.00     0.037 C 
ENDBRANCH   7  14
ENDBRANCH   5   6
ENDBRANCH   4   5
ENDBRANCH   3   4
ENDBRANCH   1   3
BRANCH   1  16
HETATM   16  S1  UNL     1     -14.082 -26.238  12.153  1.00  0.00     0.315 S 
HETATM   17  O2  UNL     1     -14.491 -26.361  13.615  1.00  0.00    -0.183 OA
HETATM   18  O3  UNL     1     -14.952 -25.153  11.580  1.00  0.00    -0.183 OA
BRANCH  16  19
HETATM   19  N4  UNL     1     -14.350 -27.749  11.422  1.00  0.00    -0.297 N 
ATOM     20  H4  UNL     1     -13.588 -28.327  11.068  1.00  0.00     0.174 HD
BRANCH  19  21
HETATM   21  C9  UNL     1     -15.725 -28.155  11.340  1.00  0.00     0.190 C 
BRANCH  21  22
HETATM   22  C10 UNL     1     -16.282 -27.625  10.061  1.00  0.00     0.027 A 
HETATM   23  C11 UNL     1     -17.602 -27.670   9.644  1.00  0.00     0.028 A 
HETATM   24  C12 UNL     1     -17.728 -27.080   8.411  1.00  0.00     0.019 A 
HETATM   25  C13 UNL     1     -16.471 -26.666   8.063  1.00  0.00     0.088 A 
HETATM   26  N5  UNL     1     -15.610 -27.000   9.064  1.00  0.00    -0.368 N 
ATOM     27  H5  UNL     1     -14.609 -26.809   9.064  1.00  0.00     0.165 HD
ENDBRANCH  21  22
ENDBRANCH  19  21
ENDBRANCH  16  19
ENDBRANCH   1  16
TORSDOF 9
ENDMDL
MODEL 5
REMARK VINA RESULT: -6.667741118      3.099      4.717
REMARK  9 active torsions:
REMARK  status: ('A' for Active; 'I' for Inactive)
REMARK    1  A    between atoms: C2_2  and  C3_3 
REMARK    2  A    between atoms: C5_10  and  C6_11 
REMARK    3  A    between atoms: C6_11  and  C7_12 
REMARK    4  A    between atoms: C7_12  and  C8_13 
REMARK    5  A    between atoms: C8_13  and  N3_14 
REMARK    6  A    between atoms: N3_14  and  S1_16 
REMARK    7  A    between atoms: S1_16  and  N4_19 
REMARK    8  A    between atoms: N4_19  and  C9_21 
REMARK    9  A    between atoms: C9_21  and  C10_22 
ROOT
HETATM    1  N3  UNL     1     -15.008 -29.232  11.108  1.00  0.00    -0.303 N 
ATOM      2  H3  UNL     1     -14.150 -29.574  10.675  1.00  0.00     0.173 HD
ENDROOT
BRANCH   1   3
HETATM    3  C8  UNL     1     -15.553 -29.753  12.342  1.00  0.00     0.137 C 
BRANCH   3   4
HETATM    4  C7  UNL     1     -14.370 -30.102  13.221  1.00  0.00     0.049 C 
BRANCH   4   5
HETATM    5  C6  UNL     1     -14.104 -28.984  14.206  1.00  0.00     0.007 C 
BRANCH   5   6
HETATM    6  C5  UNL     1     -13.631 -27.862  13.717  1.00  0.00     0.059 A 
HETATM    7  C3  UNL     1     -12.371 -27.645  13.221  1.00  0.00     0.057 A 
HETATM    8  C4  UNL     1     -12.389 -26.277  12.830  1.00  0.00     0.272 A 
HETATM    9  O1  UNL     1     -11.413 -25.683  12.322  1.00  0.00    -0.266 OA
HETATM   10  N1  UNL     1     -13.584 -25.750  13.087  1.00  0.00    -0.265 N 
HETATM   11  N2  UNL     1     -14.324 -26.695  13.616  1.00  0.00    -0.297 N 
ATOM     12  H1  UNL     1     -13.871 -24.789  12.906  1.00  0.00     0.190 HD
ATOM     13  H2  UNL     1     -15.292 -26.571  13.914  1.00  0.00     0.187 HD
BRANCH   7  14
HETATM   14  C2  UNL     1     -11.330 -28.415  13.086  1.00  0.00    -0.012 C 
HETATM   15  C1  UNL     1     -10.568 -29.087  14.125  1.00  0.00     0.037 C 
ENDBRANCH   7  14
ENDBRANCH   5   6
ENDBRANCH   4   5
ENDBRANCH   3   4
ENDBRANCH   1   3
BRANCH   1  16
HETATM   16  S1  UNL     1     -15.967 -27.974  10.462  1.00  0.00     0.315 S 
HETATM   17  O2  UNL     1     -17.363 -27.984  11.072  1.00  0.00    -0.183 OA
HETATM   18  O3  UNL     1     -15.374 -26.642  10.831  1.00  0.00    -0.183 OA
BRANCH  16  19
HETATM   19  N4  UNL     1     -16.146 -28.172   8.784  1.00  0.00    -0.297 N 
ATOM     20  H4  UNL     1     -15.611 -28.861   8.255  1.00  0.00     0.174 HD
BRANCH  19  21
HETATM   21  C9  UNL     1     -17.102 -27.300   8.162  1.00  0.00     0.190 C 
BRANCH  21  22
HETATM   22  C10 UNL     1     -16.348 -26.247   7.422  1.00  0.00     0.027 A 
HETATM   23  C11 UNL     1     -16.858 -25.348   6.500  1.00  0.00     0.028 A 
HETATM   24  C12 UNL     1     -15.857 -24.533   6.032  1.00  0.00     0.019 A 
HETATM   25  C13 UNL     1     -14.717 -24.933   6.673  1.00  0.00     0.088 A 
HETATM   26  N5  UNL     1     -15.026 -25.965   7.507  1.00  0.00    -0.368 N 
ATOM     27  H5  UNL     1     -14.361 -26.453   8.106  1.00  0.00     0.165 HD
ENDBRANCH  21  22
ENDBRANCH  19  21
ENDBRANCH  16  19
ENDBRANCH   1  16
TORSDOF 9
ENDMDL
