MODEL 1
REMARK VINA RESULT: -7.213614893      0.000      0.000
REMARK  10 active torsions:
REMARK  status: ('A' for Active; 'I' for Inactive)
REMARK    1  A    between atoms: C5_5  and  O1_6 
REMARK    2  A    between atoms: N1_9  and  C7_10 
REMARK    3  A    between atoms: C7_10  and  C8_11 
REMARK    4  A    between atoms: C8_11  and  C9_12 
REMARK    5  A    between atoms: C9_12  and  N2_13 
REMARK       I    between atoms: N2_13  and  C10_15 
REMARK    6  A    between atoms: C10_15  and  C11_17 
REMARK    7  A    between atoms: C11_17  and  C12_18 
REMARK    8  A    between atoms: C12_18  and  N3_19 
REMARK    9  A    between atoms: C14_21  and  N4_22 
REMARK   10  A    between atoms: C15_27  and  N6_28 
ROOT
HETATM    1  N2  UNL     1     -15.619 -30.534  12.233  1.00  0.00    -0.361 N 
ATOM      2  H2  UNL     1     -15.275 -29.655  11.850  1.00  0.00     0.162 HD
HETATM    3  C10 UNL     1     -14.900 -31.118  13.305  1.00  0.00     0.219 C 
HETATM    4  O2  UNL     1     -15.326 -32.206  13.774  1.00  0.00    -0.274 OA
ENDROOT
BRANCH   3   5
HETATM    5  C11 UNL     1     -13.672 -30.470  13.869  1.00  0.00     0.124 C 
BRANCH   5   6
HETATM    6  C12 UNL     1     -14.063 -29.153  14.474  1.00  0.00     0.158 C 
BRANCH   6   7
HETATM    7  N3  UNL     1     -13.610 -28.030  13.714  1.00  0.00    -0.285 N 
HETATM    8  C13 UNL     1     -12.270 -27.827  13.558  1.00  0.00     0.159 A 
HETATM    9  C14 UNL     1     -11.763 -26.770  12.842  1.00  0.00     0.132 A 
HETATM   10  N5  UNL     1     -12.627 -25.915  12.279  1.00  0.00    -0.175 N 
HETATM   11  C15 UNL     1     -13.938 -26.142  12.449  1.00  0.00     0.692 A 
ATOM     12  H5  UNL     1     -12.298 -25.116  11.737  1.00  0.00     0.186 HD
HETATM   13  N7  UNL     1     -14.428 -27.166  13.144  1.00  0.00    -0.130 N 
ATOM     14  H7  UNL     1     -15.437 -27.284  13.236  1.00  0.00     0.206 HD
BRANCH   9  15
HETATM   15  N4  UNL     1     -10.498 -26.564  12.685  1.00  0.00    -0.384 N 
ATOM     16  H42 UNL     1      -9.884 -27.369  12.563  1.00  0.00     0.157 HD
ATOM     17  H41 UNL     1     -10.081 -25.633  12.678  1.00  0.00     0.157 HD
ENDBRANCH   9  15
BRANCH  11  18
HETATM   18  N6  UNL     1     -14.754 -25.313  11.903  1.00  0.00    -0.233 N 
ATOM     19  H62 UNL     1     -14.838 -24.374  12.292  1.00  0.00     0.174 HD
ATOM     20  H61 UNL     1     -15.283 -25.642  11.096  1.00  0.00     0.174 HD
ENDBRANCH  11  18
ENDBRANCH   6   7
ENDBRANCH   5   6
ENDBRANCH   3   5
BRANCH   1  21
HETATM   21  C9  UNL     1     -16.791 -31.099  11.659  1.00  0.00     0.124 C 
BRANCH  21  22
HETATM   22  C8  UNL     1     -17.041 -30.792  10.223  1.00  0.00     0.040 C 
BRANCH  22  23
HETATM   23  C7  UNL     1     -15.959 -30.030   9.522  1.00  0.00     0.130 C 
BRANCH  23  24
HETATM   24  N1  UNL     1     -16.364 -28.736   9.024  1.00  0.00    -0.358 N 
HETATM   25  C2  UNL     1     -16.507 -28.531   7.678  1.00  0.00     0.007 A 
HETATM   26  C1  UNL     1     -16.263 -29.599   6.681  1.00  0.00     0.068 C 
HETATM   27  C3  UNL     1     -16.901 -27.285   7.183  1.00  0.00     0.027 A 
HETATM   28  C4  UNL     1     -17.156 -26.233   7.997  1.00  0.00     0.040 A 
HETATM   29  C5  UNL     1     -17.011 -26.441   9.362  1.00  0.00     0.081 A 
HETATM   30  C6  UNL     1     -16.622 -27.683   9.819  1.00  0.00     0.127 A 
BRANCH  29  31
HETATM   31  O1  UNL     1     -17.262 -25.395  10.239  1.00  0.00    -0.359 OA
ATOM     32  H1  UNL     1     -16.855 -25.401  11.098  1.00  0.00     0.217 HD
ENDBRANCH  29  31
ENDBRANCH  23  24
ENDBRANCH  22  23
ENDBRANCH  21  22
ENDBRANCH   1  21
TORSDOF 10
ENDMDL
MODEL 2
REMARK VINA RESULT: -6.931788484      1.535      2.026
REMARK  10 active torsions:
REMARK  status: ('A' for Active; 'I' for Inactive)
REMARK    1  A    between atoms: C5_5  and  O1_6 
REMARK    2  A    between atoms: N1_9  and  C7_10 
REMARK    3  A    between atoms: C7_10  and  C8_11 
REMARK    4  A    between atoms: C8_11  and  C9_12 
REMARK    5  A    between atoms: C9_12  and  N2_13 
REMARK       I    between atoms: N2_13  and  C10_15 
REMARK    6  A    between atoms: C10_15  and  C11_17 
REMARK    7  A    between atoms: C11_17  and  C12_18 
REMARK    8  A    between atoms: C12_18  and  N3_19 
REMARK    9  A    between atoms: C14_21  and  N4_22 
REMARK   10  A    between atoms: C15_27  and  N6_28 
ROOT
HETATM    1  N2  UNL     1     -13.577 -31.042  12.895  1.00  0.00    -0.361 N 
ATOM      2  H2  UNL     1     -13.015 -30.194  12.829  1.00  0.00     0.162 HD
HETATM    3  C10 UNL     1     -14.706 -31.025  13.750  1.00  0.00     0.219 C 
HETATM    4  O2  UNL     1     -15.396 -32.075  13.832  1.00  0.00    -0.274 OA
ENDROOT
BRANCH   3   5
HETATM    5  C11 UNL     1     -15.076 -29.804  14.535  1.00  0.00     0.124 C 
BRANCH   5   6
HETATM    6  C12 UNL     1     -13.816 -29.076  14.907  1.00  0.00     0.158 C 
BRANCH   6   7
HETATM    7  N3  UNL     1     -13.474 -28.040  13.984  1.00  0.00    -0.285 N 
HETATM    8  C13 UNL     1     -12.159 -27.733  13.783  1.00  0.00     0.159 A 
HETATM    9  C14 UNL     1     -11.757 -26.751  12.912  1.00  0.00     0.132 A 
HETATM   10  N5  UNL     1     -12.698 -26.076  12.241  1.00  0.00    -0.175 N 
HETATM   11  C15 UNL     1     -13.981 -26.399  12.459  1.00  0.00     0.692 A 
ATOM     12  H5  UNL     1     -12.447 -25.337  11.583  1.00  0.00     0.186 HD
HETATM   13  N7  UNL     1     -14.371 -27.352  13.304  1.00  0.00    -0.130 N 
ATOM     14  H7  UNL     1     -15.364 -27.551  13.425  1.00  0.00     0.206 HD
BRANCH   9  15
HETATM   15  N4  UNL     1     -10.517 -26.449  12.710  1.00  0.00    -0.384 N 
ATOM     16  H42 UNL     1     -10.131 -26.572  11.774  1.00  0.00     0.157 HD
ATOM     17  H41 UNL     1      -9.903 -26.093  13.442  1.00  0.00     0.157 HD
ENDBRANCH   9  15
BRANCH  11  18
HETATM   18  N6  UNL     1     -14.873 -25.742  11.808  1.00  0.00    -0.233 N 
ATOM     19  H62 UNL     1     -15.661 -25.342  12.316  1.00  0.00     0.174 HD
ATOM     20  H61 UNL     1     -14.744 -25.654  10.800  1.00  0.00     0.174 HD
ENDBRANCH  11  18
ENDBRANCH   6   7
ENDBRANCH   5   6
ENDBRANCH   3   5
BRANCH   1  21
HETATM   21  C9  UNL     1     -13.178 -32.168  12.124  1.00  0.00     0.124 C 
BRANCH  21  22
HETATM   22  C8  UNL     1     -13.428 -32.091  10.658  1.00  0.00     0.040 C 
BRANCH  22  23
HETATM   23  C7  UNL     1     -14.858 -32.227  10.234  1.00  0.00     0.130 C 
BRANCH  23  24
HETATM   24  N1  UNL     1     -15.494 -30.985   9.862  1.00  0.00    -0.358 N 
HETATM   25  C2  UNL     1     -15.656 -30.664   8.541  1.00  0.00     0.007 A 
HETATM   26  C1  UNL     1     -15.200 -31.550   7.445  1.00  0.00     0.068 C 
HETATM   27  C3  UNL     1     -16.273 -29.467   8.168  1.00  0.00     0.027 A 
HETATM   28  C4  UNL     1     -16.735 -28.578   9.079  1.00  0.00     0.040 A 
HETATM   29  C5  UNL     1     -16.571 -28.904  10.419  1.00  0.00     0.081 A 
HETATM   30  C6  UNL     1     -15.959 -30.093  10.755  1.00  0.00     0.127 A 
BRANCH  29  31
HETATM   31  O1  UNL     1     -17.028 -28.027  11.393  1.00  0.00    -0.359 OA
ATOM     32  H1  UNL     1     -17.023 -27.094  11.216  1.00  0.00     0.217 HD
ENDBRANCH  29  31
ENDBRANCH  23  24
ENDBRANCH  22  23
ENDBRANCH  21  22
ENDBRANCH   1  21
TORSDOF 10
ENDMDL
MODEL 3
REMARK VINA RESULT: -6.918229027      0.453      1.611
REMARK  10 active torsions:
REMARK  status: ('A' for Active; 'I' for Inactive)
REMARK    1  A    between atoms: C5_5  and  O1_6 
REMARK    2  A    between atoms: N1_9  and  C7_10 
REMARK    3  A    between atoms: C7_10  and  C8_11 
REMARK    4  A    between atoms: C8_11  and  C9_12 
REMARK    5  A    between atoms: C9_12  and  N2_13 
REMARK       I    between atoms: N2_13  and  C10_15 
REMARK    6  A    between atoms: C10_15  and  C11_17 
REMARK    7  A    between atoms: C11_17  and  C12_18 
REMARK    8  A    between atoms: C12_18  and  N3_19 
REMARK    9  A    between atoms: C14_21  and  N4_22 
REMARK   10  A    between atoms: C15_27  and  N6_28 
ROOT
HETATM    1  N2  UNL     1     -15.588 -30.564  12.276  1.00  0.00    -0.361 N 
ATOM      2  H2  UNL     1     -15.249 -29.692  11.869  1.00  0.00     0.162 HD
HETATM    3  C10 UNL     1     -14.808 -31.171  13.290  1.00  0.00     0.219 C 
HETATM    4  O2  UNL     1     -15.228 -32.249  13.786  1.00  0.00    -0.274 OA
ENDROOT
BRANCH   3   5
HETATM    5  C11 UNL     1     -13.524 -30.561  13.762  1.00  0.00     0.124 C 
BRANCH   5   6
HETATM    6  C12 UNL     1     -13.833 -29.240  14.407  1.00  0.00     0.158 C 
BRANCH   6   7
HETATM    7  N3  UNL     1     -13.339 -28.124  13.664  1.00  0.00    -0.285 N 
HETATM    8  C13 UNL     1     -14.224 -27.291  13.043  1.00  0.00     0.159 A 
HETATM    9  C14 UNL     1     -13.822 -26.201  12.312  1.00  0.00     0.132 A 
HETATM   10  N5  UNL     1     -12.509 -25.955  12.213  1.00  0.00    -0.175 N 
HETATM   11  C15 UNL     1     -11.663 -26.790  12.834  1.00  0.00     0.692 A 
ATOM     12  H5  UNL     1     -12.163 -25.156  11.681  1.00  0.00     0.186 HD
HETATM   13  N7  UNL     1     -12.054 -27.847  13.543  1.00  0.00    -0.130 N 
ATOM     14  H7  UNL     1     -11.360 -28.445  13.992  1.00  0.00     0.206 HD
BRANCH   9  15
HETATM   15  N4  UNL     1     -14.646 -25.403  11.719  1.00  0.00    -0.384 N 
ATOM     16  H42 UNL     1     -15.598 -25.727  11.543  1.00  0.00     0.157 HD
ATOM     17  H41 UNL     1     -14.394 -24.463  11.417  1.00  0.00     0.157 HD
ENDBRANCH   9  15
BRANCH  11  18
HETATM   18  N6  UNL     1     -10.407 -26.541  12.729  1.00  0.00    -0.233 N 
ATOM     19  H62 UNL     1     -10.112 -25.652  12.324  1.00  0.00     0.174 HD
ATOM     20  H61 UNL     1      -9.760 -27.256  13.061  1.00  0.00     0.174 HD
ENDBRANCH  11  18
ENDBRANCH   6   7
ENDBRANCH   5   6
ENDBRANCH   3   5
BRANCH   1  21
HETATM   21  C9  UNL     1     -16.814 -31.093  11.788  1.00  0.00     0.124 C 
BRANCH  21  22
HETATM   22  C8  UNL     1     -17.146 -30.801  10.366  1.00  0.00     0.040 C 
BRANCH  22  23
HETATM   23  C7  UNL     1     -16.083 -30.095   9.582  1.00  0.00     0.130 C 
BRANCH  23  24
HETATM   24  N1  UNL     1     -16.476 -28.806   9.063  1.00  0.00    -0.358 N 
HETATM   25  C2  UNL     1     -16.657 -28.632   7.718  1.00  0.00     0.007 A 
HETATM   26  C1  UNL     1     -16.465 -29.729   6.741  1.00  0.00     0.068 C 
HETATM   27  C3  UNL     1     -17.040 -27.390   7.203  1.00  0.00     0.027 A 
HETATM   28  C4  UNL     1     -17.249 -26.313   7.997  1.00  0.00     0.040 A 
HETATM   29  C5  UNL     1     -17.067 -26.491   9.362  1.00  0.00     0.081 A 
HETATM   30  C6  UNL     1     -16.689 -27.728   9.839  1.00  0.00     0.127 A 
BRANCH  29  31
HETATM   31  O1  UNL     1     -17.270 -25.418  10.220  1.00  0.00    -0.359 OA
ATOM     32  H1  UNL     1     -17.195 -25.552  11.157  1.00  0.00     0.217 HD
ENDBRANCH  29  31
ENDBRANCH  23  24
ENDBRANCH  22  23
ENDBRANCH  21  22
ENDBRANCH   1  21
TORSDOF 10
ENDMDL
MODEL 4
REMARK VINA RESULT: -6.850629471      1.920      4.486
REMARK  10 active torsions:
REMARK  status: ('A' for Active; 'I' for Inactive)
REMARK    1  A    between atoms: C5_5  and  O1_6 
REMARK    2  A    between atoms: N1_9  and  C7_10 
REMARK    3  A    between atoms: C7_10  and  C8_11 
REMARK    4  A    between atoms: C8_11  and  C9_12 
REMARK    5  A    between atoms: C9_12  and  N2_13 
REMARK       I    between atoms: N2_13  and  C10_15 
REMARK    6  A    between atoms: C10_15  and  C11_17 
REMARK    7  A    between atoms: C11_17  and  C12_18 
REMARK    8  A    between atoms: C12_18  and  N3_19 
REMARK    9  A    between atoms: C14_21  and  N4_22 
REMARK   10  A    between atoms: C15_27  and  N6_28 
ROOT
HETATM    1  N2  UNL     1     -15.867 -28.773   9.451  1.00  0.00    -0.361 N 
ATOM      2  H2  UNL     1     -14.896 -28.871   9.157  1.00  0.00     0.162 HD
HETATM    3  C10 UNL     1     -16.131 -28.044  10.637  1.00  0.00     0.219 C 
HETATM    4  O2  UNL     1     -17.331 -27.928  10.999  1.00  0.00    -0.274 OA
ENDROOT
BRANCH   3   5
HETATM    5  C11 UNL     1     -15.027 -27.429  11.441  1.00  0.00     0.124 C 
BRANCH   5   6
HETATM    6  C12 UNL     1     -14.742 -28.316  12.618  1.00  0.00     0.158 C 
BRANCH   6   7
HETATM    7  N3  UNL     1     -13.460 -28.079  13.203  1.00  0.00    -0.285 N 
HETATM    8  C13 UNL     1     -13.052 -26.794  13.418  1.00  0.00     0.159 A 
HETATM    9  C14 UNL     1     -11.835 -26.491  13.975  1.00  0.00     0.132 A 
HETATM   10  N5  UNL     1     -11.025 -27.502  14.316  1.00  0.00    -0.175 N 
HETATM   11  C15 UNL     1     -11.453 -28.754  14.092  1.00  0.00     0.692 A 
ATOM     12  H5  UNL     1     -10.111 -27.326  14.733  1.00  0.00     0.186 HD
HETATM   13  N7  UNL     1     -12.634 -29.047  13.552  1.00  0.00    -0.130 N 
ATOM     14  H7  UNL     1     -12.901 -30.021  13.408  1.00  0.00     0.206 HD
BRANCH   9  15
HETATM   15  N4  UNL     1     -11.435 -25.282  14.186  1.00  0.00    -0.384 N 
ATOM     16  H42 UNL     1     -10.453 -25.056  14.023  1.00  0.00     0.157 HD
ATOM     17  H41 UNL     1     -12.053 -24.538  14.508  1.00  0.00     0.157 HD
ENDBRANCH   9  15
BRANCH  11  18
HETATM   18  N6  UNL     1     -10.665 -29.713  14.424  1.00  0.00    -0.233 N 
ATOM     19  H62 UNL     1     -10.866 -30.248  15.268  1.00  0.00     0.174 HD
ATOM     20  H61 UNL     1      -9.865 -29.891  13.816  1.00  0.00     0.174 HD
ENDBRANCH  11  18
ENDBRANCH   6   7
ENDBRANCH   5   6
ENDBRANCH   3   5
BRANCH   1  21
HETATM   21  C9  UNL     1     -16.871 -29.376   8.646  1.00  0.00     0.124 C 
BRANCH  21  22
HETATM   22  C8  UNL     1     -17.262 -30.769   9.001  1.00  0.00     0.040 C 
BRANCH  22  23
HETATM   23  C7  UNL     1     -16.150 -31.657   9.467  1.00  0.00     0.130 C 
BRANCH  23  24
HETATM   24  N1  UNL     1     -15.975 -31.698  10.900  1.00  0.00    -0.358 N 
HETATM   25  C2  UNL     1     -14.746 -31.975  11.436  1.00  0.00     0.007 A 
HETATM   26  C1  UNL     1     -13.555 -32.241  10.596  1.00  0.00     0.068 C 
HETATM   27  C3  UNL     1     -14.563 -32.015  12.820  1.00  0.00     0.027 A 
HETATM   28  C4  UNL     1     -15.576 -31.785  13.690  1.00  0.00     0.040 A 
HETATM   29  C5  UNL     1     -16.822 -31.503  13.146  1.00  0.00     0.081 A 
HETATM   30  C6  UNL     1     -16.971 -31.470  11.776  1.00  0.00     0.127 A 
BRANCH  29  31
HETATM   31  O1  UNL     1     -17.894 -31.258  13.995  1.00  0.00    -0.359 OA
ATOM     32  H1  UNL     1     -18.152 -30.361  14.170  1.00  0.00     0.217 HD
ENDBRANCH  29  31
ENDBRANCH  23  24
ENDBRANCH  22  23
ENDBRANCH  21  22
ENDBRANCH   1  21
TORSDOF 10
ENDMDL
MODEL 5
REMARK VINA RESULT: -6.839460871      1.771      2.243
REMARK  10 active torsions:
REMARK  status: ('A' for Active; 'I' for Inactive)
REMARK    1  A    between atoms: C5_5  and  O1_6 
REMARK    2  A    between atoms: N1_9  and  C7_10 
REMARK    3  A    between atoms: C7_10  and  C8_11 
REMARK    4  A    between atoms: C8_11  and  C9_12 
REMARK    5  A    between atoms: C9_12  and  N2_13 
REMARK       I    between atoms: N2_13  and  C10_15 
REMARK    6  A    between atoms: C10_15  and  C11_17 
REMARK    7  A    between atoms: C11_17  and  C12_18 
REMARK    8  A    between atoms: C12_18  and  N3_19 
REMARK    9  A    between atoms: C14_21  and  N4_22 
REMARK   10  A    between atoms: C15_27  and  N6_28 
ROOT
HETATM    1  N2  UNL     1     -15.589 -29.915  11.178  1.00  0.00    -0.361 N 
ATOM      2  H2  UNL     1     -14.708 -30.284  10.822  1.00  0.00     0.162 HD
HETATM    3  C10 UNL     1     -15.774 -29.878  12.582  1.00  0.00     0.219 C 
HETATM    4  O2  UNL     1     -16.865 -29.425  13.018  1.00  0.00    -0.274 OA
ENDROOT
BRANCH   3   5
HETATM    5  C11 UNL     1     -14.714 -30.359  13.525  1.00  0.00     0.124 C 
BRANCH   5   6
HETATM    6  C12 UNL     1     -14.302 -29.213  14.404  1.00  0.00     0.158 C 
BRANCH   6   7
HETATM    7  N3  UNL     1     -13.776 -28.104  13.672  1.00  0.00    -0.285 N 
HETATM    8  C13 UNL     1     -12.424 -27.979  13.530  1.00  0.00     0.159 A 
HETATM    9  C14 UNL     1     -11.849 -26.941  12.840  1.00  0.00     0.132 A 
HETATM   10  N5  UNL     1     -12.655 -26.023  12.290  1.00  0.00    -0.175 N 
HETATM   11  C15 UNL     1     -13.978 -26.174  12.445  1.00  0.00     0.692 A 
ATOM     12  H5  UNL     1     -12.273 -25.235  11.768  1.00  0.00     0.186 HD
HETATM   13  N7  UNL     1     -14.535 -27.181  13.114  1.00  0.00    -0.130 N 
ATOM     14  H7  UNL     1     -15.550 -27.239  13.196  1.00  0.00     0.206 HD
BRANCH   9  15
HETATM   15  N4  UNL     1     -10.573 -26.808  12.697  1.00  0.00    -0.384 N 
ATOM     16  H42 UNL     1     -10.223 -26.272  11.903  1.00  0.00     0.157 HD
ATOM     17  H41 UNL     1      -9.893 -27.214  13.341  1.00  0.00     0.157 HD
ENDBRANCH   9  15
BRANCH  11  18
HETATM   18  N6  UNL     1     -14.737 -25.285  11.911  1.00  0.00    -0.233 N 
ATOM     19  H62 UNL     1     -14.690 -24.325  12.252  1.00  0.00     0.174 HD
ATOM     20  H61 UNL     1     -15.359 -25.591  11.162  1.00  0.00     0.174 HD
ENDBRANCH  11  18
ENDBRANCH   6   7
ENDBRANCH   5   6
ENDBRANCH   3   5
BRANCH   1  21
HETATM   21  C9  UNL     1     -16.556 -29.471  10.235  1.00  0.00     0.124 C 
BRANCH  21  22
HETATM   22  C8  UNL     1     -16.469 -28.044   9.816  1.00  0.00     0.040 C 
BRANCH  22  23
HETATM   23  C7  UNL     1     -17.479 -27.601   8.803  1.00  0.00     0.130 C 
BRANCH  23  24
HETATM   24  N1  UNL     1     -16.976 -26.666   7.824  1.00  0.00    -0.358 N 
HETATM   25  C2  UNL     1     -17.775 -26.256   6.791  1.00  0.00     0.007 A 
HETATM   26  C1  UNL     1     -19.167 -26.735   6.624  1.00  0.00     0.068 C 
HETATM   27  C3  UNL     1     -17.303 -25.349   5.839  1.00  0.00     0.027 A 
HETATM   28  C4  UNL     1     -16.049 -24.837   5.889  1.00  0.00     0.040 A 
HETATM   29  C5  UNL     1     -15.239 -25.253   6.937  1.00  0.00     0.081 A 
HETATM   30  C6  UNL     1     -15.735 -26.149   7.861  1.00  0.00     0.127 A 
BRANCH  29  31
HETATM   31  O1  UNL     1     -13.946 -24.758   7.034  1.00  0.00    -0.359 OA
ATOM     32  H1  UNL     1     -13.812 -23.860   7.313  1.00  0.00     0.217 HD
ENDBRANCH  29  31
ENDBRANCH  23  24
ENDBRANCH  22  23
ENDBRANCH  21  22
ENDBRANCH   1  21
TORSDOF 10
ENDMDL
