MODEL 1
REMARK VINA RESULT: -6.783781414      0.000      0.000
REMARK  2 active torsions:
REMARK  status: ('A' for Active; 'I' for Inactive)
REMARK       I    between atoms: C2_5  and  N3_6 
REMARK       I    between atoms: C2_5  and  N7_15 
REMARK       I    between atoms: N3_6  and  C3_8 
REMARK    1  A    between atoms: N5_10  and  N6_12 
REMARK    2  A    between atoms: N7_15  and  N8_17 
ROOT
HETATM    1  N1  UNL     1     -21.262 -27.640  -1.648  1.00  0.00    -0.171 NA
HETATM    2  C1  UNL     1     -21.834 -27.749  -0.629  1.00  0.00     0.196 C 
HETATM    3  N2  UNL     1     -22.513 -27.856   0.593  1.00  0.00    -0.124 N 
ATOM      4  H2  UNL     1     -22.066 -27.518   1.445  1.00  0.00     0.197 HD
HETATM    5  C2  UNL     1     -23.682 -28.368   0.659  1.00  0.00     0.713 C 
HETATM    6  N3  UNL     1     -24.314 -28.838  -0.509  1.00  0.00    -0.160 N 
ATOM      7  H3  UNL     1     -24.465 -29.843  -0.599  1.00  0.00     0.187 HD
HETATM    8  C3  UNL     1     -24.749 -28.008  -1.558  1.00  0.00     0.221 C 
HETATM    9  N4  UNL     1     -24.851 -28.518  -2.875  1.00  0.00    -0.061 NA
HETATM   10  N5  UNL     1     -25.067 -26.773  -1.366  1.00  0.00    -0.280 N 
ATOM     11  H5  UNL     1     -24.998 -26.392  -0.422  1.00  0.00     0.189 HD
HETATM   12  N7  UNL     1     -24.350 -28.466   1.901  1.00  0.00    -0.071 N 
ATOM     13  H7  UNL     1     -23.836 -28.235   2.752  1.00  0.00     0.212 HD
ENDROOT
BRANCH  12  14
HETATM   14  N8  UNL     1     -25.675 -28.864   2.014  1.00  0.00    -0.024 N 
HETATM   15  O1  UNL     1     -26.572 -28.148   1.569  1.00  0.00    -0.516 OA
HETATM   16  O2  UNL     1     -25.973 -30.045   2.617  1.00  0.00    -0.516 OA
ENDBRANCH  12  14
BRANCH  10  17
HETATM   17  N6  UNL     1     -25.496 -25.944  -2.384  1.00  0.00    -0.343 N 
ATOM     18  H62 UNL     1     -26.490 -25.717  -2.420  1.00  0.00     0.176 HD
ATOM     19  H61 UNL     1     -24.865 -25.559  -3.086  1.00  0.00     0.176 HD
ENDBRANCH  10  17
TORSDOF 2
ENDMDL
MODEL 2
REMARK VINA RESULT: -6.497318290      1.102      1.169
REMARK  2 active torsions:
REMARK  status: ('A' for Active; 'I' for Inactive)
REMARK       I    between atoms: C2_5  and  N3_6 
REMARK       I    between atoms: C2_5  and  N7_15 
REMARK       I    between atoms: N3_6  and  C3_8 
REMARK    1  A    between atoms: N5_10  and  N6_12 
REMARK    2  A    between atoms: N7_15  and  N8_17 
ROOT
HETATM    1  N1  UNL     1     -21.704 -27.107  -0.353  1.00  0.00    -0.171 NA
HETATM    2  C1  UNL     1     -22.587 -27.384   0.370  1.00  0.00     0.196 C 
HETATM    3  N2  UNL     1     -23.643 -27.690   1.240  1.00  0.00    -0.124 N 
ATOM      4  H2  UNL     1     -23.630 -27.324   2.191  1.00  0.00     0.197 HD
HETATM    5  C2  UNL     1     -24.622 -28.420   0.862  1.00  0.00     0.713 C 
HETATM    6  N3  UNL     1     -24.655 -28.933  -0.449  1.00  0.00    -0.160 N 
ATOM      7  H3  UNL     1     -24.557 -29.941  -0.571  1.00  0.00     0.187 HD
HETATM    8  C3  UNL     1     -24.815 -28.141  -1.601  1.00  0.00     0.221 C 
HETATM    9  N4  UNL     1     -24.306 -28.583  -2.847  1.00  0.00    -0.061 NA
HETATM   10  N5  UNL     1     -25.422 -27.003  -1.570  1.00  0.00    -0.280 N 
ATOM     11  H5  UNL     1     -25.794 -26.673  -0.680  1.00  0.00     0.189 HD
HETATM   12  N7  UNL     1     -25.677 -28.717   1.755  1.00  0.00    -0.071 N 
ATOM     13  H7  UNL     1     -25.582 -28.442   2.732  1.00  0.00     0.212 HD
ENDROOT
BRANCH  12  14
HETATM   14  N8  UNL     1     -26.837 -29.368   1.357  1.00  0.00    -0.024 N 
HETATM   15  O1  UNL     1     -27.931 -28.825   1.514  1.00  0.00    -0.516 OA
HETATM   16  O2  UNL     1     -26.757 -30.603   0.798  1.00  0.00    -0.516 OA
ENDBRANCH  12  14
BRANCH  10  17
HETATM   17  N6  UNL     1     -25.588 -26.214  -2.691  1.00  0.00    -0.343 N 
ATOM     18  H62 UNL     1     -24.809 -25.615  -2.967  1.00  0.00     0.176 HD
ATOM     19  H61 UNL     1     -26.447 -26.210  -3.241  1.00  0.00     0.176 HD
ENDBRANCH  10  17
TORSDOF 2
ENDMDL
MODEL 3
REMARK VINA RESULT: -6.392299184      2.592      3.965
REMARK  2 active torsions:
REMARK  status: ('A' for Active; 'I' for Inactive)
REMARK       I    between atoms: C2_5  and  N3_6 
REMARK       I    between atoms: C2_5  and  N7_15 
REMARK       I    between atoms: N3_6  and  C3_8 
REMARK    1  A    between atoms: N5_10  and  N6_12 
REMARK    2  A    between atoms: N7_15  and  N8_17 
ROOT
HETATM    1  N1  UNL     1     -26.275 -26.878  -4.178  1.00  0.00    -0.171 NA
HETATM    2  C1  UNL     1     -25.702 -26.619  -3.187  1.00  0.00     0.196 C 
HETATM    3  N2  UNL     1     -25.040 -26.311  -1.990  1.00  0.00    -0.124 N 
ATOM      4  H2  UNL     1     -25.416 -25.582  -1.383  1.00  0.00     0.197 HD
HETATM    5  C2  UNL     1     -23.975 -26.926  -1.645  1.00  0.00     0.713 C 
HETATM    6  N3  UNL     1     -23.443 -27.936  -2.472  1.00  0.00    -0.160 N 
ATOM      7  H3  UNL     1     -22.549 -27.758  -2.929  1.00  0.00     0.187 HD
HETATM    8  C3  UNL     1     -24.070 -29.174  -2.705  1.00  0.00     0.221 C 
HETATM    9  N4  UNL     1     -23.817 -29.886  -3.902  1.00  0.00    -0.061 NA
HETATM   10  N5  UNL     1     -24.882 -29.700  -1.853  1.00  0.00    -0.280 N 
ATOM     11  H5  UNL     1     -25.073 -29.198  -0.985  1.00  0.00     0.189 HD
HETATM   12  N7  UNL     1     -23.322 -26.600  -0.434  1.00  0.00    -0.071 N 
ATOM     13  H7  UNL     1     -23.646 -25.790   0.093  1.00  0.00     0.212 HD
ENDROOT
BRANCH  12  14
HETATM   14  N8  UNL     1     -22.258 -27.337   0.069  1.00  0.00    -0.024 N 
HETATM   15  O1  UNL     1     -21.152 -27.264  -0.466  1.00  0.00    -0.516 OA
HETATM   16  O2  UNL     1     -22.446 -28.137   1.151  1.00  0.00    -0.516 OA
ENDBRANCH  12  14
BRANCH  10  17
HETATM   17  N6  UNL     1     -25.506 -30.915  -2.066  1.00  0.00    -0.343 N 
ATOM     18  H62 UNL     1     -24.971 -31.760  -1.867  1.00  0.00     0.176 HD
ATOM     19  H61 UNL     1     -26.463 -30.991  -2.407  1.00  0.00     0.176 HD
ENDBRANCH  10  17
TORSDOF 2
ENDMDL
MODEL 4
REMARK VINA RESULT: -6.361257882      2.805      4.189
REMARK  2 active torsions:
REMARK  status: ('A' for Active; 'I' for Inactive)
REMARK       I    between atoms: C2_5  and  N3_6 
REMARK       I    between atoms: C2_5  and  N7_15 
REMARK       I    between atoms: N3_6  and  C3_8 
REMARK    1  A    between atoms: N5_10  and  N6_12 
REMARK    2  A    between atoms: N7_15  and  N8_17 
ROOT
HETATM    1  N1  UNL     1     -26.394 -26.695  -3.256  1.00  0.00    -0.171 NA
HETATM    2  C1  UNL     1     -25.231 -26.691  -3.095  1.00  0.00     0.196 C 
HETATM    3  N2  UNL     1     -23.843 -26.661  -2.899  1.00  0.00    -0.124 N 
ATOM      4  H2  UNL     1     -23.277 -25.997  -3.428  1.00  0.00     0.197 HD
HETATM    5  C2  UNL     1     -23.273 -27.449  -2.070  1.00  0.00     0.713 C 
HETATM    6  N3  UNL     1     -24.040 -28.371  -1.331  1.00  0.00    -0.160 N 
ATOM      7  H3  UNL     1     -23.919 -29.364  -1.531  1.00  0.00     0.187 HD
HETATM    8  C3  UNL     1     -24.963 -28.006  -0.333  1.00  0.00     0.221 C 
HETATM    9  N4  UNL     1     -26.058 -28.853  -0.031  1.00  0.00    -0.061 NA
HETATM   10  N5  UNL     1     -24.852 -26.908   0.334  1.00  0.00    -0.280 N 
ATOM     11  H5  UNL     1     -24.068 -26.289   0.128  1.00  0.00     0.189 HD
HETATM   12  N7  UNL     1     -21.872 -27.402  -1.887  1.00  0.00    -0.071 N 
ATOM     13  H7  UNL     1     -21.317 -26.818  -2.513  1.00  0.00     0.212 HD
ENDROOT
BRANCH  12  14
HETATM   14  N8  UNL     1     -21.219 -28.118  -0.893  1.00  0.00    -0.024 N 
HETATM   15  O1  UNL     1     -20.356 -28.942  -1.194  1.00  0.00    -0.516 OA
HETATM   16  O2  UNL     1     -21.539 -27.903   0.410  1.00  0.00    -0.516 OA
ENDBRANCH  12  14
BRANCH  10  17
HETATM   17  N6  UNL     1     -25.748 -26.536   1.317  1.00  0.00    -0.343 N 
ATOM     18  H62 UNL     1     -26.352 -27.261   1.705  1.00  0.00     0.176 HD
ATOM     19  H61 UNL     1     -25.824 -25.578   1.660  1.00  0.00     0.176 HD
ENDBRANCH  10  17
TORSDOF 2
ENDMDL
MODEL 5
REMARK VINA RESULT: -6.224342970      1.844      2.899
REMARK  2 active torsions:
REMARK  status: ('A' for Active; 'I' for Inactive)
REMARK       I    between atoms: C2_5  and  N3_6 
REMARK       I    between atoms: C2_5  and  N7_15 
REMARK       I    between atoms: N3_6  and  C3_8 
REMARK    1  A    between atoms: N5_10  and  N6_12 
REMARK    2  A    between atoms: N7_15  and  N8_17 
ROOT
HETATM    1  N1  UNL     1     -24.782 -26.526  -3.410  1.00  0.00    -0.171 NA
HETATM    2  C1  UNL     1     -24.803 -26.541  -2.236  1.00  0.00     0.196 C 
HETATM    3  N2  UNL     1     -24.854 -26.558  -0.835  1.00  0.00    -0.124 N 
ATOM      4  H2  UNL     1     -25.421 -25.866  -0.346  1.00  0.00     0.197 HD
HETATM    5  C2  UNL     1     -24.203 -27.425  -0.159  1.00  0.00     0.713 C 
HETATM    6  N3  UNL     1     -23.415 -28.389  -0.819  1.00  0.00    -0.160 N 
ATOM      7  H3  UNL     1     -22.402 -28.334  -0.711  1.00  0.00     0.187 HD
HETATM    8  C3  UNL     1     -23.939 -29.422  -1.618  1.00  0.00     0.221 C 
HETATM    9  N4  UNL     1     -23.159 -29.985  -2.658  1.00  0.00    -0.061 NA
HETATM   10  N5  UNL     1     -25.128 -29.889  -1.439  1.00  0.00    -0.280 N 
ATOM     11  H5  UNL     1     -25.701 -29.493  -0.694  1.00  0.00     0.189 HD
HETATM   12  N7  UNL     1     -24.267 -27.425   1.253  1.00  0.00    -0.071 N 
ATOM     13  H7  UNL     1     -24.741 -26.652   1.720  1.00  0.00     0.212 HD
ENDROOT
BRANCH  12  14
HETATM   14  N8  UNL     1     -23.713 -28.433   2.031  1.00  0.00    -0.024 N 
HETATM   15  O1  UNL     1     -22.503 -28.653   1.982  1.00  0.00    -0.516 OA
HETATM   16  O2  UNL     1     -24.513 -29.171   2.843  1.00  0.00    -0.516 OA
ENDBRANCH  12  14
BRANCH  10  17
HETATM   17  N6  UNL     1     -25.658 -30.902  -2.214  1.00  0.00    -0.343 N 
ATOM     18  H62 UNL     1     -25.437 -31.863  -1.950  1.00  0.00     0.176 HD
ATOM     19  H61 UNL     1     -26.251 -30.725  -3.025  1.00  0.00     0.176 HD
ENDBRANCH  10  17
TORSDOF 2
ENDMDL
