MODEL 1
REMARK VINA RESULT: -7.000360256      0.000      0.000
REMARK  5 active torsions:
REMARK  status: ('A' for Active; 'I' for Inactive)
REMARK    1  A    between atoms: N1_2  and  C2_4 
REMARK    2  A    between atoms: C3_7  and  N3_8 
REMARK    3  A    between atoms: C4_13  and  N5_14 
REMARK       I    between atoms: N5_14  and  C5_16 
REMARK    4  A    between atoms: N7_18  and  N8_20 
REMARK    5  A    between atoms: N8_20  and  O1_22 
ROOT
HETATM    1  C2  UNL     1     -25.679 -26.942  -5.063  1.00  0.00     0.706 A 
HETATM    2  N2  UNL     1     -26.067 -25.688  -4.767  1.00  0.00    -0.022 N 
ATOM      3  H2  UNL     1     -26.466 -25.108  -5.505  1.00  0.00     0.203 HD
HETATM    4  C3  UNL     1     -25.944 -25.176  -3.529  1.00  0.00     0.705 A 
HETATM    5  N4  UNL     1     -25.418 -25.916  -2.521  1.00  0.00    -0.021 N 
ATOM      6  H4  UNL     1     -25.323 -25.533  -1.581  1.00  0.00     0.203 HD
HETATM    7  C4  UNL     1     -25.028 -27.168  -2.805  1.00  0.00     0.713 A 
HETATM    8  N9  UNL     1     -25.156 -27.666  -4.043  1.00  0.00    -0.021 N 
ATOM      9  H9  UNL     1     -24.849 -28.623  -4.224  1.00  0.00     0.203 HD
ENDROOT
BRANCH   7  10
HETATM   10  N5  UNL     1     -24.528 -27.856  -1.826  1.00  0.00    -0.161 N 
HETATM   11  C5  UNL     1     -23.151 -28.060  -1.643  1.00  0.00     0.223 C 
HETATM   12  N6  UNL     1     -22.541 -29.281  -2.046  1.00  0.00    -0.061 NA
HETATM   13  N7  UNL     1     -22.454 -27.112  -1.101  1.00  0.00    -0.253 N 
ATOM     14  H7  UNL     1     -22.904 -26.241  -0.817  1.00  0.00     0.191 HD
ATOM     15  H5  UNL     1     -25.170 -28.272  -1.152  1.00  0.00     0.187 HD
BRANCH  13  16
HETATM   16  N8  UNL     1     -21.082 -27.293  -0.909  1.00  0.00    -0.208 N 
ATOM     17  H8  UNL     1     -20.416 -26.646  -1.330  1.00  0.00     0.215 HD
BRANCH  16  18
HETATM   18  O1  UNL     1     -20.679 -28.251  -0.219  1.00  0.00    -0.274 OA
ATOM     19  H1  UNL     1     -20.162 -28.937  -0.626  1.00  0.00     0.246 HD
ENDBRANCH  16  18
ENDBRANCH  13  16
ENDBRANCH   7  10
BRANCH   4  20
HETATM   20  N3  UNL     1     -26.332 -23.961  -3.292  1.00  0.00    -0.234 N 
ATOM     21  H32 UNL     1     -27.183 -23.612  -3.732  1.00  0.00     0.174 HD
ATOM     22  H31 UNL     1     -25.785 -23.365  -2.670  1.00  0.00     0.174 HD
ENDBRANCH   4  20
BRANCH   1  23
HETATM   23  N1  UNL     1     -25.823 -27.364  -6.249  1.00  0.00    -0.229 N 
HETATM   24  C1  UNL     1     -25.154 -28.492  -6.830  1.00  0.00     0.165 C 
ATOM     25  H1  UNL     1     -26.475 -26.854  -6.846  1.00  0.00     0.177 HD
ENDBRANCH   1  23
TORSDOF 5
ENDMDL
MODEL 2
REMARK VINA RESULT: -6.821452986      1.431      1.700
REMARK  5 active torsions:
REMARK  status: ('A' for Active; 'I' for Inactive)
REMARK    1  A    between atoms: N1_2  and  C2_4 
REMARK    2  A    between atoms: C3_7  and  N3_8 
REMARK    3  A    between atoms: C4_13  and  N5_14 
REMARK       I    between atoms: N5_14  and  C5_16 
REMARK    4  A    between atoms: N7_18  and  N8_20 
REMARK    5  A    between atoms: N8_20  and  O1_22 
ROOT
HETATM    1  C2  UNL     1     -25.256 -28.323  -3.939  1.00  0.00     0.706 A 
HETATM    2  N2  UNL     1     -25.853 -27.266  -4.519  1.00  0.00    -0.022 N 
ATOM      3  H2  UNL     1     -26.313 -27.392  -5.420  1.00  0.00     0.203 HD
HETATM    4  C3  UNL     1     -25.862 -26.048  -3.946  1.00  0.00     0.705 A 
HETATM    5  N4  UNL     1     -25.262 -25.841  -2.749  1.00  0.00    -0.021 N 
ATOM      6  H4  UNL     1     -25.266 -24.920  -2.309  1.00  0.00     0.203 HD
HETATM    7  C4  UNL     1     -24.663 -26.888  -2.161  1.00  0.00     0.713 A 
HETATM    8  N9  UNL     1     -24.661 -28.096  -2.742  1.00  0.00    -0.021 N 
ATOM      9  H9  UNL     1     -24.197 -28.871  -2.267  1.00  0.00     0.203 HD
ENDROOT
BRANCH   7  10
HETATM   10  N5  UNL     1     -24.095 -26.666  -1.016  1.00  0.00    -0.161 N 
HETATM   11  C5  UNL     1     -23.063 -27.461  -0.494  1.00  0.00     0.223 C 
HETATM   12  N6  UNL     1     -23.339 -28.450   0.491  1.00  0.00    -0.061 NA
HETATM   13  N7  UNL     1     -21.858 -27.271  -0.930  1.00  0.00    -0.253 N 
ATOM     14  H7  UNL     1     -21.673 -26.558  -1.637  1.00  0.00     0.191 HD
ATOM     15  H5  UNL     1     -24.416 -25.870  -0.465  1.00  0.00     0.187 HD
BRANCH  13  16
HETATM   16  N8  UNL     1     -20.815 -28.050  -0.425  1.00  0.00    -0.208 N 
ATOM     17  H8  UNL     1     -20.317 -27.758   0.417  1.00  0.00     0.215 HD
BRANCH  16  18
HETATM   18  O1  UNL     1     -20.496 -29.106  -1.009  1.00  0.00    -0.274 OA
ATOM     19  H1  UNL     1     -20.323 -29.889  -0.499  1.00  0.00     0.246 HD
ENDBRANCH  16  18
ENDBRANCH  13  16
ENDBRANCH   7  10
BRANCH   4  20
HETATM   20  N3  UNL     1     -26.451 -25.058  -4.544  1.00  0.00    -0.234 N 
ATOM     21  H32 UNL     1     -27.382 -25.193  -4.936  1.00  0.00     0.174 HD
ATOM     22  H31 UNL     1     -25.980 -24.157  -4.617  1.00  0.00     0.174 HD
ENDBRANCH   4  20
BRANCH   1  23
HETATM   23  N1  UNL     1     -25.285 -29.443  -4.531  1.00  0.00    -0.229 N 
HETATM   24  C1  UNL     1     -24.174 -30.334  -4.704  1.00  0.00     0.165 C 
ATOM     25  H1  UNL     1     -26.180 -29.738  -4.922  1.00  0.00     0.177 HD
ENDBRANCH   1  23
TORSDOF 5
ENDMDL
MODEL 3
REMARK VINA RESULT: -6.800892668      1.900      2.264
REMARK  5 active torsions:
REMARK  status: ('A' for Active; 'I' for Inactive)
REMARK    1  A    between atoms: N1_2  and  C2_4 
REMARK    2  A    between atoms: C3_7  and  N3_8 
REMARK    3  A    between atoms: C4_13  and  N5_14 
REMARK       I    between atoms: N5_14  and  C5_16 
REMARK    4  A    between atoms: N7_18  and  N8_20 
REMARK    5  A    between atoms: N8_20  and  O1_22 
ROOT
HETATM    1  C2  UNL     1     -25.732 -26.889  -5.356  1.00  0.00     0.706 A 
HETATM    2  N2  UNL     1     -26.099 -25.638  -5.026  1.00  0.00    -0.022 N 
ATOM      3  H2  UNL     1     -26.527 -25.045  -5.737  1.00  0.00     0.203 HD
HETATM    4  C3  UNL     1     -25.921 -25.144  -3.787  1.00  0.00     0.705 A 
HETATM    5  N4  UNL     1     -25.357 -25.901  -2.814  1.00  0.00    -0.021 N 
ATOM      6  H4  UNL     1     -25.219 -25.533  -1.872  1.00  0.00     0.203 HD
HETATM    7  C4  UNL     1     -24.986 -27.151  -3.132  1.00  0.00     0.713 A 
HETATM    8  N9  UNL     1     -25.169 -27.631  -4.370  1.00  0.00    -0.021 N 
ATOM      9  H9  UNL     1     -24.876 -28.586  -4.578  1.00  0.00     0.203 HD
ENDROOT
BRANCH   7  10
HETATM   10  N5  UNL     1     -24.448 -27.856  -2.185  1.00  0.00    -0.161 N 
HETATM   11  C5  UNL     1     -24.244 -27.378  -0.881  1.00  0.00     0.223 C 
HETATM   12  N6  UNL     1     -22.962 -26.917  -0.472  1.00  0.00    -0.061 NA
HETATM   13  N7  UNL     1     -25.250 -27.369  -0.064  1.00  0.00    -0.253 N 
ATOM     14  H7  UNL     1     -26.165 -27.702  -0.370  1.00  0.00     0.191 HD
ATOM     15  H5  UNL     1     -24.158 -28.810  -2.399  1.00  0.00     0.187 HD
BRANCH  13  16
HETATM   16  N8  UNL     1     -25.071 -26.898   1.239  1.00  0.00    -0.208 N 
ATOM     17  H8  UNL     1     -24.249 -27.176   1.776  1.00  0.00     0.215 HD
BRANCH  16  18
HETATM   18  O1  UNL     1     -25.922 -26.136   1.741  1.00  0.00    -0.274 OA
ATOM     19  H1  UNL     1     -26.827 -26.419   1.801  1.00  0.00     0.246 HD
ENDBRANCH  16  18
ENDBRANCH  13  16
ENDBRANCH   7  10
BRANCH   4  20
HETATM   20  N3  UNL     1     -26.292 -23.930  -3.516  1.00  0.00    -0.234 N 
ATOM     21  H32 UNL     1     -26.358 -23.247  -4.269  1.00  0.00     0.174 HD
ATOM     22  H31 UNL     1     -26.513 -23.670  -2.555  1.00  0.00     0.174 HD
ENDBRANCH   4  20
BRANCH   1  23
HETATM   23  N1  UNL     1     -25.929 -27.292  -6.542  1.00  0.00    -0.229 N 
HETATM   24  C1  UNL     1     -25.280 -28.406  -7.172  1.00  0.00     0.165 C 
ATOM     25  H1  UNL     1     -26.611 -26.777  -7.098  1.00  0.00     0.177 HD
ENDBRANCH   1  23
TORSDOF 5
ENDMDL
MODEL 4
REMARK VINA RESULT: -6.628926362      3.469      5.425
REMARK  5 active torsions:
REMARK  status: ('A' for Active; 'I' for Inactive)
REMARK    1  A    between atoms: N1_2  and  C2_4 
REMARK    2  A    between atoms: C3_7  and  N3_8 
REMARK    3  A    between atoms: C4_13  and  N5_14 
REMARK       I    between atoms: N5_14  and  C5_16 
REMARK    4  A    between atoms: N7_18  and  N8_20 
REMARK    5  A    between atoms: N8_20  and  O1_22 
ROOT
HETATM    1  C2  UNL     1     -24.249 -27.581  -0.482  1.00  0.00     0.706 A 
HETATM    2  N2  UNL     1     -22.946 -27.589  -0.146  1.00  0.00    -0.022 N 
ATOM      3  H2  UNL     1     -22.634 -27.014   0.636  1.00  0.00     0.203 HD
HETATM    4  C3  UNL     1     -22.042 -28.332  -0.812  1.00  0.00     0.705 A 
HETATM    5  N4  UNL     1     -22.418 -29.110  -1.856  1.00  0.00    -0.021 N 
ATOM      6  H4  UNL     1     -21.738 -29.676  -2.364  1.00  0.00     0.203 HD
HETATM    7  C4  UNL     1     -23.715 -29.109  -2.200  1.00  0.00     0.713 A 
HETATM    8  N9  UNL     1     -24.606 -28.364  -1.529  1.00  0.00    -0.021 N 
ATOM      9  H9  UNL     1     -25.585 -28.388  -1.817  1.00  0.00     0.203 HD
ENDROOT
BRANCH   7  10
HETATM   10  N5  UNL     1     -24.051 -29.861  -3.202  1.00  0.00    -0.161 N 
HETATM   11  C5  UNL     1     -23.572 -31.167  -3.389  1.00  0.00     0.223 C 
HETATM   12  N6  UNL     1     -22.510 -31.424  -4.301  1.00  0.00    -0.061 NA
HETATM   13  N7  UNL     1     -24.119 -32.126  -2.712  1.00  0.00    -0.253 N 
ATOM     14  H7  UNL     1     -24.879 -31.928  -2.061  1.00  0.00     0.191 HD
ATOM     15  H5  UNL     1     -24.699 -29.482  -3.893  1.00  0.00     0.187 HD
BRANCH  13  16
HETATM   16  N8  UNL     1     -23.658 -33.434  -2.882  1.00  0.00    -0.208 N 
ATOM     17  H8  UNL     1     -24.254 -34.135  -3.322  1.00  0.00     0.215 HD
BRANCH  16  18
HETATM   18  O1  UNL     1     -22.513 -33.739  -2.491  1.00  0.00    -0.274 OA
ATOM     19  H1  UNL     1     -21.763 -33.545  -3.041  1.00  0.00     0.246 HD
ENDBRANCH  16  18
ENDBRANCH  13  16
ENDBRANCH   7  10
BRANCH   4  20
HETATM   20  N3  UNL     1     -20.796 -28.307  -0.451  1.00  0.00    -0.234 N 
ATOM     21  H32 UNL     1     -20.292 -27.421  -0.450  1.00  0.00     0.174 HD
ATOM     22  H31 UNL     1     -20.331 -29.171  -0.173  1.00  0.00     0.174 HD
ENDBRANCH   4  20
BRANCH   1  23
HETATM   23  N1  UNL     1     -25.048 -26.859   0.187  1.00  0.00    -0.229 N 
HETATM   24  C1  UNL     1     -25.464 -27.092   1.539  1.00  0.00     0.165 C 
ATOM     25  H1  UNL     1     -25.431 -26.037  -0.280  1.00  0.00     0.177 HD
ENDBRANCH   1  23
TORSDOF 5
ENDMDL
MODEL 5
REMARK VINA RESULT: -6.616827496      3.029      4.257
REMARK  5 active torsions:
REMARK  status: ('A' for Active; 'I' for Inactive)
REMARK    1  A    between atoms: N1_2  and  C2_4 
REMARK    2  A    between atoms: C3_7  and  N3_8 
REMARK    3  A    between atoms: C4_13  and  N5_14 
REMARK       I    between atoms: N5_14  and  C5_16 
REMARK    4  A    between atoms: N7_18  and  N8_20 
REMARK    5  A    between atoms: N8_20  and  O1_22 
ROOT
HETATM    1  C2  UNL     1     -25.000 -26.844  -2.062  1.00  0.00     0.706 A 
HETATM    2  N2  UNL     1     -23.708 -26.961  -2.421  1.00  0.00    -0.022 N 
ATOM      3  H2  UNL     1     -23.457 -26.853  -3.403  1.00  0.00     0.203 HD
HETATM    4  C3  UNL     1     -22.739 -27.218  -1.523  1.00  0.00     0.705 A 
HETATM    5  N4  UNL     1     -23.033 -27.368  -0.208  1.00  0.00    -0.021 N 
ATOM      6  H4  UNL     1     -22.302 -27.562   0.476  1.00  0.00     0.203 HD
HETATM    7  C4  UNL     1     -24.318 -27.253   0.160  1.00  0.00     0.713 A 
HETATM    8  N9  UNL     1     -25.274 -26.997  -0.743  1.00  0.00    -0.021 N 
ATOM      9  H9  UNL     1     -26.242 -26.916  -0.428  1.00  0.00     0.203 HD
ENDROOT
BRANCH   7  10
HETATM   10  N5  UNL     1     -24.575 -27.401   1.423  1.00  0.00    -0.161 N 
HETATM   11  C5  UNL     1     -24.301 -28.577   2.139  1.00  0.00     0.223 C 
HETATM   12  N6  UNL     1     -25.335 -29.515   2.413  1.00  0.00    -0.061 NA
HETATM   13  N7  UNL     1     -23.087 -28.784   2.542  1.00  0.00    -0.253 N 
ATOM     14  H7  UNL     1     -22.354 -28.103   2.338  1.00  0.00     0.191 HD
ATOM     15  H5  UNL     1     -25.000 -26.621   1.923  1.00  0.00     0.187 HD
BRANCH  13  16
HETATM   16  N8  UNL     1     -22.791 -29.947   3.257  1.00  0.00    -0.208 N 
ATOM     17  H8  UNL     1     -22.167 -30.649   2.858  1.00  0.00     0.215 HD
BRANCH  16  18
HETATM   18  O1  UNL     1     -23.293 -30.120   4.386  1.00  0.00    -0.274 OA
ATOM     19  H1  UNL     1     -23.915 -30.826   4.518  1.00  0.00     0.246 HD
ENDBRANCH  16  18
ENDBRANCH  13  16
ENDBRANCH   7  10
BRANCH   4  20
HETATM   20  N3  UNL     1     -21.506 -27.323  -1.917  1.00  0.00    -0.234 N 
ATOM     21  H32 UNL     1     -21.262 -27.062  -2.871  1.00  0.00     0.174 HD
ATOM     22  H31 UNL     1     -20.795 -27.665  -1.271  1.00  0.00     0.174 HD
ENDBRANCH   4  20
BRANCH   1  23
HETATM   23  N1  UNL     1     -25.863 -26.600  -2.957  1.00  0.00    -0.229 N 
HETATM   24  C1  UNL     1     -25.954 -25.399  -3.736  1.00  0.00     0.165 C 
ATOM     25  H1  UNL     1     -26.557 -27.325  -3.140  1.00  0.00     0.177 HD
ENDBRANCH   1  23
TORSDOF 5
ENDMDL
