MODEL 1
REMARK VINA RESULT: -6.265720646      0.000      0.000
REMARK  4 active torsions:
REMARK  status: ('A' for Active; 'I' for Inactive)
REMARK    1  A    between atoms: C2_2  and  N1_3 
REMARK    2  A    between atoms: C3_5  and  C4_7 
REMARK    3  A    between atoms: C5_8  and  C6_9 
REMARK    4  A    between atoms: C6_9  and  O1_10 
ROOT
HETATM    1  C6  UNL     1     -25.035 -27.467   0.479  1.00  0.00     0.299 C 
HETATM    2  N3  UNL     1     -23.756 -27.929   1.002  1.00  0.00    -0.065 NA
HETATM    3  N4  UNL     1     -24.075 -28.779   2.062  1.00  0.00    -0.272 N 
ATOM      4  H4  UNL     1     -23.408 -29.084   2.770  1.00  0.00     0.185 HD
HETATM    5  C7  UNL     1     -25.316 -29.131   2.039  1.00  0.00     0.204 C 
HETATM    6  N5  UNL     1     -25.917 -29.996   3.003  1.00  0.00    -0.062 NA
HETATM    7  N6  UNL     1     -25.908 -28.512   0.914  1.00  0.00    -0.306 N 
ATOM      8  H6  UNL     1     -26.800 -28.765   0.489  1.00  0.00     0.167 HD
ENDROOT
BRANCH   1   9
HETATM    9  C5  UNL     1     -25.057 -27.410  -0.970  1.00  0.00    -0.017 C 
HETATM   10  C4  UNL     1     -25.096 -27.363  -2.175  1.00  0.00    -0.027 C 
BRANCH  10  11
HETATM   11  C3  UNL     1     -25.168 -27.312  -3.626  1.00  0.00     0.167 C 
HETATM   12  N1  UNL     1     -25.480 -26.193  -4.186  1.00  0.00    -0.372 N 
ATOM     13  H1  UNL     1     -25.669 -25.368  -3.617  1.00  0.00     0.161 HD
HETATM   14  N2  UNL     1     -24.893 -28.495  -4.368  1.00  0.00    -0.073 NA
BRANCH  12  15
HETATM   15  C2  UNL     1     -25.558 -26.122  -5.628  1.00  0.00     0.117 C 
HETATM   16  C1  UNL     1     -26.991 -26.058  -6.100  1.00  0.00     0.026 C 
ENDBRANCH  12  15
ENDBRANCH  10  11
ENDBRANCH   1   9
BRANCH   1  17
HETATM   17  O1  UNL     1     -25.440 -26.283   1.070  1.00  0.00    -0.346 OA
ATOM     18  H1  UNL     1     -25.595 -26.370   2.004  1.00  0.00     0.215 HD
ENDBRANCH   1  17
TORSDOF 4
ENDMDL
MODEL 2
REMARK VINA RESULT: -6.184999102      1.157      1.585
REMARK  4 active torsions:
REMARK  status: ('A' for Active; 'I' for Inactive)
REMARK    1  A    between atoms: C2_2  and  N1_3 
REMARK    2  A    between atoms: C3_5  and  C4_7 
REMARK    3  A    between atoms: C5_8  and  C6_9 
REMARK    4  A    between atoms: C6_9  and  O1_10 
ROOT
HETATM    1  C6  UNL     1     -25.024 -27.453   0.414  1.00  0.00     0.299 C 
HETATM    2  N3  UNL     1     -23.759 -27.935   0.950  1.00  0.00    -0.065 NA
HETATM    3  N4  UNL     1     -24.103 -28.777   2.009  1.00  0.00    -0.272 N 
ATOM      4  H4  UNL     1     -23.447 -29.092   2.724  1.00  0.00     0.185 HD
HETATM    5  C7  UNL     1     -25.349 -29.108   1.975  1.00  0.00     0.204 C 
HETATM    6  N5  UNL     1     -25.974 -29.960   2.936  1.00  0.00    -0.062 NA
HETATM    7  N6  UNL     1     -25.920 -28.481   0.843  1.00  0.00    -0.306 N 
ATOM      8  H6  UNL     1     -26.812 -28.720   0.411  1.00  0.00     0.167 HD
ENDROOT
BRANCH   1   9
HETATM    9  C5  UNL     1     -25.032 -27.400  -1.035  1.00  0.00    -0.017 C 
HETATM   10  C4  UNL     1     -25.059 -27.356  -2.241  1.00  0.00    -0.027 C 
BRANCH  10  11
HETATM   11  C3  UNL     1     -25.116 -27.311  -3.693  1.00  0.00     0.167 C 
HETATM   12  N1  UNL     1     -25.188 -28.425  -4.339  1.00  0.00    -0.372 N 
ATOM     13  H1  UNL     1     -25.205 -29.312  -3.835  1.00  0.00     0.161 HD
HETATM   14  N2  UNL     1     -25.090 -26.045  -4.341  1.00  0.00    -0.073 NA
BRANCH  12  15
HETATM   15  C2  UNL     1     -25.246 -28.402  -5.784  1.00  0.00     0.117 C 
HETATM   16  C1  UNL     1     -24.441 -29.530  -6.385  1.00  0.00     0.026 C 
ENDBRANCH  12  15
ENDBRANCH  10  11
ENDBRANCH   1   9
BRANCH   1  17
HETATM   17  O1  UNL     1     -25.415 -26.260   0.998  1.00  0.00    -0.346 OA
ATOM     18  H1  UNL     1     -26.182 -26.353   1.550  1.00  0.00     0.215 HD
ENDBRANCH   1  17
TORSDOF 4
ENDMDL
MODEL 3
REMARK VINA RESULT: -6.181863210      2.315      2.832
REMARK  4 active torsions:
REMARK  status: ('A' for Active; 'I' for Inactive)
REMARK    1  A    between atoms: C2_2  and  N1_3 
REMARK    2  A    between atoms: C3_5  and  C4_7 
REMARK    3  A    between atoms: C5_8  and  C6_9 
REMARK    4  A    between atoms: C6_9  and  O1_10 
ROOT
HETATM    1  C6  UNL     1     -23.315 -27.400  -1.732  1.00  0.00     0.299 C 
HETATM    2  N3  UNL     1     -23.602 -28.801  -1.458  1.00  0.00    -0.065 NA
HETATM    3  N4  UNL     1     -23.427 -28.952  -0.081  1.00  0.00    -0.272 N 
ATOM      4  H4  UNL     1     -23.335 -29.853   0.388  1.00  0.00     0.185 HD
HETATM    5  C7  UNL     1     -23.397 -27.814   0.527  1.00  0.00     0.204 C 
HETATM    6  N5  UNL     1     -23.230 -27.669   1.938  1.00  0.00    -0.062 NA
HETATM    7  N6  UNL     1     -23.560 -26.808  -0.454  1.00  0.00    -0.306 N 
ATOM      8  H6  UNL     1     -23.808 -25.835  -0.280  1.00  0.00     0.167 HD
ENDROOT
BRANCH   1   9
HETATM    9  C5  UNL     1     -24.228 -26.822  -2.699  1.00  0.00    -0.017 C 
HETATM   10  C4  UNL     1     -24.998 -26.333  -3.488  1.00  0.00    -0.027 C 
BRANCH  10  11
HETATM   11  C3  UNL     1     -25.943 -25.738  -4.420  1.00  0.00     0.167 C 
HETATM   12  N1  UNL     1     -26.306 -26.426  -5.448  1.00  0.00    -0.372 N 
ATOM     13  H1  UNL     1     -25.935 -27.365  -5.598  1.00  0.00     0.161 HD
HETATM   14  N2  UNL     1     -26.427 -24.425  -4.161  1.00  0.00    -0.073 NA
BRANCH  12  15
HETATM   15  C2  UNL     1     -27.244 -25.852  -6.388  1.00  0.00     0.117 C 
HETATM   16  C1  UNL     1     -27.105 -26.476  -7.756  1.00  0.00     0.026 C 
ENDBRANCH  12  15
ENDBRANCH  10  11
ENDBRANCH   1   9
BRANCH   1  17
HETATM   17  O1  UNL     1     -21.985 -27.197  -2.060  1.00  0.00    -0.346 OA
ATOM     18  H1  UNL     1     -21.853 -27.037  -2.987  1.00  0.00     0.215 HD
ENDBRANCH   1  17
TORSDOF 4
ENDMDL
MODEL 4
REMARK VINA RESULT: -6.099789162      1.575      1.854
REMARK  4 active torsions:
REMARK  status: ('A' for Active; 'I' for Inactive)
REMARK    1  A    between atoms: C2_2  and  N1_3 
REMARK    2  A    between atoms: C3_5  and  C4_7 
REMARK    3  A    between atoms: C5_8  and  C6_9 
REMARK    4  A    between atoms: C6_9  and  O1_10 
ROOT
HETATM    1  C6  UNL     1     -23.679 -27.983   1.497  1.00  0.00     0.299 C 
HETATM    2  N3  UNL     1     -22.339 -28.553   1.506  1.00  0.00    -0.065 NA
HETATM    3  N4  UNL     1     -22.285 -29.354   2.648  1.00  0.00    -0.272 N 
ATOM      4  H4  UNL     1     -21.421 -29.709   3.056  1.00  0.00     0.185 HD
HETATM    5  C7  UNL     1     -23.460 -29.590   3.125  1.00  0.00     0.204 C 
HETATM    6  N5  UNL     1     -23.704 -30.381   4.289  1.00  0.00    -0.062 NA
HETATM    7  N6  UNL     1     -24.393 -28.934   2.288  1.00  0.00    -0.306 N 
ATOM      8  H6  UNL     1     -25.397 -29.110   2.255  1.00  0.00     0.167 HD
ENDROOT
BRANCH   1   9
HETATM    9  C5  UNL     1     -24.260 -27.945   0.169  1.00  0.00    -0.017 C 
HETATM   10  C4  UNL     1     -24.737 -27.893  -0.938  1.00  0.00    -0.027 C 
BRANCH  10  11
HETATM   11  C3  UNL     1     -25.310 -27.806  -2.272  1.00  0.00     0.167 C 
HETATM   12  N1  UNL     1     -25.698 -26.652  -2.698  1.00  0.00    -0.372 N 
ATOM     13  H1  UNL     1     -25.602 -25.826  -2.107  1.00  0.00     0.161 HD
HETATM   14  N2  UNL     1     -25.419 -28.992  -3.051  1.00  0.00    -0.073 NA
BRANCH  12  15
HETATM   15  C2  UNL     1     -26.271 -26.543  -4.021  1.00  0.00     0.117 C 
HETATM   16  C1  UNL     1     -25.475 -25.598  -4.890  1.00  0.00     0.026 C 
ENDBRANCH  12  15
ENDBRANCH  10  11
ENDBRANCH   1   9
BRANCH   1  17
HETATM   17  O1  UNL     1     -23.725 -26.757   2.139  1.00  0.00    -0.346 OA
ATOM     18  H1  UNL     1     -23.861 -26.836   3.077  1.00  0.00     0.215 HD
ENDBRANCH   1  17
TORSDOF 4
ENDMDL
MODEL 5
REMARK VINA RESULT: -6.051323863      2.559      3.300
REMARK  4 active torsions:
REMARK  status: ('A' for Active; 'I' for Inactive)
REMARK    1  A    between atoms: C2_2  and  N1_3 
REMARK    2  A    between atoms: C3_5  and  C4_7 
REMARK    3  A    between atoms: C5_8  and  C6_9 
REMARK    4  A    between atoms: C6_9  and  O1_10 
ROOT
HETATM    1  C6  UNL     1     -24.029 -27.751  -1.442  1.00  0.00     0.299 C 
HETATM    2  N3  UNL     1     -23.929 -26.929  -0.244  1.00  0.00    -0.065 NA
HETATM    3  N4  UNL     1     -22.620 -27.093   0.210  1.00  0.00    -0.272 N 
ATOM      4  H4  UNL     1     -22.302 -26.831   1.143  1.00  0.00     0.185 HD
HETATM    5  C7  UNL     1     -21.861 -27.617  -0.692  1.00  0.00     0.204 C 
HETATM    6  N5  UNL     1     -20.474 -27.899  -0.500  1.00  0.00    -0.062 NA
HETATM    7  N6  UNL     1     -22.658 -27.833  -1.840  1.00  0.00    -0.306 N 
ATOM      8  H6  UNL     1     -22.316 -28.015  -2.783  1.00  0.00     0.167 HD
ENDROOT
BRANCH   1   9
HETATM    9  C5  UNL     1     -24.786 -27.108  -2.499  1.00  0.00    -0.017 C 
HETATM   10  C4  UNL     1     -25.410 -26.555  -3.370  1.00  0.00    -0.027 C 
BRANCH  10  11
HETATM   11  C3  UNL     1     -26.159 -25.865  -4.409  1.00  0.00     0.167 C 
HETATM   12  N1  UNL     1     -26.592 -26.552  -5.410  1.00  0.00    -0.372 N 
ATOM     13  H1  UNL     1     -26.410 -27.554  -5.466  1.00  0.00     0.161 HD
HETATM   14  N2  UNL     1     -26.383 -24.466  -4.279  1.00  0.00    -0.073 NA
BRANCH  12  15
HETATM   15  C2  UNL     1     -27.339 -25.885  -6.454  1.00  0.00     0.117 C 
HETATM   16  C1  UNL     1     -26.985 -26.430  -7.818  1.00  0.00     0.026 C 
ENDBRANCH  12  15
ENDBRANCH  10  11
ENDBRANCH   1   9
BRANCH   1  17
HETATM   17  O1  UNL     1     -24.479 -29.029  -1.158  1.00  0.00    -0.346 OA
ATOM     18  H1  UNL     1     -24.417 -29.617  -1.903  1.00  0.00     0.215 HD
ENDBRANCH   1  17
TORSDOF 4
ENDMDL
