MODEL 1
REMARK VINA RESULT: -6.603132025      0.000      0.000
REMARK  2 active torsions:
REMARK  status: ('A' for Active; 'I' for Inactive)
REMARK    1  A    between atoms: C7_13  and  N4_14 
REMARK    2  A    between atoms: N4_14  and  N5_16 
ROOT
HETATM    1  C1  UNL     1     -23.271 -28.926  -1.739  1.00  0.00     0.040 C 
HETATM    2  C2  UNL     1     -24.748 -28.618  -1.658  1.00  0.00     0.141 C 
HETATM    3  N1  UNL     1     -25.488 -28.955  -2.827  1.00  0.00    -0.409 N 
ATOM      4  H1  UNL     1     -26.508 -28.921  -2.829  1.00  0.00     0.154 HD
HETATM    5  C3  UNL     1     -24.771 -29.339  -3.984  1.00  0.00     0.133 C 
HETATM    6  C4  UNL     1     -25.012 -28.449  -5.164  1.00  0.00     0.133 C 
HETATM    7  N2  UNL     1     -26.144 -27.606  -5.079  1.00  0.00    -0.418 N 
ATOM      8  H2  UNL     1     -26.913 -27.703  -5.742  1.00  0.00     0.153 HD
HETATM    9  C5  UNL     1     -26.194 -26.626  -4.062  1.00  0.00     0.133 C 
HETATM   10  C6  UNL     1     -24.905 -26.249  -3.412  1.00  0.00     0.140 C 
HETATM   11  N3  UNL     1     -25.040 -26.245  -1.973  1.00  0.00    -0.375 N 
ATOM     12  H3  UNL     1     -25.204 -25.337  -1.540  1.00  0.00     0.160 HD
HETATM   13  C7  UNL     1     -24.979 -27.230  -1.191  1.00  0.00     0.114 C 
ENDROOT
BRANCH  13  14
HETATM   14  N4  UNL     1     -25.132 -27.036   0.210  1.00  0.00    -0.285 N 
ATOM     15  H4  UNL     1     -24.712 -26.237   0.685  1.00  0.00     0.188 HD
BRANCH  14  16
HETATM   16  N5  UNL     1     -25.886 -27.988   0.908  1.00  0.00    -0.275 N 
HETATM   17  C8  UNL     1     -25.275 -28.734   1.774  1.00  0.00     0.215 C 
HETATM   18  N6  UNL     1     -23.863 -28.595   2.021  1.00  0.00    -0.065 NA
HETATM   19  N7  UNL     1     -25.961 -29.715   2.517  1.00  0.00    -0.065 NA
ATOM     20  H5  UNL     1     -26.887 -28.091   0.740  1.00  0.00     0.189 HD
ENDBRANCH  14  16
ENDBRANCH  13  14
TORSDOF 2
ENDMDL
MODEL 2
REMARK VINA RESULT: -6.406123554      1.558      5.505
REMARK  2 active torsions:
REMARK  status: ('A' for Active; 'I' for Inactive)
REMARK    1  A    between atoms: C7_13  and  N4_14 
REMARK    2  A    between atoms: N4_14  and  N5_16 
ROOT
HETATM    1  C1  UNL     1     -22.917 -27.311  -1.630  1.00  0.00     0.040 C 
HETATM    2  C2  UNL     1     -24.224 -26.831  -1.044  1.00  0.00     0.141 C 
HETATM    3  N1  UNL     1     -24.310 -26.931   0.374  1.00  0.00    -0.409 N 
ATOM      4  H1  UNL     1     -25.085 -26.508   0.884  1.00  0.00     0.154 HD
HETATM    5  C3  UNL     1     -23.289 -27.634   1.056  1.00  0.00     0.133 C 
HETATM    6  C4  UNL     1     -23.787 -28.817   1.829  1.00  0.00     0.133 C 
HETATM    7  N2  UNL     1     -25.181 -28.859   2.062  1.00  0.00    -0.418 N 
ATOM      8  H2  UNL     1     -25.547 -28.828   3.013  1.00  0.00     0.153 HD
HETATM    9  C5  UNL     1     -26.058 -28.945   0.958  1.00  0.00     0.133 C 
HETATM   10  C6  UNL     1     -25.481 -29.406  -0.338  1.00  0.00     0.140 C 
HETATM   11  N3  UNL     1     -25.888 -28.535  -1.418  1.00  0.00    -0.375 N 
ATOM     12  H3  UNL     1     -26.681 -28.851  -1.976  1.00  0.00     0.160 HD
HETATM   13  C7  UNL     1     -25.380 -27.432  -1.751  1.00  0.00     0.114 C 
ENDROOT
BRANCH  13  14
HETATM   14  N4  UNL     1     -25.913 -26.707  -2.853  1.00  0.00    -0.285 N 
ATOM     15  H4  UNL     1     -26.344 -25.791  -2.728  1.00  0.00     0.188 HD
BRANCH  14  16
HETATM   16  N5  UNL     1     -25.821 -27.306  -4.116  1.00  0.00    -0.275 N 
HETATM   17  C8  UNL     1     -25.642 -26.538  -5.144  1.00  0.00     0.215 C 
HETATM   18  N6  UNL     1     -25.538 -25.108  -5.003  1.00  0.00    -0.065 NA
HETATM   19  N7  UNL     1     -25.539 -27.062  -6.448  1.00  0.00    -0.065 NA
ATOM     20  H5  UNL     1     -25.892 -28.318  -4.223  1.00  0.00     0.189 HD
ENDBRANCH  14  16
ENDBRANCH  13  14
TORSDOF 2
ENDMDL
MODEL 3
REMARK VINA RESULT: -6.290971232      1.703      5.318
REMARK  2 active torsions:
REMARK  status: ('A' for Active; 'I' for Inactive)
REMARK    1  A    between atoms: C7_13  and  N4_14 
REMARK    2  A    between atoms: N4_14  and  N5_16 
ROOT
HETATM    1  C1  UNL     1     -23.151 -29.181  -2.065  1.00  0.00     0.040 C 
HETATM    2  C2  UNL     1     -23.852 -27.888  -1.717  1.00  0.00     0.141 C 
HETATM    3  N1  UNL     1     -23.343 -27.232  -0.560  1.00  0.00    -0.409 N 
ATOM      4  H1  UNL     1     -23.645 -26.288  -0.318  1.00  0.00     0.154 HD
HETATM    5  C3  UNL     1     -22.406 -27.925   0.243  1.00  0.00     0.133 C 
HETATM    6  C4  UNL     1     -22.865 -28.138   1.652  1.00  0.00     0.133 C 
HETATM    7  N2  UNL     1     -23.955 -27.342   2.074  1.00  0.00    -0.418 N 
ATOM      8  H2  UNL     1     -23.844 -26.674   2.835  1.00  0.00     0.153 HD
HETATM    9  C5  UNL     1     -25.201 -27.487   1.423  1.00  0.00     0.133 C 
HETATM   10  C6  UNL     1     -25.419 -28.736   0.636  1.00  0.00     0.140 C 
HETATM   11  N3  UNL     1     -25.956 -28.430  -0.670  1.00  0.00    -0.375 N 
ATOM     12  H3  UNL     1     -26.966 -28.518  -0.773  1.00  0.00     0.160 HD
HETATM   13  C7  UNL     1     -25.323 -28.066  -1.697  1.00  0.00     0.114 C 
ENDROOT
BRANCH  13  14
HETATM   14  N4  UNL     1     -26.023 -27.810  -2.909  1.00  0.00    -0.285 N 
ATOM     15  H4  UNL     1     -26.279 -28.565  -3.545  1.00  0.00     0.188 HD
BRANCH  14  16
HETATM   16  N5  UNL     1     -26.344 -26.476  -3.191  1.00  0.00    -0.275 N 
HETATM   17  C8  UNL     1     -26.061 -26.016  -4.369  1.00  0.00     0.215 C 
HETATM   18  N6  UNL     1     -25.435 -26.844  -5.368  1.00  0.00    -0.065 NA
HETATM   19  N7  UNL     1     -26.352 -24.685  -4.731  1.00  0.00    -0.065 NA
ATOM     20  H5  UNL     1     -26.789 -25.883  -2.489  1.00  0.00     0.189 HD
ENDBRANCH  14  16
ENDBRANCH  13  14
TORSDOF 2
ENDMDL
MODEL 4
REMARK VINA RESULT: -6.217646204      1.670      5.428
REMARK  2 active torsions:
REMARK  status: ('A' for Active; 'I' for Inactive)
REMARK    1  A    between atoms: C7_13  and  N4_14 
REMARK    2  A    between atoms: N4_14  and  N5_16 
ROOT
HETATM    1  C1  UNL     1     -23.069 -27.902  -1.013  1.00  0.00     0.040 C 
HETATM    2  C2  UNL     1     -24.457 -27.365  -0.750  1.00  0.00     0.141 C 
HETATM    3  N1  UNL     1     -24.834 -27.345   0.623  1.00  0.00    -0.409 N 
ATOM      4  H1  UNL     1     -25.687 -26.875   0.925  1.00  0.00     0.154 HD
HETATM    5  C3  UNL     1     -23.991 -27.994   1.556  1.00  0.00     0.133 C 
HETATM    6  C4  UNL     1     -24.665 -29.103   2.304  1.00  0.00     0.133 C 
HETATM    7  N2  UNL     1     -26.078 -29.117   2.247  1.00  0.00    -0.418 N 
ATOM      8  H2  UNL     1     -26.630 -29.003   3.096  1.00  0.00     0.153 HD
HETATM    9  C5  UNL     1     -26.712 -29.290   0.997  1.00  0.00     0.133 C 
HETATM   10  C6  UNL     1     -25.893 -29.864  -0.111  1.00  0.00     0.140 C 
HETATM   11  N3  UNL     1     -26.050 -29.085  -1.318  1.00  0.00    -0.375 N 
ATOM     12  H3  UNL     1     -26.719 -29.441  -2.000  1.00  0.00     0.160 HD
HETATM   13  C7  UNL     1     -25.458 -28.017  -1.629  1.00  0.00     0.114 C 
ENDROOT
BRANCH  13  14
HETATM   14  N4  UNL     1     -25.737 -27.385  -2.872  1.00  0.00    -0.285 N 
ATOM     15  H4  UNL     1     -25.702 -27.901  -3.751  1.00  0.00     0.188 HD
BRANCH  14  16
HETATM   16  N5  UNL     1     -26.063 -26.023  -2.837  1.00  0.00    -0.275 N 
HETATM   17  C8  UNL     1     -25.957 -25.342  -3.935  1.00  0.00     0.215 C 
HETATM   18  N6  UNL     1     -25.520 -25.958  -5.161  1.00  0.00    -0.065 NA
HETATM   19  N7  UNL     1     -26.265 -23.968  -3.983  1.00  0.00    -0.065 NA
ATOM     20  H5  UNL     1     -26.374 -25.580  -1.973  1.00  0.00     0.189 HD
ENDBRANCH  14  16
ENDBRANCH  13  14
TORSDOF 2
ENDMDL
MODEL 5
REMARK VINA RESULT: -6.133372861      0.606      1.061
REMARK  2 active torsions:
REMARK  status: ('A' for Active; 'I' for Inactive)
REMARK    1  A    between atoms: C7_13  and  N4_14 
REMARK    2  A    between atoms: N4_14  and  N5_16 
ROOT
HETATM    1  C1  UNL     1     -23.332 -28.917  -1.919  1.00  0.00     0.040 C 
HETATM    2  C2  UNL     1     -24.788 -28.525  -1.821  1.00  0.00     0.141 C 
HETATM    3  N1  UNL     1     -25.573 -28.877  -2.956  1.00  0.00    -0.409 N 
ATOM      4  H1  UNL     1     -26.589 -28.787  -2.938  1.00  0.00     0.154 HD
HETATM    5  C3  UNL     1     -24.905 -29.353  -4.108  1.00  0.00     0.133 C 
HETATM    6  C4  UNL     1     -25.127 -28.508  -5.325  1.00  0.00     0.133 C 
HETATM    7  N2  UNL     1     -26.210 -27.602  -5.257  1.00  0.00    -0.418 N 
ATOM      8  H2  UNL     1     -26.998 -27.689  -5.897  1.00  0.00     0.153 HD
HETATM    9  C5  UNL     1     -26.184 -26.573  -4.288  1.00  0.00     0.133 C 
HETATM   10  C6  UNL     1     -24.861 -26.237  -3.685  1.00  0.00     0.140 C 
HETATM   11  N3  UNL     1     -24.961 -26.157  -2.245  1.00  0.00    -0.375 N 
ATOM     12  H3  UNL     1     -25.066 -25.222  -1.853  1.00  0.00     0.160 HD
HETATM   13  C7  UNL     1     -24.934 -27.106  -1.417  1.00  0.00     0.114 C 
ENDROOT
BRANCH  13  14
HETATM   14  N4  UNL     1     -25.043 -26.837  -0.025  1.00  0.00    -0.285 N 
ATOM     15  H4  UNL     1     -25.837 -26.323   0.358  1.00  0.00     0.188 HD
BRANCH  14  16
HETATM   16  N5  UNL     1     -24.013 -27.310   0.799  1.00  0.00    -0.275 N 
HETATM   17  C8  UNL     1     -24.289 -28.256   1.640  1.00  0.00     0.215 C 
HETATM   18  N6  UNL     1     -25.614 -28.815   1.732  1.00  0.00    -0.065 NA
HETATM   19  N7  UNL     1     -23.310 -28.786   2.503  1.00  0.00    -0.065 NA
ATOM     20  H5  UNL     1     -23.072 -26.920   0.739  1.00  0.00     0.189 HD
ENDBRANCH  14  16
ENDBRANCH  13  14
TORSDOF 2
ENDMDL
