MODEL 1
REMARK VINA RESULT: -6.067279070      0.000      0.000
REMARK  6 active torsions:
REMARK  status: ('A' for Active; 'I' for Inactive)
REMARK    1  A    between atoms: N1_1  and  C1_4 
REMARK    2  A    between atoms: C4_9  and  N3_10 
REMARK    3  A    between atoms: N3_10  and  S1_12 
REMARK    4  A    between atoms: S1_12  and  C5_14 
REMARK    5  A    between atoms: C5_14  and  N4_15 
REMARK    6  A    between atoms: C5_14  and  N5_19 
ROOT
HETATM    1  N3  UNL     1     -25.522 -28.243  -2.103  1.00  0.00    -0.288 N 
ATOM      2  H3  UNL     1     -26.072 -29.098  -2.189  1.00  0.00     0.178 HD
ENDROOT
BRANCH   1   3
HETATM    3  C4  UNL     1     -25.634 -27.358  -3.037  1.00  0.00     0.130 A 
HETATM    4  C3  UNL     1     -25.530 -27.748  -4.359  1.00  0.00     0.067 A 
HETATM    5  C2  UNL     1     -25.653 -26.786  -5.336  1.00  0.00     0.110 A 
HETATM    6  N2  UNL     1     -25.873 -25.487  -5.008  1.00  0.00    -0.202 N 
HETATM    7  C1  UNL     1     -25.970 -25.140  -3.706  1.00  0.00     0.677 A 
ATOM      8  H2  UNL     1     -25.963 -24.780  -5.737  1.00  0.00     0.183 HD
HETATM    9  N6  UNL     1     -25.852 -26.065  -2.737  1.00  0.00    -0.176 N 
ATOM     10  H6  UNL     1     -25.928 -25.782  -1.760  1.00  0.00     0.186 HD
BRANCH   7  11
HETATM   11  N1  UNL     1     -26.181 -23.884  -3.400  1.00  0.00    -0.234 N 
ATOM     12  H12 UNL     1     -26.564 -23.241  -4.093  1.00  0.00     0.174 HD
ATOM     13  H11 UNL     1     -25.956 -23.562  -2.459  1.00  0.00     0.174 HD
ENDBRANCH   7  11
ENDBRANCH   1   3
BRANCH   1  14
HETATM   14  S1  UNL     1     -24.520 -28.082  -0.742  1.00  0.00     0.175 S 
HETATM   15  O1  UNL     1     -25.115 -27.070   0.430  1.00  0.00    -0.232 OA
BRANCH  14  16
HETATM   16  C5  UNL     1     -22.868 -27.589  -1.139  1.00  0.00     0.490 C 
BRANCH  16  17
HETATM   17  N4  UNL     1     -22.229 -26.847  -0.093  1.00  0.00    -0.037 N 
ATOM     18  H43 UNL     1     -22.897 -26.235   0.376  1.00  0.00     0.277 HD
ATOM     19  H42 UNL     1     -21.985 -27.458   0.687  1.00  0.00     0.277 HD
ATOM     20  H41 UNL     1     -21.415 -26.320  -0.410  1.00  0.00     0.277 HD
ENDBRANCH  16  17
BRANCH  16  21
HETATM   21  N5  UNL     1     -22.050 -28.777  -1.397  1.00  0.00    -0.037 N 
ATOM     22  H53 UNL     1     -21.065 -28.619  -1.182  1.00  0.00     0.277 HD
ATOM     23  H52 UNL     1     -22.230 -29.522  -0.723  1.00  0.00     0.277 HD
ATOM     24  H51 UNL     1     -22.189 -29.086  -2.359  1.00  0.00     0.277 HD
ENDBRANCH  16  21
ENDBRANCH  14  16
ENDBRANCH   1  14
TORSDOF 6
ENDMDL
MODEL 2
REMARK VINA RESULT: -6.042403209      2.125      2.872
REMARK  6 active torsions:
REMARK  status: ('A' for Active; 'I' for Inactive)
REMARK    1  A    between atoms: N1_1  and  C1_4 
REMARK    2  A    between atoms: C4_9  and  N3_10 
REMARK    3  A    between atoms: N3_10  and  S1_12 
REMARK    4  A    between atoms: S1_12  and  C5_14 
REMARK    5  A    between atoms: C5_14  and  N4_15 
REMARK    6  A    between atoms: C5_14  and  N5_19 
ROOT
HETATM    1  N3  UNL     1     -25.475 -26.661  -2.200  1.00  0.00    -0.288 N 
ATOM      2  H3  UNL     1     -26.314 -26.404  -1.679  1.00  0.00     0.178 HD
ENDROOT
BRANCH   1   3
HETATM    3  C4  UNL     1     -25.567 -26.750  -3.485  1.00  0.00     0.130 A 
HETATM    4  C3  UNL     1     -25.983 -25.652  -4.214  1.00  0.00     0.067 A 
HETATM    5  C2  UNL     1     -26.073 -25.771  -5.582  1.00  0.00     0.110 A 
HETATM    6  N2  UNL     1     -25.761 -26.939  -6.200  1.00  0.00    -0.202 N 
HETATM    7  C1  UNL     1     -25.358 -27.993  -5.457  1.00  0.00     0.677 A 
ATOM      8  H2  UNL     1     -25.830 -27.020  -7.214  1.00  0.00     0.183 HD
HETATM    9  N6  UNL     1     -25.264 -27.896  -4.119  1.00  0.00    -0.176 N 
ATOM     10  H6  UNL     1     -24.958 -28.704  -3.577  1.00  0.00     0.186 HD
BRANCH   7  11
HETATM   11  N1  UNL     1     -25.059 -29.116  -6.062  1.00  0.00    -0.234 N 
ATOM     12  H12 UNL     1     -24.860 -29.126  -7.063  1.00  0.00     0.174 HD
ATOM     13  H11 UNL     1     -25.030 -29.977  -5.517  1.00  0.00     0.174 HD
ENDBRANCH   7  11
ENDBRANCH   1   3
BRANCH   1  14
HETATM   14  S1  UNL     1     -24.052 -26.942  -1.318  1.00  0.00     0.175 S 
HETATM   15  O1  UNL     1     -23.002 -28.008  -2.034  1.00  0.00    -0.232 OA
BRANCH  14  16
HETATM   16  C5  UNL     1     -24.347 -27.460   0.348  1.00  0.00     0.490 C 
BRANCH  16  17
HETATM   17  N4  UNL     1     -23.182 -27.388   1.180  1.00  0.00    -0.037 N 
ATOM     18  H43 UNL     1     -22.592 -28.209   1.047  1.00  0.00     0.277 HD
ATOM     19  H42 UNL     1     -22.544 -26.666   0.847  1.00  0.00     0.277 HD
ATOM     20  H41 UNL     1     -23.399 -27.253   2.168  1.00  0.00     0.277 HD
ENDBRANCH  16  17
BRANCH  16  21
HETATM   21  N5  UNL     1     -25.372 -26.608   0.953  1.00  0.00    -0.037 N 
ATOM     22  H53 UNL     1     -25.928 -26.118   0.252  1.00  0.00     0.277 HD
ATOM     23  H52 UNL     1     -26.122 -27.153   1.381  1.00  0.00     0.277 HD
ATOM     24  H51 UNL     1     -24.937 -25.967   1.617  1.00  0.00     0.277 HD
ENDBRANCH  16  21
ENDBRANCH  14  16
ENDBRANCH   1  14
TORSDOF 6
ENDMDL
MODEL 3
REMARK VINA RESULT: -6.017672279      2.039      2.793
REMARK  6 active torsions:
REMARK  status: ('A' for Active; 'I' for Inactive)
REMARK    1  A    between atoms: N1_1  and  C1_4 
REMARK    2  A    between atoms: C4_9  and  N3_10 
REMARK    3  A    between atoms: N3_10  and  S1_12 
REMARK    4  A    between atoms: S1_12  and  C5_14 
REMARK    5  A    between atoms: C5_14  and  N4_15 
REMARK    6  A    between atoms: C5_14  and  N5_19 
ROOT
HETATM    1  N3  UNL     1     -25.130 -26.618  -1.794  1.00  0.00    -0.288 N 
ATOM      2  H3  UNL     1     -25.169 -25.711  -1.330  1.00  0.00     0.178 HD
ENDROOT
BRANCH   1   3
HETATM    3  C4  UNL     1     -25.355 -26.656  -3.065  1.00  0.00     0.130 A 
HETATM    4  C3  UNL     1     -25.770 -25.508  -3.715  1.00  0.00     0.067 A 
HETATM    5  C2  UNL     1     -26.004 -25.572  -5.070  1.00  0.00     0.110 A 
HETATM    6  N2  UNL     1     -25.831 -26.735  -5.750  1.00  0.00    -0.202 N 
HETATM    7  C1  UNL     1     -25.425 -27.838  -5.084  1.00  0.00     0.677 A 
ATOM      8  H2  UNL     1     -26.006 -26.775  -6.754  1.00  0.00     0.183 HD
HETATM    9  N6  UNL     1     -25.192 -27.795  -3.760  1.00  0.00    -0.176 N 
ATOM     10  H6  UNL     1     -24.886 -28.639  -3.276  1.00  0.00     0.186 HD
BRANCH   7  11
HETATM   11  N1  UNL     1     -25.261 -28.955  -5.749  1.00  0.00    -0.234 N 
ATOM     12  H12 UNL     1     -25.098 -28.936  -6.756  1.00  0.00     0.174 HD
ATOM     13  H11 UNL     1     -25.300 -29.839  -5.244  1.00  0.00     0.174 HD
ENDBRANCH   7  11
ENDBRANCH   1   3
BRANCH   1  14
HETATM   14  S1  UNL     1     -24.773 -27.978  -0.842  1.00  0.00     0.175 S 
HETATM   15  O1  UNL     1     -25.801 -29.261  -1.068  1.00  0.00    -0.232 OA
BRANCH  14  16
HETATM   16  C5  UNL     1     -24.674 -27.621   0.888  1.00  0.00     0.490 C 
BRANCH  16  17
HETATM   17  N4  UNL     1     -23.352 -27.281   1.323  1.00  0.00    -0.037 N 
ATOM     18  H43 UNL     1     -22.914 -28.070   1.799  1.00  0.00     0.277 HD
ATOM     19  H42 UNL     1     -22.720 -27.194   0.527  1.00  0.00     0.277 HD
ATOM     20  H41 UNL     1     -23.321 -26.444   1.904  1.00  0.00     0.277 HD
ENDBRANCH  16  17
BRANCH  16  21
HETATM   21  N5  UNL     1     -25.546 -26.488   1.206  1.00  0.00    -0.037 N 
ATOM     22  H53 UNL     1     -25.034 -25.606   1.235  1.00  0.00     0.277 HD
ATOM     23  H52 UNL     1     -26.182 -26.265   0.440  1.00  0.00     0.277 HD
ATOM     24  H51 UNL     1     -26.043 -26.673   2.078  1.00  0.00     0.277 HD
ENDBRANCH  16  21
ENDBRANCH  14  16
ENDBRANCH   1  14
TORSDOF 6
ENDMDL
MODEL 4
REMARK VINA RESULT: -5.993913004      2.082      5.400
REMARK  6 active torsions:
REMARK  status: ('A' for Active; 'I' for Inactive)
REMARK    1  A    between atoms: N1_1  and  C1_4 
REMARK    2  A    between atoms: C4_9  and  N3_10 
REMARK    3  A    between atoms: N3_10  and  S1_12 
REMARK    4  A    between atoms: S1_12  and  C5_14 
REMARK    5  A    between atoms: C5_14  and  N4_15 
REMARK    6  A    between atoms: C5_14  and  N5_19 
ROOT
HETATM    1  N3  UNL     1     -25.076 -26.441  -1.418  1.00  0.00    -0.288 N 
ATOM      2  H3  UNL     1     -25.475 -25.559  -1.096  1.00  0.00     0.178 HD
ENDROOT
BRANCH   1   3
HETATM    3  C4  UNL     1     -24.300 -27.082  -0.609  1.00  0.00     0.130 A 
HETATM    4  C3  UNL     1     -24.781 -27.473   0.626  1.00  0.00     0.067 A 
HETATM    5  C2  UNL     1     -23.936 -28.156   1.471  1.00  0.00     0.110 A 
HETATM    6  N2  UNL     1     -22.661 -28.438   1.099  1.00  0.00    -0.202 N 
HETATM    7  C1  UNL     1     -22.222 -28.041  -0.116  1.00  0.00     0.677 A 
ATOM      8  H2  UNL     1     -22.040 -28.944   1.730  1.00  0.00     0.183 HD
HETATM    9  N6  UNL     1     -23.034 -27.373  -0.955  1.00  0.00    -0.176 N 
ATOM     10  H6  UNL     1     -22.683 -27.082  -1.867  1.00  0.00     0.186 HD
BRANCH   7  11
HETATM   11  N1  UNL     1     -20.991 -28.317  -0.465  1.00  0.00    -0.234 N 
ATOM     12  H12 UNL     1     -20.780 -29.172  -0.981  1.00  0.00     0.174 HD
ATOM     13  H11 UNL     1     -20.249 -27.664  -0.214  1.00  0.00     0.174 HD
ENDBRANCH   7  11
ENDBRANCH   1   3
BRANCH   1  14
HETATM   14  S1  UNL     1     -25.478 -26.966  -2.982  1.00  0.00     0.175 S 
HETATM   15  O1  UNL     1     -24.454 -28.113  -3.602  1.00  0.00    -0.232 OA
BRANCH  14  16
HETATM   16  C5  UNL     1     -25.635 -25.646  -4.149  1.00  0.00     0.490 C 
BRANCH  16  17
HETATM   17  N4  UNL     1     -26.511 -25.954  -5.240  1.00  0.00    -0.037 N 
ATOM     18  H43 UNL     1     -26.580 -26.962  -5.375  1.00  0.00     0.277 HD
ATOM     19  H42 UNL     1     -27.480 -25.751  -4.994  1.00  0.00     0.277 HD
ATOM     20  H41 UNL     1     -26.252 -25.488  -6.110  1.00  0.00     0.277 HD
ENDBRANCH  16  17
BRANCH  16  21
HETATM   21  N5  UNL     1     -26.168 -24.458  -3.479  1.00  0.00    -0.037 N 
ATOM     22  H53 UNL     1     -25.443 -23.936  -2.988  1.00  0.00     0.277 HD
ATOM     23  H52 UNL     1     -26.447 -23.735  -4.143  1.00  0.00     0.277 HD
ATOM     24  H51 UNL     1     -26.933 -24.728  -2.861  1.00  0.00     0.277 HD
ENDBRANCH  16  21
ENDBRANCH  14  16
ENDBRANCH   1  14
TORSDOF 6
ENDMDL
MODEL 5
REMARK VINA RESULT: -5.824223378      1.752      2.011
REMARK  6 active torsions:
REMARK  status: ('A' for Active; 'I' for Inactive)
REMARK    1  A    between atoms: N1_1  and  C1_4 
REMARK    2  A    between atoms: C4_9  and  N3_10 
REMARK    3  A    between atoms: N3_10  and  S1_12 
REMARK    4  A    between atoms: S1_12  and  C5_14 
REMARK    5  A    between atoms: C5_14  and  N4_15 
REMARK    6  A    between atoms: C5_14  and  N5_19 
ROOT
HETATM    1  N3  UNL     1     -24.814 -28.030  -2.009  1.00  0.00    -0.288 N 
ATOM      2  H3  UNL     1     -24.982 -29.029  -2.128  1.00  0.00     0.178 HD
ENDROOT
BRANCH   1   3
HETATM    3  C4  UNL     1     -25.216 -27.235  -2.945  1.00  0.00     0.130 A 
HETATM    4  C3  UNL     1     -25.301 -27.703  -4.243  1.00  0.00     0.067 A 
HETATM    5  C2  UNL     1     -25.733 -26.838  -5.223  1.00  0.00     0.110 A 
HETATM    6  N2  UNL     1     -26.067 -25.557  -4.920  1.00  0.00    -0.202 N 
HETATM    7  C1  UNL     1     -25.973 -25.133  -3.642  1.00  0.00     0.677 A 
ATOM      8  H2  UNL     1     -26.387 -24.922  -5.652  1.00  0.00     0.183 HD
HETATM    9  N6  UNL     1     -25.553 -25.963  -2.671  1.00  0.00    -0.176 N 
ATOM     10  H6  UNL     1     -25.488 -25.622  -1.711  1.00  0.00     0.186 HD
BRANCH   7  11
HETATM   11  N1  UNL     1     -26.297 -23.895  -3.360  1.00  0.00    -0.234 N 
ATOM     12  H12 UNL     1     -27.250 -23.662  -3.081  1.00  0.00     0.174 HD
ATOM     13  H11 UNL     1     -25.582 -23.171  -3.425  1.00  0.00     0.174 HD
ENDBRANCH   7  11
ENDBRANCH   1   3
BRANCH   1  14
HETATM   14  S1  UNL     1     -24.023 -27.524  -0.595  1.00  0.00     0.175 S 
HETATM   15  O1  UNL     1     -22.548 -28.239  -0.342  1.00  0.00    -0.232 OA
BRANCH  14  16
HETATM   16  C5  UNL     1     -25.006 -27.705   0.865  1.00  0.00     0.490 C 
BRANCH  16  17
HETATM   17  N4  UNL     1     -25.576 -26.472   1.322  1.00  0.00    -0.037 N 
ATOM     18  H43 UNL     1     -25.000 -26.058   2.055  1.00  0.00     0.277 HD
ATOM     19  H42 UNL     1     -25.490 -25.747   0.610  1.00  0.00     0.277 HD
ATOM     20  H41 UNL     1     -26.544 -26.564   1.630  1.00  0.00     0.277 HD
ENDBRANCH  16  17
BRANCH  16  21
HETATM   21  N5  UNL     1     -26.111 -28.628   0.601  1.00  0.00    -0.037 N 
ATOM     22  H53 UNL     1     -26.314 -28.711  -0.395  1.00  0.00     0.277 HD
ATOM     23  H52 UNL     1     -25.853 -29.599   0.780  1.00  0.00     0.277 HD
ATOM     24  H51 UNL     1     -26.931 -28.343   1.137  1.00  0.00     0.277 HD
ENDBRANCH  16  21
ENDBRANCH  14  16
ENDBRANCH   1  14
TORSDOF 6
ENDMDL
