MODEL 1
REMARK VINA RESULT: -6.604630725      0.000      0.000
REMARK  4 active torsions:
REMARK  status: ('A' for Active; 'I' for Inactive)
REMARK    1  A    between atoms: C2_2  and  O1_3 
REMARK    2  A    between atoms: C4_8  and  N2_9 
REMARK    3  A    between atoms: C5_15  and  N5_18 
REMARK    4  A    between atoms: N5_18  and  O2_19 
ROOT
HETATM    1  C1  UNL     1     -23.971 -28.583   0.327  1.00  0.00     0.076 C 
HETATM    2  C2  UNL     1     -23.345 -27.377  -0.389  1.00  0.00     0.184 C 
HETATM    3  N1  UNL     1     -24.414 -26.429  -0.555  1.00  0.00    -0.364 N 
ATOM      4  H1  UNL     1     -24.786 -25.988   0.286  1.00  0.00     0.161 HD
HETATM    5  C3  UNL     1     -24.926 -26.102  -1.656  1.00  0.00     0.112 C 
HETATM    6  C4  UNL     1     -24.445 -26.692  -2.914  1.00  0.00     0.319 C 
HETATM    7  N3  UNL     1     -23.051 -26.983  -2.800  1.00  0.00    -0.352 N 
ATOM      8  H3  UNL     1     -22.365 -26.654  -3.479  1.00  0.00     0.158 HD
HETATM    9  C5  UNL     1     -22.690 -27.769  -1.662  1.00  0.00     0.265 C 
HETATM   10  C6  UNL     1     -23.013 -29.175  -1.988  1.00  0.00     0.116 C 
HETATM   11  N4  UNL     1     -23.260 -30.276  -2.255  1.00  0.00    -0.193 NA
ENDROOT
BRANCH   9  12
HETATM   12  N5  UNL     1     -21.243 -27.662  -1.498  1.00  0.00    -0.050 NA
BRANCH  12  13
HETATM   13  O2  UNL     1     -20.733 -28.836  -1.115  1.00  0.00    -0.293 OA
ATOM     14  H2  UNL     1     -19.871 -28.711  -0.735  1.00  0.00     0.238 HD
ENDBRANCH  12  13
ENDBRANCH   9  12
BRANCH   2  15
HETATM   15  O1  UNL     1     -22.470 -26.821   0.549  1.00  0.00    -0.367 OA
ATOM     16  H1  UNL     1     -21.631 -26.785   0.104  1.00  0.00     0.212 HD
ENDBRANCH   2  15
BRANCH   6  17
HETATM   17  N2  UNL     1     -25.228 -27.832  -3.346  1.00  0.00    -0.054 N 
ATOM     18  H23 UNL     1     -25.966 -28.041  -2.674  1.00  0.00     0.277 HD
ATOM     19  H22 UNL     1     -25.800 -27.592  -4.156  1.00  0.00     0.277 HD
ATOM     20  H21 UNL     1     -24.663 -28.661  -3.534  1.00  0.00     0.277 HD
ENDBRANCH   6  17
TORSDOF 4
ENDMDL
MODEL 2
REMARK VINA RESULT: -6.090865856      1.563      3.072
REMARK  4 active torsions:
REMARK  status: ('A' for Active; 'I' for Inactive)
REMARK    1  A    between atoms: C2_2  and  O1_3 
REMARK    2  A    between atoms: C4_8  and  N2_9 
REMARK    3  A    between atoms: C5_15  and  N5_18 
REMARK    4  A    between atoms: N5_18  and  O2_19 
ROOT
HETATM    1  C1  UNL     1     -24.926 -29.112  -2.236  1.00  0.00     0.076 C 
HETATM    2  C2  UNL     1     -23.686 -28.841  -1.371  1.00  0.00     0.184 C 
HETATM    3  N1  UNL     1     -24.010 -29.343  -0.064  1.00  0.00    -0.364 N 
ATOM      4  H1  UNL     1     -24.107 -30.352   0.042  1.00  0.00     0.161 HD
HETATM    5  C3  UNL     1     -24.183 -28.634   0.961  1.00  0.00     0.112 C 
HETATM    6  C4  UNL     1     -24.059 -27.170   0.892  1.00  0.00     0.319 C 
HETATM    7  N3  UNL     1     -23.090 -26.821  -0.098  1.00  0.00    -0.352 N 
ATOM      8  H3  UNL     1     -22.305 -26.201   0.098  1.00  0.00     0.158 HD
HETATM    9  C5  UNL     1     -23.306 -27.406  -1.385  1.00  0.00     0.265 C 
HETATM   10  C6  UNL     1     -24.357 -26.608  -2.052  1.00  0.00     0.116 C 
HETATM   11  N4  UNL     1     -25.175 -25.971  -2.572  1.00  0.00    -0.193 NA
ENDROOT
BRANCH   9  12
HETATM   12  N5  UNL     1     -22.069 -27.254  -2.146  1.00  0.00    -0.050 NA
BRANCH  12  13
HETATM   13  O2  UNL     1     -21.016 -27.554  -1.380  1.00  0.00    -0.293 OA
ATOM     14  H2  UNL     1     -20.328 -27.945  -1.906  1.00  0.00     0.238 HD
ENDBRANCH  12  13
ENDBRANCH   9  12
BRANCH   2  15
HETATM   15  O1  UNL     1     -22.702 -29.691  -1.885  1.00  0.00    -0.367 OA
ATOM     16  H1  UNL     1     -23.005 -30.566  -1.674  1.00  0.00     0.212 HD
ENDBRANCH   2  15
BRANCH   6  17
HETATM   17  N2  UNL     1     -25.329 -26.498   0.704  1.00  0.00    -0.054 N 
ATOM     18  H23 UNL     1     -26.080 -27.002   1.177  1.00  0.00     0.277 HD
ATOM     19  H22 UNL     1     -25.357 -25.623   1.229  1.00  0.00     0.277 HD
ATOM     20  H21 UNL     1     -25.560 -26.340  -0.276  1.00  0.00     0.277 HD
ENDBRANCH   6  17
TORSDOF 4
ENDMDL
MODEL 3
REMARK VINA RESULT: -5.895966355      2.626      3.541
REMARK  4 active torsions:
REMARK  status: ('A' for Active; 'I' for Inactive)
REMARK    1  A    between atoms: C2_2  and  O1_3 
REMARK    2  A    between atoms: C4_8  and  N2_9 
REMARK    3  A    between atoms: C5_15  and  N5_18 
REMARK    4  A    between atoms: N5_18  and  O2_19 
ROOT
HETATM    1  C1  UNL     1     -24.842 -29.946  -0.251  1.00  0.00     0.076 C 
HETATM    2  C2  UNL     1     -25.632 -28.629  -0.282  1.00  0.00     0.184 C 
HETATM    3  N1  UNL     1     -25.976 -28.418  -1.662  1.00  0.00    -0.364 N 
ATOM      4  H1  UNL     1     -26.647 -29.060  -2.083  1.00  0.00     0.161 HD
HETATM    5  C3  UNL     1     -25.515 -27.502  -2.390  1.00  0.00     0.112 C 
HETATM    6  C4  UNL     1     -24.545 -26.535  -1.857  1.00  0.00     0.319 C 
HETATM    7  N3  UNL     1     -24.800 -26.321  -0.468  1.00  0.00    -0.352 N 
ATOM      8  H3  UNL     1     -24.926 -25.390  -0.070  1.00  0.00     0.158 HD
HETATM    9  C5  UNL     1     -24.866 -27.510   0.323  1.00  0.00     0.265 C 
HETATM   10  C6  UNL     1     -23.474 -27.932   0.586  1.00  0.00     0.116 C 
HETATM   11  N4  UNL     1     -22.378 -28.250   0.798  1.00  0.00    -0.193 NA
ENDROOT
BRANCH   9  12
HETATM   12  N5  UNL     1     -25.483 -27.153   1.597  1.00  0.00    -0.050 NA
BRANCH  12  13
HETATM   13  O2  UNL     1     -26.049 -25.947   1.515  1.00  0.00    -0.293 OA
ATOM     14  H2  UNL     1     -26.235 -25.611   2.384  1.00  0.00     0.238 HD
ENDBRANCH  12  13
ENDBRANCH   9  12
BRANCH   2  15
HETATM   15  O1  UNL     1     -26.829 -28.917   0.381  1.00  0.00    -0.367 OA
ATOM     16  H1  UNL     1     -27.400 -29.269  -0.293  1.00  0.00     0.212 HD
ENDBRANCH   2  15
BRANCH   6  17
HETATM   17  N2  UNL     1     -23.168 -26.895  -2.131  1.00  0.00    -0.054 N 
ATOM     18  H23 UNL     1     -23.121 -27.752  -2.684  1.00  0.00     0.277 HD
ATOM     19  H22 UNL     1     -22.748 -26.244  -2.794  1.00  0.00     0.277 HD
ATOM     20  H21 UNL     1     -22.597 -26.975  -1.290  1.00  0.00     0.277 HD
ENDBRANCH   6  17
TORSDOF 4
ENDMDL
MODEL 4
REMARK VINA RESULT: -5.886772390      2.201      3.125
REMARK  4 active torsions:
REMARK  status: ('A' for Active; 'I' for Inactive)
REMARK    1  A    between atoms: C2_2  and  O1_3 
REMARK    2  A    between atoms: C4_8  and  N2_9 
REMARK    3  A    between atoms: C5_15  and  N5_18 
REMARK    4  A    between atoms: N5_18  and  O2_19 
ROOT
HETATM    1  C1  UNL     1     -23.585 -27.975   1.111  1.00  0.00     0.076 C 
HETATM    2  C2  UNL     1     -24.867 -27.632   0.338  1.00  0.00     0.184 C 
HETATM    3  N1  UNL     1     -25.808 -28.665   0.673  1.00  0.00    -0.364 N 
ATOM      4  H1  UNL     1     -26.157 -28.691   1.631  1.00  0.00     0.161 HD
HETATM    5  C3  UNL     1     -26.236 -29.540  -0.123  1.00  0.00     0.112 C 
HETATM    6  C4  UNL     1     -25.782 -29.570  -1.521  1.00  0.00     0.319 C 
HETATM    7  N3  UNL     1     -25.505 -28.239  -1.960  1.00  0.00    -0.352 N 
ATOM      8  H3  UNL     1     -25.912 -27.845  -2.808  1.00  0.00     0.158 HD
HETATM    9  C5  UNL     1     -24.615 -27.501  -1.119  1.00  0.00     0.265 C 
HETATM   10  C6  UNL     1     -23.244 -27.952  -1.440  1.00  0.00     0.116 C 
HETATM   11  N4  UNL     1     -22.171 -28.304  -1.705  1.00  0.00    -0.193 NA
ENDROOT
BRANCH   9  12
HETATM   12  N5  UNL     1     -24.729 -26.093  -1.491  1.00  0.00    -0.050 NA
BRANCH  12  13
HETATM   13  O2  UNL     1     -25.601 -25.949  -2.492  1.00  0.00    -0.293 OA
ATOM     14  H2  UNL     1     -26.304 -25.364  -2.234  1.00  0.00     0.238 HD
ENDBRANCH  12  13
ENDBRANCH   9  12
BRANCH   2  15
HETATM   15  O1  UNL     1     -25.340 -26.460   0.937  1.00  0.00    -0.367 OA
ATOM     16  H1  UNL     1     -24.882 -25.758   0.490  1.00  0.00     0.212 HD
ENDBRANCH   2  15
BRANCH   6  17
HETATM   17  N2  UNL     1     -24.679 -30.482  -1.745  1.00  0.00    -0.054 N 
ATOM     18  H23 UNL     1     -23.785 -30.015  -1.589  1.00  0.00     0.277 HD
ATOM     19  H22 UNL     1     -24.634 -31.184  -1.007  1.00  0.00     0.277 HD
ATOM     20  H21 UNL     1     -24.702 -30.923  -2.665  1.00  0.00     0.277 HD
ENDBRANCH   6  17
TORSDOF 4
ENDMDL
MODEL 5
REMARK VINA RESULT: -5.838806914      2.530      3.531
REMARK  4 active torsions:
REMARK  status: ('A' for Active; 'I' for Inactive)
REMARK    1  A    between atoms: C2_2  and  O1_3 
REMARK    2  A    between atoms: C4_8  and  N2_9 
REMARK    3  A    between atoms: C5_15  and  N5_18 
REMARK    4  A    between atoms: N5_18  and  O2_19 
ROOT
HETATM    1  C1  UNL     1     -23.716 -26.821  -2.553  1.00  0.00     0.076 C 
HETATM    2  C2  UNL     1     -24.948 -27.293  -1.765  1.00  0.00     0.184 C 
HETATM    3  N1  UNL     1     -24.963 -26.503  -0.564  1.00  0.00    -0.364 N 
ATOM      4  H1  UNL     1     -25.160 -25.507  -0.660  1.00  0.00     0.161 HD
HETATM    5  C3  UNL     1     -24.754 -26.944   0.595  1.00  0.00     0.112 C 
HETATM    6  C4  UNL     1     -24.464 -28.368   0.816  1.00  0.00     0.319 C 
HETATM    7  N3  UNL     1     -25.150 -29.150  -0.164  1.00  0.00    -0.352 N 
ATOM      8  H3  UNL     1     -25.758 -29.930   0.085  1.00  0.00     0.158 HD
HETATM    9  C5  UNL     1     -24.919 -28.757  -1.518  1.00  0.00     0.265 C 
HETATM   10  C6  UNL     1     -23.606 -29.312  -1.912  1.00  0.00     0.116 C 
HETATM   11  N4  UNL     1     -22.580 -29.760  -2.216  1.00  0.00    -0.193 NA
ENDROOT
BRANCH   9  12
HETATM   12  N5  UNL     1     -25.946 -29.392  -2.339  1.00  0.00    -0.050 NA
BRANCH  12  13
HETATM   13  O2  UNL     1     -25.445 -29.719  -3.533  1.00  0.00    -0.293 OA
ATOM     14  H2  UNL     1     -25.287 -30.656  -3.578  1.00  0.00     0.238 HD
ENDBRANCH  12  13
ENDBRANCH   9  12
BRANCH   2  15
HETATM   15  O1  UNL     1     -26.041 -26.870  -2.527  1.00  0.00    -0.367 OA
ATOM     16  H1  UNL     1     -26.723 -27.506  -2.344  1.00  0.00     0.212 HD
ENDBRANCH   2  15
BRANCH   6  17
HETATM   17  N2  UNL     1     -23.047 -28.660   0.884  1.00  0.00    -0.054 N 
ATOM     18  H23 UNL     1     -22.648 -28.741  -0.052  1.00  0.00     0.277 HD
ATOM     19  H22 UNL     1     -22.526 -27.849   1.219  1.00  0.00     0.277 HD
ATOM     20  H21 UNL     1     -22.832 -29.486   1.442  1.00  0.00     0.277 HD
ENDBRANCH   6  17
TORSDOF 4
ENDMDL
