MODEL 1
REMARK VINA RESULT: -7.487492442      0.000      0.000
REMARK  2 active torsions:
REMARK  status: ('A' for Active; 'I' for Inactive)
REMARK    1  A    between atoms: N2_3  and  C2_5 
REMARK    2  A    between atoms: C4_12  and  N5_13 
REMARK       I    between atoms: N5_13  and  C5_15 
REMARK       I    between atoms: C5_15  and  N6_16 
REMARK       I    between atoms: C5_15  and  N7_20 
ROOT
HETATM    1  N1  UNL     1     -26.671 -28.497   2.000  1.00  0.00    -0.171 NA
HETATM    2  C1  UNL     1     -25.663 -28.008   1.712  1.00  0.00     0.196 C 
HETATM    3  N2  UNL     1     -24.461 -27.434   1.356  1.00  0.00    -0.125 N 
ATOM      4  H2  UNL     1     -23.793 -27.156   2.075  1.00  0.00     0.197 HD
ENDROOT
BRANCH   3   5
HETATM    5  C2  UNL     1     -24.187 -27.250   0.118  1.00  0.00     0.709 A 
HETATM    6  N3  UNL     1     -22.917 -27.378  -0.285  1.00  0.00    -0.139 N 
HETATM    7  C3  UNL     1     -22.611 -27.188  -1.582  1.00  0.00     0.352 A 
ATOM      8  H3  UNL     1     -22.187 -27.618   0.386  1.00  0.00     0.189 HD
HETATM    9  O1  UNL     1     -21.409 -27.316  -1.926  1.00  0.00    -0.246 OA
HETATM   10  N4  UNL     1     -23.599 -26.871  -2.448  1.00  0.00    -0.140 N 
HETATM   11  C4  UNL     1     -24.878 -26.737  -2.071  1.00  0.00     0.699 A 
ATOM     12  H4  UNL     1     -23.361 -26.728  -3.430  1.00  0.00     0.189 HD
HETATM   13  N8  UNL     1     -25.164 -26.929  -0.773  1.00  0.00    -0.021 N 
ATOM     14  H8  UNL     1     -26.127 -26.834  -0.451  1.00  0.00     0.203 HD
BRANCH  11  15
HETATM   15  N5  UNL     1     -25.761 -26.435  -2.940  1.00  0.00    -0.173 N 
HETATM   16  C5  UNL     1     -25.722 -25.359  -3.868  1.00  0.00     0.494 C 
HETATM   17  N6  UNL     1     -26.471 -25.746  -5.048  1.00  0.00    -0.032 N 
HETATM   18  N7  UNL     1     -26.192 -24.118  -3.301  1.00  0.00    -0.032 N 
ATOM     19  H63 UNL     1     -26.142 -26.623  -5.452  1.00  0.00     0.278 HD
ATOM     20  H62 UNL     1     -27.422 -26.041  -4.830  1.00  0.00     0.278 HD
ATOM     21  H61 UNL     1     -26.443 -24.974  -5.714  1.00  0.00     0.278 HD
ATOM     22  H73 UNL     1     -27.126 -24.226  -2.906  1.00  0.00     0.278 HD
ATOM     23  H72 UNL     1     -25.679 -23.886  -2.451  1.00  0.00     0.278 HD
ATOM     24  H71 UNL     1     -26.164 -23.345  -3.966  1.00  0.00     0.278 HD
ATOM     25  H5  UNL     1     -26.586 -27.033  -2.972  1.00  0.00     0.181 HD
ENDBRANCH  11  15
ENDBRANCH   3   5
TORSDOF 2
ENDMDL
MODEL 2
REMARK VINA RESULT: -7.031304872      1.530      1.598
REMARK  2 active torsions:
REMARK  status: ('A' for Active; 'I' for Inactive)
REMARK    1  A    between atoms: N2_3  and  C2_5 
REMARK    2  A    between atoms: C4_12  and  N5_13 
REMARK       I    between atoms: N5_13  and  C5_15 
REMARK       I    between atoms: C5_15  and  N6_16 
REMARK       I    between atoms: C5_15  and  N7_20 
ROOT
HETATM    1  N1  UNL     1     -23.243 -28.837   2.558  1.00  0.00    -0.171 NA
HETATM    2  C1  UNL     1     -23.675 -28.077   1.800  1.00  0.00     0.196 C 
HETATM    3  N2  UNL     1     -24.180 -27.176   0.887  1.00  0.00    -0.125 N 
ATOM      4  H2  UNL     1     -24.465 -26.245   1.190  1.00  0.00     0.197 HD
ENDROOT
BRANCH   3   5
HETATM    5  C2  UNL     1     -24.290 -27.514  -0.344  1.00  0.00     0.709 A 
HETATM    6  N3  UNL     1     -23.528 -28.513  -0.806  1.00  0.00    -0.139 N 
HETATM    7  C3  UNL     1     -23.629 -28.882  -2.097  1.00  0.00     0.352 A 
ATOM      8  H3  UNL     1     -22.875 -28.991  -0.186  1.00  0.00     0.189 HD
HETATM    9  O1  UNL     1     -22.900 -29.823  -2.498  1.00  0.00    -0.246 OA
HETATM   10  N4  UNL     1     -24.503 -28.230  -2.897  1.00  0.00    -0.140 N 
HETATM   11  C4  UNL     1     -25.276 -27.227  -2.460  1.00  0.00     0.699 A 
ATOM     12  H4  UNL     1     -24.575 -28.513  -3.874  1.00  0.00     0.189 HD
HETATM   13  N8  UNL     1     -25.161 -26.873  -1.169  1.00  0.00    -0.021 N 
ATOM     14  H8  UNL     1     -25.734 -26.113  -0.803  1.00  0.00     0.203 HD
BRANCH  11  15
HETATM   15  N5  UNL     1     -26.079 -26.654  -3.268  1.00  0.00    -0.173 N 
HETATM   16  C5  UNL     1     -25.846 -25.466  -4.014  1.00  0.00     0.494 C 
HETATM   17  N6  UNL     1     -26.619 -25.536  -5.239  1.00  0.00    -0.032 N 
HETATM   18  N7  UNL     1     -26.124 -24.269  -3.256  1.00  0.00    -0.032 N 
ATOM     19  H63 UNL     1     -26.426 -26.381  -5.777  1.00  0.00     0.278 HD
ATOM     20  H62 UNL     1     -27.611 -25.704  -5.068  1.00  0.00     0.278 HD
ATOM     21  H61 UNL     1     -26.452 -24.684  -5.773  1.00  0.00     0.278 HD
ATOM     22  H73 UNL     1     -27.072 -24.285  -2.881  1.00  0.00     0.278 HD
ATOM     23  H72 UNL     1     -25.600 -24.261  -2.381  1.00  0.00     0.278 HD
ATOM     24  H71 UNL     1     -25.956 -23.417  -3.791  1.00  0.00     0.278 HD
ATOM     25  H5  UNL     1     -26.989 -27.097  -3.393  1.00  0.00     0.181 HD
ENDBRANCH  11  15
ENDBRANCH   3   5
TORSDOF 2
ENDMDL
MODEL 3
REMARK VINA RESULT: -6.973128669      2.618      4.901
REMARK  2 active torsions:
REMARK  status: ('A' for Active; 'I' for Inactive)
REMARK    1  A    between atoms: N2_3  and  C2_5 
REMARK    2  A    between atoms: C4_12  and  N5_13 
REMARK       I    between atoms: N5_13  and  C5_15 
REMARK       I    between atoms: C5_15  and  N6_16 
REMARK       I    between atoms: C5_15  and  N7_20 
ROOT
HETATM    1  N1  UNL     1     -23.010 -31.062  -3.430  1.00  0.00    -0.171 NA
HETATM    2  C1  UNL     1     -23.809 -30.307  -3.790  1.00  0.00     0.196 C 
HETATM    3  N2  UNL     1     -24.766 -29.404  -4.206  1.00  0.00    -0.125 N 
ATOM      4  H2  UNL     1     -25.354 -29.616  -5.011  1.00  0.00     0.197 HD
ENDROOT
BRANCH   3   5
HETATM    5  C2  UNL     1     -24.910 -28.299  -3.575  1.00  0.00     0.709 A 
HETATM    6  N3  UNL     1     -25.579 -27.303  -4.170  1.00  0.00    -0.139 N 
HETATM    7  C3  UNL     1     -25.741 -26.134  -3.523  1.00  0.00     0.352 A 
ATOM      8  H3  UNL     1     -25.962 -27.428  -5.107  1.00  0.00     0.189 HD
HETATM    9  O1  UNL     1     -26.373 -25.220  -4.110  1.00  0.00    -0.246 OA
HETATM   10  N4  UNL     1     -25.221 -25.995  -2.282  1.00  0.00    -0.140 N 
HETATM   11  C4  UNL     1     -24.548 -26.975  -1.665  1.00  0.00     0.699 A 
ATOM     12  H4  UNL     1     -25.346 -25.107  -1.797  1.00  0.00     0.189 HD
HETATM   13  N8  UNL     1     -24.397 -28.134  -2.326  1.00  0.00    -0.021 N 
ATOM     14  H8  UNL     1     -23.889 -28.902  -1.886  1.00  0.00     0.203 HD
BRANCH  11  15
HETATM   15  N5  UNL     1     -24.084 -26.778  -0.494  1.00  0.00    -0.173 N 
HETATM   16  C5  UNL     1     -24.586 -27.298   0.730  1.00  0.00     0.494 C 
HETATM   17  N6  UNL     1     -23.480 -27.441   1.655  1.00  0.00    -0.032 N 
HETATM   18  N7  UNL     1     -25.660 -26.500   1.274  1.00  0.00    -0.032 N 
ATOM     19  H63 UNL     1     -22.719 -28.003   1.274  1.00  0.00     0.278 HD
ATOM     20  H62 UNL     1     -22.960 -26.572   1.783  1.00  0.00     0.278 HD
ATOM     21  H61 UNL     1     -23.841 -27.814   2.533  1.00  0.00     0.278 HD
ATOM     22  H73 UNL     1     -25.375 -25.527   1.381  1.00  0.00     0.278 HD
ATOM     23  H72 UNL     1     -26.408 -26.380   0.593  1.00  0.00     0.278 HD
ATOM     24  H71 UNL     1     -26.021 -26.874   2.152  1.00  0.00     0.278 HD
ATOM     25  H5  UNL     1     -23.260 -26.180  -0.429  1.00  0.00     0.181 HD
ENDBRANCH  11  15
ENDBRANCH   3   5
TORSDOF 2
ENDMDL
MODEL 4
REMARK VINA RESULT: -6.939495770      2.585      3.157
REMARK  2 active torsions:
REMARK  status: ('A' for Active; 'I' for Inactive)
REMARK    1  A    between atoms: N2_3  and  C2_5 
REMARK    2  A    between atoms: C4_12  and  N5_13 
REMARK       I    between atoms: N5_13  and  C5_15 
REMARK       I    between atoms: C5_15  and  N6_16 
REMARK       I    between atoms: C5_15  and  N7_20 
ROOT
HETATM    1  N1  UNL     1     -26.353 -28.452   2.024  1.00  0.00    -0.171 NA
HETATM    2  C1  UNL     1     -25.736 -27.779   1.313  1.00  0.00     0.196 C 
HETATM    3  N2  UNL     1     -24.988 -26.984   0.470  1.00  0.00    -0.125 N 
ATOM      4  H2  UNL     1     -25.195 -25.988   0.388  1.00  0.00     0.197 HD
ENDROOT
BRANCH   3   5
HETATM    5  C2  UNL     1     -24.034 -27.502  -0.209  1.00  0.00     0.709 A 
HETATM    6  N3  UNL     1     -22.798 -27.008  -0.060  1.00  0.00    -0.139 N 
HETATM    7  C3  UNL     1     -21.783 -27.540  -0.766  1.00  0.00     0.352 A 
ATOM      8  H3  UNL     1     -22.627 -26.236   0.583  1.00  0.00     0.189 HD
HETATM    9  O1  UNL     1     -20.636 -27.053  -0.604  1.00  0.00    -0.246 OA
HETATM   10  N4  UNL     1     -22.039 -28.563  -1.612  1.00  0.00    -0.140 N 
HETATM   11  C4  UNL     1     -23.266 -29.075  -1.780  1.00  0.00     0.699 A 
ATOM     12  H4  UNL     1     -21.266 -28.962  -2.145  1.00  0.00     0.189 HD
HETATM   13  N8  UNL     1     -24.266 -28.532  -1.067  1.00  0.00    -0.021 N 
ATOM     14  H8  UNL     1     -25.213 -28.897  -1.170  1.00  0.00     0.203 HD
BRANCH  11  15
HETATM   15  N5  UNL     1     -23.438 -30.041  -2.594  1.00  0.00    -0.173 N 
HETATM   16  C5  UNL     1     -24.053 -29.986  -3.875  1.00  0.00     0.494 C 
HETATM   17  N6  UNL     1     -23.461 -31.013  -4.711  1.00  0.00    -0.032 N 
HETATM   18  N7  UNL     1     -25.491 -30.094  -3.807  1.00  0.00    -0.032 N 
ATOM     19  H63 UNL     1     -22.445 -30.940  -4.761  1.00  0.00     0.278 HD
ATOM     20  H62 UNL     1     -23.514 -31.940  -4.289  1.00  0.00     0.278 HD
ATOM     21  H61 UNL     1     -23.903 -30.973  -5.629  1.00  0.00     0.278 HD
ATOM     22  H73 UNL     1     -25.772 -30.934  -3.302  1.00  0.00     0.278 HD
ATOM     23  H72 UNL     1     -25.882 -29.388  -3.182  1.00  0.00     0.278 HD
ATOM     24  H71 UNL     1     -25.933 -30.055  -4.725  1.00  0.00     0.278 HD
ATOM     25  H5  UNL     1     -23.097 -30.953  -2.293  1.00  0.00     0.181 HD
ENDBRANCH  11  15
ENDBRANCH   3   5
TORSDOF 2
ENDMDL
MODEL 5
REMARK VINA RESULT: -6.934689488      1.399      1.750
REMARK  2 active torsions:
REMARK  status: ('A' for Active; 'I' for Inactive)
REMARK    1  A    between atoms: N2_3  and  C2_5 
REMARK    2  A    between atoms: C4_12  and  N5_13 
REMARK       I    between atoms: N5_13  and  C5_15 
REMARK       I    between atoms: C5_15  and  N6_16 
REMARK       I    between atoms: C5_15  and  N7_20 
ROOT
HETATM    1  N1  UNL     1     -27.019 -30.353   1.292  1.00  0.00    -0.171 NA
HETATM    2  C1  UNL     1     -26.419 -29.390   1.517  1.00  0.00     0.196 C 
HETATM    3  N2  UNL     1     -25.692 -28.248   1.778  1.00  0.00    -0.125 N 
ATOM      4  H2  UNL     1     -25.815 -27.753   2.661  1.00  0.00     0.197 HD
ENDROOT
BRANCH   3   5
HETATM    5  C2  UNL     1     -24.861 -27.811   0.905  1.00  0.00     0.709 A 
HETATM    6  N3  UNL     1     -23.559 -28.079   1.067  1.00  0.00    -0.139 N 
HETATM    7  C3  UNL     1     -22.673 -27.628   0.161  1.00  0.00     0.352 A 
ATOM      8  H3  UNL     1     -23.242 -28.620   1.871  1.00  0.00     0.189 HD
HETATM    9  O1  UNL     1     -21.459 -27.896   0.342  1.00  0.00    -0.246 OA
HETATM   10  N4  UNL     1     -23.122 -26.912  -0.895  1.00  0.00    -0.140 N 
HETATM   11  C4  UNL     1     -24.418 -26.630  -1.080  1.00  0.00     0.699 A 
ATOM     12  H4  UNL     1     -22.446 -26.572  -1.579  1.00  0.00     0.189 HD
HETATM   13  N8  UNL     1     -25.289 -27.088  -0.165  1.00  0.00    -0.021 N 
ATOM     14  H8  UNL     1     -26.284 -26.891  -0.275  1.00  0.00     0.203 HD
BRANCH  11  15
HETATM   15  N5  UNL     1     -24.775 -25.950  -2.098  1.00  0.00    -0.173 N 
HETATM   16  C5  UNL     1     -25.710 -26.327  -3.100  1.00  0.00     0.494 C 
HETATM   17  N6  UNL     1     -26.332 -25.125  -3.621  1.00  0.00    -0.032 N 
HETATM   18  N7  UNL     1     -25.116 -27.134  -4.139  1.00  0.00    -0.032 N 
ATOM     19  H63 UNL     1     -26.752 -24.552  -2.890  1.00  0.00     0.278 HD
ATOM     20  H62 UNL     1     -25.650 -24.445  -3.957  1.00  0.00     0.278 HD
ATOM     21  H61 UNL     1     -27.002 -25.397  -4.340  1.00  0.00     0.278 HD
ATOM     22  H73 UNL     1     -24.309 -26.666  -4.550  1.00  0.00     0.278 HD
ATOM     23  H72 UNL     1     -24.650 -27.952  -3.746  1.00  0.00     0.278 HD
ATOM     24  H71 UNL     1     -25.786 -27.405  -4.858  1.00  0.00     0.278 HD
ATOM     25  H5  UNL     1     -24.341 -25.033  -2.204  1.00  0.00     0.181 HD
ENDBRANCH  11  15
ENDBRANCH   3   5
TORSDOF 2
ENDMDL
