MODEL 1
REMARK VINA RESULT: -6.832733272      0.000      0.000
REMARK  6 active torsions:
REMARK  status: ('A' for Active; 'I' for Inactive)
REMARK    1  A    between atoms: O1_2  and  C2_3 
REMARK    2  A    between atoms: C8_10  and  C9_11 
REMARK    3  A    between atoms: C9_11  and  S1_12 
REMARK    4  A    between atoms: S1_12  and  C10_13 
REMARK    5  A    between atoms: C11_16  and  N2_17 
REMARK    6  A    between atoms: C12_22  and  C13_23 
ROOT
HETATM    1  C10 UNL     1      21.160  43.377  53.496  1.00  0.00     0.161 A 
HETATM    2  N1  UNL     1      20.336  43.735  54.495  1.00  0.00    -0.171 N 
ATOM      3  H1  UNL     1      20.747  44.147  55.332  1.00  0.00     0.186 HD
HETATM    4  C11 UNL     1      19.011  43.583  54.456  1.00  0.00     0.679 A 
HETATM    5  N3  UNL     1      18.466  43.034  53.343  1.00  0.00    -0.178 N 
ATOM      6  H3  UNL     1      17.456  42.903  53.282  1.00  0.00     0.185 HD
HETATM    7  C12 UNL     1      19.253  42.661  52.320  1.00  0.00     0.132 A 
HETATM    8  N4  UNL     1      20.604  42.835  52.400  1.00  0.00    -0.323 N 
ATOM      9  H4  UNL     1      21.197  42.551  51.620  1.00  0.00     0.169 HD
ENDROOT
BRANCH   1  10
HETATM   10  S1  UNL     1      22.916  43.641  53.687  1.00  0.00    -0.089 SA
BRANCH  10  11
HETATM   11  C9  UNL     1      23.160  45.063  54.714  1.00  0.00     0.124 C 
BRANCH  11  12
HETATM   12  C8  UNL     1      23.901  44.922  55.967  1.00  0.00    -0.007 A 
HETATM   13  C2  UNL     1      23.164  44.723  57.157  1.00  0.00     0.075 A 
HETATM   14  C3  UNL     1      23.766  44.580  58.373  1.00  0.00     0.039 A 
HETATM   15  C4  UNL     1      25.134  44.628  58.480  1.00  0.00     0.027 A 
HETATM   16  C5  UNL     1      25.871  44.822  57.338  1.00  0.00     0.040 A 
HETATM   17 CL1  UNL     1      27.641  44.885  57.462  1.00  0.00    -0.084 Cl
HETATM   18  C6  UNL     1      25.260  44.970  56.081  1.00  0.00    -0.030 A 
HETATM   19  C7  UNL     1      26.180  45.173  54.942  1.00  0.00     0.050 C 
BRANCH  13  20
HETATM   20  O1  UNL     1      21.787  44.675  57.045  1.00  0.00    -0.355 OA
HETATM   21  C1  UNL     1      20.944  44.045  57.965  1.00  0.00     0.210 C 
ENDBRANCH  13  20
ENDBRANCH  11  12
ENDBRANCH  10  11
ENDBRANCH   1  10
BRANCH   4  22
HETATM   22  N2  UNL     1      18.262  43.937  55.426  1.00  0.00    -0.234 N 
ATOM     23  H22 UNL     1      18.435  44.818  55.911  1.00  0.00     0.174 HD
ATOM     24  H21 UNL     1      17.481  43.362  55.743  1.00  0.00     0.174 HD
ENDBRANCH   4  22
BRANCH   7  25
HETATM   25  C13 UNL     1      18.693  42.056  51.082  1.00  0.00     0.246 C 
HETATM   26 CL2  UNL     1      19.704  40.682  50.547  1.00  0.00    -0.100 Cl
HETATM   27 CL3  UNL     1      17.015  41.541  51.322  1.00  0.00    -0.100 Cl
ENDBRANCH   7  25
TORSDOF 6
ENDMDL
MODEL 2
REMARK VINA RESULT: -6.809336211      1.812      2.601
REMARK  6 active torsions:
REMARK  status: ('A' for Active; 'I' for Inactive)
REMARK    1  A    between atoms: O1_2  and  C2_3 
REMARK    2  A    between atoms: C8_10  and  C9_11 
REMARK    3  A    between atoms: C9_11  and  S1_12 
REMARK    4  A    between atoms: S1_12  and  C10_13 
REMARK    5  A    between atoms: C11_16  and  N2_17 
REMARK    6  A    between atoms: C12_22  and  C13_23 
ROOT
HETATM    1  C10 UNL     1      21.339  43.343  53.445  1.00  0.00     0.161 A 
HETATM    2  N1  UNL     1      20.549  43.733  54.459  1.00  0.00    -0.171 N 
ATOM      3  H1  UNL     1      20.992  44.129  55.287  1.00  0.00     0.186 HD
HETATM    4  C11 UNL     1      19.218  43.632  54.446  1.00  0.00     0.679 A 
HETATM    5  N3  UNL     1      18.631  43.105  53.345  1.00  0.00    -0.178 N 
ATOM      6  H3  UNL     1      17.616  43.014  53.304  1.00  0.00     0.185 HD
HETATM    7  C12 UNL     1      19.382  42.701  52.307  1.00  0.00     0.132 A 
HETATM    8  N4  UNL     1      20.740  42.822  52.360  1.00  0.00    -0.323 N 
ATOM      9  H4  UNL     1      21.306  42.516  51.569  1.00  0.00     0.169 HD
ENDROOT
BRANCH   1  10
HETATM   10  S1  UNL     1      23.107  43.538  53.600  1.00  0.00    -0.089 SA
BRANCH  10  11
HETATM   11  C9  UNL     1      23.431  45.089  54.390  1.00  0.00     0.124 C 
BRANCH  11  12
HETATM   12  C8  UNL     1      23.563  45.138  55.846  1.00  0.00    -0.007 A 
HETATM   13  C2  UNL     1      24.677  44.495  56.434  1.00  0.00     0.075 A 
HETATM   14  C3  UNL     1      24.886  44.487  57.783  1.00  0.00     0.039 A 
HETATM   15  C4  UNL     1      24.004  45.115  58.626  1.00  0.00     0.027 A 
HETATM   16  C5  UNL     1      22.914  45.746  58.078  1.00  0.00     0.040 A 
HETATM   17 CL1  UNL     1      21.766  46.563  59.157  1.00  0.00    -0.084 Cl
HETATM   18  C6  UNL     1      22.690  45.759  56.691  1.00  0.00    -0.030 A 
HETATM   19  C7  UNL     1      21.476  46.475  56.246  1.00  0.00     0.050 C 
BRANCH  13  20
HETATM   20  O1  UNL     1      25.563  43.864  55.582  1.00  0.00    -0.355 OA
HETATM   21  C1  UNL     1      26.950  44.035  55.620  1.00  0.00     0.210 C 
ENDBRANCH  13  20
ENDBRANCH  11  12
ENDBRANCH  10  11
ENDBRANCH   1  10
BRANCH   4  22
HETATM   22  N2  UNL     1      18.503  44.016  55.431  1.00  0.00    -0.234 N 
ATOM     23  H22 UNL     1      18.576  44.973  55.774  1.00  0.00     0.174 HD
ATOM     24  H21 UNL     1      17.847  43.389  55.899  1.00  0.00     0.174 HD
ENDBRANCH   4  22
BRANCH   7  25
HETATM   25  C13 UNL     1      18.774  42.118  51.081  1.00  0.00     0.246 C 
HETATM   26 CL2  UNL     1      19.730  40.716  50.518  1.00  0.00    -0.100 Cl
HETATM   27 CL3  UNL     1      17.087  41.654  51.359  1.00  0.00    -0.100 Cl
ENDBRANCH   7  25
TORSDOF 6
ENDMDL
MODEL 3
REMARK VINA RESULT: -6.651374589      1.474      1.514
REMARK  6 active torsions:
REMARK  status: ('A' for Active; 'I' for Inactive)
REMARK    1  A    between atoms: O1_2  and  C2_3 
REMARK    2  A    between atoms: C8_10  and  C9_11 
REMARK    3  A    between atoms: C9_11  and  S1_12 
REMARK    4  A    between atoms: S1_12  and  C10_13 
REMARK    5  A    between atoms: C11_16  and  N2_17 
REMARK    6  A    between atoms: C12_22  and  C13_23 
ROOT
HETATM    1  C10 UNL     1      20.940  43.572  53.386  1.00  0.00     0.161 A 
HETATM    2  N1  UNL     1      20.110  43.957  54.370  1.00  0.00    -0.171 N 
ATOM      3  H1  UNL     1      20.461  44.617  55.063  1.00  0.00     0.186 HD
HETATM    4  C11 UNL     1      18.852  43.527  54.493  1.00  0.00     0.679 A 
HETATM    5  N3  UNL     1      18.387  42.650  53.571  1.00  0.00    -0.178 N 
ATOM      6  H3  UNL     1      17.431  42.301  53.638  1.00  0.00     0.185 HD
HETATM    7  C12 UNL     1      19.183  42.237  52.570  1.00  0.00     0.132 A 
HETATM    8  N4  UNL     1      20.462  42.702  52.480  1.00  0.00    -0.323 N 
ATOM      9  H4  UNL     1      21.062  42.387  51.718  1.00  0.00     0.169 HD
ENDROOT
BRANCH   1  10
HETATM   10  S1  UNL     1      22.599  44.232  53.346  1.00  0.00    -0.089 SA
BRANCH  10  11
HETATM   11  C9  UNL     1      23.339  43.980  54.934  1.00  0.00     0.124 C 
BRANCH  11  12
HETATM   12  C8  UNL     1      23.464  45.111  55.854  1.00  0.00    -0.007 A 
HETATM   13  C2  UNL     1      22.465  45.279  56.840  1.00  0.00     0.075 A 
HETATM   14  C3  UNL     1      22.495  46.302  57.742  1.00  0.00     0.039 A 
HETATM   15  C4  UNL     1      23.518  47.218  57.719  1.00  0.00     0.027 A 
HETATM   16  C5  UNL     1      24.499  47.076  56.770  1.00  0.00     0.040 A 
HETATM   17 CL1  UNL     1      25.828  48.252  56.729  1.00  0.00    -0.084 Cl
HETATM   18  C6  UNL     1      24.476  46.025  55.836  1.00  0.00    -0.030 A 
HETATM   19  C7  UNL     1      25.598  46.000  54.874  1.00  0.00     0.050 C 
BRANCH  13  20
HETATM   20  O1  UNL     1      21.437  44.355  56.860  1.00  0.00    -0.355 OA
HETATM   21  C1  UNL     1      20.848  43.858  58.026  1.00  0.00     0.210 C 
ENDBRANCH  13  20
ENDBRANCH  11  12
ENDBRANCH  10  11
ENDBRANCH   1  10
BRANCH   4  22
HETATM   22  N2  UNL     1      18.095  43.919  55.443  1.00  0.00    -0.234 N 
ATOM     23  H22 UNL     1      18.418  43.866  56.409  1.00  0.00     0.174 HD
ATOM     24  H21 UNL     1      17.160  44.290  55.270  1.00  0.00     0.174 HD
ENDBRANCH   4  22
BRANCH   7  25
HETATM   25  C13 UNL     1      18.708  41.275  51.540  1.00  0.00     0.246 C 
HETATM   26 CL2  UNL     1      18.595  39.629  52.228  1.00  0.00    -0.100 Cl
HETATM   27 CL3  UNL     1      17.152  41.779  50.861  1.00  0.00    -0.100 Cl
ENDBRANCH   7  25
TORSDOF 6
ENDMDL
MODEL 4
REMARK VINA RESULT: -6.420287208      2.177      2.996
REMARK  6 active torsions:
REMARK  status: ('A' for Active; 'I' for Inactive)
REMARK    1  A    between atoms: O1_2  and  C2_3 
REMARK    2  A    between atoms: C8_10  and  C9_11 
REMARK    3  A    between atoms: C9_11  and  S1_12 
REMARK    4  A    between atoms: S1_12  and  C10_13 
REMARK    5  A    between atoms: C11_16  and  N2_17 
REMARK    6  A    between atoms: C12_22  and  C13_23 
ROOT
HETATM    1  C10 UNL     1      20.914  43.530  53.321  1.00  0.00     0.161 A 
HETATM    2  N1  UNL     1      20.027  43.892  54.262  1.00  0.00    -0.171 N 
ATOM      3  H1  UNL     1      20.324  44.564  54.969  1.00  0.00     0.186 HD
HETATM    4  C11 UNL     1      18.779  43.424  54.328  1.00  0.00     0.679 A 
HETATM    5  N3  UNL     1      18.385  42.530  53.388  1.00  0.00    -0.178 N 
ATOM      6  H3  UNL     1      17.438  42.153  53.411  1.00  0.00     0.185 HD
HETATM    7  C12 UNL     1      19.240  42.139  52.428  1.00  0.00     0.132 A 
HETATM    8  N4  UNL     1      20.507  42.643  52.397  1.00  0.00    -0.323 N 
ATOM      9  H4  UNL     1      21.152  42.345  51.665  1.00  0.00     0.169 HD
ENDROOT
BRANCH   1  10
HETATM   10  S1  UNL     1      22.552  44.240  53.357  1.00  0.00    -0.089 SA
BRANCH  10  11
HETATM   11  C9  UNL     1      23.248  43.962  54.961  1.00  0.00     0.124 C 
BRANCH  11  12
HETATM   12  C8  UNL     1      23.224  45.040  55.950  1.00  0.00    -0.007 A 
HETATM   13  C2  UNL     1      24.193  46.063  55.839  1.00  0.00     0.075 A 
HETATM   14  C3  UNL     1      24.251  47.111  56.713  1.00  0.00     0.039 A 
HETATM   15  C4  UNL     1      23.351  47.203  57.745  1.00  0.00     0.027 A 
HETATM   16  C5  UNL     1      22.401  46.220  57.874  1.00  0.00     0.040 A 
HETATM   17 CL1  UNL     1      21.231  46.327  59.204  1.00  0.00    -0.084 Cl
HETATM   18  C6  UNL     1      22.334  45.138  56.979  1.00  0.00    -0.030 A 
HETATM   19  C7  UNL     1      21.261  44.156  57.241  1.00  0.00     0.050 C 
BRANCH  13  20
HETATM   20  O1  UNL     1      25.096  45.967  54.798  1.00  0.00    -0.355 OA
HETATM   21  C1  UNL     1      25.306  46.966  53.842  1.00  0.00     0.210 C 
ENDBRANCH  13  20
ENDBRANCH  11  12
ENDBRANCH  10  11
ENDBRANCH   1  10
BRANCH   4  22
HETATM   22  N2  UNL     1      17.966  43.794  55.239  1.00  0.00    -0.234 N 
ATOM     23  H22 UNL     1      17.284  44.528  55.048  1.00  0.00     0.174 HD
ATOM     24  H21 UNL     1      17.971  43.376  56.170  1.00  0.00     0.174 HD
ENDBRANCH   4  22
BRANCH   7  25
HETATM   25  C13 UNL     1      18.844  41.161  51.380  1.00  0.00     0.246 C 
HETATM   26 CL2  UNL     1      18.509  39.565  52.112  1.00  0.00    -0.100 Cl
HETATM   27 CL3  UNL     1      17.443  41.736  50.461  1.00  0.00    -0.100 Cl
ENDBRANCH   7  25
TORSDOF 6
ENDMDL
MODEL 5
REMARK VINA RESULT: -6.411920845      1.892      2.729
REMARK  6 active torsions:
REMARK  status: ('A' for Active; 'I' for Inactive)
REMARK    1  A    between atoms: O1_2  and  C2_3 
REMARK    2  A    between atoms: C8_10  and  C9_11 
REMARK    3  A    between atoms: C9_11  and  S1_12 
REMARK    4  A    between atoms: S1_12  and  C10_13 
REMARK    5  A    between atoms: C11_16  and  N2_17 
REMARK    6  A    between atoms: C12_22  and  C13_23 
ROOT
HETATM    1  C10 UNL     1      20.775  43.600  53.325  1.00  0.00     0.161 A 
HETATM    2  N1  UNL     1      19.955  43.896  54.347  1.00  0.00    -0.171 N 
ATOM      3  H1  UNL     1      20.337  44.423  55.132  1.00  0.00     0.186 HD
HETATM    4  C11 UNL     1      18.669  43.542  54.396  1.00  0.00     0.679 A 
HETATM    5  N3  UNL     1      18.163  42.841  53.353  1.00  0.00    -0.178 N 
ATOM      6  H3  UNL     1      17.184  42.554  53.360  1.00  0.00     0.185 HD
HETATM    7  C12 UNL     1      18.946  42.523  52.309  1.00  0.00     0.132 A 
HETATM    8  N4  UNL     1      20.256  42.906  52.298  1.00  0.00    -0.323 N 
ATOM      9  H4  UNL     1      20.847  42.663  51.503  1.00  0.00     0.169 HD
ENDROOT
BRANCH   1  10
HETATM   10  S1  UNL     1      22.475  44.142  53.395  1.00  0.00    -0.089 SA
BRANCH  10  11
HETATM   11  C9  UNL     1      23.092  43.838  55.026  1.00  0.00     0.124 C 
BRANCH  11  12
HETATM   12  C8  UNL     1      23.882  44.871  55.697  1.00  0.00    -0.007 A 
HETATM   13  C2  UNL     1      25.287  44.840  55.540  1.00  0.00     0.075 A 
HETATM   14  C3  UNL     1      26.107  45.760  56.125  1.00  0.00     0.039 A 
HETATM   15  C4  UNL     1      25.581  46.764  56.900  1.00  0.00     0.027 A 
HETATM   16  C5  UNL     1      24.220  46.814  57.068  1.00  0.00     0.040 A 
HETATM   17 CL1  UNL     1      23.527  48.107  58.068  1.00  0.00    -0.084 Cl
HETATM   18  C6  UNL     1      23.367  45.871  56.469  1.00  0.00    -0.030 A 
HETATM   19  C7  UNL     1      21.925  46.049  56.739  1.00  0.00     0.050 C 
BRANCH  13  20
HETATM   20  O1  UNL     1      25.812  43.828  54.758  1.00  0.00    -0.355 OA
HETATM   21  C1  UNL     1      26.506  44.036  53.563  1.00  0.00     0.210 C 
ENDBRANCH  13  20
ENDBRANCH  11  12
ENDBRANCH  10  11
ENDBRANCH   1  10
BRANCH   4  22
HETATM   22  N2  UNL     1      17.923  43.843  55.386  1.00  0.00    -0.234 N 
ATOM     23  H22 UNL     1      17.032  44.314  55.230  1.00  0.00     0.174 HD
ATOM     24  H21 UNL     1      18.189  43.628  56.348  1.00  0.00     0.174 HD
ENDBRANCH   4  22
BRANCH   7  25
HETATM   25  C13 UNL     1      18.427  41.756  51.146  1.00  0.00     0.246 C 
HETATM   26 CL2  UNL     1      19.692  40.669  50.501  1.00  0.00    -0.100 Cl
HETATM   27 CL3  UNL     1      16.974  40.839  51.578  1.00  0.00    -0.100 Cl
ENDBRANCH   7  25
TORSDOF 6
ENDMDL
