MODEL 1
REMARK VINA RESULT: -8.194283444      0.000      0.000
REMARK  6 active torsions:
REMARK  status: ('A' for Active; 'I' for Inactive)
REMARK    1  A    between atoms: C2_2  and  C3_3 
REMARK    2  A    between atoms: C6_10  and  N3_11 
REMARK    3  A    between atoms: N3_11  and  C7_14 
REMARK    4  A    between atoms: C7_14  and  C8_15 
REMARK    5  A    between atoms: C8_15  and  O2_16 
REMARK    6  A    between atoms: C8_15  and  C9_18 
ROOT
HETATM    1  N3  UNL     1      19.185  43.192  54.313  1.00  0.00    -0.044 N 
ATOM      2  H31 UNL     1      19.732  42.345  54.469  1.00  0.00     0.280 HD
ATOM      3  H32 UNL     1      18.421  43.023  54.967  1.00  0.00     0.280 HD
ENDROOT
BRANCH   1   4
HETATM    4  C6  UNL     1      18.694  43.244  52.950  1.00  0.00     0.348 A 
HETATM    5  O1  UNL     1      17.500  42.488  52.830  1.00  0.00    -0.286 OA
HETATM    6  C5  UNL     1      17.647  41.397  51.999  1.00  0.00     0.228 A 
HETATM    7  N1  UNL     1      18.907  41.345  51.563  1.00  0.00    -0.317 N 
HETATM    8  N2  UNL     1      17.015  40.333  51.437  1.00  0.00    -0.324 N 
HETATM    9  C4  UNL     1      19.080  40.298  50.755  1.00  0.00     0.119 A 
HETATM   10  C15 UNL     1      19.679  42.455  52.124  1.00  0.00     0.194 A 
HETATM   11  C3  UNL     1      17.864  39.640  50.668  1.00  0.00     0.028 A 
ATOM     12  H2  UNL     1      16.032  40.097  51.580  1.00  0.00     0.169 HD
BRANCH  11  13
HETATM   13  C2  UNL     1      17.585  38.413  49.854  1.00  0.00     0.054 C 
HETATM   14  C1  UNL     1      16.649  38.773  48.687  1.00  0.00     0.011 C 
ENDBRANCH  11  13
ENDBRANCH   1   4
BRANCH   1  15
HETATM   15  C7  UNL     1      19.944  44.375  54.698  1.00  0.00     0.272 C 
BRANCH  15  16
HETATM   16  C8  UNL     1      21.086  43.866  55.527  1.00  0.00     0.178 C 
BRANCH  16  17
HETATM   17  O2  UNL     1      20.967  42.476  55.626  1.00  0.00    -0.389 OA
ATOM     18  H2  UNL     1      21.807  42.091  55.409  1.00  0.00     0.210 HD
ENDBRANCH  16  17
BRANCH  16  19
HETATM   19  C9  UNL     1      22.419  44.309  55.235  1.00  0.00    -0.005 A 
HETATM   20  C10 UNL     1      22.971  44.421  53.994  1.00  0.00     0.037 A 
HETATM   21  C11 UNL     1      24.268  44.913  53.860  1.00  0.00     0.056 A 
HETATM   22 CL1  UNL     1      24.979  45.053  52.274  1.00  0.00    -0.083 Cl
HETATM   23  C12 UNL     1      25.043  45.303  54.930  1.00  0.00     0.057 A 
HETATM   24 CL2  UNL     1      26.666  45.931  54.794  1.00  0.00    -0.082 Cl
HETATM   25  C13 UNL     1      24.484  45.188  56.188  1.00  0.00     0.050 A 
HETATM   26  C14 UNL     1      23.211  44.707  56.326  1.00  0.00     0.044 A 
HETATM   27 CL3  UNL     1      22.557  44.586  57.958  1.00  0.00    -0.084 Cl
ENDBRANCH  16  19
ENDBRANCH  15  16
ENDBRANCH   1  15
TORSDOF 6
ENDMDL
MODEL 2
REMARK VINA RESULT: -7.954786762      1.202      2.330
REMARK  6 active torsions:
REMARK  status: ('A' for Active; 'I' for Inactive)
REMARK    1  A    between atoms: C2_2  and  C3_3 
REMARK    2  A    between atoms: C6_10  and  N3_11 
REMARK    3  A    between atoms: N3_11  and  C7_14 
REMARK    4  A    between atoms: C7_14  and  C8_15 
REMARK    5  A    between atoms: C8_15  and  O2_16 
REMARK    6  A    between atoms: C8_15  and  C9_18 
ROOT
HETATM    1  N3  UNL     1      19.283  43.230  54.382  1.00  0.00    -0.044 N 
ATOM      2  H31 UNL     1      18.817  42.479  54.892  1.00  0.00     0.280 HD
ATOM      3  H32 UNL     1      18.948  44.032  54.917  1.00  0.00     0.280 HD
ENDROOT
BRANCH   1   4
HETATM    4  C6  UNL     1      18.810  43.292  53.012  1.00  0.00     0.348 A 
HETATM    5  O1  UNL     1      17.587  42.586  52.883  1.00  0.00    -0.286 OA
HETATM    6  C5  UNL     1      17.698  41.484  52.062  1.00  0.00     0.228 A 
HETATM    7  N1  UNL     1      18.960  41.376  51.641  1.00  0.00    -0.317 N 
HETATM    8  N2  UNL     1      17.028  40.443  51.500  1.00  0.00    -0.324 N 
HETATM    9  C4  UNL     1      19.098  40.317  50.843  1.00  0.00     0.119 A 
HETATM   10  C15 UNL     1      19.771  42.457  52.204  1.00  0.00     0.194 A 
HETATM   11  C3  UNL     1      17.857  39.709  50.746  1.00  0.00     0.028 A 
ATOM     12  H2  UNL     1      16.035  40.249  51.632  1.00  0.00     0.169 HD
BRANCH  11  13
HETATM   13  C2  UNL     1      17.536  38.489  49.937  1.00  0.00     0.054 C 
HETATM   14  C1  UNL     1      16.798  38.904  48.653  1.00  0.00     0.011 C 
ENDBRANCH  11  13
ENDBRANCH   1   4
BRANCH   1  15
HETATM   15  C7  UNL     1      20.731  43.106  54.487  1.00  0.00     0.272 C 
BRANCH  15  16
HETATM   16  C8  UNL     1      21.220  44.461  54.905  1.00  0.00     0.178 C 
BRANCH  16  17
HETATM   17  O2  UNL     1      20.155  45.143  55.502  1.00  0.00    -0.389 OA
ATOM     18  H2  UNL     1      19.561  44.500  55.870  1.00  0.00     0.210 HD
ENDBRANCH  16  17
BRANCH  16  19
HETATM   19  C9  UNL     1      22.452  44.570  55.631  1.00  0.00    -0.005 A 
HETATM   20  C10 UNL     1      22.574  44.756  56.976  1.00  0.00     0.037 A 
HETATM   21  C11 UNL     1      23.843  44.797  57.552  1.00  0.00     0.056 A 
HETATM   22 CL1  UNL     1      24.003  45.038  59.272  1.00  0.00    -0.083 Cl
HETATM   23  C12 UNL     1      25.007  44.657  56.828  1.00  0.00     0.057 A 
HETATM   24 CL2  UNL     1      26.609  44.694  57.521  1.00  0.00    -0.082 Cl
HETATM   25  C13 UNL     1      24.883  44.472  55.466  1.00  0.00     0.050 A 
HETATM   26  C14 UNL     1      23.641  44.428  54.894  1.00  0.00     0.044 A 
HETATM   27 CL3  UNL     1      23.553  44.188  53.150  1.00  0.00    -0.084 Cl
ENDBRANCH  16  19
ENDBRANCH  15  16
ENDBRANCH   1  15
TORSDOF 6
ENDMDL
MODEL 3
REMARK VINA RESULT: -7.888638088      1.477      1.837
REMARK  6 active torsions:
REMARK  status: ('A' for Active; 'I' for Inactive)
REMARK    1  A    between atoms: C2_2  and  C3_3 
REMARK    2  A    between atoms: C6_10  and  N3_11 
REMARK    3  A    between atoms: N3_11  and  C7_14 
REMARK    4  A    between atoms: C7_14  and  C8_15 
REMARK    5  A    between atoms: C8_15  and  O2_16 
REMARK    6  A    between atoms: C8_15  and  C9_18 
ROOT
HETATM    1  N3  UNL     1      20.301  43.132  53.622  1.00  0.00    -0.044 N 
ATOM      2  H31 UNL     1      20.578  42.184  53.880  1.00  0.00     0.280 HD
ATOM      3  H32 UNL     1      19.935  43.451  54.520  1.00  0.00     0.280 HD
ENDROOT
BRANCH   1   4
HETATM    4  C6  UNL     1      19.255  43.108  52.618  1.00  0.00     0.348 A 
HETATM    5  O1  UNL     1      18.238  42.192  52.992  1.00  0.00    -0.286 OA
HETATM    6  C5  UNL     1      18.141  41.128  52.120  1.00  0.00     0.228 A 
HETATM    7  N1  UNL     1      19.072  41.251  51.172  1.00  0.00    -0.317 N 
HETATM    8  N2  UNL     1      17.466  39.983  51.832  1.00  0.00    -0.324 N 
HETATM    9  C4  UNL     1      19.001  40.235  50.311  1.00  0.00     0.119 A 
HETATM   10  C15 UNL     1      19.864  42.461  51.400  1.00  0.00     0.194 A 
HETATM   11  C3  UNL     1      17.968  39.412  50.729  1.00  0.00     0.028 A 
ATOM     12  H2  UNL     1      16.688  39.613  52.378  1.00  0.00     0.169 HD
BRANCH  11  13
HETATM   13  C2  UNL     1      17.516  38.155  50.051  1.00  0.00     0.054 C 
HETATM   14  C1  UNL     1      16.685  38.512  48.807  1.00  0.00     0.011 C 
ENDBRANCH  11  13
ENDBRANCH   1   4
BRANCH   1  15
HETATM   15  C7  UNL     1      21.462  43.920  53.227  1.00  0.00     0.272 C 
BRANCH  15  16
HETATM   16  C8  UNL     1      22.533  43.582  54.221  1.00  0.00     0.178 C 
BRANCH  16  17
HETATM   17  O2  UNL     1      23.469  42.758  53.589  1.00  0.00    -0.389 OA
ATOM     18  H2  UNL     1      23.711  43.162  52.765  1.00  0.00     0.210 HD
ENDBRANCH  16  17
BRANCH  16  19
HETATM   19  C9  UNL     1      23.123  44.631  55.001  1.00  0.00    -0.005 A 
HETATM   20  C10 UNL     1      24.163  45.423  54.619  1.00  0.00     0.037 A 
HETATM   21  C11 UNL     1      24.604  46.438  55.467  1.00  0.00     0.056 A 
HETATM   22 CL1  UNL     1      25.937  47.452  54.982  1.00  0.00    -0.083 Cl
HETATM   23  C12 UNL     1      24.037  46.694  56.697  1.00  0.00     0.057 A 
HETATM   24 CL2  UNL     1      24.559  47.963  57.777  1.00  0.00    -0.082 Cl
HETATM   25  C13 UNL     1      22.984  45.889  57.085  1.00  0.00     0.050 A 
HETATM   26  C14 UNL     1      22.546  44.894  56.256  1.00  0.00     0.044 A 
HETATM   27 CL3  UNL     1      21.198  43.903  56.812  1.00  0.00    -0.084 Cl
ENDBRANCH  16  19
ENDBRANCH  15  16
ENDBRANCH   1  15
TORSDOF 6
ENDMDL
MODEL 4
REMARK VINA RESULT: -7.773700875      1.772      3.058
REMARK  6 active torsions:
REMARK  status: ('A' for Active; 'I' for Inactive)
REMARK    1  A    between atoms: C2_2  and  C3_3 
REMARK    2  A    between atoms: C6_10  and  N3_11 
REMARK    3  A    between atoms: N3_11  and  C7_14 
REMARK    4  A    between atoms: C7_14  and  C8_15 
REMARK    5  A    between atoms: C8_15  and  O2_16 
REMARK    6  A    between atoms: C8_15  and  C9_18 
ROOT
HETATM    1  N3  UNL     1      20.863  43.154  53.156  1.00  0.00    -0.044 N 
ATOM      2  H31 UNL     1      21.267  44.083  53.036  1.00  0.00     0.280 HD
ATOM      3  H32 UNL     1      21.558  42.601  52.654  1.00  0.00     0.280 HD
ENDROOT
BRANCH   1   4
HETATM    4  C6  UNL     1      19.570  43.067  52.505  1.00  0.00     0.348 A 
HETATM    5  O1  UNL     1      18.791  42.039  53.096  1.00  0.00    -0.286 OA
HETATM    6  C5  UNL     1      18.526  41.009  52.218  1.00  0.00     0.228 A 
HETATM    7  N1  UNL     1      19.117  41.265  51.049  1.00  0.00    -0.317 N 
HETATM    8  N2  UNL     1      17.893  39.816  52.061  1.00  0.00    -0.324 N 
HETATM    9  C4  UNL     1      18.877  40.284  50.178  1.00  0.00     0.119 A 
HETATM   10  C15 UNL     1      19.837  42.537  51.119  1.00  0.00     0.194 A 
HETATM   11  C3  UNL     1      18.088  39.345  50.823  1.00  0.00     0.028 A 
ATOM     12  H2  UNL     1      17.348  39.346  52.784  1.00  0.00     0.169 HD
BRANCH  11  13
HETATM   13  C2  UNL     1      17.560  38.078  50.221  1.00  0.00     0.054 C 
HETATM   14  C1  UNL     1      16.817  38.401  48.913  1.00  0.00     0.011 C 
ENDBRANCH  11  13
ENDBRANCH   1   4
BRANCH   1  15
HETATM   15  C7  UNL     1      20.825  42.784  54.565  1.00  0.00     0.272 C 
BRANCH  15  16
HETATM   16  C8  UNL     1      20.600  44.066  55.309  1.00  0.00     0.178 C 
BRANCH  16  17
HETATM   17  O2  UNL     1      19.225  44.215  55.516  1.00  0.00    -0.389 OA
ATOM     18  H2  UNL     1      18.784  43.479  55.108  1.00  0.00     0.210 HD
ENDBRANCH  16  17
BRANCH  16  19
HETATM   19  C9  UNL     1      21.390  44.352  56.472  1.00  0.00    -0.005 A 
HETATM   20  C10 UNL     1      21.033  44.102  57.763  1.00  0.00     0.037 A 
HETATM   21  C11 UNL     1      21.927  44.392  58.793  1.00  0.00     0.056 A 
HETATM   22 CL1  UNL     1      21.471  44.077  60.446  1.00  0.00    -0.083 Cl
HETATM   23  C12 UNL     1      23.179  44.926  58.578  1.00  0.00     0.057 A 
HETATM   24 CL2  UNL     1      24.325  45.290  59.845  1.00  0.00    -0.082 Cl
HETATM   25  C13 UNL     1      23.540  45.181  57.270  1.00  0.00     0.050 A 
HETATM   26  C14 UNL     1      22.668  44.897  56.256  1.00  0.00     0.044 A 
HETATM   27 CL3  UNL     1      23.191  45.246  54.609  1.00  0.00    -0.084 Cl
ENDBRANCH  16  19
ENDBRANCH  15  16
ENDBRANCH   1  15
TORSDOF 6
ENDMDL
MODEL 5
REMARK VINA RESULT: -7.690627710      1.752      2.011
REMARK  6 active torsions:
REMARK  status: ('A' for Active; 'I' for Inactive)
REMARK    1  A    between atoms: C2_2  and  C3_3 
REMARK    2  A    between atoms: C6_10  and  N3_11 
REMARK    3  A    between atoms: N3_11  and  C7_14 
REMARK    4  A    between atoms: C7_14  and  C8_15 
REMARK    5  A    between atoms: C8_15  and  O2_16 
REMARK    6  A    between atoms: C8_15  and  C9_18 
ROOT
HETATM    1  N3  UNL     1      21.215  43.235  52.803  1.00  0.00    -0.044 N 
ATOM      2  H31 UNL     1      21.594  43.703  51.980  1.00  0.00     0.280 HD
ATOM      3  H32 UNL     1      21.700  42.340  52.727  1.00  0.00     0.280 HD
ENDROOT
BRANCH   1   4
HETATM    4  C6  UNL     1      19.781  43.055  52.678  1.00  0.00     0.348 A 
HETATM    5  O1  UNL     1      19.383  41.843  53.299  1.00  0.00    -0.286 OA
HETATM    6  C5  UNL     1      18.876  40.931  52.397  1.00  0.00     0.228 A 
HETATM    7  N1  UNL     1      18.937  41.448  51.169  1.00  0.00    -0.317 N 
HETATM    8  N2  UNL     1      18.331  39.694  52.254  1.00  0.00    -0.324 N 
HETATM    9  C4  UNL     1      18.451  40.586  50.274  1.00  0.00     0.119 A 
HETATM   10  C15 UNL     1      19.522  42.789  51.217  1.00  0.00     0.194 A 
HETATM   11  C3  UNL     1      18.059  39.452  50.965  1.00  0.00     0.028 A 
ATOM     12  H2  UNL     1      18.154  39.042  53.019  1.00  0.00     0.169 HD
BRANCH  11  13
HETATM   13  C2  UNL     1      17.439  38.227  50.364  1.00  0.00     0.054 C 
HETATM   14  C1  UNL     1      16.951  38.543  48.940  1.00  0.00     0.011 C 
ENDBRANCH  11  13
ENDBRANCH   1   4
BRANCH   1  15
HETATM   15  C7  UNL     1      21.604  43.934  54.021  1.00  0.00     0.272 C 
BRANCH  15  16
HETATM   16  C8  UNL     1      23.095  43.789  54.106  1.00  0.00     0.178 C 
BRANCH  16  17
HETATM   17  O2  UNL     1      23.451  42.582  53.496  1.00  0.00    -0.389 OA
ATOM     18  H2  UNL     1      23.698  41.968  54.178  1.00  0.00     0.210 HD
ENDBRANCH  16  17
BRANCH  16  19
HETATM   19  C9  UNL     1      23.930  44.892  53.729  1.00  0.00    -0.005 A 
HETATM   20  C10 UNL     1      24.401  45.147  52.477  1.00  0.00     0.037 A 
HETATM   21  C11 UNL     1      25.169  46.289  52.249  1.00  0.00     0.056 A 
HETATM   22 CL1  UNL     1      25.776  46.616  50.648  1.00  0.00    -0.083 Cl
HETATM   23  C12 UNL     1      25.485  47.196  53.237  1.00  0.00     0.057 A 
HETATM   24 CL2  UNL     1      26.435  48.639  52.982  1.00  0.00    -0.082 Cl
HETATM   25  C13 UNL     1      25.009  46.936  54.507  1.00  0.00     0.050 A 
HETATM   26  C14 UNL     1      24.255  45.819  54.736  1.00  0.00     0.044 A 
HETATM   27 CL3  UNL     1      23.678  45.546  56.380  1.00  0.00    -0.084 Cl
ENDBRANCH  16  19
ENDBRANCH  15  16
ENDBRANCH   1  15
TORSDOF 6
ENDMDL
