MODEL 1
REMARK VINA RESULT: -6.413351321      0.000      0.000
REMARK  5 active torsions:
REMARK  status: ('A' for Active; 'I' for Inactive)
REMARK    1  A    between atoms: C3_7  and  S1_8 
REMARK    2  A    between atoms: S1_8  and  C4_9 
REMARK    3  A    between atoms: C4_9  and  C5_10 
REMARK    4  A    between atoms: C6_11  and  N3_12 
REMARK    5  A    between atoms: C11_22  and  C12_23 
ROOT
HETATM    1  C4  UNL     1      22.662  45.513  57.039  1.00  0.00     0.123 C 
ENDROOT
BRANCH   1   2
HETATM    2  S1  UNL     1      22.606  44.413  58.506  1.00  0.00    -0.105 SA
BRANCH   2   3
HETATM    3  C3  UNL     1      20.828  44.164  58.849  1.00  0.00     0.103 A 
HETATM    4  N2  UNL     1      19.888  43.916  57.947  1.00  0.00    -0.293 N 
HETATM    5  N1  UNL     1      18.752  43.736  58.583  1.00  0.00    -0.303 N 
ATOM      6  H2  UNL     1      20.023  43.872  56.937  1.00  0.00     0.187 HD
HETATM    7  C2  UNL     1      18.968  43.873  59.924  1.00  0.00     0.042 A 
ATOM      8  H1  UNL     1      17.855  43.529  58.146  1.00  0.00     0.186 HD
HETATM    9  C1  UNL     1      17.828  43.723  60.882  1.00  0.00     0.071 C 
HETATM   10  C11 UNL     1      20.282  44.146  60.118  1.00  0.00     0.099 A 
BRANCH  10  11
HETATM   11  C12 UNL     1      20.891  44.343  61.404  1.00  0.00     0.214 C 
HETATM   12  O3  UNL     1      21.580  43.383  61.873  1.00  0.00    -0.644 OA
HETATM   13  O4  UNL     1      20.760  45.480  62.141  1.00  0.00    -0.644 OA
ENDBRANCH  10  11
ENDBRANCH   2   3
ENDBRANCH   1   2
BRANCH   1  14
HETATM   14  C5  UNL     1      23.318  45.055  55.828  1.00  0.00     0.008 A 
HETATM   15  C6  UNL     1      22.635  44.544  54.785  1.00  0.00     0.114 A 
HETATM   16  C7  UNL     1      23.203  44.444  53.511  1.00  0.00     0.080 A 
HETATM   17  C8  UNL     1      24.470  44.838  53.245  1.00  0.00     0.142 A 
HETATM   18  F1  UNL     1      24.953  44.714  51.998  1.00  0.00    -0.204 F 
HETATM   19  C9  UNL     1      25.237  45.368  54.312  1.00  0.00     0.095 A 
HETATM   20 CL1  UNL     1      26.853  45.927  53.931  1.00  0.00    -0.079 Cl
HETATM   21  C10 UNL     1      24.635  45.462  55.540  1.00  0.00     0.068 A 
HETATM   22 CL2  UNL     1      25.580  46.257  56.801  1.00  0.00    -0.082 Cl
BRANCH  15  23
HETATM   23  N3  UNL     1      21.335  44.080  54.974  1.00  0.00    -0.115 N 
HETATM   24  O1  UNL     1      21.263  42.866  55.231  1.00  0.00    -0.532 OA
HETATM   25  O2  UNL     1      20.229  44.768  54.840  1.00  0.00    -0.532 OA
ENDBRANCH  15  23
ENDBRANCH   1  14
TORSDOF 5
ENDMDL
MODEL 2
REMARK VINA RESULT: -6.306640356      2.134      2.689
REMARK  5 active torsions:
REMARK  status: ('A' for Active; 'I' for Inactive)
REMARK    1  A    between atoms: C3_7  and  S1_8 
REMARK    2  A    between atoms: S1_8  and  C4_9 
REMARK    3  A    between atoms: C4_9  and  C5_10 
REMARK    4  A    between atoms: C6_11  and  N3_12 
REMARK    5  A    between atoms: C11_22  and  C12_23 
ROOT
HETATM    1  C4  UNL     1      24.516  45.409  55.601  1.00  0.00     0.123 C 
ENDROOT
BRANCH   1   2
HETATM    2  S1  UNL     1      23.125  46.465  56.163  1.00  0.00    -0.105 SA
BRANCH   2   3
HETATM    3  C3  UNL     1      21.900  45.305  56.866  1.00  0.00     0.103 A 
HETATM    4  N2  UNL     1      20.829  44.831  56.244  1.00  0.00    -0.293 N 
HETATM    5  N1  UNL     1      20.233  43.982  57.051  1.00  0.00    -0.303 N 
ATOM      6  H2  UNL     1      20.521  45.082  55.304  1.00  0.00     0.187 HD
HETATM    7  C2  UNL     1      20.938  43.909  58.218  1.00  0.00     0.042 A 
ATOM      8  H1  UNL     1      19.382  43.461  56.840  1.00  0.00     0.186 HD
HETATM    9  C1  UNL     1      20.466  43.012  59.320  1.00  0.00     0.071 C 
HETATM   10  C11 UNL     1      22.002  44.743  58.124  1.00  0.00     0.099 A 
BRANCH  10  11
HETATM   11  C12 UNL     1      22.985  44.927  59.156  1.00  0.00     0.214 C 
HETATM   12  O3  UNL     1      24.094  44.322  59.016  1.00  0.00    -0.644 OA
HETATM   13  O4  UNL     1      22.790  45.692  60.265  1.00  0.00    -0.644 OA
ENDBRANCH  10  11
ENDBRANCH   2   3
ENDBRANCH   1   2
BRANCH   1  14
HETATM   14  C5  UNL     1      24.997  45.529  54.237  1.00  0.00     0.008 A 
HETATM   15  C6  UNL     1      24.345  44.985  53.190  1.00  0.00     0.114 A 
HETATM   16  C7  UNL     1      24.595  45.393  51.876  1.00  0.00     0.080 A 
HETATM   17  C8  UNL     1      25.508  46.342  51.568  1.00  0.00     0.142 A 
HETATM   18  F1  UNL     1      25.697  46.686  50.283  1.00  0.00    -0.204 F 
HETATM   19  C9  UNL     1      26.232  46.935  52.631  1.00  0.00     0.095 A 
HETATM   20 CL1  UNL     1      27.365  48.204  52.215  1.00  0.00    -0.079 Cl
HETATM   21  C10 UNL     1      25.945  46.516  53.905  1.00  0.00     0.068 A 
HETATM   22 CL2  UNL     1      26.769  47.381  55.204  1.00  0.00    -0.082 Cl
BRANCH  15  23
HETATM   23  N3  UNL     1      23.412  43.973  53.410  1.00  0.00    -0.115 N 
HETATM   24  O1  UNL     1      23.905  42.833  53.462  1.00  0.00    -0.532 OA
HETATM   25  O2  UNL     1      22.113  44.109  53.491  1.00  0.00    -0.532 OA
ENDBRANCH  15  23
ENDBRANCH   1  14
TORSDOF 5
ENDMDL
MODEL 3
REMARK VINA RESULT: -6.120498343      3.433      3.869
REMARK  5 active torsions:
REMARK  status: ('A' for Active; 'I' for Inactive)
REMARK    1  A    between atoms: C3_7  and  S1_8 
REMARK    2  A    between atoms: S1_8  and  C4_9 
REMARK    3  A    between atoms: C4_9  and  C5_10 
REMARK    4  A    between atoms: C6_11  and  N3_12 
REMARK    5  A    between atoms: C11_22  and  C12_23 
ROOT
HETATM    1  C4  UNL     1      20.809  44.881  56.281  1.00  0.00     0.123 C 
ENDROOT
BRANCH   1   2
HETATM    2  S1  UNL     1      21.098  43.682  57.639  1.00  0.00    -0.105 SA
BRANCH   2   3
HETATM    3  C3  UNL     1      19.811  44.053  58.883  1.00  0.00     0.103 A 
HETATM    4  N2  UNL     1      18.518  43.780  58.773  1.00  0.00    -0.293 N 
HETATM    5  N1  UNL     1      17.930  44.138  59.892  1.00  0.00    -0.303 N 
ATOM      6  H2  UNL     1      18.061  43.364  57.961  1.00  0.00     0.187 HD
HETATM    7  C2  UNL     1      18.867  44.654  60.740  1.00  0.00     0.042 A 
ATOM      8  H1  UNL     1      16.935  44.047  60.094  1.00  0.00     0.186 HD
HETATM    9  C1  UNL     1      18.457  45.149  62.093  1.00  0.00     0.071 C 
HETATM   10  C11 UNL     1      20.071  44.611  60.120  1.00  0.00     0.099 A 
BRANCH  10  11
HETATM   11  C12 UNL     1      21.305  45.056  60.707  1.00  0.00     0.214 C 
HETATM   12  O3  UNL     1      21.658  46.256  60.477  1.00  0.00    -0.644 OA
HETATM   13  O4  UNL     1      22.110  44.270  61.474  1.00  0.00    -0.644 OA
ENDBRANCH  10  11
ENDBRANCH   2   3
ENDBRANCH   1   2
BRANCH   1  14
HETATM   14  C5  UNL     1      20.719  44.403  54.913  1.00  0.00     0.008 A 
HETATM   15  C6  UNL     1      21.809  44.137  54.167  1.00  0.00     0.114 A 
HETATM   16  C7  UNL     1      21.736  43.352  53.012  1.00  0.00     0.080 A 
HETATM   17  C8  UNL     1      20.575  42.822  52.562  1.00  0.00     0.142 A 
HETATM   18  F1  UNL     1      20.578  42.077  51.444  1.00  0.00    -0.204 F 
HETATM   19  C9  UNL     1      19.396  43.086  53.302  1.00  0.00     0.095 A 
HETATM   20 CL1  UNL     1      17.915  42.340  52.735  1.00  0.00    -0.079 Cl
HETATM   21  C10 UNL     1      19.516  43.847  54.436  1.00  0.00     0.068 A 
HETATM   22 CL2  UNL     1      18.048  44.030  55.399  1.00  0.00    -0.082 Cl
BRANCH  15  23
HETATM   23  N3  UNL     1      23.042  44.671  54.535  1.00  0.00    -0.115 N 
HETATM   24  O1  UNL     1      23.891  43.817  54.844  1.00  0.00    -0.532 OA
HETATM   25  O2  UNL     1      23.347  45.939  54.645  1.00  0.00    -0.532 OA
ENDBRANCH  15  23
ENDBRANCH   1  14
TORSDOF 5
ENDMDL
MODEL 4
REMARK VINA RESULT: -6.039390457      3.603      6.562
REMARK  5 active torsions:
REMARK  status: ('A' for Active; 'I' for Inactive)
REMARK    1  A    between atoms: C3_7  and  S1_8 
REMARK    2  A    between atoms: S1_8  and  C4_9 
REMARK    3  A    between atoms: C4_9  and  C5_10 
REMARK    4  A    between atoms: C6_11  and  N3_12 
REMARK    5  A    between atoms: C11_22  and  C12_23 
ROOT
HETATM    1  C4  UNL     1      21.444  46.200  57.926  1.00  0.00     0.123 C 
ENDROOT
BRANCH   1   2
HETATM    2  S1  UNL     1      22.499  45.012  57.010  1.00  0.00    -0.105 SA
BRANCH   2   3
HETATM    3  C3  UNL     1      21.391  44.244  55.775  1.00  0.00     0.103 A 
HETATM    4  N2  UNL     1      20.092  44.025  55.923  1.00  0.00    -0.293 N 
HETATM    5  N1  UNL     1      19.635  43.517  54.801  1.00  0.00    -0.303 N 
ATOM      6  H2  UNL     1      19.543  44.217  56.762  1.00  0.00     0.187 HD
HETATM    7  C2  UNL     1      20.665  43.407  53.911  1.00  0.00     0.042 A 
ATOM      8  H1  UNL     1      18.667  43.247  54.623  1.00  0.00     0.186 HD
HETATM    9  C1  UNL     1      20.414  42.846  52.546  1.00  0.00     0.071 C 
HETATM   10  C11 UNL     1      21.793  43.863  54.509  1.00  0.00     0.099 A 
BRANCH  10  11
HETATM   11  C12 UNL     1      23.082  43.917  53.878  1.00  0.00     0.214 C 
HETATM   12  O3  UNL     1      23.611  42.811  53.541  1.00  0.00    -0.644 OA
HETATM   13  O4  UNL     1      23.763  45.071  53.637  1.00  0.00    -0.644 OA
ENDBRANCH  10  11
ENDBRANCH   2   3
ENDBRANCH   1   2
BRANCH   1  14
HETATM   14  C5  UNL     1      21.536  46.269  59.373  1.00  0.00     0.008 A 
HETATM   15  C6  UNL     1      21.003  45.328  60.177  1.00  0.00     0.114 A 
HETATM   16  C7  UNL     1      21.391  45.196  61.514  1.00  0.00     0.080 A 
HETATM   17  C8  UNL     1      22.310  46.006  62.089  1.00  0.00     0.142 A 
HETATM   18  F1  UNL     1      22.637  45.824  63.380  1.00  0.00    -0.204 F 
HETATM   19  C9  UNL     1      22.890  47.023  61.291  1.00  0.00     0.095 A 
HETATM   20 CL1  UNL     1      24.121  48.020  62.040  1.00  0.00    -0.079 Cl
HETATM   21  C10 UNL     1      22.492  47.105  59.982  1.00  0.00     0.068 A 
HETATM   22 CL2  UNL     1      23.343  48.293  58.992  1.00  0.00    -0.082 Cl
BRANCH  15  23
HETATM   23  N3  UNL     1      20.022  44.472  59.679  1.00  0.00    -0.115 N 
HETATM   24  O1  UNL     1      18.862  44.810  59.969  1.00  0.00    -0.532 OA
HETATM   25  O2  UNL     1      20.215  43.355  59.023  1.00  0.00    -0.532 OA
ENDBRANCH  15  23
ENDBRANCH   1  14
TORSDOF 5
ENDMDL
MODEL 5
REMARK VINA RESULT: -5.987775818      4.621      6.404
REMARK  5 active torsions:
REMARK  status: ('A' for Active; 'I' for Inactive)
REMARK    1  A    between atoms: C3_7  and  S1_8 
REMARK    2  A    between atoms: S1_8  and  C4_9 
REMARK    3  A    between atoms: C4_9  and  C5_10 
REMARK    4  A    between atoms: C6_11  and  N3_12 
REMARK    5  A    between atoms: C11_22  and  C12_23 
ROOT
HETATM    1  C4  UNL     1      22.399  43.434  54.916  1.00  0.00     0.123 C 
ENDROOT
BRANCH   1   2
HETATM    2  S1  UNL     1      21.625  43.934  53.330  1.00  0.00    -0.105 SA
BRANCH   2   3
HETATM    3  C3  UNL     1      19.901  43.335  53.430  1.00  0.00     0.103 A 
HETATM    4  N2  UNL     1      19.062  43.541  54.436  1.00  0.00    -0.293 N 
HETATM    5  N1  UNL     1      17.904  43.011  54.114  1.00  0.00    -0.303 N 
ATOM      6  H2  UNL     1      19.278  44.026  55.307  1.00  0.00     0.187 HD
HETATM    7  C2  UNL     1      18.001  42.451  52.872  1.00  0.00     0.042 A 
ATOM      8  H1  UNL     1      17.067  43.016  54.697  1.00  0.00     0.186 HD
HETATM    9  C1  UNL     1      16.815  41.768  52.266  1.00  0.00     0.071 C 
HETATM   10  C11 UNL     1      19.264  42.644  52.418  1.00  0.00     0.099 A 
BRANCH  10  11
HETATM   11  C12 UNL     1      19.743  42.205  51.136  1.00  0.00     0.214 C 
HETATM   12  O3  UNL     1      19.787  43.069  50.205  1.00  0.00    -0.644 OA
HETATM   13  O4  UNL     1      20.134  40.929  50.867  1.00  0.00    -0.644 OA
ENDBRANCH  10  11
ENDBRANCH   2   3
ENDBRANCH   1   2
BRANCH   1  14
HETATM   14  C5  UNL     1      22.953  44.450  55.791  1.00  0.00     0.008 A 
HETATM   15  C6  UNL     1      23.991  45.230  55.429  1.00  0.00     0.114 A 
HETATM   16  C7  UNL     1      24.286  46.421  56.100  1.00  0.00     0.080 A 
HETATM   17  C8  UNL     1      23.565  46.860  57.158  1.00  0.00     0.142 A 
HETATM   18  F1  UNL     1      23.905  48.013  57.756  1.00  0.00    -0.204 F 
HETATM   19  C9  UNL     1      22.473  46.068  57.589  1.00  0.00     0.095 A 
HETATM   20 CL1  UNL     1      21.517  46.686  58.922  1.00  0.00    -0.079 Cl
HETATM   21  C10 UNL     1      22.210  44.916  56.893  1.00  0.00     0.068 A 
HETATM   22 CL2  UNL     1      20.758  44.038  57.378  1.00  0.00    -0.082 Cl
BRANCH  15  23
HETATM   23  N3  UNL     1      24.810  44.838  54.372  1.00  0.00    -0.115 N 
HETATM   24  O1  UNL     1      25.627  43.949  54.668  1.00  0.00    -0.532 OA
HETATM   25  O2  UNL     1      24.839  45.353  53.169  1.00  0.00    -0.532 OA
ENDBRANCH  15  23
ENDBRANCH   1  14
TORSDOF 5
ENDMDL
