MODEL 1
REMARK VINA RESULT: -6.962045896      0.000      0.000
REMARK  7 active torsions:
REMARK  status: ('A' for Active; 'I' for Inactive)
REMARK    1  A    between atoms: C2_2  and  O1_3 
REMARK    2  A    between atoms: O1_3  and  C3_4 
REMARK    3  A    between atoms: C3_4  and  C4_5 
REMARK    4  A    between atoms: C3_4  and  C12_17 
REMARK    5  A    between atoms: C5_7  and  C6_8 
REMARK    6  A    between atoms: C11_14  and  O4_15 
REMARK    7  A    between atoms: C17_25  and  O5_26 
ROOT
HETATM    1  C3  UNL     1      24.333  44.929  55.241  1.00  0.00     0.220 C 
ENDROOT
BRANCH   1   2
HETATM    2  O1  UNL     1      24.944  43.919  55.955  1.00  0.00    -0.375 OA
BRANCH   2   3
HETATM    3  C2  UNL     1      25.415  44.273  57.197  1.00  0.00     0.164 C 
HETATM    4  C1  UNL     1      24.355  44.562  58.215  1.00  0.00     0.033 C 
ENDBRANCH   2   3
ENDBRANCH   1   2
BRANCH   1   5
HETATM    5  C4  UNL     1      25.205  45.494  54.179  1.00  0.00     0.124 A 
HETATM    6  O2  UNL     1      25.001  46.718  53.747  1.00  0.00    -0.313 OA
HETATM    7  C5  UNL     1      25.666  47.352  52.835  1.00  0.00     0.060 A 
HETATM    8  C9  UNL     1      26.714  46.690  52.231  1.00  0.00     0.091 A 
HETATM    9  C10 UNL     1      27.014  45.401  52.610  1.00  0.00     0.209 A 
HETATM   10  O3  UNL     1      27.963  44.769  52.080  1.00  0.00    -0.285 OA
HETATM   11  C11 UNL     1      26.241  44.792  53.605  1.00  0.00     0.149 A 
BRANCH   7  12
HETATM   12  C6  UNL     1      25.318  48.767  52.437  1.00  0.00     0.035 C 
HETATM   13  C7  UNL     1      25.429  48.989  50.968  1.00  0.00     0.016 C 
HETATM   14  C8  UNL     1      26.222  49.746  53.177  1.00  0.00     0.016 C 
ENDBRANCH   7  12
BRANCH  11  15
HETATM   15  O4  UNL     1      26.528  43.493  54.002  1.00  0.00    -0.355 OA
ATOM     16  H4  UNL     1      27.287  43.035  53.660  1.00  0.00     0.218 HD
ENDBRANCH  11  15
ENDBRANCH   1   5
BRANCH   1  17
HETATM   17  C12 UNL     1      22.970  44.579  54.778  1.00  0.00     0.052 A 
HETATM   18  C13 UNL     1      21.906  45.280  55.284  1.00  0.00     0.130 A 
HETATM   19  F1  UNL     1      22.097  46.301  56.197  1.00  0.00    -0.205 F 
HETATM   20  C14 UNL     1      20.629  44.971  54.883  1.00  0.00     0.070 A 
HETATM   21  C15 UNL     1      20.356  43.974  53.982  1.00  0.00     0.078 A 
HETATM   22 CL1  UNL     1      18.711  43.588  53.477  1.00  0.00    -0.081 Cl
HETATM   23  C16 UNL     1      21.443  43.267  53.474  1.00  0.00     0.171 A 
HETATM   24  F2  UNL     1      21.159  42.285  52.584  1.00  0.00    -0.201 F 
HETATM   25  C17 UNL     1      22.727  43.577  53.877  1.00  0.00     0.118 A 
BRANCH  25  26
HETATM   26  O5  UNL     1      23.754  42.810  53.313  1.00  0.00    -0.357 OA
ATOM     27  H5  UNL     1      24.196  43.061  52.511  1.00  0.00     0.217 HD
ENDBRANCH  25  26
ENDBRANCH   1  17
TORSDOF 7
ENDMDL
MODEL 2
REMARK VINA RESULT: -6.945279709      1.263      2.128
REMARK  7 active torsions:
REMARK  status: ('A' for Active; 'I' for Inactive)
REMARK    1  A    between atoms: C2_2  and  O1_3 
REMARK    2  A    between atoms: O1_3  and  C3_4 
REMARK    3  A    between atoms: C3_4  and  C4_5 
REMARK    4  A    between atoms: C3_4  and  C12_17 
REMARK    5  A    between atoms: C5_7  and  C6_8 
REMARK    6  A    between atoms: C11_14  and  O4_15 
REMARK    7  A    between atoms: C17_25  and  O5_26 
ROOT
HETATM    1  C3  UNL     1      24.266  45.089  55.267  1.00  0.00     0.220 C 
ENDROOT
BRANCH   1   2
HETATM    2  O1  UNL     1      25.104  44.022  55.515  1.00  0.00    -0.375 OA
BRANCH   2   3
HETATM    3  C2  UNL     1      25.785  44.068  56.709  1.00  0.00     0.164 C 
HETATM    4  C1  UNL     1      24.946  44.406  57.901  1.00  0.00     0.033 C 
ENDBRANCH   2   3
ENDBRANCH   1   2
BRANCH   1   5
HETATM    5  C4  UNL     1      24.901  46.140  54.432  1.00  0.00     0.124 A 
HETATM    6  O2  UNL     1      24.941  46.005  53.126  1.00  0.00    -0.313 OA
HETATM    7  C5  UNL     1      25.454  46.823  52.264  1.00  0.00     0.060 A 
HETATM    8  C9  UNL     1      26.033  47.978  52.745  1.00  0.00     0.091 A 
HETATM    9  C10 UNL     1      26.047  48.220  54.100  1.00  0.00     0.209 A 
HETATM   10  O3  UNL     1      26.566  49.262  54.573  1.00  0.00    -0.285 OA
HETATM   11  C11 UNL     1      25.469  47.278  54.960  1.00  0.00     0.149 A 
BRANCH   7  12
HETATM   12  C6  UNL     1      25.426  46.537  50.781  1.00  0.00     0.035 C 
HETATM   13  C7  UNL     1      26.095  45.252  50.436  1.00  0.00     0.016 C 
HETATM   14  C8  UNL     1      26.086  47.683  50.023  1.00  0.00     0.016 C 
ENDBRANCH   7  12
BRANCH  11  15
HETATM   15  O4  UNL     1      25.472  47.503  56.330  1.00  0.00    -0.355 OA
ATOM     16  H4  UNL     1      25.172  46.833  56.934  1.00  0.00     0.218 HD
ENDBRANCH  11  15
ENDBRANCH   1   5
BRANCH   1  17
HETATM   17  C12 UNL     1      22.920  44.682  54.802  1.00  0.00     0.052 A 
HETATM   18  C13 UNL     1      21.823  45.288  55.357  1.00  0.00     0.130 A 
HETATM   19  F1  UNL     1      21.965  46.269  56.322  1.00  0.00    -0.205 F 
HETATM   20  C14 UNL     1      20.561  44.925  54.956  1.00  0.00     0.070 A 
HETATM   21  C15 UNL     1      20.335  43.962  54.005  1.00  0.00     0.078 A 
HETATM   22 CL1  UNL     1      18.709  43.504  53.499  1.00  0.00    -0.081 Cl
HETATM   23  C16 UNL     1      21.455  43.350  53.446  1.00  0.00     0.171 A 
HETATM   24  F2  UNL     1      21.217  42.402  52.509  1.00  0.00    -0.201 F 
HETATM   25  C17 UNL     1      22.724  43.716  53.851  1.00  0.00     0.118 A 
BRANCH  25  26
HETATM   26  O5  UNL     1      23.787  43.044  53.235  1.00  0.00    -0.357 OA
ATOM     27  H5  UNL     1      23.776  42.811  52.313  1.00  0.00     0.217 HD
ENDBRANCH  25  26
ENDBRANCH   1  17
TORSDOF 7
ENDMDL
MODEL 3
REMARK VINA RESULT: -6.634623285      1.009      1.118
REMARK  7 active torsions:
REMARK  status: ('A' for Active; 'I' for Inactive)
REMARK    1  A    between atoms: C2_2  and  O1_3 
REMARK    2  A    between atoms: O1_3  and  C3_4 
REMARK    3  A    between atoms: C3_4  and  C4_5 
REMARK    4  A    between atoms: C3_4  and  C12_17 
REMARK    5  A    between atoms: C5_7  and  C6_8 
REMARK    6  A    between atoms: C11_14  and  O4_15 
REMARK    7  A    between atoms: C17_25  and  O5_26 
ROOT
HETATM    1  C3  UNL     1      24.913  45.134  54.863  1.00  0.00     0.220 C 
ENDROOT
BRANCH   1   2
HETATM    2  O1  UNL     1      25.673  44.014  55.126  1.00  0.00    -0.375 OA
BRANCH   2   3
HETATM    3  C2  UNL     1      26.406  44.053  56.289  1.00  0.00     0.164 C 
HETATM    4  C1  UNL     1      25.614  44.354  57.523  1.00  0.00     0.033 C 
ENDBRANCH   2   3
ENDBRANCH   1   2
BRANCH   1   5
HETATM    5  C4  UNL     1      25.444  45.941  53.736  1.00  0.00     0.124 A 
HETATM    6  O2  UNL     1      25.408  47.253  53.795  1.00  0.00    -0.313 OA
HETATM    7  C5  UNL     1      25.826  48.094  52.905  1.00  0.00     0.060 A 
HETATM    8  C9  UNL     1      26.378  47.580  51.750  1.00  0.00     0.091 A 
HETATM    9  C10 UNL     1      26.464  46.216  51.584  1.00  0.00     0.209 A 
HETATM   10  O3  UNL     1      26.961  45.715  50.544  1.00  0.00    -0.285 OA
HETATM   11  C11 UNL     1      25.986  45.381  52.600  1.00  0.00     0.149 A 
BRANCH   7  12
HETATM   12  C6  UNL     1      25.721  49.587  53.109  1.00  0.00     0.035 C 
HETATM   13  C7  UNL     1      26.135  50.358  51.903  1.00  0.00     0.016 C 
HETATM   14  C8  UNL     1      26.571  50.003  54.304  1.00  0.00     0.016 C 
ENDBRANCH   7  12
BRANCH  11  15
HETATM   15  O4  UNL     1      26.064  44.003  52.454  1.00  0.00    -0.355 OA
ATOM     16  H4  UNL     1      26.884  43.583  52.222  1.00  0.00     0.218 HD
ENDBRANCH  11  15
ENDBRANCH   1   5
BRANCH   1  17
HETATM   17  C12 UNL     1      23.462  44.850  54.770  1.00  0.00     0.052 A 
HETATM   18  C13 UNL     1      22.588  45.677  55.426  1.00  0.00     0.130 A 
HETATM   19  F1  UNL     1      23.045  46.763  56.151  1.00  0.00    -0.205 F 
HETATM   20  C14 UNL     1      21.237  45.434  55.368  1.00  0.00     0.070 A 
HETATM   21  C15 UNL     1      20.705  44.379  54.671  1.00  0.00     0.078 A 
HETATM   22 CL1  UNL     1      18.968  44.077  54.605  1.00  0.00    -0.081 Cl
HETATM   23  C16 UNL     1      21.600  43.543  54.008  1.00  0.00     0.171 A 
HETATM   24  F2  UNL     1      21.060  42.506  53.323  1.00  0.00    -0.201 F 
HETATM   25  C17 UNL     1      22.958  43.789  54.067  1.00  0.00     0.118 A 
BRANCH  25  26
HETATM   26  O5  UNL     1      23.778  42.893  53.370  1.00  0.00    -0.357 OA
ATOM     27  H5  UNL     1      24.463  42.390  53.798  1.00  0.00     0.217 HD
ENDBRANCH  25  26
ENDBRANCH   1  17
TORSDOF 7
ENDMDL
MODEL 4
REMARK VINA RESULT: -6.278999707      2.939      6.032
REMARK  7 active torsions:
REMARK  status: ('A' for Active; 'I' for Inactive)
REMARK    1  A    between atoms: C2_2  and  O1_3 
REMARK    2  A    between atoms: O1_3  and  C3_4 
REMARK    3  A    between atoms: C3_4  and  C4_5 
REMARK    4  A    between atoms: C3_4  and  C12_17 
REMARK    5  A    between atoms: C5_7  and  C6_8 
REMARK    6  A    between atoms: C11_14  and  O4_15 
REMARK    7  A    between atoms: C17_25  and  O5_26 
ROOT
HETATM    1  C3  UNL     1      24.943  44.711  55.028  1.00  0.00     0.220 C 
ENDROOT
BRANCH   1   2
HETATM    2  O1  UNL     1      25.880  44.572  56.030  1.00  0.00    -0.375 OA
BRANCH   2   3
HETATM    3  C2  UNL     1      27.032  43.910  55.679  1.00  0.00     0.164 C 
HETATM    4  C1  UNL     1      28.300  44.652  55.968  1.00  0.00     0.033 C 
ENDBRANCH   2   3
ENDBRANCH   1   2
BRANCH   1   5
HETATM    5  C4  UNL     1      23.548  44.576  55.518  1.00  0.00     0.124 A 
HETATM    6  O2  UNL     1      22.650  43.964  54.780  1.00  0.00    -0.313 OA
HETATM    7  C5  UNL     1      21.402  43.766  55.060  1.00  0.00     0.060 A 
HETATM    8  C9  UNL     1      20.935  44.241  56.268  1.00  0.00     0.091 A 
HETATM    9  C10 UNL     1      21.793  44.899  57.119  1.00  0.00     0.209 A 
HETATM   10  O3  UNL     1      21.400  45.346  58.226  1.00  0.00    -0.285 OA
HETATM   11  C11 UNL     1      23.128  45.070  56.733  1.00  0.00     0.149 A 
BRANCH   7  12
HETATM   12  C6  UNL     1      20.480  43.040  54.110  1.00  0.00     0.035 C 
HETATM   13  C7  UNL     1      20.963  43.083  52.702  1.00  0.00     0.016 C 
HETATM   14  C8  UNL     1      19.080  43.638  54.195  1.00  0.00     0.016 C 
ENDBRANCH   7  12
BRANCH  11  15
HETATM   15  O4  UNL     1      24.010  45.730  57.577  1.00  0.00    -0.355 OA
ATOM     16  H4  UNL     1      23.736  46.018  58.441  1.00  0.00     0.218 HD
ENDBRANCH  11  15
ENDBRANCH   1   5
BRANCH   1  17
HETATM   17  C12 UNL     1      25.170  45.900  54.173  1.00  0.00     0.052 A 
HETATM   18  C13 UNL     1      24.979  45.782  52.821  1.00  0.00     0.130 A 
HETATM   19  F1  UNL     1      24.572  44.584  52.262  1.00  0.00    -0.205 F 
HETATM   20  C14 UNL     1      25.192  46.863  52.001  1.00  0.00     0.070 A 
HETATM   21  C15 UNL     1      25.596  48.084  52.476  1.00  0.00     0.078 A 
HETATM   22 CL1  UNL     1      25.867  49.464  51.412  1.00  0.00    -0.081 Cl
HETATM   23  C16 UNL     1      25.788  48.196  53.852  1.00  0.00     0.171 A 
HETATM   24  F2  UNL     1      26.187  49.408  54.307  1.00  0.00    -0.201 F 
HETATM   25  C17 UNL     1      25.574  47.108  54.675  1.00  0.00     0.118 A 
BRANCH  25  26
HETATM   26  O5  UNL     1      25.795  47.316  56.043  1.00  0.00    -0.357 OA
ATOM     27  H5  UNL     1      26.512  47.848  56.368  1.00  0.00     0.217 HD
ENDBRANCH  25  26
ENDBRANCH   1  17
TORSDOF 7
ENDMDL
MODEL 5
REMARK VINA RESULT: -6.260541490      2.913      6.058
REMARK  7 active torsions:
REMARK  status: ('A' for Active; 'I' for Inactive)
REMARK    1  A    between atoms: C2_2  and  O1_3 
REMARK    2  A    between atoms: O1_3  and  C3_4 
REMARK    3  A    between atoms: C3_4  and  C4_5 
REMARK    4  A    between atoms: C3_4  and  C12_17 
REMARK    5  A    between atoms: C5_7  and  C6_8 
REMARK    6  A    between atoms: C11_14  and  O4_15 
REMARK    7  A    between atoms: C17_25  and  O5_26 
ROOT
HETATM    1  C3  UNL     1      24.692  44.597  54.260  1.00  0.00     0.220 C 
ENDROOT
BRANCH   1   2
HETATM    2  O1  UNL     1      25.639  44.137  55.151  1.00  0.00    -0.375 OA
BRANCH   2   3
HETATM    3  C2  UNL     1      26.900  43.954  54.635  1.00  0.00     0.164 C 
HETATM    4  C1  UNL     1      28.012  44.491  55.482  1.00  0.00     0.033 C 
ENDBRANCH   2   3
ENDBRANCH   1   2
BRANCH   1   5
HETATM    5  C4  UNL     1      23.307  44.503  54.789  1.00  0.00     0.124 A 
HETATM    6  O2  UNL     1      22.310  44.247  53.973  1.00  0.00    -0.313 OA
HETATM    7  C5  UNL     1      21.056  44.134  54.272  1.00  0.00     0.060 A 
HETATM    8  C9  UNL     1      20.697  44.297  55.594  1.00  0.00     0.091 A 
HETATM    9  C10 UNL     1      21.665  44.569  56.534  1.00  0.00     0.209 A 
HETATM   10  O3  UNL     1      21.372  44.723  57.747  1.00  0.00    -0.285 OA
HETATM   11  C11 UNL     1      22.998  44.674  56.120  1.00  0.00     0.149 A 
BRANCH   7  12
HETATM   12  C6  UNL     1      20.012  43.834  53.223  1.00  0.00     0.035 C 
HETATM   13  C7  UNL     1      18.708  43.427  53.817  1.00  0.00     0.016 C 
HETATM   14  C8  UNL     1      20.519  42.740  52.291  1.00  0.00     0.016 C 
ENDBRANCH   7  12
BRANCH  11  15
HETATM   15  O4  UNL     1      23.989  44.948  57.052  1.00  0.00    -0.355 OA
ATOM     16  H4  UNL     1      23.852  44.772  57.976  1.00  0.00     0.218 HD
ENDBRANCH  11  15
ENDBRANCH   1   5
BRANCH   1  17
HETATM   17  C12 UNL     1      25.026  45.918  53.678  1.00  0.00     0.052 A 
HETATM   18  C13 UNL     1      24.972  46.067  52.317  1.00  0.00     0.130 A 
HETATM   19  F1  UNL     1      24.601  45.015  51.500  1.00  0.00    -0.205 F 
HETATM   20  C14 UNL     1      25.287  47.276  51.746  1.00  0.00     0.070 A 
HETATM   21  C15 UNL     1      25.664  48.368  52.486  1.00  0.00     0.078 A 
HETATM   22 CL1  UNL     1      26.067  49.915  51.741  1.00  0.00    -0.081 Cl
HETATM   23  C16 UNL     1      25.718  48.207  53.869  1.00  0.00     0.171 A 
HETATM   24  F2  UNL     1      26.091  49.294  54.587  1.00  0.00    -0.201 F 
HETATM   25  C17 UNL     1      25.400  46.991  54.442  1.00  0.00     0.118 A 
BRANCH  25  26
HETATM   26  O5  UNL     1      25.486  46.925  55.838  1.00  0.00    -0.357 OA
ATOM     27  H5  UNL     1      25.817  47.645  56.363  1.00  0.00     0.217 HD
ENDBRANCH  25  26
ENDBRANCH   1  17
TORSDOF 7
ENDMDL
