MODEL 1
REMARK VINA RESULT: -6.239312037      0.000      0.000
REMARK  9 active torsions:
REMARK  status: ('A' for Active; 'I' for Inactive)
REMARK    1  A    between atoms: C3_3  and  N1_4 
REMARK    2  A    between atoms: N1_4  and  C4_6 
REMARK    3  A    between atoms: C5_9  and  N3_10 
REMARK    4  A    between atoms: C6_15  and  N5_16 
REMARK    5  A    between atoms: N5_16  and  C7_18 
REMARK    6  A    between atoms: C7_18  and  C8_19 
REMARK    7  A    between atoms: C8_19  and  C9_20 
REMARK    8  A    between atoms: C9_20  and  C10_21 
REMARK    9  A    between atoms: C10_21  and  N6_22 
ROOT
HETATM    1  C1  UNL     1     -32.970  31.686 -12.891  1.00  0.00     0.014 C 
HETATM    2  C2  UNL     1     -31.756  31.795 -12.863  1.00  0.00    -0.097 C 
HETATM    3  C3  UNL     1     -30.299  31.940 -12.850  1.00  0.00     0.231 C 
ENDROOT
BRANCH   3   4
HETATM    4  N1  UNL     1     -29.676  31.210 -13.929  1.00  0.00    -0.215 N 
ATOM      5  H1  UNL     1     -30.008  31.334 -14.885  1.00  0.00     0.178 HD
BRANCH   4   6
HETATM    6  C4  UNL     1     -28.702  30.404 -13.687  1.00  0.00     0.708 A 
HETATM    7  N2  UNL     1     -28.867  29.241 -13.040  1.00  0.00    -0.022 N 
HETATM    8  C5  UNL     1     -27.840  28.399 -12.788  1.00  0.00     0.705 A 
ATOM      9  H2  UNL     1     -29.802  28.982 -12.727  1.00  0.00     0.203 HD
HETATM   10  N4  UNL     1     -26.609  28.773 -13.218  1.00  0.00    -0.022 N 
HETATM   11  C6  UNL     1     -26.400  29.924 -13.866  1.00  0.00     0.707 A 
ATOM     12  H4  UNL     1     -25.816  28.155 -13.041  1.00  0.00     0.203 HD
HETATM   13  N7  UNL     1     -27.457  30.722 -14.088  1.00  0.00    -0.021 N 
ATOM     14  H7  UNL     1     -27.311  31.604 -14.581  1.00  0.00     0.203 HD
BRANCH   8  15
HETATM   15  N3  UNL     1     -28.059  27.294 -12.162  1.00  0.00    -0.234 N 
ATOM     16  H32 UNL     1     -28.578  27.245 -11.285  1.00  0.00     0.174 HD
ATOM     17  H31 UNL     1     -27.704  26.417 -12.545  1.00  0.00     0.174 HD
ENDBRANCH   8  15
BRANCH  11  18
HETATM   18  N5  UNL     1     -25.249  30.315 -14.289  1.00  0.00    -0.225 N 
ATOM     19  H5  UNL     1     -24.424  29.873 -13.885  1.00  0.00     0.177 HD
BRANCH  18  20
HETATM   20  C7  UNL     1     -25.038  31.317 -15.278  1.00  0.00     0.138 C 
BRANCH  20  21
HETATM   21  C8  UNL     1     -23.773  30.968 -16.041  1.00  0.00     0.022 C 
BRANCH  21  22
HETATM   22  C9  UNL     1     -22.580  31.624 -15.375  1.00  0.00     0.029 C 
BRANCH  22  23
HETATM   23  C10 UNL     1     -22.951  33.048 -15.032  1.00  0.00     0.229 C 
BRANCH  23  24
HETATM   24  N6  UNL     1     -22.416  33.372 -13.734  1.00  0.00    -0.079 N 
ATOM     25  H63 UNL     1     -22.662  32.678 -13.028  1.00  0.00     0.274 HD
ATOM     26  H62 UNL     1     -21.402  33.264 -13.693  1.00  0.00     0.274 HD
ATOM     27  H61 UNL     1     -22.716  34.312 -13.476  1.00  0.00     0.274 HD
ENDBRANCH  23  24
ENDBRANCH  22  23
ENDBRANCH  21  22
ENDBRANCH  20  21
ENDBRANCH  18  20
ENDBRANCH  11  18
ENDBRANCH   4   6
ENDBRANCH   3   4
TORSDOF 9
ENDMDL
MODEL 2
REMARK VINA RESULT: -6.154360216      1.075      1.199
REMARK  9 active torsions:
REMARK  status: ('A' for Active; 'I' for Inactive)
REMARK    1  A    between atoms: C3_3  and  N1_4 
REMARK    2  A    between atoms: N1_4  and  C4_6 
REMARK    3  A    between atoms: C5_9  and  N3_10 
REMARK    4  A    between atoms: C6_15  and  N5_16 
REMARK    5  A    between atoms: N5_16  and  C7_18 
REMARK    6  A    between atoms: C7_18  and  C8_19 
REMARK    7  A    between atoms: C8_19  and  C9_20 
REMARK    8  A    between atoms: C9_20  and  C10_21 
REMARK    9  A    between atoms: C10_21  and  N6_22 
ROOT
HETATM    1  C1  UNL     1     -32.107  31.795 -13.100  1.00  0.00     0.014 C 
HETATM    2  C2  UNL     1     -30.922  32.036 -12.940  1.00  0.00    -0.097 C 
HETATM    3  C3  UNL     1     -29.502  32.342 -12.766  1.00  0.00     0.231 C 
ENDROOT
BRANCH   3   4
HETATM    4  N1  UNL     1     -28.713  31.895 -13.890  1.00  0.00    -0.215 N 
ATOM      5  H1  UNL     1     -28.777  32.383 -14.783  1.00  0.00     0.178 HD
BRANCH   4   6
HETATM    6  C4  UNL     1     -27.928  30.882 -13.767  1.00  0.00     0.708 A 
HETATM    7  N2  UNL     1     -28.295  29.751 -13.148  1.00  0.00    -0.022 N 
HETATM    8  C5  UNL     1     -27.466  28.690 -13.022  1.00  0.00     0.705 A 
ATOM      9  H2  UNL     1     -29.236  29.688 -12.758  1.00  0.00     0.203 HD
HETATM   10  N4  UNL     1     -26.223  28.806 -13.552  1.00  0.00    -0.022 N 
HETATM   11  C6  UNL     1     -25.816  29.917 -14.177  1.00  0.00     0.707 A 
ATOM     12  H4  UNL     1     -25.577  28.021 -13.471  1.00  0.00     0.203 HD
HETATM   13  N7  UNL     1     -26.681  30.939 -14.273  1.00  0.00    -0.021 N 
ATOM     14  H7  UNL     1     -26.383  31.792 -14.747  1.00  0.00     0.203 HD
BRANCH   8  15
HETATM   15  N3  UNL     1     -27.875  27.629 -12.416  1.00  0.00    -0.234 N 
ATOM     16  H32 UNL     1     -28.808  27.544 -12.013  1.00  0.00     0.174 HD
ATOM     17  H31 UNL     1     -27.250  26.827 -12.325  1.00  0.00     0.174 HD
ENDBRANCH   8  15
BRANCH  11  18
HETATM   18  N5  UNL     1     -24.646  30.066 -14.693  1.00  0.00    -0.225 N 
ATOM     19  H5  UNL     1     -23.899  29.466 -14.345  1.00  0.00     0.177 HD
BRANCH  18  20
HETATM   20  C7  UNL     1     -24.314  31.004 -15.711  1.00  0.00     0.138 C 
BRANCH  20  21
HETATM   21  C8  UNL     1     -22.913  31.522 -15.438  1.00  0.00     0.022 C 
BRANCH  21  22
HETATM   22  C9  UNL     1     -22.978  32.986 -15.054  1.00  0.00     0.029 C 
BRANCH  22  23
HETATM   23  C10 UNL     1     -24.355  33.507 -15.395  1.00  0.00     0.229 C 
BRANCH  23  24
HETATM   24  N6  UNL     1     -24.239  34.861 -15.874  1.00  0.00    -0.079 N 
ATOM     25  H63 UNL     1     -23.268  35.141 -16.018  1.00  0.00     0.274 HD
ATOM     26  H62 UNL     1     -24.561  34.962 -16.837  1.00  0.00     0.274 HD
ATOM     27  H61 UNL     1     -24.732  35.483 -15.233  1.00  0.00     0.274 HD
ENDBRANCH  23  24
ENDBRANCH  22  23
ENDBRANCH  21  22
ENDBRANCH  20  21
ENDBRANCH  18  20
ENDBRANCH  11  18
ENDBRANCH   4   6
ENDBRANCH   3   4
TORSDOF 9
ENDMDL
MODEL 3
REMARK VINA RESULT: -6.013709769      1.301      6.471
REMARK  9 active torsions:
REMARK  status: ('A' for Active; 'I' for Inactive)
REMARK    1  A    between atoms: C3_3  and  N1_4 
REMARK    2  A    between atoms: N1_4  and  C4_6 
REMARK    3  A    between atoms: C5_9  and  N3_10 
REMARK    4  A    between atoms: C6_15  and  N5_16 
REMARK    5  A    between atoms: N5_16  and  C7_18 
REMARK    6  A    between atoms: C7_18  and  C8_19 
REMARK    7  A    between atoms: C8_19  and  C9_20 
REMARK    8  A    between atoms: C9_20  and  C10_21 
REMARK    9  A    between atoms: C10_21  and  N6_22 
ROOT
HETATM    1  C1  UNL     1     -21.935  31.849 -15.351  1.00  0.00     0.014 C 
HETATM    2  C2  UNL     1     -23.070  31.422 -15.473  1.00  0.00    -0.097 C 
HETATM    3  C3  UNL     1     -24.439  30.920 -15.599  1.00  0.00     0.231 C 
ENDROOT
BRANCH   3   4
HETATM    4  N1  UNL     1     -24.732  29.903 -14.616  1.00  0.00    -0.215 N 
ATOM      5  H1  UNL     1     -24.001  29.256 -14.320  1.00  0.00     0.178 HD
BRANCH   4   6
HETATM    6  C4  UNL     1     -25.913  29.812 -14.112  1.00  0.00     0.708 A 
HETATM    7  N2  UNL     1     -26.342  28.722 -13.461  1.00  0.00    -0.022 N 
HETATM    8  C5  UNL     1     -27.584  28.632 -12.934  1.00  0.00     0.705 A 
ATOM      9  H2  UNL     1     -25.707  27.930 -13.358  1.00  0.00     0.203 HD
HETATM   10  N4  UNL     1     -28.403  29.702 -13.087  1.00  0.00    -0.022 N 
HETATM   11  C6  UNL     1     -28.016  30.810 -13.730  1.00  0.00     0.707 A 
ATOM     12  H4  UNL     1     -29.346  29.662 -12.699  1.00  0.00     0.203 HD
HETATM   13  N7  UNL     1     -26.771  30.843 -14.233  1.00  0.00    -0.021 N 
ATOM     14  H7  UNL     1     -26.464  31.681 -14.727  1.00  0.00     0.203 HD
BRANCH   8  15
HETATM   15  N3  UNL     1     -27.941  27.557 -12.319  1.00  0.00    -0.234 N 
ATOM     16  H32 UNL     1     -27.273  26.880 -11.950  1.00  0.00     0.174 HD
ATOM     17  H31 UNL     1     -28.932  27.357 -12.185  1.00  0.00     0.174 HD
ENDBRANCH   8  15
BRANCH  11  18
HETATM   18  N5  UNL     1     -28.761  31.845 -13.897  1.00  0.00    -0.225 N 
ATOM     19  H5  UNL     1     -28.930  32.154 -14.854  1.00  0.00     0.177 HD
BRANCH  18  20
HETATM   20  C7  UNL     1     -29.370  32.593 -12.850  1.00  0.00     0.138 C 
BRANCH  20  21
HETATM   21  C8  UNL     1     -30.751  32.013 -12.597  1.00  0.00     0.022 C 
BRANCH  21  22
HETATM   22  C9  UNL     1     -31.800  33.084 -12.819  1.00  0.00     0.029 C 
BRANCH  22  23
HETATM   23  C10 UNL     1     -32.966  32.462 -13.551  1.00  0.00     0.229 C 
BRANCH  23  24
HETATM   24  N6  UNL     1     -32.624  31.111 -13.918  1.00  0.00    -0.079 N 
ATOM     25  H63 UNL     1     -31.657  30.880 -13.688  1.00  0.00     0.274 HD
ATOM     26  H62 UNL     1     -33.081  30.419 -13.324  1.00  0.00     0.274 HD
ATOM     27  H61 UNL     1     -32.833  30.972 -14.906  1.00  0.00     0.274 HD
ENDBRANCH  23  24
ENDBRANCH  22  23
ENDBRANCH  21  22
ENDBRANCH  20  21
ENDBRANCH  18  20
ENDBRANCH  11  18
ENDBRANCH   4   6
ENDBRANCH   3   4
TORSDOF 9
ENDMDL
MODEL 4
REMARK VINA RESULT: -5.976047775      1.549      1.701
REMARK  9 active torsions:
REMARK  status: ('A' for Active; 'I' for Inactive)
REMARK    1  A    between atoms: C3_3  and  N1_4 
REMARK    2  A    between atoms: N1_4  and  C4_6 
REMARK    3  A    between atoms: C5_9  and  N3_10 
REMARK    4  A    between atoms: C6_15  and  N5_16 
REMARK    5  A    between atoms: N5_16  and  C7_18 
REMARK    6  A    between atoms: C7_18  and  C8_19 
REMARK    7  A    between atoms: C8_19  and  C9_20 
REMARK    8  A    between atoms: C9_20  and  C10_21 
REMARK    9  A    between atoms: C10_21  and  N6_22 
ROOT
HETATM    1  C1  UNL     1     -32.984  32.326 -12.877  1.00  0.00     0.014 C 
HETATM    2  C2  UNL     1     -32.155  31.491 -13.197  1.00  0.00    -0.097 C 
HETATM    3  C3  UNL     1     -31.148  30.493 -13.559  1.00  0.00     0.231 C 
ENDROOT
BRANCH   3   4
HETATM    4  N1  UNL     1     -29.882  31.103 -13.893  1.00  0.00    -0.215 N 
ATOM      5  H1  UNL     1     -29.820  31.752 -14.677  1.00  0.00     0.178 HD
BRANCH   4   6
HETATM    6  C4  UNL     1     -28.831  30.829 -13.202  1.00  0.00     0.708 A 
HETATM    7  N2  UNL     1     -28.814  30.864 -11.861  1.00  0.00    -0.022 N 
HETATM    8  C5  UNL     1     -27.706  30.576 -11.141  1.00  0.00     0.705 A 
ATOM      9  H2  UNL     1     -29.669  31.118 -11.366  1.00  0.00     0.203 HD
HETATM   10  N4  UNL     1     -26.587  30.242 -11.830  1.00  0.00    -0.022 N 
HETATM   11  C6  UNL     1     -26.559  30.195 -13.166  1.00  0.00     0.707 A 
ATOM     12  H4  UNL     1     -25.737  30.019 -11.311  1.00  0.00     0.203 HD
HETATM   13  N7  UNL     1     -27.688  30.492 -13.830  1.00  0.00    -0.021 N 
ATOM     14  H7  UNL     1     -27.680  30.461 -14.850  1.00  0.00     0.203 HD
BRANCH   8  15
HETATM   15  N3  UNL     1     -27.750  30.627  -9.854  1.00  0.00    -0.234 N 
ATOM     16  H32 UNL     1     -28.416  30.088  -9.299  1.00  0.00     0.174 HD
ATOM     17  H31 UNL     1     -27.099  31.228  -9.350  1.00  0.00     0.174 HD
ENDBRANCH   8  15
BRANCH  11  18
HETATM   18  N5  UNL     1     -25.518  29.884 -13.856  1.00  0.00    -0.225 N 
ATOM     19  H5  UNL     1     -24.668  29.651 -13.344  1.00  0.00     0.177 HD
BRANCH  18  20
HETATM   20  C7  UNL     1     -25.462  29.839 -15.278  1.00  0.00     0.138 C 
BRANCH  20  21
HETATM   21  C8  UNL     1     -24.344  30.760 -15.735  1.00  0.00     0.022 C 
BRANCH  21  22
HETATM   22  C9  UNL     1     -24.815  32.199 -15.677  1.00  0.00     0.029 C 
BRANCH  22  23
HETATM   23  C10 UNL     1     -23.746  33.022 -14.997  1.00  0.00     0.229 C 
BRANCH  23  24
HETATM   24  N6  UNL     1     -22.608  32.181 -14.725  1.00  0.00    -0.079 N 
ATOM     25  H63 UNL     1     -22.748  31.593 -13.903  1.00  0.00     0.274 HD
ATOM     26  H62 UNL     1     -22.499  31.438 -15.416  1.00  0.00     0.274 HD
ATOM     27  H61 UNL     1     -21.775  32.764 -14.649  1.00  0.00     0.274 HD
ENDBRANCH  23  24
ENDBRANCH  22  23
ENDBRANCH  21  22
ENDBRANCH  20  21
ENDBRANCH  18  20
ENDBRANCH  11  18
ENDBRANCH   4   6
ENDBRANCH   3   4
TORSDOF 9
ENDMDL
MODEL 5
REMARK VINA RESULT: -5.934781203      3.986      9.137
REMARK  9 active torsions:
REMARK  status: ('A' for Active; 'I' for Inactive)
REMARK    1  A    between atoms: C3_3  and  N1_4 
REMARK    2  A    between atoms: N1_4  and  C4_6 
REMARK    3  A    between atoms: C5_9  and  N3_10 
REMARK    4  A    between atoms: C6_15  and  N5_16 
REMARK    5  A    between atoms: N5_16  and  C7_18 
REMARK    6  A    between atoms: C7_18  and  C8_19 
REMARK    7  A    between atoms: C8_19  and  C9_20 
REMARK    8  A    between atoms: C9_20  and  C10_21 
REMARK    9  A    between atoms: C10_21  and  N6_22 
ROOT
HETATM    1  C1  UNL     1     -18.385  32.151  -8.605  1.00  0.00     0.014 C 
HETATM    2  C2  UNL     1     -18.172  32.889  -9.551  1.00  0.00    -0.097 C 
HETATM    3  C3  UNL     1     -17.939  33.783 -10.687  1.00  0.00     0.231 C 
ENDROOT
BRANCH   3   4
HETATM    4  N1  UNL     1     -18.591  33.310 -11.886  1.00  0.00    -0.215 N 
ATOM      5  H1  UNL     1     -18.259  32.463 -12.346  1.00  0.00     0.178 HD
BRANCH   4   6
HETATM    6  C4  UNL     1     -19.592  33.955 -12.375  1.00  0.00     0.708 A 
HETATM    7  N2  UNL     1     -19.618  35.292 -12.466  1.00  0.00    -0.022 N 
HETATM    8  C5  UNL     1     -20.673  35.965 -12.980  1.00  0.00     0.705 A 
ATOM      9  H2  UNL     1     -18.812  35.823 -12.135  1.00  0.00     0.203 HD
HETATM   10  N4  UNL     1     -21.728  35.230 -13.412  1.00  0.00    -0.022 N 
HETATM   11  C6  UNL     1     -21.744  33.894 -13.339  1.00  0.00     0.707 A 
ATOM     12  H4  UNL     1     -22.537  35.712 -13.805  1.00  0.00     0.203 HD
HETATM   13  N7  UNL     1     -20.670  33.280 -12.819  1.00  0.00    -0.021 N 
ATOM     14  H7  UNL     1     -20.669  32.261 -12.757  1.00  0.00     0.203 HD
BRANCH   8  15
HETATM   15  N3  UNL     1     -20.641  37.252 -13.042  1.00  0.00    -0.234 N 
ATOM     16  H32 UNL     1     -20.672  37.767 -13.922  1.00  0.00     0.174 HD
ATOM     17  H31 UNL     1     -20.582  37.797 -12.182  1.00  0.00     0.174 HD
ENDBRANCH   8  15
BRANCH  11  18
HETATM   18  N5  UNL     1     -22.724  33.162 -13.737  1.00  0.00    -0.225 N 
ATOM     19  H5  UNL     1     -23.309  32.731 -13.021  1.00  0.00     0.177 HD
BRANCH  18  20
HETATM   20  C7  UNL     1     -23.056  32.906 -15.097  1.00  0.00     0.138 C 
BRANCH  20  21
HETATM   21  C8  UNL     1     -22.944  31.411 -15.338  1.00  0.00     0.022 C 
BRANCH  21  22
HETATM   22  C9  UNL     1     -24.205  30.908 -16.011  1.00  0.00     0.029 C 
BRANCH  22  23
HETATM   23  C10 UNL     1     -25.173  30.465 -14.938  1.00  0.00     0.229 C 
BRANCH  23  24
HETATM   24  N6  UNL     1     -24.557  29.426 -14.151  1.00  0.00    -0.079 N 
ATOM     25  H63 UNL     1     -24.024  29.799 -13.365  1.00  0.00     0.274 HD
ATOM     26  H62 UNL     1     -25.239  28.887 -13.618  1.00  0.00     0.274 HD
ATOM     27  H61 UNL     1     -23.990  28.839 -14.762  1.00  0.00     0.274 HD
ENDBRANCH  23  24
ENDBRANCH  22  23
ENDBRANCH  21  22
ENDBRANCH  20  21
ENDBRANCH  18  20
ENDBRANCH  11  18
ENDBRANCH   4   6
ENDBRANCH   3   4
TORSDOF 9
ENDMDL
