MODEL 1
REMARK VINA RESULT: -6.237641736      0.000      0.000
REMARK  8 active torsions:
REMARK  status: ('A' for Active; 'I' for Inactive)
REMARK    1  A    between atoms: C3_3  and  N1_4 
REMARK    2  A    between atoms: N1_4  and  C4_6 
REMARK    3  A    between atoms: C5_9  and  N3_10 
REMARK    4  A    between atoms: C6_15  and  N5_16 
REMARK    5  A    between atoms: N5_16  and  C7_18 
REMARK    6  A    between atoms: C7_18  and  C8_19 
REMARK    7  A    between atoms: C8_19  and  N6_20 
REMARK    8  A    between atoms: N6_20  and  C9_23 
ROOT
HETATM    1  C1  UNL     1     -22.141  32.126 -15.077  1.00  0.00     0.014 C 
HETATM    2  C2  UNL     1     -23.121  31.478 -15.377  1.00  0.00    -0.097 C 
HETATM    3  C3  UNL     1     -24.328  30.704 -15.760  1.00  0.00     0.231 C 
ENDROOT
BRANCH   3   4
HETATM    4  N1  UNL     1     -24.772  29.950 -14.646  1.00  0.00    -0.215 N 
ATOM      5  H1  UNL     1     -24.046  29.410 -14.175  1.00  0.00     0.178 HD
BRANCH   4   6
HETATM    6  C4  UNL     1     -25.925  29.841 -14.146  1.00  0.00     0.708 A 
HETATM    7  N2  UNL     1     -26.316  28.732 -13.505  1.00  0.00    -0.022 N 
HETATM    8  C5  UNL     1     -27.570  28.654 -12.984  1.00  0.00     0.705 A 
ATOM      9  H2  UNL     1     -25.673  27.946 -13.407  1.00  0.00     0.203 HD
HETATM   10  N4  UNL     1     -28.401  29.702 -13.125  1.00  0.00    -0.022 N 
HETATM   11  C6  UNL     1     -28.031  30.843 -13.775  1.00  0.00     0.707 A 
ATOM     12  H4  UNL     1     -29.340  29.641 -12.733  1.00  0.00     0.203 HD
HETATM   13  N7  UNL     1     -26.789  30.895 -14.279  1.00  0.00    -0.021 N 
ATOM     14  H7  UNL     1     -26.483  31.735 -14.769  1.00  0.00     0.203 HD
BRANCH   8  15
HETATM   15  N3  UNL     1     -27.904  27.566 -12.379  1.00  0.00    -0.234 N 
ATOM     16  H32 UNL     1     -27.291  27.081 -11.725  1.00  0.00     0.174 HD
ATOM     17  H31 UNL     1     -28.830  27.182 -12.566  1.00  0.00     0.174 HD
ENDBRANCH   8  15
BRANCH  11  18
HETATM   18  N5  UNL     1     -28.922  31.752 -13.838  1.00  0.00    -0.223 N 
ATOM     19  H5  UNL     1     -29.368  31.887 -14.746  1.00  0.00     0.177 HD
BRANCH  18  20
HETATM   20  C7  UNL     1     -29.368  32.608 -12.776  1.00  0.00     0.165 C 
BRANCH  20  21
HETATM   21  C8  UNL     1     -30.888  32.576 -12.748  1.00  0.00     0.252 C 
BRANCH  21  22
HETATM   22  N6  UNL     1     -31.397  31.429 -13.463  1.00  0.00    -0.074 N 
ATOM     23  H62 UNL     1     -31.120  31.437 -14.444  1.00  0.00     0.277 HD
ATOM     24  H61 UNL     1     -30.930  30.567 -13.183  1.00  0.00     0.277 HD
BRANCH  22  25
HETATM   25  C9  UNL     1     -32.839  31.339 -13.308  1.00  0.00     0.228 C 
HETATM   26  C10 UNL     1     -33.255  32.051 -12.037  1.00  0.00     0.034 C 
ENDBRANCH  22  25
ENDBRANCH  21  22
ENDBRANCH  20  21
ENDBRANCH  18  20
ENDBRANCH  11  18
ENDBRANCH   4   6
ENDBRANCH   3   4
TORSDOF 8
ENDMDL
MODEL 2
REMARK VINA RESULT: -6.185014799      1.247      6.207
REMARK  8 active torsions:
REMARK  status: ('A' for Active; 'I' for Inactive)
REMARK    1  A    between atoms: C3_3  and  N1_4 
REMARK    2  A    between atoms: N1_4  and  C4_6 
REMARK    3  A    between atoms: C5_9  and  N3_10 
REMARK    4  A    between atoms: C6_15  and  N5_16 
REMARK    5  A    between atoms: N5_16  and  C7_18 
REMARK    6  A    between atoms: C7_18  and  C8_19 
REMARK    7  A    between atoms: C8_19  and  N6_20 
REMARK    8  A    between atoms: N6_20  and  C9_23 
ROOT
HETATM    1  C1  UNL     1     -32.260  31.595 -13.122  1.00  0.00     0.014 C 
HETATM    2  C2  UNL     1     -31.106  31.945 -12.989  1.00  0.00    -0.097 C 
HETATM    3  C3  UNL     1     -29.703  32.396 -12.818  1.00  0.00     0.231 C 
ENDROOT
BRANCH   3   4
HETATM    4  N1  UNL     1     -28.892  31.787 -13.808  1.00  0.00    -0.215 N 
ATOM      5  H1  UNL     1     -28.984  32.184 -14.742  1.00  0.00     0.178 HD
BRANCH   4   6
HETATM    6  C4  UNL     1     -28.076  30.830 -13.713  1.00  0.00     0.708 A 
HETATM    7  N2  UNL     1     -28.399  29.683 -13.103  1.00  0.00    -0.022 N 
HETATM    8  C5  UNL     1     -27.487  28.677 -13.020  1.00  0.00     0.705 A 
ATOM      9  H2  UNL     1     -29.329  29.563 -12.702  1.00  0.00     0.203 HD
HETATM   10  N4  UNL     1     -26.267  28.857 -13.555  1.00  0.00    -0.022 N 
HETATM   11  C6  UNL     1     -25.909  30.016 -14.180  1.00  0.00     0.707 A 
ATOM     12  H4  UNL     1     -25.586  28.101 -13.492  1.00  0.00     0.203 HD
HETATM   13  N7  UNL     1     -26.826  30.991 -14.250  1.00  0.00    -0.021 N 
ATOM     14  H7  UNL     1     -26.589  31.869 -14.711  1.00  0.00     0.203 HD
BRANCH   8  15
HETATM   15  N3  UNL     1     -27.841  27.592 -12.421  1.00  0.00    -0.234 N 
ATOM     16  H32 UNL     1     -28.277  27.580 -11.499  1.00  0.00     0.174 HD
ATOM     17  H31 UNL     1     -27.676  26.707 -12.901  1.00  0.00     0.174 HD
ENDBRANCH   8  15
BRANCH  11  18
HETATM   18  N5  UNL     1     -24.719  30.048 -14.636  1.00  0.00    -0.223 N 
ATOM     19  H5  UNL     1     -24.028  29.486 -14.138  1.00  0.00     0.177 HD
BRANCH  18  20
HETATM   20  C7  UNL     1     -24.241  30.787 -15.769  1.00  0.00     0.165 C 
BRANCH  20  21
HETATM   21  C8  UNL     1     -22.980  31.528 -15.355  1.00  0.00     0.252 C 
BRANCH  21  22
HETATM   22  N6  UNL     1     -23.298  32.698 -14.569  1.00  0.00    -0.074 N 
ATOM     23  H62 UNL     1     -23.635  32.452 -13.639  1.00  0.00     0.277 HD
ATOM     24  H61 UNL     1     -22.462  33.213 -14.295  1.00  0.00     0.277 HD
BRANCH  22  25
HETATM   25  C9  UNL     1     -24.243  33.540 -15.282  1.00  0.00     0.228 C 
HETATM   26  C10 UNL     1     -23.595  34.873 -15.596  1.00  0.00     0.034 C 
ENDBRANCH  22  25
ENDBRANCH  21  22
ENDBRANCH  20  21
ENDBRANCH  18  20
ENDBRANCH  11  18
ENDBRANCH   4   6
ENDBRANCH   3   4
TORSDOF 8
ENDMDL
MODEL 3
REMARK VINA RESULT: -6.052022584      1.328      1.433
REMARK  8 active torsions:
REMARK  status: ('A' for Active; 'I' for Inactive)
REMARK    1  A    between atoms: C3_3  and  N1_4 
REMARK    2  A    between atoms: N1_4  and  C4_6 
REMARK    3  A    between atoms: C5_9  and  N3_10 
REMARK    4  A    between atoms: C6_15  and  N5_16 
REMARK    5  A    between atoms: N5_16  and  C7_18 
REMARK    6  A    between atoms: C7_18  and  C8_19 
REMARK    7  A    between atoms: C8_19  and  N6_20 
REMARK    8  A    between atoms: N6_20  and  C9_23 
ROOT
HETATM    1  C1  UNL     1     -22.389  31.747 -15.369  1.00  0.00     0.014 C 
HETATM    2  C2  UNL     1     -23.504  31.273 -15.431  1.00  0.00    -0.097 C 
HETATM    3  C3  UNL     1     -24.869  30.700 -15.531  1.00  0.00     0.231 C 
ENDROOT
BRANCH   3   4
HETATM    4  N1  UNL     1     -25.537  30.866 -14.293  1.00  0.00    -0.215 N 
ATOM      5  H1  UNL     1     -25.071  31.488 -13.633  1.00  0.00     0.178 HD
BRANCH   4   6
HETATM    6  C4  UNL     1     -26.619  30.365 -13.879  1.00  0.00     0.708 A 
HETATM    7  N2  UNL     1     -26.659  29.172 -13.273  1.00  0.00    -0.022 N 
HETATM    8  C5  UNL     1     -27.847  28.666 -12.847  1.00  0.00     0.705 A 
ATOM      9  H2  UNL     1     -25.798  28.643 -13.132  1.00  0.00     0.203 HD
HETATM   10  N4  UNL     1     -28.969  29.380 -13.045  1.00  0.00    -0.022 N 
HETATM   11  C6  UNL     1     -28.959  30.597 -13.661  1.00  0.00     0.707 A 
ATOM     12  H4  UNL     1     -29.858  28.999 -12.722  1.00  0.00     0.203 HD
HETATM   13  N7  UNL     1     -27.775  31.074 -14.072  1.00  0.00    -0.021 N 
ATOM     14  H7  UNL     1     -27.734  31.981 -14.536  1.00  0.00     0.203 HD
BRANCH   8  15
HETATM   15  N3  UNL     1     -27.838  27.512 -12.271  1.00  0.00    -0.234 N 
ATOM     16  H32 UNL     1     -27.501  26.664 -12.727  1.00  0.00     0.174 HD
ATOM     17  H31 UNL     1     -28.184  27.455 -11.314  1.00  0.00     0.174 HD
ENDBRANCH   8  15
BRANCH  11  18
HETATM   18  N5  UNL     1     -30.096  31.158 -13.786  1.00  0.00    -0.223 N 
ATOM     19  H5  UNL     1     -30.622  30.933 -14.631  1.00  0.00     0.177 HD
BRANCH  18  20
HETATM   20  C7  UNL     1     -30.721  32.072 -12.873  1.00  0.00     0.165 C 
BRANCH  20  21
HETATM   21  C8  UNL     1     -32.206  31.751 -12.823  1.00  0.00     0.252 C 
BRANCH  21  22
HETATM   22  N6  UNL     1     -32.917  32.408 -13.896  1.00  0.00    -0.074 N 
ATOM     23  H62 UNL     1     -32.325  32.546 -14.716  1.00  0.00     0.277 HD
ATOM     24  H61 UNL     1     -33.618  31.800 -14.318  1.00  0.00     0.277 HD
BRANCH  22  25
HETATM   25  C9  UNL     1     -33.493  33.656 -13.427  1.00  0.00     0.228 C 
HETATM   26  C10 UNL     1     -33.624  34.621 -14.589  1.00  0.00     0.034 C 
ENDBRANCH  22  25
ENDBRANCH  21  22
ENDBRANCH  20  21
ENDBRANCH  18  20
ENDBRANCH  11  18
ENDBRANCH   4   6
ENDBRANCH   3   4
TORSDOF 8
ENDMDL
MODEL 4
REMARK VINA RESULT: -6.025541478      1.758      6.451
REMARK  8 active torsions:
REMARK  status: ('A' for Active; 'I' for Inactive)
REMARK    1  A    between atoms: C3_3  and  N1_4 
REMARK    2  A    between atoms: N1_4  and  C4_6 
REMARK    3  A    between atoms: C5_9  and  N3_10 
REMARK    4  A    between atoms: C6_15  and  N5_16 
REMARK    5  A    between atoms: N5_16  and  C7_18 
REMARK    6  A    between atoms: C7_18  and  C8_19 
REMARK    7  A    between atoms: C8_19  and  N6_20 
REMARK    8  A    between atoms: N6_20  and  C9_23 
ROOT
HETATM    1  C1  UNL     1     -32.642  32.846 -12.820  1.00  0.00     0.014 C 
HETATM    2  C2  UNL     1     -32.028  31.844 -13.121  1.00  0.00    -0.097 C 
HETATM    3  C3  UNL     1     -31.291  30.605 -13.472  1.00  0.00     0.231 C 
ENDROOT
BRANCH   3   4
HETATM    4  N1  UNL     1     -29.937  30.926 -13.738  1.00  0.00    -0.215 N 
ATOM      5  H1  UNL     1     -29.773  31.392 -14.630  1.00  0.00     0.178 HD
BRANCH   4   6
HETATM    6  C4  UNL     1     -28.903  30.725 -13.044  1.00  0.00     0.708 A 
HETATM    7  N2  UNL     1     -28.866  31.003 -11.735  1.00  0.00    -0.022 N 
HETATM    8  C5  UNL     1     -27.728  30.776 -11.024  1.00  0.00     0.705 A 
ATOM      9  H2  UNL     1     -29.690  31.385 -11.271  1.00  0.00     0.203 HD
HETATM   10  N4  UNL     1     -26.654  30.273 -11.656  1.00  0.00    -0.022 N 
HETATM   11  C6  UNL     1     -26.661  29.983 -12.989  1.00  0.00     0.707 A 
ATOM     12  H4  UNL     1     -25.803  30.102 -11.120  1.00  0.00     0.203 HD
HETATM   13  N7  UNL     1     -27.795  30.215 -13.667  1.00  0.00    -0.021 N 
ATOM     14  H7  UNL     1     -27.833  30.008 -14.665  1.00  0.00     0.203 HD
BRANCH   8  15
HETATM   15  N3  UNL     1     -27.737  31.062  -9.767  1.00  0.00    -0.234 N 
ATOM     16  H32 UNL     1     -28.128  31.926  -9.394  1.00  0.00     0.174 HD
ATOM     17  H31 UNL     1     -27.335  30.382  -9.121  1.00  0.00     0.174 HD
ENDBRANCH   8  15
BRANCH  11  18
HETATM   18  N5  UNL     1     -25.572  29.517 -13.456  1.00  0.00    -0.223 N 
ATOM     19  H5  UNL     1     -24.881  29.207 -12.771  1.00  0.00     0.177 HD
BRANCH  18  20
HETATM   20  C7  UNL     1     -25.204  29.377 -14.836  1.00  0.00     0.165 C 
BRANCH  20  21
HETATM   21  C8  UNL     1     -24.718  30.728 -15.336  1.00  0.00     0.252 C 
BRANCH  21  22
HETATM   22  N6  UNL     1     -23.301  30.890 -15.104  1.00  0.00    -0.074 N 
ATOM     23  H62 UNL     1     -23.002  30.435 -14.242  1.00  0.00     0.277 HD
ATOM     24  H61 UNL     1     -22.743  30.347 -15.762  1.00  0.00     0.277 HD
BRANCH  22  25
HETATM   25  C9  UNL     1     -22.947  32.299 -15.125  1.00  0.00     0.228 C 
HETATM   26  C10 UNL     1     -24.200  33.132 -15.303  1.00  0.00     0.034 C 
ENDBRANCH  22  25
ENDBRANCH  21  22
ENDBRANCH  20  21
ENDBRANCH  18  20
ENDBRANCH  11  18
ENDBRANCH   4   6
ENDBRANCH   3   4
TORSDOF 8
ENDMDL
MODEL 5
REMARK VINA RESULT: -5.916031459      3.484      5.502
REMARK  8 active torsions:
REMARK  status: ('A' for Active; 'I' for Inactive)
REMARK    1  A    between atoms: C3_3  and  N1_4 
REMARK    2  A    between atoms: N1_4  and  C4_6 
REMARK    3  A    between atoms: C5_9  and  N3_10 
REMARK    4  A    between atoms: C6_15  and  N5_16 
REMARK    5  A    between atoms: N5_16  and  C7_18 
REMARK    6  A    between atoms: C7_18  and  C8_19 
REMARK    7  A    between atoms: C8_19  and  N6_20 
REMARK    8  A    between atoms: N6_20  and  C9_23 
ROOT
HETATM    1  C1  UNL     1     -28.176  29.886 -10.739  1.00  0.00     0.014 C 
HETATM    2  C2  UNL     1     -27.936  29.379 -11.815  1.00  0.00    -0.097 C 
HETATM    3  C3  UNL     1     -27.657  28.740 -13.124  1.00  0.00     0.231 C 
ENDROOT
BRANCH   3   4
HETATM    4  N1  UNL     1     -26.316  29.004 -13.497  1.00  0.00    -0.215 N 
ATOM      5  H1  UNL     1     -25.649  28.273 -13.250  1.00  0.00     0.178 HD
BRANCH   4   6
HETATM    6  C4  UNL     1     -25.818  30.002 -14.087  1.00  0.00     0.708 A 
HETATM    7  N2  UNL     1     -24.566  29.989 -14.563  1.00  0.00    -0.022 N 
HETATM    8  C5  UNL     1     -24.066  31.089 -15.188  1.00  0.00     0.705 A 
ATOM      9  H2  UNL     1     -23.988  29.155 -14.455  1.00  0.00     0.203 HD
HETATM   10  N4  UNL     1     -24.845  32.177 -15.318  1.00  0.00    -0.022 N 
HETATM   11  C6  UNL     1     -26.123  32.219 -14.841  1.00  0.00     0.707 A 
ATOM     12  H4  UNL     1     -24.468  32.999 -15.789  1.00  0.00     0.203 HD
HETATM   13  N7  UNL     1     -26.593  31.122 -14.229  1.00  0.00    -0.021 N 
ATOM     14  H7  UNL     1     -27.544  31.123 -13.863  1.00  0.00     0.203 HD
BRANCH   8  15
HETATM   15  N3  UNL     1     -22.855  31.033 -15.627  1.00  0.00    -0.234 N 
ATOM     16  H32 UNL     1     -22.152  31.741 -15.416  1.00  0.00     0.174 HD
ATOM     17  H31 UNL     1     -22.595  30.236 -16.209  1.00  0.00     0.174 HD
ENDBRANCH   8  15
BRANCH  11  18
HETATM   18  N5  UNL     1     -26.742  33.316 -15.029  1.00  0.00    -0.223 N 
ATOM     19  H5  UNL     1     -27.748  33.303 -14.857  1.00  0.00     0.177 HD
BRANCH  18  20
HETATM   20  C7  UNL     1     -26.186  34.568 -15.456  1.00  0.00     0.165 C 
BRANCH  20  21
HETATM   21  C8  UNL     1     -27.322  35.443 -15.965  1.00  0.00     0.252 C 
BRANCH  21  22
HETATM   22  N6  UNL     1     -27.068  35.892 -17.314  1.00  0.00    -0.074 N 
ATOM     23  H62 UNL     1     -26.569  36.782 -17.331  1.00  0.00     0.277 HD
ATOM     24  H61 UNL     1     -26.367  35.318 -17.782  1.00  0.00     0.277 HD
BRANCH  22  25
HETATM   25  C9  UNL     1     -28.309  35.952 -18.066  1.00  0.00     0.228 C 
HETATM   26  C10 UNL     1     -28.008  36.296 -19.511  1.00  0.00     0.034 C 
ENDBRANCH  22  25
ENDBRANCH  21  22
ENDBRANCH  20  21
ENDBRANCH  18  20
ENDBRANCH  11  18
ENDBRANCH   4   6
ENDBRANCH   3   4
TORSDOF 8
ENDMDL
