MODEL 1
REMARK VINA RESULT: -6.018105918      0.000      0.000
REMARK  10 active torsions:
REMARK  status: ('A' for Active; 'I' for Inactive)
REMARK    1  A    between atoms: N1_1  and  C1_5 
REMARK    2  A    between atoms: C1_5  and  C2_6 
REMARK    3  A    between atoms: C2_6  and  N2_7 
REMARK    4  A    between atoms: N2_7  and  C3_9 
REMARK    5  A    between atoms: C6_14  and  N4_15 
REMARK    6  A    between atoms: N4_15  and  C7_17 
REMARK    7  A    between atoms: C8_18  and  N5_19 
REMARK    8  A    between atoms: N5_19  and  C9_21 
REMARK    9  A    between atoms: C9_21  and  C10_22 
REMARK   10  A    between atoms: C10_22  and  O1_23 
ROOT
HETATM    1  C3  UNL     1     -21.050  33.651 -11.561  1.00  0.00     0.679 A 
HETATM    2  N3  UNL     1     -21.963  34.203 -10.758  1.00  0.00    -0.202 N 
ATOM      3  H3  UNL     1     -21.749  34.290  -9.765  1.00  0.00     0.183 HD
HETATM    4  C4  UNL     1     -23.165  34.655 -11.207  1.00  0.00     0.110 A 
HETATM    5  C5  UNL     1     -23.482  34.552 -12.543  1.00  0.00     0.066 A 
HETATM    6  C6  UNL     1     -22.531  33.980 -13.368  1.00  0.00     0.122 A 
HETATM    7  N6  UNL     1     -21.358  33.546 -12.884  1.00  0.00    -0.177 N 
ATOM      8  H6  UNL     1     -20.680  33.128 -13.521  1.00  0.00     0.186 HD
ENDROOT
BRANCH   6   9
HETATM    9  N4  UNL     1     -22.815  33.872 -14.621  1.00  0.00    -0.351 N 
ATOM     10  H4  UNL     1     -22.516  34.604 -15.266  1.00  0.00     0.166 HD
BRANCH   9  11
HETATM   11  C7  UNL     1     -23.536  32.754 -15.122  1.00  0.00     0.106 C 
HETATM   12  C8  UNL     1     -23.010  31.590 -15.401  1.00  0.00     0.100 C 
BRANCH  12  13
HETATM   13  N5  UNL     1     -23.827  30.557 -15.892  1.00  0.00    -0.396 N 
ATOM     14  H5  UNL     1     -23.457  29.909 -16.588  1.00  0.00     0.159 HD
BRANCH  13  15
HETATM   15  C9  UNL     1     -25.171  30.404 -15.427  1.00  0.00     0.145 C 
BRANCH  15  16
HETATM   16  C10 UNL     1     -25.387  29.339 -14.409  1.00  0.00     0.183 C 
BRANCH  16  17
HETATM   17  O1  UNL     1     -25.300  28.045 -14.875  1.00  0.00    -0.399 OA
ATOM     18  H1  UNL     1     -26.100  27.687 -15.243  1.00  0.00     0.209 HD
ENDBRANCH  16  17
ENDBRANCH  15  16
ENDBRANCH  13  15
ENDBRANCH  12  13
ENDBRANCH   9  11
ENDBRANCH   6   9
BRANCH   1  19
HETATM   19  N2  UNL     1     -19.913  33.208 -11.202  1.00  0.00    -0.224 N 
ATOM     20  H2  UNL     1     -19.370  32.741 -11.928  1.00  0.00     0.177 HD
BRANCH  19  21
HETATM   21  C2  UNL     1     -19.299  33.278  -9.919  1.00  0.00     0.165 C 
BRANCH  21  22
HETATM   22  C1  UNL     1     -17.810  33.571 -10.158  1.00  0.00     0.249 C 
BRANCH  22  23
HETATM   23  N1  UNL     1     -17.154  32.266 -10.000  1.00  0.00    -0.078 N 
ATOM     24  H13 UNL     1     -17.724  31.473 -10.294  1.00  0.00     0.274 HD
ATOM     25  H12 UNL     1     -16.387  32.102 -10.654  1.00  0.00     0.274 HD
ATOM     26  H11 UNL     1     -16.877  32.240  -9.019  1.00  0.00     0.274 HD
ENDBRANCH  22  23
ENDBRANCH  21  22
ENDBRANCH  19  21
ENDBRANCH   1  19
TORSDOF 10
ENDMDL
MODEL 2
REMARK VINA RESULT: -5.787048234      2.872      6.591
REMARK  10 active torsions:
REMARK  status: ('A' for Active; 'I' for Inactive)
REMARK    1  A    between atoms: N1_1  and  C1_5 
REMARK    2  A    between atoms: C1_5  and  C2_6 
REMARK    3  A    between atoms: C2_6  and  N2_7 
REMARK    4  A    between atoms: N2_7  and  C3_9 
REMARK    5  A    between atoms: C6_14  and  N4_15 
REMARK    6  A    between atoms: N4_15  and  C7_17 
REMARK    7  A    between atoms: C8_18  and  N5_19 
REMARK    8  A    between atoms: N5_19  and  C9_21 
REMARK    9  A    between atoms: C9_21  and  C10_22 
REMARK   10  A    between atoms: C10_22  and  O1_23 
ROOT
HETATM    1  C3  UNL     1     -23.188  32.546 -14.880  1.00  0.00     0.679 A 
HETATM    2  N3  UNL     1     -23.890  33.511 -15.480  1.00  0.00    -0.202 N 
ATOM      3  H3  UNL     1     -24.562  33.248 -16.200  1.00  0.00     0.183 HD
HETATM    4  C4  UNL     1     -23.747  34.828 -15.173  1.00  0.00     0.110 A 
HETATM    5  C5  UNL     1     -22.847  35.214 -14.205  1.00  0.00     0.066 A 
HETATM    6  C6  UNL     1     -22.125  34.210 -13.588  1.00  0.00     0.122 A 
HETATM    7  N6  UNL     1     -22.296  32.923 -13.922  1.00  0.00    -0.177 N 
ATOM      8  H6  UNL     1     -21.745  32.207 -13.447  1.00  0.00     0.186 HD
ENDROOT
BRANCH   6   9
HETATM    9  N4  UNL     1     -21.275  34.555 -12.682  1.00  0.00    -0.351 N 
ATOM     10  H4  UNL     1     -21.062  35.544 -12.547  1.00  0.00     0.166 HD
BRANCH   9  11
HETATM   11  C7  UNL     1     -20.628  33.586 -11.868  1.00  0.00     0.106 C 
HETATM   12  C8  UNL     1     -20.701  33.537 -10.564  1.00  0.00     0.100 C 
BRANCH  12  13
HETATM   13  N5  UNL     1     -20.016  32.529  -9.866  1.00  0.00    -0.396 N 
ATOM     14  H5  UNL     1     -20.097  31.559 -10.172  1.00  0.00     0.159 HD
BRANCH  13  15
HETATM   15  C9  UNL     1     -19.205  32.846  -8.731  1.00  0.00     0.145 C 
BRANCH  15  16
HETATM   16  C10 UNL     1     -17.746  32.588  -8.884  1.00  0.00     0.183 C 
BRANCH  16  17
HETATM   17  O1  UNL     1     -17.328  32.279 -10.160  1.00  0.00    -0.399 OA
ATOM     18  H1  UNL     1     -17.559  31.410 -10.467  1.00  0.00     0.209 HD
ENDBRANCH  16  17
ENDBRANCH  15  16
ENDBRANCH  13  15
ENDBRANCH  12  13
ENDBRANCH   9  11
ENDBRANCH   6   9
BRANCH   1  19
HETATM   19  N2  UNL     1     -23.274  31.301 -15.125  1.00  0.00    -0.224 N 
ATOM     20  H2  UNL     1     -22.523  30.723 -14.748  1.00  0.00     0.177 HD
BRANCH  19  21
HETATM   21  C2  UNL     1     -24.280  30.608 -15.855  1.00  0.00     0.165 C 
BRANCH  21  22
HETATM   22  C1  UNL     1     -25.365  30.210 -14.843  1.00  0.00     0.249 C 
BRANCH  22  23
HETATM   23  N1  UNL     1     -24.700  29.241 -13.962  1.00  0.00    -0.078 N 
ATOM     24  H13 UNL     1     -25.235  28.387 -13.800  1.00  0.00     0.274 HD
ATOM     25  H12 UNL     1     -23.887  28.787 -14.378  1.00  0.00     0.274 HD
ATOM     26  H11 UNL     1     -24.493  29.770 -13.115  1.00  0.00     0.274 HD
ENDBRANCH  22  23
ENDBRANCH  21  22
ENDBRANCH  19  21
ENDBRANCH   1  19
TORSDOF 10
ENDMDL
MODEL 3
REMARK VINA RESULT: -5.743052889      2.502      6.418
REMARK  10 active torsions:
REMARK  status: ('A' for Active; 'I' for Inactive)
REMARK    1  A    between atoms: N1_1  and  C1_5 
REMARK    2  A    between atoms: C1_5  and  C2_6 
REMARK    3  A    between atoms: C2_6  and  N2_7 
REMARK    4  A    between atoms: N2_7  and  C3_9 
REMARK    5  A    between atoms: C6_14  and  N4_15 
REMARK    6  A    between atoms: N4_15  and  C7_17 
REMARK    7  A    between atoms: C8_18  and  N5_19 
REMARK    8  A    between atoms: N5_19  and  C9_21 
REMARK    9  A    between atoms: C9_21  and  C10_22 
REMARK   10  A    between atoms: C10_22  and  O1_23 
ROOT
HETATM    1  C3  UNL     1     -23.563  32.636 -15.017  1.00  0.00     0.679 A 
HETATM    2  N3  UNL     1     -24.336  33.522 -15.649  1.00  0.00    -0.202 N 
ATOM      3  H3  UNL     1     -25.034  33.176 -16.308  1.00  0.00     0.183 HD
HETATM    4  C4  UNL     1     -24.235  34.865 -15.454  1.00  0.00     0.110 A 
HETATM    5  C5  UNL     1     -23.302  35.361 -14.572  1.00  0.00     0.066 A 
HETATM    6  C6  UNL     1     -22.505  34.439 -13.920  1.00  0.00     0.122 A 
HETATM    7  N6  UNL     1     -22.638  33.123 -14.143  1.00  0.00    -0.177 N 
ATOM      8  H6  UNL     1     -22.032  32.470 -13.645  1.00  0.00     0.186 HD
ENDROOT
BRANCH   6   9
HETATM    9  N4  UNL     1     -21.623  34.888 -13.094  1.00  0.00    -0.351 N 
ATOM     10  H4  UNL     1     -21.606  35.885 -12.875  1.00  0.00     0.166 HD
BRANCH   9  11
HETATM   11  C7  UNL     1     -20.676  34.024 -12.482  1.00  0.00     0.106 C 
HETATM   12  C8  UNL     1     -19.427  34.331 -12.245  1.00  0.00     0.100 C 
BRANCH  12  13
HETATM   13  N5  UNL     1     -18.583  33.389 -11.633  1.00  0.00    -0.396 N 
ATOM     14  H5  UNL     1     -18.252  32.586 -12.168  1.00  0.00     0.159 HD
BRANCH  13  15
HETATM   15  C9  UNL     1     -18.183  33.543 -10.268  1.00  0.00     0.145 C 
BRANCH  15  16
HETATM   16  C10 UNL     1     -18.754  32.557  -9.310  1.00  0.00     0.183 C 
BRANCH  16  17
HETATM   17  O1  UNL     1     -20.005  32.074  -9.628  1.00  0.00    -0.399 OA
ATOM     18  H1  UNL     1     -20.134  31.145  -9.482  1.00  0.00     0.209 HD
ENDBRANCH  16  17
ENDBRANCH  15  16
ENDBRANCH  13  15
ENDBRANCH  12  13
ENDBRANCH   9  11
ENDBRANCH   6   9
BRANCH   1  19
HETATM   19  N2  UNL     1     -23.607  31.374 -15.158  1.00  0.00    -0.224 N 
ATOM     20  H2  UNL     1     -22.864  30.850 -14.696  1.00  0.00     0.177 HD
BRANCH  19  21
HETATM   21  C2  UNL     1     -24.558  30.595 -15.878  1.00  0.00     0.165 C 
BRANCH  21  22
HETATM   22  C1  UNL     1     -25.568  30.069 -14.847  1.00  0.00     0.249 C 
BRANCH  22  23
HETATM   23  N1  UNL     1     -24.762  29.239 -13.941  1.00  0.00    -0.078 N 
ATOM     24  H13 UNL     1     -25.303  28.761 -13.220  1.00  0.00     0.274 HD
ATOM     25  H12 UNL     1     -24.381  28.397 -14.373  1.00  0.00     0.274 HD
ATOM     26  H11 UNL     1     -24.055  29.878 -13.577  1.00  0.00     0.274 HD
ENDBRANCH  22  23
ENDBRANCH  21  22
ENDBRANCH  19  21
ENDBRANCH   1  19
TORSDOF 10
ENDMDL
MODEL 4
REMARK VINA RESULT: -5.739278159      5.349      7.139
REMARK  10 active torsions:
REMARK  status: ('A' for Active; 'I' for Inactive)
REMARK    1  A    between atoms: N1_1  and  C1_5 
REMARK    2  A    between atoms: C1_5  and  C2_6 
REMARK    3  A    between atoms: C2_6  and  N2_7 
REMARK    4  A    between atoms: N2_7  and  C3_9 
REMARK    5  A    between atoms: C6_14  and  N4_15 
REMARK    6  A    between atoms: N4_15  and  C7_17 
REMARK    7  A    between atoms: C8_18  and  N5_19 
REMARK    8  A    between atoms: N5_19  and  C9_21 
REMARK    9  A    between atoms: C9_21  and  C10_22 
REMARK   10  A    between atoms: C10_22  and  O1_23 
ROOT
HETATM    1  C3  UNL     1     -25.485  30.281 -13.942  1.00  0.00     0.679 A 
HETATM    2  N3  UNL     1     -24.429  30.107 -14.739  1.00  0.00    -0.202 N 
ATOM      3  H3  UNL     1     -23.997  29.184 -14.781  1.00  0.00     0.183 HD
HETATM    4  C4  UNL     1     -23.902  31.106 -15.499  1.00  0.00     0.110 A 
HETATM    5  C5  UNL     1     -24.464  32.363 -15.464  1.00  0.00     0.066 A 
HETATM    6  C6  UNL     1     -25.558  32.536 -14.637  1.00  0.00     0.122 A 
HETATM    7  N6  UNL     1     -26.044  31.523 -13.905  1.00  0.00    -0.177 N 
ATOM      8  H6  UNL     1     -26.853  31.687 -13.304  1.00  0.00     0.186 HD
ENDROOT
BRANCH   6   9
HETATM    9  N4  UNL     1     -26.092  33.708 -14.590  1.00  0.00    -0.351 N 
ATOM     10  H4  UNL     1     -26.467  34.052 -13.706  1.00  0.00     0.166 HD
BRANCH   9  11
HETATM   11  C7  UNL     1     -26.169  34.531 -15.747  1.00  0.00     0.106 C 
HETATM   12  C8  UNL     1     -27.227  35.203 -16.117  1.00  0.00     0.100 C 
BRANCH  12  13
HETATM   13  N5  UNL     1     -27.182  35.985 -17.284  1.00  0.00    -0.396 N 
ATOM     14  H5  UNL     1     -26.389  36.606 -17.444  1.00  0.00     0.159 HD
BRANCH  13  15
HETATM   15  C9  UNL     1     -28.236  35.920 -18.249  1.00  0.00     0.145 C 
BRANCH  15  16
HETATM   16  C10 UNL     1     -27.841  36.195 -19.658  1.00  0.00     0.183 C 
BRANCH  16  17
HETATM   17  O1  UNL     1     -27.679  35.085 -20.458  1.00  0.00    -0.399 OA
ATOM     18  H1  UNL     1     -26.786  34.776 -20.554  1.00  0.00     0.209 HD
ENDBRANCH  16  17
ENDBRANCH  15  16
ENDBRANCH  13  15
ENDBRANCH  12  13
ENDBRANCH   9  11
ENDBRANCH   6   9
BRANCH   1  19
HETATM   19  N2  UNL     1     -26.020  29.391 -13.208  1.00  0.00    -0.224 N 
ATOM     20  H2  UNL     1     -25.461  29.077 -12.415  1.00  0.00     0.177 HD
BRANCH  19  21
HETATM   21  C2  UNL     1     -27.296  28.775 -13.350  1.00  0.00     0.165 C 
BRANCH  21  22
HETATM   22  C1  UNL     1     -28.202  29.386 -12.270  1.00  0.00     0.249 C 
BRANCH  22  23
HETATM   23  N1  UNL     1     -27.358  29.426 -11.068  1.00  0.00    -0.078 N 
ATOM     24  H13 UNL     1     -27.717  28.878 -10.286  1.00  0.00     0.274 HD
ATOM     25  H12 UNL     1     -26.474  28.924 -11.161  1.00  0.00     0.274 HD
ATOM     26  H11 UNL     1     -27.253  30.421 -10.867  1.00  0.00     0.274 HD
ENDBRANCH  22  23
ENDBRANCH  21  22
ENDBRANCH  19  21
ENDBRANCH   1  19
TORSDOF 10
ENDMDL
MODEL 5
REMARK VINA RESULT: -5.730167201      1.901      3.002
REMARK  10 active torsions:
REMARK  status: ('A' for Active; 'I' for Inactive)
REMARK    1  A    between atoms: N1_1  and  C1_5 
REMARK    2  A    between atoms: C1_5  and  C2_6 
REMARK    3  A    between atoms: C2_6  and  N2_7 
REMARK    4  A    between atoms: N2_7  and  C3_9 
REMARK    5  A    between atoms: C6_14  and  N4_15 
REMARK    6  A    between atoms: N4_15  and  C7_17 
REMARK    7  A    between atoms: C8_18  and  N5_19 
REMARK    8  A    between atoms: N5_19  and  C9_21 
REMARK    9  A    between atoms: C9_21  and  C10_22 
REMARK   10  A    between atoms: C10_22  and  O1_23 
ROOT
HETATM    1  C3  UNL     1     -22.248  33.609 -13.829  1.00  0.00     0.679 A 
HETATM    2  N3  UNL     1     -22.685  34.844 -14.088  1.00  0.00    -0.202 N 
ATOM      3  H3  UNL     1     -22.188  35.633 -13.675  1.00  0.00     0.183 HD
HETATM    4  C4  UNL     1     -23.764  35.096 -14.878  1.00  0.00     0.110 A 
HETATM    5  C5  UNL     1     -24.455  34.051 -15.449  1.00  0.00     0.066 A 
HETATM    6  C6  UNL     1     -23.996  32.776 -15.178  1.00  0.00     0.122 A 
HETATM    7  N6  UNL     1     -22.928  32.572 -14.392  1.00  0.00    -0.177 N 
ATOM      8  H6  UNL     1     -22.618  31.617 -14.212  1.00  0.00     0.186 HD
ENDROOT
BRANCH   6   9
HETATM    9  N4  UNL     1     -24.636  31.786 -15.702  1.00  0.00    -0.351 N 
ATOM     10  H4  UNL     1     -24.550  31.610 -16.704  1.00  0.00     0.166 HD
BRANCH   9  11
HETATM   11  C7  UNL     1     -25.457  30.937 -14.913  1.00  0.00     0.106 C 
HETATM   12  C8  UNL     1     -25.116  29.746 -14.493  1.00  0.00     0.100 C 
BRANCH  12  13
HETATM   13  N5  UNL     1     -26.016  28.998 -13.717  1.00  0.00    -0.396 N 
ATOM     14  H5  UNL     1     -25.949  27.979 -13.708  1.00  0.00     0.159 HD
BRANCH  13  15
HETATM   15  C9  UNL     1     -27.027  29.646 -12.939  1.00  0.00     0.145 C 
BRANCH  15  16
HETATM   16  C10 UNL     1     -28.376  29.018 -12.977  1.00  0.00     0.183 C 
BRANCH  16  17
HETATM   17  O1  UNL     1     -28.497  27.916 -13.795  1.00  0.00    -0.399 OA
ATOM     18  H1  UNL     1     -28.554  28.100 -14.725  1.00  0.00     0.209 HD
ENDBRANCH  16  17
ENDBRANCH  15  16
ENDBRANCH  13  15
ENDBRANCH  12  13
ENDBRANCH   9  11
ENDBRANCH   6   9
BRANCH   1  19
HETATM   19  N2  UNL     1     -21.251  33.310 -13.099  1.00  0.00    -0.224 N 
ATOM     20  H2  UNL     1     -20.576  32.667 -13.513  1.00  0.00     0.177 HD
BRANCH  19  21
HETATM   21  C2  UNL     1     -20.954  33.753 -11.779  1.00  0.00     0.165 C 
BRANCH  21  22
HETATM   22  C1  UNL     1     -19.542  34.355 -11.823  1.00  0.00     0.249 C 
BRANCH  22  23
HETATM   23  N1  UNL     1     -18.772  33.414 -12.648  1.00  0.00    -0.078 N 
ATOM     24  H13 UNL     1     -19.003  32.433 -12.489  1.00  0.00     0.274 HD
ATOM     25  H12 UNL     1     -19.019  33.428 -13.638  1.00  0.00     0.274 HD
ATOM     26  H11 UNL     1     -17.798  33.650 -12.457  1.00  0.00     0.274 HD
ENDBRANCH  22  23
ENDBRANCH  21  22
ENDBRANCH  19  21
ENDBRANCH   1  19
TORSDOF 10
ENDMDL
