MODEL 1
REMARK VINA RESULT: -5.935699330      0.000      0.000
REMARK  9 active torsions:
REMARK  status: ('A' for Active; 'I' for Inactive)
REMARK    1  A    between atoms: N1_1  and  C1_4 
REMARK    2  A    between atoms: C2_10  and  N5_11 
REMARK    3  A    between atoms: N6_13  and  N7_15 
REMARK    4  A    between atoms: N7_15  and  C3_17 
REMARK    5  A    between atoms: C3_17  and  N8_18 
REMARK    6  A    between atoms: C3_17  and  C4_22 
REMARK    7  A    between atoms: C3_17  and  N10_27 
REMARK    8  A    between atoms: C4_22  and  N9_23 
REMARK    9  A    between atoms: N10_27  and  N11_29 
ROOT
HETATM    1  N7  UNL     1      40.652  30.380  11.914  1.00  0.00    -0.267 N 
ATOM      2  H7  UNL     1      40.891  31.201  12.470  1.00  0.00     0.186 HD
ENDROOT
BRANCH   1   3
HETATM    3  N6  UNL     1      39.416  29.804  12.122  1.00  0.00    -0.242 N 
HETATM    4  N5  UNL     1      39.132  28.949  12.990  1.00  0.00    -0.267 N 
ATOM      5  H5  UNL     1      39.844  28.607  13.635  1.00  0.00     0.190 HD
ATOM      6  H6  UNL     1      38.660  30.104  11.506  1.00  0.00     0.208 HD
BRANCH   4   7
HETATM    7  C2  UNL     1      37.804  28.464  13.061  1.00  0.00     0.179 A 
HETATM    8  C1  UNL     1      37.223  27.705  14.053  1.00  0.00     0.159 A 
HETATM    9  N2  UNL     1      35.949  27.469  13.716  1.00  0.00    -0.267 N 
HETATM   10  N3  UNL     1      35.727  28.057  12.554  1.00  0.00    -0.019 NA
ATOM     11  H2  UNL     1      35.272  26.933  14.258  1.00  0.00     0.186 HD
HETATM   12  N4  UNL     1      36.836  28.659  12.150  1.00  0.00    -0.265 N 
ATOM     13  H4  UNL     1      36.940  29.186  11.283  1.00  0.00     0.186 HD
BRANCH   8  14
HETATM   14  N1  UNL     1      37.827  27.303  15.111  1.00  0.00    -0.382 N 
ATOM     15  H12 UNL     1      37.869  26.333  15.421  1.00  0.00     0.157 HD
ATOM     16  H11 UNL     1      38.339  27.879  15.780  1.00  0.00     0.157 HD
ENDBRANCH   8  14
ENDBRANCH   4   7
ENDBRANCH   1   3
BRANCH   1  17
HETATM   17  C3  UNL     1      41.629  29.903  10.968  1.00  0.00     0.328 C 
BRANCH  17  18
HETATM   18  N8  UNL     1      41.026  29.053   9.976  1.00  0.00    -0.029 N 
ATOM     19  H83 UNL     1      40.103  28.732  10.269  1.00  0.00     0.279 HD
ATOM     20  H82 UNL     1      40.752  29.582   9.148  1.00  0.00     0.279 HD
ATOM     21  H81 UNL     1      41.635  28.271   9.736  1.00  0.00     0.279 HD
ENDBRANCH  17  18
BRANCH  17  22
HETATM   22  C4  UNL     1      42.247  31.139  10.299  1.00  0.00     0.317 C 
BRANCH  22  23
HETATM   23  N9  UNL     1      41.863  31.159   8.912  1.00  0.00    -0.073 N 
ATOM     24  H93 UNL     1      42.634  30.913   8.291  1.00  0.00     0.274 HD
ATOM     25  H92 UNL     1      41.236  30.392   8.671  1.00  0.00     0.274 HD
ATOM     26  H91 UNL     1      41.464  32.072   8.693  1.00  0.00     0.274 HD
ENDBRANCH  22  23
ENDBRANCH  17  22
BRANCH  17  27
HETATM   27  N10 UNL     1      42.715  29.233  11.653  1.00  0.00    -0.221 N 
ATOM     28  H10 UNL     1      43.501  28.859  11.121  1.00  0.00     0.191 HD
BRANCH  27  29
HETATM   29  N11 UNL     1      42.685  29.100  13.032  1.00  0.00    -0.040 N 
HETATM   30  O1  UNL     1      43.378  29.831  13.751  1.00  0.00    -0.517 OA
HETATM   31  O2  UNL     1      41.885  28.160  13.598  1.00  0.00    -0.517 OA
ENDBRANCH  27  29
ENDBRANCH  17  27
ENDBRANCH   1  17
TORSDOF 9
ENDMDL
MODEL 2
REMARK VINA RESULT: -5.884453206      0.988      1.394
REMARK  9 active torsions:
REMARK  status: ('A' for Active; 'I' for Inactive)
REMARK    1  A    between atoms: N1_1  and  C1_4 
REMARK    2  A    between atoms: C2_10  and  N5_11 
REMARK    3  A    between atoms: N6_13  and  N7_15 
REMARK    4  A    between atoms: N7_15  and  C3_17 
REMARK    5  A    between atoms: C3_17  and  N8_18 
REMARK    6  A    between atoms: C3_17  and  C4_22 
REMARK    7  A    between atoms: C3_17  and  N10_27 
REMARK    8  A    between atoms: C4_22  and  N9_23 
REMARK    9  A    between atoms: N10_27  and  N11_29 
ROOT
HETATM    1  N7  UNL     1      40.218  30.436  12.171  1.00  0.00    -0.267 N 
ATOM      2  H7  UNL     1      40.560  31.230  12.712  1.00  0.00     0.186 HD
ENDROOT
BRANCH   1   3
HETATM    3  N6  UNL     1      38.988  29.913  12.507  1.00  0.00    -0.242 N 
HETATM    4  N5  UNL     1      38.777  28.847  13.128  1.00  0.00    -0.267 N 
ATOM      5  H5  UNL     1      39.556  28.267  13.441  1.00  0.00     0.190 HD
ATOM      6  H6  UNL     1      38.167  30.447  12.220  1.00  0.00     0.208 HD
BRANCH   4   7
HETATM    7  C2  UNL     1      37.441  28.461  13.388  1.00  0.00     0.179 A 
HETATM    8  C1  UNL     1      36.604  27.696  12.606  1.00  0.00     0.159 A 
HETATM    9  N2  UNL     1      35.427  27.577  13.234  1.00  0.00    -0.267 N 
HETATM   10  N3  UNL     1      35.512  28.240  14.373  1.00  0.00    -0.019 NA
ATOM     11  H2  UNL     1      34.612  27.067  12.894  1.00  0.00     0.186 HD
HETATM   12  N4  UNL     1      36.720  28.777  14.477  1.00  0.00    -0.265 N 
ATOM     13  H4  UNL     1      37.050  29.341  15.259  1.00  0.00     0.186 HD
BRANCH   8  14
HETATM   14  N1  UNL     1      36.925  27.195  11.469  1.00  0.00    -0.382 N 
ATOM     15  H12 UNL     1      37.400  26.302  11.344  1.00  0.00     0.157 HD
ATOM     16  H11 UNL     1      36.758  27.605  10.550  1.00  0.00     0.157 HD
ENDBRANCH   8  14
ENDBRANCH   4   7
ENDBRANCH   1   3
BRANCH   1  17
HETATM   17  C3  UNL     1      41.057  29.938  11.110  1.00  0.00     0.328 C 
BRANCH  17  18
HETATM   18  N8  UNL     1      40.281  29.274  10.096  1.00  0.00    -0.029 N 
ATOM     19  H83 UNL     1      39.292  29.514  10.165  1.00  0.00     0.279 HD
ATOM     20  H82 UNL     1      40.471  29.656   9.170  1.00  0.00     0.279 HD
ATOM     21  H81 UNL     1      40.424  28.264  10.121  1.00  0.00     0.279 HD
ENDBRANCH  17  18
BRANCH  17  22
HETATM   22  C4  UNL     1      41.786  31.147  10.508  1.00  0.00     0.317 C 
BRANCH  22  23
HETATM   23  N9  UNL     1      43.189  30.844  10.408  1.00  0.00    -0.073 N 
ATOM     24  H93 UNL     1      43.773  31.676  10.484  1.00  0.00     0.274 HD
ATOM     25  H92 UNL     1      43.539  30.349  11.228  1.00  0.00     0.274 HD
ATOM     26  H91 UNL     1      43.354  30.330   9.542  1.00  0.00     0.274 HD
ENDBRANCH  22  23
ENDBRANCH  17  22
BRANCH  17  27
HETATM   27  N10 UNL     1      42.090  29.072  11.641  1.00  0.00    -0.221 N 
ATOM     28  H10 UNL     1      42.662  28.512  11.009  1.00  0.00     0.191 HD
BRANCH  27  29
HETATM   29  N11 UNL     1      42.299  29.007  13.010  1.00  0.00    -0.040 N 
HETATM   30  O1  UNL     1      43.140  29.733  13.554  1.00  0.00    -0.517 OA
HETATM   31  O2  UNL     1      41.573  28.136  13.758  1.00  0.00    -0.517 OA
ENDBRANCH  27  29
ENDBRANCH  17  27
ENDBRANCH   1  17
TORSDOF 9
ENDMDL
MODEL 3
REMARK VINA RESULT: -5.871980214      1.171      1.469
REMARK  9 active torsions:
REMARK  status: ('A' for Active; 'I' for Inactive)
REMARK    1  A    between atoms: N1_1  and  C1_4 
REMARK    2  A    between atoms: C2_10  and  N5_11 
REMARK    3  A    between atoms: N6_13  and  N7_15 
REMARK    4  A    between atoms: N7_15  and  C3_17 
REMARK    5  A    between atoms: C3_17  and  N8_18 
REMARK    6  A    between atoms: C3_17  and  C4_22 
REMARK    7  A    between atoms: C3_17  and  N10_27 
REMARK    8  A    between atoms: C4_22  and  N9_23 
REMARK    9  A    between atoms: N10_27  and  N11_29 
ROOT
HETATM    1  N7  UNL     1      41.427  30.390  11.522  1.00  0.00    -0.267 N 
ATOM      2  H7  UNL     1      41.590  31.270  12.013  1.00  0.00     0.186 HD
ENDROOT
BRANCH   1   3
HETATM    3  N6  UNL     1      40.147  29.879  11.530  1.00  0.00    -0.242 N 
HETATM    4  N5  UNL     1      39.589  29.288  12.482  1.00  0.00    -0.267 N 
ATOM      5  H5  UNL     1      40.083  29.140  13.362  1.00  0.00     0.190 HD
ATOM      6  H6  UNL     1      39.601  29.994  10.676  1.00  0.00     0.208 HD
BRANCH   4   7
HETATM    7  C2  UNL     1      38.261  28.826  12.315  1.00  0.00     0.179 A 
HETATM    8  C1  UNL     1      37.154  29.111  13.083  1.00  0.00     0.159 A 
HETATM    9  N2  UNL     1      36.102  28.462  12.569  1.00  0.00    -0.267 N 
HETATM   10  N3  UNL     1      36.524  27.790  11.512  1.00  0.00    -0.019 NA
ATOM     11  H2  UNL     1      35.148  28.483  12.928  1.00  0.00     0.186 HD
HETATM   12  N4  UNL     1      37.822  28.001  11.350  1.00  0.00    -0.265 N 
ATOM     13  H4  UNL     1      38.397  27.601  10.609  1.00  0.00     0.186 HD
BRANCH   8  14
HETATM   14  N1  UNL     1      37.160  29.873  14.115  1.00  0.00    -0.382 N 
ATOM     15  H12 UNL     1      36.787  30.822  14.136  1.00  0.00     0.157 HD
ATOM     16  H11 UNL     1      37.530  29.651  15.040  1.00  0.00     0.157 HD
ENDBRANCH   8  14
ENDBRANCH   4   7
ENDBRANCH   1   3
BRANCH   1  17
HETATM   17  C3  UNL     1      42.552  29.770  10.868  1.00  0.00     0.328 C 
BRANCH  17  18
HETATM   18  N8  UNL     1      42.125  28.888   9.815  1.00  0.00    -0.029 N 
ATOM     19  H83 UNL     1      41.805  27.993  10.183  1.00  0.00     0.279 HD
ATOM     20  H82 UNL     1      41.252  29.205   9.393  1.00  0.00     0.279 HD
ATOM     21  H81 UNL     1      42.856  28.765   9.114  1.00  0.00     0.279 HD
ENDBRANCH  17  18
BRANCH  17  22
HETATM   22  C4  UNL     1      43.417  30.900  10.293  1.00  0.00     0.317 C 
BRANCH  22  23
HETATM   23  N9  UNL     1      42.556  31.951   9.819  1.00  0.00    -0.073 N 
ATOM     24  H93 UNL     1      41.573  31.679   9.822  1.00  0.00     0.274 HD
ATOM     25  H92 UNL     1      42.491  32.727  10.477  1.00  0.00     0.274 HD
ATOM     26  H91 UNL     1      42.874  32.247   8.896  1.00  0.00     0.274 HD
ENDBRANCH  22  23
ENDBRANCH  17  22
BRANCH  17  27
HETATM   27  N10 UNL     1      43.384  29.081  11.834  1.00  0.00    -0.221 N 
ATOM     28  H10 UNL     1      44.221  28.586  11.525  1.00  0.00     0.191 HD
BRANCH  27  29
HETATM   29  N11 UNL     1      43.041  29.095  13.177  1.00  0.00    -0.040 N 
HETATM   30  O1  UNL     1      42.265  28.250  13.638  1.00  0.00    -0.517 OA
HETATM   31  O2  UNL     1      43.564  30.048  13.991  1.00  0.00    -0.517 OA
ENDBRANCH  27  29
ENDBRANCH  17  27
ENDBRANCH   1  17
TORSDOF 9
ENDMDL
MODEL 4
REMARK VINA RESULT: -5.817209765      0.946      1.330
REMARK  9 active torsions:
REMARK  status: ('A' for Active; 'I' for Inactive)
REMARK    1  A    between atoms: N1_1  and  C1_4 
REMARK    2  A    between atoms: C2_10  and  N5_11 
REMARK    3  A    between atoms: N6_13  and  N7_15 
REMARK    4  A    between atoms: N7_15  and  C3_17 
REMARK    5  A    between atoms: C3_17  and  N8_18 
REMARK    6  A    between atoms: C3_17  and  C4_22 
REMARK    7  A    between atoms: C3_17  and  N10_27 
REMARK    8  A    between atoms: C4_22  and  N9_23 
REMARK    9  A    between atoms: N10_27  and  N11_29 
ROOT
HETATM    1  N7  UNL     1      40.181  29.727  10.244  1.00  0.00    -0.267 N 
ATOM      2  H7  UNL     1      39.839  30.120   9.367  1.00  0.00     0.186 HD
ENDROOT
BRANCH   1   3
HETATM    3  N6  UNL     1      39.307  28.962  10.988  1.00  0.00    -0.242 N 
HETATM    4  N5  UNL     1      38.500  29.381  11.847  1.00  0.00    -0.267 N 
ATOM      5  H5  UNL     1      38.439  30.377  12.060  1.00  0.00     0.190 HD
ATOM      6  H6  UNL     1      39.320  27.956  10.821  1.00  0.00     0.208 HD
BRANCH   4   7
HETATM    7  C2  UNL     1      37.672  28.450  12.518  1.00  0.00     0.179 A 
HETATM    8  C1  UNL     1      37.729  28.049  13.835  1.00  0.00     0.159 A 
HETATM    9  N2  UNL     1      36.759  27.152  14.048  1.00  0.00    -0.267 N 
HETATM   10  N3  UNL     1      36.108  26.988  12.910  1.00  0.00    -0.019 NA
ATOM     11  H2  UNL     1      36.558  26.679  14.929  1.00  0.00     0.186 HD
HETATM   12  N4  UNL     1      36.649  27.763  11.982  1.00  0.00    -0.265 N 
ATOM     13  H4  UNL     1      36.339  27.830  11.013  1.00  0.00     0.186 HD
BRANCH   8  14
HETATM   14  N1  UNL     1      38.581  28.480  14.692  1.00  0.00    -0.382 N 
ATOM     15  H12 UNL     1      39.502  28.849  14.456  1.00  0.00     0.157 HD
ATOM     16  H11 UNL     1      38.468  28.517  15.705  1.00  0.00     0.157 HD
ENDBRANCH   8  14
ENDBRANCH   4   7
ENDBRANCH   1   3
BRANCH   1  17
HETATM   17  C3  UNL     1      41.544  30.008  10.619  1.00  0.00     0.328 C 
BRANCH  17  18
HETATM   18  N8  UNL     1      42.398  28.876  10.380  1.00  0.00    -0.029 N 
ATOM     19  H83 UNL     1      43.313  29.164  10.034  1.00  0.00     0.279 HD
ATOM     20  H82 UNL     1      42.692  28.439  11.253  1.00  0.00     0.279 HD
ATOM     21  H81 UNL     1      41.956  28.203   9.754  1.00  0.00     0.279 HD
ENDBRANCH  17  18
BRANCH  17  22
HETATM   22  C4  UNL     1      42.004  31.204   9.773  1.00  0.00     0.317 C 
BRANCH  22  23
HETATM   23  N9  UNL     1      41.649  30.967   8.399  1.00  0.00    -0.073 N 
ATOM     24  H93 UNL     1      40.643  30.854   8.271  1.00  0.00     0.274 HD
ATOM     25  H92 UNL     1      41.773  31.795   7.817  1.00  0.00     0.274 HD
ATOM     26  H91 UNL     1      42.177  30.166   8.054  1.00  0.00     0.274 HD
ENDBRANCH  22  23
ENDBRANCH  17  22
BRANCH  17  27
HETATM   27  N10 UNL     1      41.612  30.445  11.999  1.00  0.00    -0.221 N 
ATOM     28  H10 UNL     1      41.390  31.410  12.241  1.00  0.00     0.191 HD
BRANCH  27  29
HETATM   29  N11 UNL     1      41.978  29.547  12.990  1.00  0.00    -0.040 N 
HETATM   30  O1  UNL     1      41.223  28.623  13.313  1.00  0.00    -0.517 OA
HETATM   31  O2  UNL     1      43.179  29.686  13.608  1.00  0.00    -0.517 OA
ENDBRANCH  27  29
ENDBRANCH  17  27
ENDBRANCH   1  17
TORSDOF 9
ENDMDL
MODEL 5
REMARK VINA RESULT: -5.811077967      2.541      3.255
REMARK  9 active torsions:
REMARK  status: ('A' for Active; 'I' for Inactive)
REMARK    1  A    between atoms: N1_1  and  C1_4 
REMARK    2  A    between atoms: C2_10  and  N5_11 
REMARK    3  A    between atoms: N6_13  and  N7_15 
REMARK    4  A    between atoms: N7_15  and  C3_17 
REMARK    5  A    between atoms: C3_17  and  N8_18 
REMARK    6  A    between atoms: C3_17  and  C4_22 
REMARK    7  A    between atoms: C3_17  and  N10_27 
REMARK    8  A    between atoms: C4_22  and  N9_23 
REMARK    9  A    between atoms: N10_27  and  N11_29 
ROOT
HETATM    1  N7  UNL     1      39.783  28.110   8.111  1.00  0.00    -0.267 N 
ATOM      2  H7  UNL     1      39.480  27.929   7.153  1.00  0.00     0.186 HD
ENDROOT
BRANCH   1   3
HETATM    3  N6  UNL     1      39.035  27.564   9.133  1.00  0.00    -0.242 N 
HETATM    4  N5  UNL     1      37.983  28.037   9.618  1.00  0.00    -0.267 N 
ATOM      5  H5  UNL     1      37.594  28.909   9.261  1.00  0.00     0.190 HD
ATOM      6  H6  UNL     1      39.374  26.689   9.534  1.00  0.00     0.208 HD
BRANCH   4   7
HETATM    7  C2  UNL     1      37.343  27.339  10.670  1.00  0.00     0.179 A 
HETATM    8  C1  UNL     1      37.086  27.774  11.952  1.00  0.00     0.159 A 
HETATM    9  N2  UNL     1      36.462  26.792  12.616  1.00  0.00    -0.267 N 
HETATM   10  N3  UNL     1      36.327  25.772  11.787  1.00  0.00    -0.019 NA
ATOM     11  H2  UNL     1      36.149  26.826  13.586  1.00  0.00     0.186 HD
HETATM   12  N4  UNL     1      36.854  26.089  10.614  1.00  0.00    -0.265 N 
ATOM     13  H4  UNL     1      36.884  25.481   9.796  1.00  0.00     0.186 HD
BRANCH   8  14
HETATM   14  N1  UNL     1      37.403  28.930  12.407  1.00  0.00    -0.382 N 
ATOM     15  H12 UNL     1      38.007  29.090  13.213  1.00  0.00     0.157 HD
ATOM     16  H11 UNL     1      37.107  29.836  12.041  1.00  0.00     0.157 HD
ENDBRANCH   8  14
ENDBRANCH   4   7
ENDBRANCH   1   3
BRANCH   1  17
HETATM   17  C3  UNL     1      40.961  28.917   8.300  1.00  0.00     0.328 C 
BRANCH  17  18
HETATM   18  N8  UNL     1      41.954  28.223   9.076  1.00  0.00    -0.029 N 
ATOM     19  H83 UNL     1      42.625  27.740   8.479  1.00  0.00     0.279 HD
ATOM     20  H82 UNL     1      42.592  28.873   9.535  1.00  0.00     0.279 HD
ATOM     21  H81 UNL     1      41.523  27.587   9.747  1.00  0.00     0.279 HD
ENDBRANCH  17  18
BRANCH  17  22
HETATM   22  C4  UNL     1      41.514  29.239   6.904  1.00  0.00     0.317 C 
BRANCH  22  23
HETATM   23  N9  UNL     1      42.372  30.391   6.997  1.00  0.00    -0.073 N 
ATOM     24  H93 UNL     1      42.441  30.749   7.950  1.00  0.00     0.274 HD
ATOM     25  H92 UNL     1      43.355  30.156   6.862  1.00  0.00     0.274 HD
ATOM     26  H91 UNL     1      42.046  31.099   6.338  1.00  0.00     0.274 HD
ENDBRANCH  22  23
ENDBRANCH  17  22
BRANCH  17  27
HETATM   27  N10 UNL     1      40.614  30.191   8.897  1.00  0.00    -0.221 N 
ATOM     28  H10 UNL     1      40.291  30.959   8.309  1.00  0.00     0.191 HD
BRANCH  27  29
HETATM   29  N11 UNL     1      40.723  30.364  10.268  1.00  0.00    -0.040 N 
HETATM   30  O1  UNL     1      39.941  29.795  11.039  1.00  0.00    -0.517 OA
HETATM   31  O2  UNL     1      41.698  31.167  10.767  1.00  0.00    -0.517 OA
ENDBRANCH  27  29
ENDBRANCH  17  27
ENDBRANCH   1  17
TORSDOF 9
ENDMDL
