MODEL 1
REMARK VINA RESULT: -5.978368765      0.000      0.000
REMARK  7 active torsions:
REMARK  status: ('A' for Active; 'I' for Inactive)
REMARK    1  A    between atoms: S1_2  and  C2_3 
REMARK    2  A    between atoms: C2_3  and  N1_4 
REMARK    3  A    between atoms: C3_6  and  C4_8 
REMARK    4  A    between atoms: C4_8  and  C5_9 
REMARK    5  A    between atoms: C5_9  and  N3_10 
REMARK    6  A    between atoms: N3_10  and  N4_11 
REMARK    7  A    between atoms: C6_17  and  N8_18 
ROOT
HETATM    1  C2  UNL     1      38.430  28.685  12.985  1.00  0.00     0.213 C 
HETATM    2  N5  UNL     1      38.594  27.580  13.907  1.00  0.00    -0.083 NA
HETATM    3  N6  UNL     1      39.674  27.964  14.714  1.00  0.00    -0.034 NA
HETATM    4  N7  UNL     1      40.573  28.450  13.765  1.00  0.00    -0.092 NA
HETATM    5  C6  UNL     1      39.759  29.445  13.096  1.00  0.00     0.349 C 
ENDROOT
BRANCH   1   6
HETATM    6  S1  UNL     1      37.065  29.742  13.556  1.00  0.00    -0.120 SA
HETATM    7  C1  UNL     1      35.980  28.764  14.599  1.00  0.00     0.094 C 
ENDBRANCH   1   6
BRANCH   1   8
HETATM    8  N1  UNL     1      38.173  28.293  11.644  1.00  0.00    -0.346 N 
HETATM    9  C3  UNL     1      37.410  27.374  11.209  1.00  0.00     0.092 C 
HETATM   10  N2  UNL     1      36.669  26.575  12.112  1.00  0.00    -0.088 NA
ATOM     11  H1  UNL     1      38.672  28.824  10.930  1.00  0.00     0.163 HD
BRANCH   9  12
HETATM   12  C4  UNL     1      37.302  27.149   9.752  1.00  0.00     0.090 C 
BRANCH  12  13
HETATM   13  C5  UNL     1      38.216  28.053   8.963  1.00  0.00     0.141 C 
BRANCH  13  14
HETATM   14  N3  UNL     1      39.469  27.402   8.647  1.00  0.00    -0.148 NA
BRANCH  14  15
HETATM   15  N4  UNL     1      40.199  28.079   7.693  1.00  0.00    -0.348 N 
ATOM     16  H42 UNL     1      40.948  28.730   7.931  1.00  0.00     0.172 HD
ATOM     17  H41 UNL     1      39.910  27.856   6.740  1.00  0.00     0.172 HD
ENDBRANCH  14  15
ENDBRANCH  13  14
ENDBRANCH  12  13
ENDBRANCH   9  12
ENDBRANCH   1   8
BRANCH   5  18
HETATM   18  N8  UNL     1      39.571  30.632  13.869  1.00  0.00    -0.055 N 
ATOM     19  H83 UNL     1      38.628  31.008  13.771  1.00  0.00     0.276 HD
ATOM     20  H82 UNL     1      39.549  30.440  14.870  1.00  0.00     0.276 HD
ATOM     21  H81 UNL     1      40.286  31.318  13.625  1.00  0.00     0.276 HD
ENDBRANCH   5  18
TORSDOF 7
ENDMDL
MODEL 2
REMARK VINA RESULT: -5.894923864      2.020      3.016
REMARK  7 active torsions:
REMARK  status: ('A' for Active; 'I' for Inactive)
REMARK    1  A    between atoms: S1_2  and  C2_3 
REMARK    2  A    between atoms: C2_3  and  N1_4 
REMARK    3  A    between atoms: C3_6  and  C4_8 
REMARK    4  A    between atoms: C4_8  and  C5_9 
REMARK    5  A    between atoms: C5_9  and  N3_10 
REMARK    6  A    between atoms: N3_10  and  N4_11 
REMARK    7  A    between atoms: C6_17  and  N8_18 
ROOT
HETATM    1  C2  UNL     1      37.235  28.445  12.541  1.00  0.00     0.213 C 
HETATM    2  N5  UNL     1      35.832  28.612  12.224  1.00  0.00    -0.083 NA
HETATM    3  N6  UNL     1      35.177  27.722  13.086  1.00  0.00    -0.034 NA
HETATM    4  N7  UNL     1      35.969  26.580  12.962  1.00  0.00    -0.092 NA
HETATM    5  C6  UNL     1      37.275  27.111  13.301  1.00  0.00     0.349 C 
ENDROOT
BRANCH   1   6
HETATM    6  S1  UNL     1      37.767  29.795  13.636  1.00  0.00    -0.120 SA
HETATM    7  C1  UNL     1      39.525  30.065  13.401  1.00  0.00     0.094 C 
ENDBRANCH   1   6
BRANCH   1   8
HETATM    8  N1  UNL     1      38.090  28.414  11.407  1.00  0.00    -0.346 N 
HETATM    9  C3  UNL     1      37.931  27.813  10.298  1.00  0.00     0.092 C 
HETATM   10  N2  UNL     1      36.768  27.039  10.067  1.00  0.00    -0.088 NA
ATOM     11  H1  UNL     1      38.953  28.951  11.494  1.00  0.00     0.163 HD
BRANCH   9  12
HETATM   12  C4  UNL     1      38.969  27.930   9.252  1.00  0.00     0.090 C 
BRANCH  12  13
HETATM   13  C5  UNL     1      40.146  28.758   9.703  1.00  0.00     0.141 C 
BRANCH  13  14
HETATM   14  N3  UNL     1      39.943  30.166   9.436  1.00  0.00    -0.148 NA
BRANCH  14  15
HETATM   15  N4  UNL     1      40.948  30.716   8.668  1.00  0.00    -0.348 N 
ATOM     16  H42 UNL     1      41.936  30.627   8.908  1.00  0.00     0.172 HD
ATOM     17  H41 UNL     1      40.596  31.213   7.850  1.00  0.00     0.172 HD
ENDBRANCH  14  15
ENDBRANCH  13  14
ENDBRANCH  12  13
ENDBRANCH   9  12
ENDBRANCH   1   8
BRANCH   5  18
HETATM   18  N8  UNL     1      37.438  27.359  14.698  1.00  0.00    -0.055 N 
ATOM     19  H83 UNL     1      38.411  27.537  14.946  1.00  0.00     0.276 HD
ATOM     20  H82 UNL     1      37.049  28.260  14.977  1.00  0.00     0.276 HD
ATOM     21  H81 UNL     1      37.041  26.586  15.233  1.00  0.00     0.276 HD
ENDBRANCH   5  18
TORSDOF 7
ENDMDL
MODEL 3
REMARK VINA RESULT: -5.488523785      2.744      4.450
REMARK  7 active torsions:
REMARK  status: ('A' for Active; 'I' for Inactive)
REMARK    1  A    between atoms: S1_2  and  C2_3 
REMARK    2  A    between atoms: C2_3  and  N1_4 
REMARK    3  A    between atoms: C3_6  and  C4_8 
REMARK    4  A    between atoms: C4_8  and  C5_9 
REMARK    5  A    between atoms: C5_9  and  N3_10 
REMARK    6  A    between atoms: N3_10  and  N4_11 
REMARK    7  A    between atoms: C6_17  and  N8_18 
ROOT
HETATM    1  C2  UNL     1      41.437  29.604  12.097  1.00  0.00     0.213 C 
HETATM    2  N5  UNL     1      41.786  30.220  13.361  1.00  0.00    -0.083 NA
HETATM    3  N6  UNL     1      43.025  29.653  13.687  1.00  0.00    -0.034 NA
HETATM    4  N7  UNL     1      42.800  28.306  13.406  1.00  0.00    -0.092 NA
HETATM    5  C6  UNL     1      42.362  28.380  12.027  1.00  0.00     0.349 C 
ENDROOT
BRANCH   1   6
HETATM    6  S1  UNL     1      41.828  30.752  10.743  1.00  0.00    -0.120 SA
HETATM    7  C1  UNL     1      40.761  30.380   9.349  1.00  0.00     0.094 C 
ENDBRANCH   1   6
BRANCH   1   8
HETATM    8  N1  UNL     1      40.073  29.222  11.991  1.00  0.00    -0.346 N 
HETATM    9  C3  UNL     1      39.199  29.101  12.907  1.00  0.00     0.092 C 
HETATM   10  N2  UNL     1      39.540  29.362  14.256  1.00  0.00    -0.088 NA
ATOM     11  H1  UNL     1      39.748  29.016  11.046  1.00  0.00     0.163 HD
BRANCH   9  12
HETATM   12  C4  UNL     1      37.825  28.687  12.552  1.00  0.00     0.090 C 
BRANCH  12  13
HETATM   13  C5  UNL     1      37.292  27.619  13.474  1.00  0.00     0.141 C 
BRANCH  13  14
HETATM   14  N3  UNL     1      36.184  26.903  12.878  1.00  0.00    -0.148 NA
BRANCH  14  15
HETATM   15  N4  UNL     1      36.546  26.196  11.751  1.00  0.00    -0.348 N 
ATOM     16  H42 UNL     1      36.135  26.373  10.834  1.00  0.00     0.172 HD
ATOM     17  H41 UNL     1      37.259  25.491  11.937  1.00  0.00     0.172 HD
ENDBRANCH  14  15
ENDBRANCH  13  14
ENDBRANCH  12  13
ENDBRANCH   9  12
ENDBRANCH   1   8
BRANCH   5  18
HETATM   18  N8  UNL     1      43.427  28.636  11.109  1.00  0.00    -0.055 N 
ATOM     19  H83 UNL     1      43.340  29.549  10.664  1.00  0.00     0.276 HD
ATOM     20  H82 UNL     1      44.316  28.789  11.585  1.00  0.00     0.276 HD
ATOM     21  H81 UNL     1      43.482  27.879  10.427  1.00  0.00     0.276 HD
ENDBRANCH   5  18
TORSDOF 7
ENDMDL
MODEL 4
REMARK VINA RESULT: -5.455499742      1.395      2.211
REMARK  7 active torsions:
REMARK  status: ('A' for Active; 'I' for Inactive)
REMARK    1  A    between atoms: S1_2  and  C2_3 
REMARK    2  A    between atoms: C2_3  and  N1_4 
REMARK    3  A    between atoms: C3_6  and  C4_8 
REMARK    4  A    between atoms: C4_8  and  C5_9 
REMARK    5  A    between atoms: C5_9  and  N3_10 
REMARK    6  A    between atoms: N3_10  and  N4_11 
REMARK    7  A    between atoms: C6_17  and  N8_18 
ROOT
HETATM    1  C2  UNL     1      38.713  28.763  13.005  1.00  0.00     0.213 C 
HETATM    2  N5  UNL     1      38.878  27.699  13.974  1.00  0.00    -0.083 NA
HETATM    3  N6  UNL     1      39.948  28.126  14.772  1.00  0.00    -0.034 NA
HETATM    4  N7  UNL     1      40.851  28.579  13.810  1.00  0.00    -0.092 NA
HETATM    5  C6  UNL     1      40.035  29.539  13.093  1.00  0.00     0.349 C 
ENDROOT
BRANCH   1   6
HETATM    6  S1  UNL     1      37.335  29.832  13.519  1.00  0.00    -0.120 SA
HETATM    7  C1  UNL     1      36.153  28.841  14.437  1.00  0.00     0.094 C 
ENDBRANCH   1   6
BRANCH   1   8
HETATM    8  N1  UNL     1      38.470  28.313  11.680  1.00  0.00    -0.346 N 
HETATM    9  C3  UNL     1      38.881  28.799  10.578  1.00  0.00     0.092 C 
HETATM   10  N2  UNL     1      39.702  29.952  10.571  1.00  0.00    -0.088 NA
ATOM     11  H1  UNL     1      37.884  27.482  11.600  1.00  0.00     0.163 HD
BRANCH   9  12
HETATM   12  C4  UNL     1      38.495  28.149   9.308  1.00  0.00     0.090 C 
BRANCH  12  13
HETATM   13  C5  UNL     1      38.024  26.730   9.510  1.00  0.00     0.141 C 
BRANCH  13  14
HETATM   14  N3  UNL     1      36.690  26.684  10.070  1.00  0.00    -0.148 NA
BRANCH  14  15
HETATM   15  N4  UNL     1      36.593  25.837  11.154  1.00  0.00    -0.348 N 
ATOM     16  H42 UNL     1      37.340  25.197  11.422  1.00  0.00     0.172 HD
ATOM     17  H41 UNL     1      35.704  25.926  11.647  1.00  0.00     0.172 HD
ENDBRANCH  14  15
ENDBRANCH  13  14
ENDBRANCH  12  13
ENDBRANCH   9  12
ENDBRANCH   1   8
BRANCH   5  18
HETATM   18  N8  UNL     1      39.831  30.755  13.813  1.00  0.00    -0.055 N 
ATOM     19  H83 UNL     1      39.641  30.590  14.802  1.00  0.00     0.276 HD
ATOM     20  H82 UNL     1      40.693  31.290  13.917  1.00  0.00     0.276 HD
ATOM     21  H81 UNL     1      39.092  31.299  13.366  1.00  0.00     0.276 HD
ENDBRANCH   5  18
TORSDOF 7
ENDMDL
MODEL 5
REMARK VINA RESULT: -5.333625867      1.683      2.479
REMARK  7 active torsions:
REMARK  status: ('A' for Active; 'I' for Inactive)
REMARK    1  A    between atoms: S1_2  and  C2_3 
REMARK    2  A    between atoms: C2_3  and  N1_4 
REMARK    3  A    between atoms: C3_6  and  C4_8 
REMARK    4  A    between atoms: C4_8  and  C5_9 
REMARK    5  A    between atoms: C5_9  and  N3_10 
REMARK    6  A    between atoms: N3_10  and  N4_11 
REMARK    7  A    between atoms: C6_17  and  N8_18 
ROOT
HETATM    1  C2  UNL     1      38.333  28.778  12.971  1.00  0.00     0.213 C 
HETATM    2  N5  UNL     1      39.379  28.082  13.692  1.00  0.00    -0.083 NA
HETATM    3  N6  UNL     1      39.445  28.743  14.925  1.00  0.00    -0.034 NA
HETATM    4  N7  UNL     1      39.400  30.080  14.529  1.00  0.00    -0.092 NA
HETATM    5  C6  UNL     1      38.180  30.096  13.746  1.00  0.00     0.349 C 
ENDROOT
BRANCH   1   6
HETATM    6  S1  UNL     1      36.793  27.819  13.076  1.00  0.00    -0.120 SA
HETATM    7  C1  UNL     1      36.809  26.568  11.789  1.00  0.00     0.094 C 
ENDBRANCH   1   6
BRANCH   1   8
HETATM    8  N1  UNL     1      38.628  29.019  11.603  1.00  0.00    -0.346 N 
HETATM    9  C3  UNL     1      39.751  29.255  11.053  1.00  0.00     0.092 C 
HETATM   10  N2  UNL     1      40.930  29.304  11.834  1.00  0.00    -0.088 NA
ATOM     11  H1  UNL     1      37.827  29.000  10.972  1.00  0.00     0.163 HD
BRANCH   9  12
HETATM   12  C4  UNL     1      39.812  29.476   9.592  1.00  0.00     0.090 C 
BRANCH  12  13
HETATM   13  C5  UNL     1      39.987  28.189   8.825  1.00  0.00     0.141 C 
BRANCH  13  14
HETATM   14  N3  UNL     1      38.856  27.303   9.003  1.00  0.00    -0.148 NA
BRANCH  14  15
HETATM   15  N4  UNL     1      37.697  27.793   8.439  1.00  0.00    -0.348 N 
ATOM     16  H42 UNL     1      36.772  27.445   8.691  1.00  0.00     0.172 HD
ATOM     17  H41 UNL     1      37.870  28.529   7.754  1.00  0.00     0.172 HD
ENDBRANCH  14  15
ENDBRANCH  13  14
ENDBRANCH  12  13
ENDBRANCH   9  12
ENDBRANCH   1   8
BRANCH   5  18
HETATM   18  N8  UNL     1      36.996  30.049  14.544  1.00  0.00    -0.055 N 
ATOM     19  H83 UNL     1      37.177  30.302  15.515  1.00  0.00     0.276 HD
ATOM     20  H82 UNL     1      36.348  30.802  14.314  1.00  0.00     0.276 HD
ATOM     21  H81 UNL     1      36.563  29.129  14.461  1.00  0.00     0.276 HD
ENDBRANCH   5  18
TORSDOF 7
ENDMDL
