MODEL 1
REMARK VINA RESULT: -6.556449117      0.000      0.000
REMARK  7 active torsions:
REMARK  status: ('A' for Active; 'I' for Inactive)
REMARK    1  A    between atoms: N1_1  and  C1_4 
REMARK    2  A    between atoms: C2_7  and  C3_8 
REMARK    3  A    between atoms: C3_8  and  C4_9 
REMARK    4  A    between atoms: C4_9  and  C5_10 
REMARK    5  A    between atoms: C5_10  and  O1_11 
REMARK    6  A    between atoms: O1_11  and  C6_12 
REMARK    7  A    between atoms: C7_15  and  O2_16 
ROOT
HETATM    1  C1  UNL     1      37.523  27.376  10.217  1.00  0.00     0.691 A 
HETATM    2  N2  UNL     1      37.524  28.095  11.341  1.00  0.00    -0.178 N 
ATOM      3  H2  UNL     1      37.934  29.023  11.443  1.00  0.00     0.185 HD
HETATM    4  C2  UNL     1      36.892  27.402  12.336  1.00  0.00     0.112 A 
HETATM    5  N5  UNL     1      36.512  26.244  11.778  1.00  0.00    -0.274 N 
ATOM      6  H5  UNL     1      36.012  25.493  12.253  1.00  0.00     0.189 HD
HETATM    7  N6  UNL     1      36.892  26.234  10.511  1.00  0.00    -0.131 N 
ATOM      8  H6  UNL     1      36.728  25.470   9.856  1.00  0.00     0.205 HD
ENDROOT
BRANCH   4   9
HETATM    9  C3  UNL     1      36.725  27.865  13.736  1.00  0.00     0.080 C 
BRANCH   9  10
HETATM   10  C4  UNL     1      37.891  27.662  14.618  1.00  0.00     0.034 C 
BRANCH  10  11
HETATM   11  C5  UNL     1      38.903  28.754  14.659  1.00  0.00     0.172 C 
BRANCH  11  12
HETATM   12  O1  UNL     1      40.155  28.366  14.211  1.00  0.00    -0.346 OA
BRANCH  12  13
HETATM   13  C6  UNL     1      40.557  28.931  13.038  1.00  0.00     0.380 C 
HETATM   14  N3  UNL     1      41.651  29.898  13.218  1.00  0.00    -0.084 NA
HETATM   15  N4  UNL     1      41.631  30.502  11.933  1.00  0.00    -0.084 NA
HETATM   16  C7  UNL     1      40.237  30.528  11.612  1.00  0.00     0.378 C 
HETATM   17  O3  UNL     1      39.553  29.815  12.579  1.00  0.00    -0.300 OA
BRANCH  16  18
HETATM   18  O2  UNL     1      39.965  29.937  10.376  1.00  0.00    -0.357 OA
ATOM     19  H2  UNL     1      39.595  30.553   9.754  1.00  0.00     0.214 HD
ENDBRANCH  16  18
ENDBRANCH  12  13
ENDBRANCH  11  12
ENDBRANCH  10  11
ENDBRANCH   9  10
ENDBRANCH   4   9
BRANCH   1  20
HETATM   20  N1  UNL     1      38.022  27.683   9.054  1.00  0.00    -0.233 N 
ATOM     21  H12 UNL     1      38.749  27.159   8.568  1.00  0.00     0.174 HD
ATOM     22  H11 UNL     1      37.787  28.468   8.446  1.00  0.00     0.174 HD
ENDBRANCH   1  20
TORSDOF 7
ENDMDL
MODEL 2
REMARK VINA RESULT: -6.554672042      1.491      1.781
REMARK  7 active torsions:
REMARK  status: ('A' for Active; 'I' for Inactive)
REMARK    1  A    between atoms: N1_1  and  C1_4 
REMARK    2  A    between atoms: C2_7  and  C3_8 
REMARK    3  A    between atoms: C3_8  and  C4_9 
REMARK    4  A    between atoms: C4_9  and  C5_10 
REMARK    5  A    between atoms: C5_10  and  O1_11 
REMARK    6  A    between atoms: O1_11  and  C6_12 
REMARK    7  A    between atoms: C7_15  and  O2_16 
ROOT
HETATM    1  C1  UNL     1      37.520  27.380  10.232  1.00  0.00     0.691 A 
HETATM    2  N2  UNL     1      37.552  28.111  11.347  1.00  0.00    -0.178 N 
ATOM      3  H2  UNL     1      37.976  29.035  11.430  1.00  0.00     0.185 HD
HETATM    4  C2  UNL     1      36.931  27.437  12.363  1.00  0.00     0.112 A 
HETATM    5  N5  UNL     1      36.526  26.278  11.825  1.00  0.00    -0.274 N 
ATOM      6  H5  UNL     1      36.025  25.539  12.318  1.00  0.00     0.189 HD
HETATM    7  N6  UNL     1      36.880  26.249  10.551  1.00  0.00    -0.131 N 
ATOM      8  H6  UNL     1      36.693  25.480   9.908  1.00  0.00     0.205 HD
ENDROOT
BRANCH   4   9
HETATM    9  C3  UNL     1      36.797  27.918  13.760  1.00  0.00     0.080 C 
BRANCH   9  10
HETATM   10  C4  UNL     1      37.289  29.288  14.012  1.00  0.00     0.034 C 
BRANCH  10  11
HETATM   11  C5  UNL     1      38.747  29.442  14.274  1.00  0.00     0.172 C 
BRANCH  11  12
HETATM   12  O1  UNL     1      39.462  29.890  13.175  1.00  0.00    -0.346 OA
BRANCH  12  13
HETATM   13  C6  UNL     1      40.620  29.221  12.919  1.00  0.00     0.380 C 
HETATM   14  N3  UNL     1      40.962  28.252  13.973  1.00  0.00    -0.084 NA
HETATM   15  N4  UNL     1      42.297  27.962  13.587  1.00  0.00    -0.084 NA
HETATM   16  C7  UNL     1      42.777  29.224  13.113  1.00  0.00     0.378 C 
HETATM   17  O3  UNL     1      41.713  30.106  13.069  1.00  0.00    -0.300 OA
BRANCH  16  18
HETATM   18  O2  UNL     1      43.313  29.140  11.826  1.00  0.00    -0.357 OA
ATOM     19  H2  UNL     1      42.651  29.231  11.151  1.00  0.00     0.214 HD
ENDBRANCH  16  18
ENDBRANCH  12  13
ENDBRANCH  11  12
ENDBRANCH  10  11
ENDBRANCH   9  10
ENDBRANCH   4   9
BRANCH   1  20
HETATM   20  N1  UNL     1      38.000  27.667   9.056  1.00  0.00    -0.233 N 
ATOM     21  H12 UNL     1      38.502  28.522   8.817  1.00  0.00     0.174 HD
ATOM     22  H11 UNL     1      37.962  27.115   8.199  1.00  0.00     0.174 HD
ENDBRANCH   1  20
TORSDOF 7
ENDMDL
MODEL 3
REMARK VINA RESULT: -6.482539968      1.413      1.736
REMARK  7 active torsions:
REMARK  status: ('A' for Active; 'I' for Inactive)
REMARK    1  A    between atoms: N1_1  and  C1_4 
REMARK    2  A    between atoms: C2_7  and  C3_8 
REMARK    3  A    between atoms: C3_8  and  C4_9 
REMARK    4  A    between atoms: C4_9  and  C5_10 
REMARK    5  A    between atoms: C5_10  and  O1_11 
REMARK    6  A    between atoms: O1_11  and  C6_12 
REMARK    7  A    between atoms: C7_15  and  O2_16 
ROOT
HETATM    1  C1  UNL     1      37.606  27.396  10.196  1.00  0.00     0.691 A 
HETATM    2  N2  UNL     1      37.540  28.099  11.327  1.00  0.00    -0.178 N 
ATOM      3  H2  UNL     1      37.961  29.017  11.471  1.00  0.00     0.185 HD
HETATM    4  C2  UNL     1      36.824  27.407  12.264  1.00  0.00     0.112 A 
HETATM    5  N5  UNL     1      36.462  26.265  11.663  1.00  0.00    -0.274 N 
ATOM      6  H5  UNL     1      35.913  25.519  12.090  1.00  0.00     0.189 HD
HETATM    7  N6  UNL     1      36.931  26.264  10.427  1.00  0.00    -0.131 N 
ATOM      8  H6  UNL     1      36.799  25.512   9.750  1.00  0.00     0.205 HD
ENDROOT
BRANCH   4   9
HETATM    9  C3  UNL     1      36.566  27.856  13.654  1.00  0.00     0.080 C 
BRANCH   9  10
HETATM   10  C4  UNL     1      37.291  29.071  14.077  1.00  0.00     0.034 C 
BRANCH  10  11
HETATM   11  C5  UNL     1      38.626  28.874  14.706  1.00  0.00     0.172 C 
BRANCH  11  12
HETATM   12  O1  UNL     1      39.524  28.196  13.899  1.00  0.00    -0.346 OA
BRANCH  12  13
HETATM   13  C6  UNL     1      40.572  28.934  13.440  1.00  0.00     0.380 C 
HETATM   14  N3  UNL     1      40.579  29.063  11.975  1.00  0.00    -0.084 NA
HETATM   15  N4  UNL     1      41.885  29.593  11.801  1.00  0.00    -0.084 NA
HETATM   16  C7  UNL     1      42.643  28.915  12.807  1.00  0.00     0.378 C 
HETATM   17  O3  UNL     1      41.768  28.198  13.603  1.00  0.00    -0.300 OA
BRANCH  16  18
HETATM   18  O2  UNL     1      43.341  29.799  13.633  1.00  0.00    -0.357 OA
ATOM     19  H2  UNL     1      44.269  29.599  13.674  1.00  0.00     0.214 HD
ENDBRANCH  16  18
ENDBRANCH  12  13
ENDBRANCH  11  12
ENDBRANCH  10  11
ENDBRANCH   9  10
ENDBRANCH   4   9
BRANCH   1  20
HETATM   20  N1  UNL     1      38.193  27.707   9.076  1.00  0.00    -0.233 N 
ATOM     21  H12 UNL     1      39.163  27.496   8.840  1.00  0.00     0.174 HD
ATOM     22  H11 UNL     1      37.808  28.196   8.268  1.00  0.00     0.174 HD
ENDBRANCH   1  20
TORSDOF 7
ENDMDL
MODEL 4
REMARK VINA RESULT: -6.424001520      2.269      4.103
REMARK  7 active torsions:
REMARK  status: ('A' for Active; 'I' for Inactive)
REMARK    1  A    between atoms: N1_1  and  C1_4 
REMARK    2  A    between atoms: C2_7  and  C3_8 
REMARK    3  A    between atoms: C3_8  and  C4_9 
REMARK    4  A    between atoms: C4_9  and  C5_10 
REMARK    5  A    between atoms: C5_10  and  O1_11 
REMARK    6  A    between atoms: O1_11  and  C6_12 
REMARK    7  A    between atoms: C7_15  and  O2_16 
ROOT
HETATM    1  C1  UNL     1      38.244  27.727   9.200  1.00  0.00     0.691 A 
HETATM    2  N2  UNL     1      38.744  28.220  10.334  1.00  0.00    -0.178 N 
ATOM      3  H2  UNL     1      38.304  28.143  11.251  1.00  0.00     0.185 HD
HETATM    4  C2  UNL     1      39.934  28.845  10.084  1.00  0.00     0.112 A 
HETATM    5  N5  UNL     1      40.135  28.714   8.766  1.00  0.00    -0.274 N 
ATOM      6  H5  UNL     1      40.939  29.073   8.250  1.00  0.00     0.189 HD
HETATM    7  N6  UNL     1      39.123  28.044   8.242  1.00  0.00    -0.131 N 
ATOM      8  H6  UNL     1      39.025  27.805   7.255  1.00  0.00     0.205 HD
ENDROOT
BRANCH   4   9
HETATM    9  C3  UNL     1      40.769  29.542  11.093  1.00  0.00     0.080 C 
BRANCH   9  10
HETATM   10  C4  UNL     1      40.122  30.677  11.782  1.00  0.00     0.034 C 
BRANCH  10  11
HETATM   11  C5  UNL     1      39.296  30.356  12.979  1.00  0.00     0.172 C 
BRANCH  11  12
HETATM   12  O1  UNL     1      37.940  30.270  12.710  1.00  0.00    -0.346 OA
BRANCH  12  13
HETATM   13  C6  UNL     1      37.307  29.184  13.234  1.00  0.00     0.380 C 
HETATM   14  N3  UNL     1      38.193  28.016  13.361  1.00  0.00    -0.084 NA
HETATM   15  N4  UNL     1      37.217  27.021  13.630  1.00  0.00    -0.084 NA
HETATM   16  C7  UNL     1      36.111  27.428  12.819  1.00  0.00     0.378 C 
HETATM   17  O3  UNL     1      36.397  28.670  12.282  1.00  0.00    -0.300 OA
BRANCH  16  18
HETATM   18  O2  UNL     1      34.928  27.544  13.552  1.00  0.00    -0.357 OA
ATOM     19  H2  UNL     1      34.186  27.151  13.108  1.00  0.00     0.214 HD
ENDBRANCH  16  18
ENDBRANCH  12  13
ENDBRANCH  11  12
ENDBRANCH  10  11
ENDBRANCH   9  10
ENDBRANCH   4   9
BRANCH   1  20
HETATM   20  N1  UNL     1      37.137  27.067   9.017  1.00  0.00    -0.233 N 
ATOM     21  H12 UNL     1      36.879  26.573   8.163  1.00  0.00     0.174 HD
ATOM     22  H11 UNL     1      36.361  26.931   9.665  1.00  0.00     0.174 HD
ENDBRANCH   1  20
TORSDOF 7
ENDMDL
MODEL 5
REMARK VINA RESULT: -6.386263678      2.335      4.395
REMARK  7 active torsions:
REMARK  status: ('A' for Active; 'I' for Inactive)
REMARK    1  A    between atoms: N1_1  and  C1_4 
REMARK    2  A    between atoms: C2_7  and  C3_8 
REMARK    3  A    between atoms: C3_8  and  C4_9 
REMARK    4  A    between atoms: C4_9  and  C5_10 
REMARK    5  A    between atoms: C5_10  and  O1_11 
REMARK    6  A    between atoms: O1_11  and  C6_12 
REMARK    7  A    between atoms: C7_15  and  O2_16 
ROOT
HETATM    1  C1  UNL     1      37.014  28.540  14.462  1.00  0.00     0.691 A 
HETATM    2  N2  UNL     1      37.587  29.667  14.036  1.00  0.00    -0.178 N 
ATOM      3  H2  UNL     1      37.085  30.510  13.758  1.00  0.00     0.185 HD
HETATM    4  C2  UNL     1      38.946  29.523  14.026  1.00  0.00     0.112 A 
HETATM    5  N5  UNL     1      39.176  28.275  14.459  1.00  0.00    -0.274 N 
ATOM      6  H5  UNL     1      40.094  27.846  14.570  1.00  0.00     0.189 HD
HETATM    7  N6  UNL     1      38.017  27.692  14.718  1.00  0.00    -0.131 N 
ATOM      8  H6  UNL     1      37.905  26.739  15.062  1.00  0.00     0.205 HD
ENDROOT
BRANCH   4   9
HETATM    9  C3  UNL     1      39.918  30.553  13.583  1.00  0.00     0.080 C 
BRANCH   9  10
HETATM   10  C4  UNL     1      40.823  30.146  12.489  1.00  0.00     0.034 C 
BRANCH  10  11
HETATM   11  C5  UNL     1      40.229  30.039  11.128  1.00  0.00     0.172 C 
BRANCH  11  12
HETATM   12  O1  UNL     1      40.031  28.733  10.711  1.00  0.00    -0.346 OA
BRANCH  12  13
HETATM   13  C6  UNL     1      38.755  28.422  10.350  1.00  0.00     0.380 C 
HETATM   14  N3  UNL     1      37.972  27.856  11.460  1.00  0.00    -0.084 NA
HETATM   15  N4  UNL     1      36.854  27.378  10.727  1.00  0.00    -0.084 NA
HETATM   16  C7  UNL     1      37.443  26.921   9.506  1.00  0.00     0.378 C 
HETATM   17  O3  UNL     1      38.774  27.295   9.496  1.00  0.00    -0.300 OA
BRANCH  16  18
HETATM   18  O2  UNL     1      36.836  27.481   8.379  1.00  0.00    -0.357 OA
ATOM     19  H2  UNL     1      37.267  28.278   8.094  1.00  0.00     0.214 HD
ENDBRANCH  16  18
ENDBRANCH  12  13
ENDBRANCH  11  12
ENDBRANCH  10  11
ENDBRANCH   9  10
ENDBRANCH   4   9
BRANCH   1  20
HETATM   20  N1  UNL     1      35.748  28.276  14.613  1.00  0.00    -0.233 N 
ATOM     21  H12 UNL     1      35.315  27.937  15.471  1.00  0.00     0.174 HD
ATOM     22  H11 UNL     1      34.994  28.355  13.930  1.00  0.00     0.174 HD
ENDBRANCH   1  20
TORSDOF 7
ENDMDL
