MODEL 1
REMARK VINA RESULT: -6.274714178      0.000      0.000
REMARK  6 active torsions:
REMARK  status: ('A' for Active; 'I' for Inactive)
REMARK    1  A    between atoms: N2_7  and  N3_8 
REMARK    2  A    between atoms: N4_11  and  C3_12 
REMARK    3  A    between atoms: C3_12  and  C4_13 
REMARK    4  A    between atoms: C4_13  and  C5_14 
REMARK    5  A    between atoms: C5_14  and  C6_15 
REMARK    6  A    between atoms: C6_15  and  O2_16 
ROOT
HETATM    1  N1  UNL     1      37.200  29.896  14.008  1.00  0.00    -0.393 N 
ATOM      2  H11 UNL     1      36.197  29.716  13.998  1.00  0.00     0.156 HD
ATOM      3  H12 UNL     1      37.673  30.483  14.695  1.00  0.00     0.156 HD
HETATM    4  C1  UNL     1      37.947  29.363  13.104  1.00  0.00     0.126 C 
HETATM    5  C2  UNL     1      39.387  29.622  13.118  1.00  0.00     0.310 C 
HETATM    6  O1  UNL     1      39.794  30.091  14.209  1.00  0.00    -0.262 OA
HETATM    7  N2  UNL     1      40.332  29.410  12.074  1.00  0.00    -0.145 N 
HETATM    8  N4  UNL     1      40.065  29.208  10.756  1.00  0.00    -0.209 N 
HETATM    9  N5  UNL     1      39.073  28.272  10.485  1.00  0.00    -0.268 N 
ATOM     10  H5  UNL     1      39.353  27.596   9.774  1.00  0.00     0.190 HD
HETATM   11  C7  UNL     1      37.758  28.044  10.972  1.00  0.00     0.159 C 
HETATM   12  N6  UNL     1      36.869  27.247  10.202  1.00  0.00    -0.079 NA
HETATM   13  C8  UNL     1      37.264  28.515  12.111  1.00  0.00     0.120 C 
HETATM   14  N7  UNL     1      35.941  28.182  12.425  1.00  0.00    -0.096 NA
ENDROOT
BRANCH   8  15
HETATM   15  C3  UNL     1      40.030  30.342   9.903  1.00  0.00     0.172 C 
BRANCH  15  16
HETATM   16  C4  UNL     1      40.839  30.157   8.666  1.00  0.00     0.026 C 
BRANCH  16  17
HETATM   17  C5  UNL     1      42.301  30.254   8.949  1.00  0.00     0.028 C 
BRANCH  17  18
HETATM   18  C6  UNL     1      42.593  31.559   9.692  1.00  0.00     0.164 C 
BRANCH  18  19
HETATM   19  O2  UNL     1      43.355  31.221  10.804  1.00  0.00    -0.401 OA
ATOM     20  H2  UNL     1      42.799  30.690  11.362  1.00  0.00     0.209 HD
ENDBRANCH  18  19
ENDBRANCH  17  18
ENDBRANCH  16  17
ENDBRANCH  15  16
ENDBRANCH   8  15
BRANCH   7  21
HETATM   21  N3  UNL     1      41.649  29.414  12.485  1.00  0.00    -0.319 N 
ATOM     22  H32 UNL     1      41.933  30.082  13.202  1.00  0.00     0.179 HD
ATOM     23  H31 UNL     1      42.241  28.727  12.017  1.00  0.00     0.179 HD
ENDBRANCH   7  21
TORSDOF 6
ENDMDL
MODEL 2
REMARK VINA RESULT: -6.200316926      1.448      1.655
REMARK  6 active torsions:
REMARK  status: ('A' for Active; 'I' for Inactive)
REMARK    1  A    between atoms: N2_7  and  N3_8 
REMARK    2  A    between atoms: N4_11  and  C3_12 
REMARK    3  A    between atoms: C3_12  and  C4_13 
REMARK    4  A    between atoms: C4_13  and  C5_14 
REMARK    5  A    between atoms: C5_14  and  C6_15 
REMARK    6  A    between atoms: C6_15  and  O2_16 
ROOT
HETATM    1  N1  UNL     1      37.403  29.989  13.794  1.00  0.00    -0.393 N 
ATOM      2  H11 UNL     1      36.403  29.799  13.854  1.00  0.00     0.156 HD
ATOM      3  H12 UNL     1      37.909  30.615  14.421  1.00  0.00     0.156 HD
HETATM    4  C1  UNL     1      38.101  29.417  12.874  1.00  0.00     0.126 C 
HETATM    5  C2  UNL     1      39.536  29.691  12.789  1.00  0.00     0.310 C 
HETATM    6  O1  UNL     1      40.002  30.219  13.828  1.00  0.00    -0.262 OA
HETATM    7  N2  UNL     1      40.420  29.434  11.702  1.00  0.00    -0.145 N 
HETATM    8  N4  UNL     1      40.077  29.163  10.414  1.00  0.00    -0.209 N 
HETATM    9  N5  UNL     1      39.083  28.205  10.251  1.00  0.00    -0.268 N 
ATOM     10  H5  UNL     1      39.328  27.495   9.560  1.00  0.00     0.190 HD
HETATM   11  C7  UNL     1      37.802  27.989  10.828  1.00  0.00     0.159 C 
HETATM   12  N6  UNL     1      36.878  27.145  10.154  1.00  0.00    -0.079 NA
HETATM   13  C8  UNL     1      37.371  28.514  11.968  1.00  0.00     0.120 C 
HETATM   14  N7  UNL     1      36.073  28.185  12.378  1.00  0.00    -0.096 NA
ENDROOT
BRANCH   8  15
HETATM   15  C3  UNL     1      39.977  30.251   9.509  1.00  0.00     0.172 C 
BRANCH  15  16
HETATM   16  C4  UNL     1      41.108  30.299   8.540  1.00  0.00     0.026 C 
BRANCH  16  17
HETATM   17  C5  UNL     1      41.049  29.163   7.574  1.00  0.00     0.028 C 
BRANCH  17  18
HETATM   18  C6  UNL     1      42.280  29.198   6.667  1.00  0.00     0.164 C 
BRANCH  18  19
HETATM   19  O2  UNL     1      42.207  30.381   5.942  1.00  0.00    -0.401 OA
ATOM     20  H2  UNL     1      42.070  30.136   5.035  1.00  0.00     0.209 HD
ENDBRANCH  18  19
ENDBRANCH  17  18
ENDBRANCH  16  17
ENDBRANCH  15  16
ENDBRANCH   8  15
BRANCH   7  21
HETATM   21  N3  UNL     1      41.759  29.471  12.032  1.00  0.00    -0.319 N 
ATOM     22  H32 UNL     1      42.308  28.617  11.933  1.00  0.00     0.179 HD
ATOM     23  H31 UNL     1      42.090  30.379  12.359  1.00  0.00     0.179 HD
ENDBRANCH   7  21
TORSDOF 6
ENDMDL
MODEL 3
REMARK VINA RESULT: -6.135531309      2.238      5.666
REMARK  6 active torsions:
REMARK  status: ('A' for Active; 'I' for Inactive)
REMARK    1  A    between atoms: N2_7  and  N3_8 
REMARK    2  A    between atoms: N4_11  and  C3_12 
REMARK    3  A    between atoms: C3_12  and  C4_13 
REMARK    4  A    between atoms: C4_13  and  C5_14 
REMARK    5  A    between atoms: C5_14  and  C6_15 
REMARK    6  A    between atoms: C6_15  and  O2_16 
ROOT
HETATM    1  N1  UNL     1      42.111  31.160   9.288  1.00  0.00    -0.393 N 
ATOM      2  H11 UNL     1      43.006  31.620   9.453  1.00  0.00     0.156 HD
ATOM      3  H12 UNL     1      41.551  31.277   8.444  1.00  0.00     0.156 HD
HETATM    4  C1  UNL     1      41.628  30.374  10.188  1.00  0.00     0.126 C 
HETATM    5  C2  UNL     1      40.344  29.715   9.950  1.00  0.00     0.310 C 
HETATM    6  O1  UNL     1      39.991  29.740   8.746  1.00  0.00    -0.262 OA
HETATM    7  N2  UNL     1      39.490  29.079  10.896  1.00  0.00    -0.145 N 
HETATM    8  N4  UNL     1      39.530  29.204  12.250  1.00  0.00    -0.209 N 
HETATM    9  N5  UNL     1      40.791  29.081  12.823  1.00  0.00    -0.268 N 
ATOM     10  H5  UNL     1      40.802  28.444  13.619  1.00  0.00     0.190 HD
HETATM   11  C7  UNL     1      42.068  29.642  12.552  1.00  0.00     0.159 C 
HETATM   12  N6  UNL     1      43.060  29.616  13.569  1.00  0.00    -0.079 NA
HETATM   13  C8  UNL     1      42.437  30.205  11.408  1.00  0.00     0.120 C 
HETATM   14  N7  UNL     1      43.743  30.704  11.327  1.00  0.00    -0.096 NA
ENDROOT
BRANCH   8  15
HETATM   15  C3  UNL     1      38.724  30.207  12.849  1.00  0.00     0.172 C 
BRANCH  15  16
HETATM   16  C4  UNL     1      37.452  29.667  13.405  1.00  0.00     0.026 C 
BRANCH  16  17
HETATM   17  C5  UNL     1      37.607  28.251  13.850  1.00  0.00     0.028 C 
BRANCH  17  18
HETATM   18  C6  UNL     1      36.491  27.399  13.243  1.00  0.00     0.164 C 
BRANCH  18  19
HETATM   19  O2  UNL     1      36.052  28.069  12.108  1.00  0.00    -0.401 OA
ATOM     20  H2  UNL     1      36.075  27.441  11.396  1.00  0.00     0.209 HD
ENDBRANCH  18  19
ENDBRANCH  17  18
ENDBRANCH  16  17
ENDBRANCH  15  16
ENDBRANCH   8  15
BRANCH   7  21
HETATM   21  N3  UNL     1      38.535  28.253  10.340  1.00  0.00    -0.319 N 
ATOM     22  H32 UNL     1      37.594  28.621  10.203  1.00  0.00     0.179 HD
ATOM     23  H31 UNL     1      38.867  27.316  10.111  1.00  0.00     0.179 HD
ENDBRANCH   7  21
TORSDOF 6
ENDMDL
MODEL 4
REMARK VINA RESULT: -5.887977972      1.985      3.125
REMARK  6 active torsions:
REMARK  status: ('A' for Active; 'I' for Inactive)
REMARK    1  A    between atoms: N2_7  and  N3_8 
REMARK    2  A    between atoms: N4_11  and  C3_12 
REMARK    3  A    between atoms: C3_12  and  C4_13 
REMARK    4  A    between atoms: C4_13  and  C5_14 
REMARK    5  A    between atoms: C5_14  and  C6_15 
REMARK    6  A    between atoms: C6_15  and  O2_16 
ROOT
HETATM    1  N1  UNL     1      36.903  26.287  10.606  1.00  0.00    -0.393 N 
ATOM      2  H11 UNL     1      36.225  25.790  11.182  1.00  0.00     0.156 HD
ATOM      3  H12 UNL     1      37.262  25.945   9.715  1.00  0.00     0.156 HD
HETATM    4  C1  UNL     1      37.357  27.425  11.005  1.00  0.00     0.126 C 
HETATM    5  C2  UNL     1      38.331  28.138  10.178  1.00  0.00     0.310 C 
HETATM    6  O1  UNL     1      38.388  27.709   9.000  1.00  0.00    -0.262 OA
HETATM    7  N2  UNL     1      39.182  29.217  10.551  1.00  0.00    -0.145 N 
HETATM    8  N4  UNL     1      39.492  29.618  11.813  1.00  0.00    -0.209 N 
HETATM    9  N5  UNL     1      38.412  29.749  12.679  1.00  0.00    -0.268 N 
ATOM     10  H5  UNL     1      38.419  30.633  13.187  1.00  0.00     0.190 HD
HETATM   11  C7  UNL     1      37.301  28.930  13.017  1.00  0.00     0.159 C 
HETATM   12  N6  UNL     1      36.601  29.187  14.227  1.00  0.00    -0.079 NA
HETATM   13  C8  UNL     1      36.838  27.919  12.292  1.00  0.00     0.120 C 
HETATM   14  N7  UNL     1      35.728  27.225  12.790  1.00  0.00    -0.096 NA
ENDROOT
BRANCH   8  15
HETATM   15  C3  UNL     1      40.649  29.067  12.421  1.00  0.00     0.172 C 
BRANCH  15  16
HETATM   16  C4  UNL     1      41.813  29.997  12.393  1.00  0.00     0.026 C 
BRANCH  16  17
HETATM   17  C5  UNL     1      42.856  29.539  11.430  1.00  0.00     0.028 C 
BRANCH  17  18
HETATM   18  C6  UNL     1      43.172  30.664  10.443  1.00  0.00     0.164 C 
BRANCH  18  19
HETATM   19  O2  UNL     1      42.141  31.589  10.552  1.00  0.00    -0.401 OA
ATOM     20  H2  UNL     1      42.078  32.026   9.711  1.00  0.00     0.209 HD
ENDBRANCH  18  19
ENDBRANCH  17  18
ENDBRANCH  16  17
ENDBRANCH  15  16
ENDBRANCH   8  15
BRANCH   7  21
HETATM   21  N3  UNL     1      39.730  29.907   9.488  1.00  0.00    -0.319 N 
ATOM     22  H32 UNL     1      39.359  29.736   8.554  1.00  0.00     0.179 HD
ATOM     23  H31 UNL     1      40.484  30.546   9.742  1.00  0.00     0.179 HD
ENDBRANCH   7  21
TORSDOF 6
ENDMDL
MODEL 5
REMARK VINA RESULT: -5.887267610      2.374      3.344
REMARK  6 active torsions:
REMARK  status: ('A' for Active; 'I' for Inactive)
REMARK    1  A    between atoms: N2_7  and  N3_8 
REMARK    2  A    between atoms: N4_11  and  C3_12 
REMARK    3  A    between atoms: C3_12  and  C4_13 
REMARK    4  A    between atoms: C4_13  and  C5_14 
REMARK    5  A    between atoms: C5_14  and  C6_15 
REMARK    6  A    between atoms: C6_15  and  O2_16 
ROOT
HETATM    1  N1  UNL     1      36.903  26.247  10.837  1.00  0.00    -0.393 N 
ATOM      2  H11 UNL     1      36.243  25.792  11.468  1.00  0.00     0.156 HD
ATOM      3  H12 UNL     1      37.241  25.839   9.966  1.00  0.00     0.156 HD
HETATM    4  C1  UNL     1      37.359  27.415  11.135  1.00  0.00     0.126 C 
HETATM    5  C2  UNL     1      38.306  28.067  10.230  1.00  0.00     0.310 C 
HETATM    6  O1  UNL     1      38.336  27.548   9.088  1.00  0.00    -0.262 OA
HETATM    7  N2  UNL     1      39.159  29.176  10.496  1.00  0.00    -0.145 N 
HETATM    8  N4  UNL     1      39.499  29.675  11.715  1.00  0.00    -0.209 N 
HETATM    9  N5  UNL     1      38.441  29.866  12.597  1.00  0.00    -0.268 N 
ATOM     10  H5  UNL     1      38.455  30.787  13.035  1.00  0.00     0.190 HD
HETATM   11  C7  UNL     1      37.345  29.071  13.026  1.00  0.00     0.159 C 
HETATM   12  N6  UNL     1      36.675  29.416  14.231  1.00  0.00    -0.079 NA
HETATM   13  C8  UNL     1      36.870  28.004  12.394  1.00  0.00     0.120 C 
HETATM   14  N7  UNL     1      35.779  27.345  12.973  1.00  0.00    -0.096 NA
ENDROOT
BRANCH   8  15
HETATM   15  C3  UNL     1      40.676  29.178  12.333  1.00  0.00     0.172 C 
BRANCH  15  16
HETATM   16  C4  UNL     1      41.892  29.953  11.962  1.00  0.00     0.026 C 
BRANCH  16  17
HETATM   17  C5  UNL     1      43.110  29.092  11.961  1.00  0.00     0.028 C 
BRANCH  17  18
HETATM   18  C6  UNL     1      44.223  29.778  12.756  1.00  0.00     0.164 C 
BRANCH  18  19
HETATM   19  O2  UNL     1      43.680  30.115  13.990  1.00  0.00    -0.401 OA
ATOM     20  H2  UNL     1      43.471  29.298  14.427  1.00  0.00     0.209 HD
ENDBRANCH  18  19
ENDBRANCH  17  18
ENDBRANCH  16  17
ENDBRANCH  15  16
ENDBRANCH   8  15
BRANCH   7  21
HETATM   21  N3  UNL     1      39.674  29.785   9.370  1.00  0.00    -0.319 N 
ATOM     22  H32 UNL     1      39.500  29.354   8.462  1.00  0.00     0.179 HD
ATOM     23  H31 UNL     1      40.203  30.637   9.554  1.00  0.00     0.179 HD
ENDBRANCH   7  21
TORSDOF 6
ENDMDL
