MODEL 1
REMARK VINA RESULT: -6.535416247      0.000      0.000
REMARK  7 active torsions:
REMARK  status: ('A' for Active; 'I' for Inactive)
REMARK    1  A    between atoms: N3_7  and  C4_9 
REMARK    2  A    between atoms: C4_9  and  C5_10 
REMARK    3  A    between atoms: C5_10  and  N4_11 
REMARK    4  A    between atoms: C5_10  and  C6_15 
REMARK    5  A    between atoms: C5_10  and  C7_18 
REMARK    6  A    between atoms: C6_15  and  O1_16 
REMARK    7  A    between atoms: C7_18  and  O2_19 
ROOT
HETATM    1  N1  UNL     1      34.577  27.425  13.408  1.00  0.00    -0.063 NA
HETATM    2  C1  UNL     1      35.911  27.892  13.545  1.00  0.00     0.194 A 
HETATM    3  N2  UNL     1      36.618  28.694  12.736  1.00  0.00    -0.324 N 
ATOM      4  H2  UNL     1      36.279  29.102  11.865  1.00  0.00     0.169 HD
HETATM    5  C2  UNL     1      37.854  28.877  13.259  1.00  0.00     0.134 A 
HETATM    6  C3  UNL     1      39.102  29.488  13.109  1.00  0.00     0.197 A 
HETATM    7  N3  UNL     1      39.394  30.240  12.107  1.00  0.00    -0.364 N 
ATOM      8  H3  UNL     1      38.709  30.420  11.372  1.00  0.00     0.161 HD
HETATM    9  O3  UNL     1      39.820  29.137  14.139  1.00  0.00    -0.216 OA
HETATM   10  N5  UNL     1      39.129  28.346  14.939  1.00  0.00    -0.241 N 
ATOM     11  H5  UNL     1      39.473  27.940  15.810  1.00  0.00     0.196 HD
HETATM   12  C8  UNL     1      37.912  28.162  14.432  1.00  0.00     0.159 A 
HETATM   13  N6  UNL     1      36.730  27.574  14.588  1.00  0.00    -0.313 N 
ATOM     14  H6  UNL     1      36.474  26.974  15.372  1.00  0.00     0.170 HD
ENDROOT
BRANCH   7  15
HETATM   15  C4  UNL     1      40.698  30.819  12.046  1.00  0.00     0.165 C 
BRANCH  15  16
HETATM   16  C5  UNL     1      41.653  30.042  11.179  1.00  0.00     0.181 C 
BRANCH  16  17
HETATM   17  N4  UNL     1      40.854  29.152  10.355  1.00  0.00    -0.065 N 
ATOM     18  H43 UNL     1      40.248  29.649   9.702  1.00  0.00     0.275 HD
ATOM     19  H42 UNL     1      41.405  28.646   9.662  1.00  0.00     0.275 HD
ATOM     20  H41 UNL     1      40.343  28.536  10.987  1.00  0.00     0.275 HD
ENDBRANCH  16  17
BRANCH  16  21
HETATM   21  C6  UNL     1      42.591  29.206  12.026  1.00  0.00     0.206 C 
BRANCH  21  22
HETATM   22  O1  UNL     1      42.692  29.712  13.309  1.00  0.00    -0.398 OA
ATOM     23  H1  UNL     1      43.431  30.303  13.387  1.00  0.00     0.209 HD
ENDBRANCH  21  22
ENDBRANCH  16  21
BRANCH  16  24
HETATM   24  C7  UNL     1      42.462  30.908  10.269  1.00  0.00     0.206 C 
BRANCH  24  25
HETATM   25  O2  UNL     1      43.691  31.147  10.893  1.00  0.00    -0.398 OA
ATOM     26  H2  UNL     1      43.542  31.150  11.831  1.00  0.00     0.209 HD
ENDBRANCH  24  25
ENDBRANCH  16  24
ENDBRANCH  15  16
ENDBRANCH   7  15
TORSDOF 7
ENDMDL
MODEL 2
REMARK VINA RESULT: -6.498832567      2.844      6.166
REMARK  7 active torsions:
REMARK  status: ('A' for Active; 'I' for Inactive)
REMARK    1  A    between atoms: N3_7  and  C4_9 
REMARK    2  A    between atoms: C4_9  and  C5_10 
REMARK    3  A    between atoms: C5_10  and  N4_11 
REMARK    4  A    between atoms: C5_10  and  C6_15 
REMARK    5  A    between atoms: C5_10  and  C7_18 
REMARK    6  A    between atoms: C6_15  and  O1_16 
REMARK    7  A    between atoms: C7_18  and  O2_19 
ROOT
HETATM    1  N1  UNL     1      41.918  31.215   7.954  1.00  0.00    -0.063 NA
HETATM    2  C1  UNL     1      41.014  30.272   8.509  1.00  0.00     0.194 A 
HETATM    3  N2  UNL     1      40.336  30.322   9.665  1.00  0.00    -0.324 N 
ATOM      4  H2  UNL     1      40.378  31.085  10.342  1.00  0.00     0.169 HD
HETATM    5  C2  UNL     1      39.587  29.201   9.792  1.00  0.00     0.134 A 
HETATM    6  C3  UNL     1      38.679  28.493  10.583  1.00  0.00     0.197 A 
HETATM    7  N3  UNL     1      38.248  28.931  11.714  1.00  0.00    -0.364 N 
ATOM      8  H3  UNL     1      38.562  29.830  12.078  1.00  0.00     0.161 HD
HETATM    9  O3  UNL     1      38.407  27.388   9.947  1.00  0.00    -0.216 OA
HETATM   10  N5  UNL     1      39.071  27.332   8.807  1.00  0.00    -0.241 N 
ATOM     11  H5  UNL     1      39.026  26.567   8.134  1.00  0.00     0.196 HD
HETATM   12  C8  UNL     1      39.810  28.431   8.675  1.00  0.00     0.159 A 
HETATM   13  N6  UNL     1      40.674  29.093   7.912  1.00  0.00    -0.313 N 
ATOM     14  H6  UNL     1      41.030  28.769   7.013  1.00  0.00     0.170 HD
ENDROOT
BRANCH   7  15
HETATM   15  C4  UNL     1      37.320  28.131  12.446  1.00  0.00     0.165 C 
BRANCH  15  16
HETATM   16  C5  UNL     1      37.212  28.522  13.896  1.00  0.00     0.181 C 
BRANCH  16  17
HETATM   17  N4  UNL     1      37.589  29.922  13.990  1.00  0.00    -0.065 N 
ATOM     18  H43 UNL     1      38.302  30.098  14.697  1.00  0.00     0.275 HD
ATOM     19  H42 UNL     1      38.121  30.248  13.183  1.00  0.00     0.275 HD
ATOM     20  H41 UNL     1      36.732  30.453  14.144  1.00  0.00     0.275 HD
ENDBRANCH  16  17
BRANCH  16  21
HETATM   21  C6  UNL     1      38.165  27.706  14.746  1.00  0.00     0.206 C 
BRANCH  21  22
HETATM   22  O1  UNL     1      39.461  27.796  14.271  1.00  0.00    -0.398 OA
ATOM     23  H1  UNL     1      39.790  28.684  14.337  1.00  0.00     0.209 HD
ENDBRANCH  21  22
ENDBRANCH  16  21
BRANCH  16  24
HETATM   24  C7  UNL     1      35.829  28.381  14.445  1.00  0.00     0.206 C 
BRANCH  24  25
HETATM   25  O2  UNL     1      35.151  27.450  13.652  1.00  0.00    -0.398 OA
ATOM     26  H2  UNL     1      35.602  27.400  12.817  1.00  0.00     0.209 HD
ENDBRANCH  24  25
ENDBRANCH  16  24
ENDBRANCH  15  16
ENDBRANCH   7  15
TORSDOF 7
ENDMDL
MODEL 3
REMARK VINA RESULT: -6.495129547      1.471      1.768
REMARK  7 active torsions:
REMARK  status: ('A' for Active; 'I' for Inactive)
REMARK    1  A    between atoms: N3_7  and  C4_9 
REMARK    2  A    between atoms: C4_9  and  C5_10 
REMARK    3  A    between atoms: C5_10  and  N4_11 
REMARK    4  A    between atoms: C5_10  and  C6_15 
REMARK    5  A    between atoms: C5_10  and  C7_18 
REMARK    6  A    between atoms: C6_15  and  O1_16 
REMARK    7  A    between atoms: C7_18  and  O2_19 
ROOT
HETATM    1  N1  UNL     1      34.616  27.482  13.434  1.00  0.00    -0.063 NA
HETATM    2  C1  UNL     1      35.977  27.880  13.509  1.00  0.00     0.194 A 
HETATM    3  N2  UNL     1      36.662  28.717  12.717  1.00  0.00    -0.324 N 
ATOM      4  H2  UNL     1      36.282  29.210  11.908  1.00  0.00     0.169 HD
HETATM    5  C2  UNL     1      37.939  28.806  13.161  1.00  0.00     0.134 A 
HETATM    6  C3  UNL     1      39.200  29.376  12.968  1.00  0.00     0.197 A 
HETATM    7  N3  UNL     1      39.456  30.197  12.011  1.00  0.00    -0.364 N 
ATOM      8  H3  UNL     1      38.731  30.464  11.345  1.00  0.00     0.161 HD
HETATM    9  O3  UNL     1      39.971  28.912  13.911  1.00  0.00    -0.216 OA
HETATM   10  N5  UNL     1      39.302  28.086  14.695  1.00  0.00    -0.241 N 
ATOM     11  H5  UNL     1      39.687  27.596  15.503  1.00  0.00     0.196 HD
HETATM   12  C8  UNL     1      38.046  27.994  14.265  1.00  0.00     0.159 A 
HETATM   13  N6  UNL     1      36.851  27.444  14.460  1.00  0.00    -0.313 N 
ATOM     14  H6  UNL     1      36.623  26.792  15.211  1.00  0.00     0.170 HD
ENDROOT
BRANCH   7  15
HETATM   15  C4  UNL     1      40.778  30.725  11.901  1.00  0.00     0.165 C 
BRANCH  15  16
HETATM   16  C5  UNL     1      41.466  30.344  10.616  1.00  0.00     0.181 C 
BRANCH  16  17
HETATM   17  N4  UNL     1      42.252  31.491  10.196  1.00  0.00    -0.065 N 
ATOM     18  H43 UNL     1      41.681  32.297   9.944  1.00  0.00     0.275 HD
ATOM     19  H42 UNL     1      42.764  31.928  10.963  1.00  0.00     0.275 HD
ATOM     20  H41 UNL     1      42.859  31.177   9.439  1.00  0.00     0.275 HD
ENDBRANCH  16  17
BRANCH  16  21
HETATM   21  C6  UNL     1      40.452  30.030   9.535  1.00  0.00     0.206 C 
BRANCH  21  22
HETATM   22  O1  UNL     1      40.121  28.688   9.534  1.00  0.00    -0.398 OA
ATOM     23  H1  UNL     1      39.392  28.513  10.116  1.00  0.00     0.209 HD
ENDBRANCH  21  22
ENDBRANCH  16  21
BRANCH  16  24
HETATM   24  C7  UNL     1      42.393  29.181  10.765  1.00  0.00     0.206 C 
BRANCH  24  25
HETATM   25  O2  UNL     1      42.478  28.879  12.128  1.00  0.00    -0.398 OA
ATOM     26  H2  UNL     1      41.635  28.536  12.400  1.00  0.00     0.209 HD
ENDBRANCH  24  25
ENDBRANCH  16  24
ENDBRANCH  15  16
ENDBRANCH   7  15
TORSDOF 7
ENDMDL
MODEL 4
REMARK VINA RESULT: -6.450753492      2.216      6.003
REMARK  7 active torsions:
REMARK  status: ('A' for Active; 'I' for Inactive)
REMARK    1  A    between atoms: N3_7  and  C4_9 
REMARK    2  A    between atoms: C4_9  and  C5_10 
REMARK    3  A    between atoms: C5_10  and  N4_11 
REMARK    4  A    between atoms: C5_10  and  C6_15 
REMARK    5  A    between atoms: C5_10  and  C7_18 
REMARK    6  A    between atoms: C6_15  and  O1_16 
REMARK    7  A    between atoms: C7_18  and  O2_19 
ROOT
HETATM    1  N1  UNL     1      41.530  30.842   7.948  1.00  0.00    -0.063 NA
HETATM    2  C1  UNL     1      41.273  30.497   9.301  1.00  0.00     0.194 A 
HETATM    3  N2  UNL     1      40.102  30.281   9.916  1.00  0.00    -0.324 N 
ATOM      4  H2  UNL     1      39.183  30.338   9.474  1.00  0.00     0.169 HD
HETATM    5  C2  UNL     1      40.330  29.975  11.215  1.00  0.00     0.134 A 
HETATM    6  C3  UNL     1      39.763  29.642  12.448  1.00  0.00     0.197 A 
HETATM    7  N3  UNL     1      38.493  29.528  12.625  1.00  0.00    -0.364 N 
ATOM      8  H3  UNL     1      37.844  29.680  11.853  1.00  0.00     0.161 HD
HETATM    9  O3  UNL     1      40.749  29.492  13.288  1.00  0.00    -0.216 OA
HETATM   10  N5  UNL     1      41.906  29.703  12.688  1.00  0.00    -0.241 N 
ATOM     11  H5  UNL     1      42.822  29.645  13.135  1.00  0.00     0.196 HD
HETATM   12  C8  UNL     1      41.690  30.004  11.410  1.00  0.00     0.159 A 
HETATM   13  N6  UNL     1      42.244  30.321  10.243  1.00  0.00    -0.313 N 
ATOM     14  H6  UNL     1      43.246  30.417  10.077  1.00  0.00     0.170 HD
ENDROOT
BRANCH   7  15
HETATM   15  C4  UNL     1      38.014  29.183  13.925  1.00  0.00     0.165 C 
BRANCH  15  16
HETATM   16  C5  UNL     1      37.054  28.023  13.916  1.00  0.00     0.181 C 
BRANCH  16  17
HETATM   17  N4  UNL     1      37.509  27.084  14.927  1.00  0.00    -0.065 N 
ATOM     18  H43 UNL     1      38.068  26.322  14.542  1.00  0.00     0.275 HD
ATOM     19  H42 UNL     1      38.224  27.472  15.542  1.00  0.00     0.275 HD
ATOM     20  H41 UNL     1      36.683  26.760  15.429  1.00  0.00     0.275 HD
ENDBRANCH  16  17
BRANCH  16  21
HETATM   21  C6  UNL     1      37.061  27.327  12.570  1.00  0.00     0.206 C 
BRANCH  21  22
HETATM   22  O1  UNL     1      36.335  28.041  11.635  1.00  0.00    -0.398 OA
ATOM     23  H1  UNL     1      35.830  27.461  11.077  1.00  0.00     0.209 HD
ENDBRANCH  21  22
ENDBRANCH  16  21
BRANCH  16  24
HETATM   24  C7  UNL     1      35.651  28.415  14.253  1.00  0.00     0.206 C 
BRANCH  24  25
HETATM   25  O2  UNL     1      34.804  27.413  13.771  1.00  0.00    -0.398 OA
ATOM     26  H2  UNL     1      34.375  27.748  12.992  1.00  0.00     0.209 HD
ENDBRANCH  24  25
ENDBRANCH  16  24
ENDBRANCH  15  16
ENDBRANCH   7  15
TORSDOF 7
ENDMDL
MODEL 5
REMARK VINA RESULT: -6.429904827      1.863      5.617
REMARK  7 active torsions:
REMARK  status: ('A' for Active; 'I' for Inactive)
REMARK    1  A    between atoms: N3_7  and  C4_9 
REMARK    2  A    between atoms: C4_9  and  C5_10 
REMARK    3  A    between atoms: C5_10  and  N4_11 
REMARK    4  A    between atoms: C5_10  and  C6_15 
REMARK    5  A    between atoms: C5_10  and  C7_18 
REMARK    6  A    between atoms: C6_15  and  O1_16 
REMARK    7  A    between atoms: C7_18  and  O2_19 
ROOT
HETATM    1  N1  UNL     1      41.365  30.402   7.688  1.00  0.00    -0.063 NA
HETATM    2  C1  UNL     1      41.094  30.241   9.073  1.00  0.00     0.194 A 
HETATM    3  N2  UNL     1      39.917  30.087   9.696  1.00  0.00    -0.324 N 
ATOM      4  H2  UNL     1      39.005  30.064   9.239  1.00  0.00     0.169 HD
HETATM    5  C2  UNL     1      40.130  29.969  11.029  1.00  0.00     0.134 A 
HETATM    6  C3  UNL     1      39.550  29.798  12.288  1.00  0.00     0.197 A 
HETATM    7  N3  UNL     1      38.280  29.682  12.462  1.00  0.00    -0.364 N 
ATOM      8  H3  UNL     1      37.641  29.712  11.668  1.00  0.00     0.161 HD
HETATM    9  O3  UNL     1      40.525  29.785  13.153  1.00  0.00    -0.216 OA
HETATM   10  N5  UNL     1      41.688  29.937  12.546  1.00  0.00    -0.241 N 
ATOM     11  H5  UNL     1      42.597  29.960  13.008  1.00  0.00     0.196 HD
HETATM   12  C8  UNL     1      41.486  30.053  11.235  1.00  0.00     0.159 A 
HETATM   13  N6  UNL     1      42.053  30.217  10.043  1.00  0.00    -0.313 N 
ATOM     14  H6  UNL     1      43.055  30.311   9.879  1.00  0.00     0.170 HD
ENDROOT
BRANCH   7  15
HETATM   15  C4  UNL     1      37.787  29.509  13.791  1.00  0.00     0.165 C 
BRANCH  15  16
HETATM   16  C5  UNL     1      37.162  28.159  14.023  1.00  0.00     0.181 C 
BRANCH  16  17
HETATM   17  N4  UNL     1      35.922  28.382  14.747  1.00  0.00    -0.065 N 
ATOM     18  H43 UNL     1      36.069  28.633  15.724  1.00  0.00     0.275 HD
ATOM     19  H42 UNL     1      35.440  29.235  14.464  1.00  0.00     0.275 HD
ATOM     20  H41 UNL     1      35.352  27.544  14.630  1.00  0.00     0.275 HD
ENDBRANCH  16  17
BRANCH  16  21
HETATM   21  C6  UNL     1      38.065  27.285  14.867  1.00  0.00     0.206 C 
BRANCH  21  22
HETATM   22  O1  UNL     1      39.394  27.625  14.695  1.00  0.00    -0.398 OA
ATOM     23  H1  UNL     1      39.935  27.256  15.383  1.00  0.00     0.209 HD
ENDBRANCH  21  22
ENDBRANCH  16  21
BRANCH  16  24
HETATM   24  C7  UNL     1      36.830  27.437  12.757  1.00  0.00     0.206 C 
BRANCH  24  25
HETATM   25  O2  UNL     1      35.815  28.153  12.114  1.00  0.00    -0.398 OA
ATOM     26  H2  UNL     1      35.436  27.585  11.454  1.00  0.00     0.209 HD
ENDBRANCH  24  25
ENDBRANCH  16  24
ENDBRANCH  15  16
ENDBRANCH   7  15
TORSDOF 7
ENDMDL
