MODEL 1
REMARK VINA RESULT: -7.957761976      0.000      0.000
REMARK  8 active torsions:
REMARK  status: ('A' for Active; 'I' for Inactive)
REMARK    1  A    between atoms: C1_4  and  C2_6 
REMARK    2  A    between atoms: C2_6  and  C3_7 
REMARK    3  A    between atoms: C3_7  and  N4_11 
REMARK    4  A    between atoms: N4_11  and  C4_13 
REMARK    5  A    between atoms: C4_13  and  C5_14 
REMARK    6  A    between atoms: C5_14  and  N5_15 
REMARK    7  A    between atoms: N5_15  and  S1_17 
REMARK    8  A    between atoms: S1_17  and  N6_18 
ROOT
HETATM    1  C3  UNL     1     -43.407   0.573  -3.357  1.00  0.00     0.086 C 
HETATM    2  N3  UNL     1     -42.280   1.087  -2.999  1.00  0.00    -0.388 N 
ATOM      3  H31 UNL     1     -41.468   0.868  -3.575  1.00  0.00     0.157 HD
ATOM      4  H32 UNL     1     -42.176   1.691  -2.184  1.00  0.00     0.157 HD
ENDROOT
BRANCH   1   5
HETATM    5  C2  UNL     1     -44.594   0.891  -2.516  1.00  0.00     0.073 C 
HETATM    6  C6  UNL     1     -45.739  -0.031  -2.922  1.00  0.00     0.025 C 
HETATM    7  C7  UNL     1     -45.179  -1.022  -1.916  1.00  0.00     0.003 C 
HETATM    8  C8  UNL     1     -44.607   0.173  -1.181  1.00  0.00     0.025 C 
BRANCH   5   9
HETATM    9  C1  UNL     1     -44.979   2.307  -2.467  1.00  0.00     0.103 C 
HETATM   10  N1  UNL     1     -46.208   2.602  -2.221  1.00  0.00    -0.390 N 
ATOM     11  H12 UNL     1     -46.476   3.586  -2.187  1.00  0.00     0.157 HD
ATOM     12  H11 UNL     1     -46.916   1.886  -2.059  1.00  0.00     0.157 HD
HETATM   13  N2  UNL     1     -43.984   3.312  -2.694  1.00  0.00    -0.087 NA
ENDBRANCH   5   9
ENDBRANCH   1   5
BRANCH   1  14
HETATM   14  N4  UNL     1     -43.552  -0.267  -4.492  1.00  0.00    -0.378 N 
ATOM     15  H4  UNL     1     -44.038   0.092  -5.314  1.00  0.00     0.160 HD
BRANCH  14  16
HETATM   16  C4  UNL     1     -43.035  -1.612  -4.519  1.00  0.00     0.141 C 
BRANCH  16  17
HETATM   17  C5  UNL     1     -43.759  -2.370  -5.604  1.00  0.00     0.153 C 
BRANCH  17  18
HETATM   18  N5  UNL     1     -45.083  -2.799  -5.204  1.00  0.00    -0.301 N 
ATOM     19  H5  UNL     1     -45.335  -3.232  -4.315  1.00  0.00     0.173 HD
BRANCH  18  20
HETATM   20  S1  UNL     1     -46.154  -2.443  -6.506  1.00  0.00     0.312 S 
HETATM   21  O1  UNL     1     -46.220  -3.550  -7.508  1.00  0.00    -0.183 OA
HETATM   22  O2  UNL     1     -47.535  -2.110  -6.006  1.00  0.00    -0.183 OA
BRANCH  20  23
HETATM   23  N6  UNL     1     -45.521  -1.051  -7.343  1.00  0.00    -0.312 N 
ATOM     24  H62 UNL     1     -45.203  -0.189  -6.900  1.00  0.00     0.170 HD
ATOM     25  H61 UNL     1     -45.531  -1.261  -8.341  1.00  0.00     0.170 HD
ENDBRANCH  20  23
ENDBRANCH  18  20
ENDBRANCH  17  18
ENDBRANCH  16  17
ENDBRANCH  14  16
ENDBRANCH   1  14
TORSDOF 8
ENDMDL
MODEL 2
REMARK VINA RESULT: -7.916804279      1.479      1.791
REMARK  8 active torsions:
REMARK  status: ('A' for Active; 'I' for Inactive)
REMARK    1  A    between atoms: C1_4  and  C2_6 
REMARK    2  A    between atoms: C2_6  and  C3_7 
REMARK    3  A    between atoms: C3_7  and  N4_11 
REMARK    4  A    between atoms: N4_11  and  C4_13 
REMARK    5  A    between atoms: C4_13  and  C5_14 
REMARK    6  A    between atoms: C5_14  and  N5_15 
REMARK    7  A    between atoms: N5_15  and  S1_17 
REMARK    8  A    between atoms: S1_17  and  N6_18 
ROOT
HETATM    1  C3  UNL     1     -43.123   0.350  -2.815  1.00  0.00     0.086 C 
HETATM    2  N3  UNL     1     -42.812  -0.292  -1.741  1.00  0.00    -0.388 N 
ATOM      3  H31 UNL     1     -42.502  -1.258  -1.851  1.00  0.00     0.157 HD
ATOM      4  H32 UNL     1     -42.862   0.121  -0.809  1.00  0.00     0.157 HD
ENDROOT
BRANCH   1   5
HETATM    5  C2  UNL     1     -43.576   1.758  -2.654  1.00  0.00     0.073 C 
HETATM    6  C6  UNL     1     -44.673   2.036  -3.676  1.00  0.00     0.025 C 
HETATM    7  C7  UNL     1     -45.650   1.508  -2.640  1.00  0.00     0.003 C 
HETATM    8  C8  UNL     1     -44.643   1.940  -1.592  1.00  0.00     0.025 C 
BRANCH   5   9
HETATM    9  C1  UNL     1     -42.516   2.773  -2.652  1.00  0.00     0.103 C 
HETATM   10  N1  UNL     1     -42.777   3.935  -2.162  1.00  0.00    -0.390 N 
ATOM     11  H12 UNL     1     -42.039   4.640  -2.160  1.00  0.00     0.157 HD
ATOM     12  H11 UNL     1     -43.691   4.168  -1.777  1.00  0.00     0.157 HD
HETATM   13  N2  UNL     1     -41.231   2.445  -3.192  1.00  0.00    -0.087 NA
ENDBRANCH   5   9
ENDBRANCH   1   5
BRANCH   1  14
HETATM   14  N4  UNL     1     -43.053  -0.225  -4.111  1.00  0.00    -0.378 N 
ATOM     15  H4  UNL     1     -42.789   0.366  -4.900  1.00  0.00     0.160 HD
BRANCH  14  16
HETATM   16  C4  UNL     1     -43.343  -1.617  -4.347  1.00  0.00     0.141 C 
BRANCH  16  17
HETATM   17  C5  UNL     1     -44.843  -1.781  -4.392  1.00  0.00     0.153 C 
BRANCH  17  18
HETATM   18  N5  UNL     1     -45.256  -2.992  -5.069  1.00  0.00    -0.301 N 
ATOM     19  H5  UNL     1     -45.052  -3.948  -4.777  1.00  0.00     0.173 HD
BRANCH  18  20
HETATM   20  S1  UNL     1     -46.157  -2.520  -6.460  1.00  0.00     0.312 S 
HETATM   21  O1  UNL     1     -46.163  -3.574  -7.520  1.00  0.00    -0.183 OA
HETATM   22  O2  UNL     1     -47.569  -2.138  -6.097  1.00  0.00    -0.183 OA
BRANCH  20  23
HETATM   23  N6  UNL     1     -45.370  -1.126  -7.150  1.00  0.00    -0.312 N 
ATOM     24  H62 UNL     1     -44.367  -0.938  -7.122  1.00  0.00     0.170 HD
ATOM     25  H61 UNL     1     -46.091  -0.545  -7.578  1.00  0.00     0.170 HD
ENDBRANCH  20  23
ENDBRANCH  18  20
ENDBRANCH  17  18
ENDBRANCH  16  17
ENDBRANCH  14  16
ENDBRANCH   1  14
TORSDOF 8
ENDMDL
MODEL 3
REMARK VINA RESULT: -7.772965109      1.247      2.172
REMARK  8 active torsions:
REMARK  status: ('A' for Active; 'I' for Inactive)
REMARK    1  A    between atoms: C1_4  and  C2_6 
REMARK    2  A    between atoms: C2_6  and  C3_7 
REMARK    3  A    between atoms: C3_7  and  N4_11 
REMARK    4  A    between atoms: N4_11  and  C4_13 
REMARK    5  A    between atoms: C4_13  and  C5_14 
REMARK    6  A    between atoms: C5_14  and  N5_15 
REMARK    7  A    between atoms: N5_15  and  S1_17 
REMARK    8  A    between atoms: S1_17  and  N6_18 
ROOT
HETATM    1  C3  UNL     1     -45.215  -0.265  -3.335  1.00  0.00     0.086 C 
HETATM    2  N3  UNL     1     -46.135  -1.136  -3.097  1.00  0.00    -0.388 N 
ATOM      3  H31 UNL     1     -46.517  -1.638  -3.899  1.00  0.00     0.157 HD
ATOM      4  H32 UNL     1     -46.485  -1.336  -2.160  1.00  0.00     0.157 HD
ENDROOT
BRANCH   1   5
HETATM    5  C2  UNL     1     -44.658   0.468  -2.166  1.00  0.00     0.073 C 
HETATM    6  C6  UNL     1     -44.572  -0.493  -0.985  1.00  0.00     0.025 C 
HETATM    7  C7  UNL     1     -43.200  -0.877  -1.512  1.00  0.00     0.003 C 
HETATM    8  C8  UNL     1     -43.142   0.504  -2.132  1.00  0.00     0.025 C 
BRANCH   5   9
HETATM    9  C1  UNL     1     -45.319   1.736  -1.835  1.00  0.00     0.103 C 
HETATM   10  N1  UNL     1     -44.909   2.393  -0.807  1.00  0.00    -0.390 N 
ATOM     11  H12 UNL     1     -45.368   3.275  -0.576  1.00  0.00     0.157 HD
ATOM     12  H11 UNL     1     -44.143   2.062  -0.220  1.00  0.00     0.157 HD
HETATM   13  N2  UNL     1     -46.394   2.201  -2.658  1.00  0.00    -0.087 NA
ENDBRANCH   5   9
ENDBRANCH   1   5
BRANCH   1  14
HETATM   14  N4  UNL     1     -44.728   0.013  -4.639  1.00  0.00    -0.378 N 
ATOM     15  H4  UNL     1     -45.244   0.664  -5.231  1.00  0.00     0.160 HD
BRANCH  14  16
HETATM   16  C4  UNL     1     -43.527  -0.596  -5.153  1.00  0.00     0.141 C 
BRANCH  16  17
HETATM   17  C5  UNL     1     -43.914  -1.507  -6.292  1.00  0.00     0.153 C 
BRANCH  17  18
HETATM   18  N5  UNL     1     -45.205  -1.180  -6.860  1.00  0.00    -0.301 N 
ATOM     19  H5  UNL     1     -45.446  -0.326  -7.363  1.00  0.00     0.173 HD
BRANCH  18  20
HETATM   20  S1  UNL     1     -46.260  -2.502  -6.528  1.00  0.00     0.312 S 
HETATM   21  O1  UNL     1     -47.538  -2.065  -5.889  1.00  0.00    -0.183 OA
HETATM   22  O2  UNL     1     -46.547  -3.302  -7.773  1.00  0.00    -0.183 OA
BRANCH  20  23
HETATM   23  N6  UNL     1     -45.459  -3.541  -5.380  1.00  0.00    -0.312 N 
ATOM     24  H62 UNL     1     -45.925  -4.178  -4.734  1.00  0.00     0.170 HD
ATOM     25  H61 UNL     1     -44.455  -3.391  -5.477  1.00  0.00     0.170 HD
ENDBRANCH  20  23
ENDBRANCH  18  20
ENDBRANCH  17  18
ENDBRANCH  16  17
ENDBRANCH  14  16
ENDBRANCH   1  14
TORSDOF 8
ENDMDL
MODEL 4
REMARK VINA RESULT: -7.605804415      0.920      1.566
REMARK  8 active torsions:
REMARK  status: ('A' for Active; 'I' for Inactive)
REMARK    1  A    between atoms: C1_4  and  C2_6 
REMARK    2  A    between atoms: C2_6  and  C3_7 
REMARK    3  A    between atoms: C3_7  and  N4_11 
REMARK    4  A    between atoms: N4_11  and  C4_13 
REMARK    5  A    between atoms: C4_13  and  C5_14 
REMARK    6  A    between atoms: C5_14  and  N5_15 
REMARK    7  A    between atoms: N5_15  and  S1_17 
REMARK    8  A    between atoms: S1_17  and  N6_18 
ROOT
HETATM    1  C3  UNL     1     -44.807  -0.054  -3.579  1.00  0.00     0.086 C 
HETATM    2  N3  UNL     1     -46.044  -0.401  -3.689  1.00  0.00    -0.388 N 
ATOM      3  H31 UNL     1     -46.314  -0.892  -4.541  1.00  0.00     0.157 HD
ATOM      4  H32 UNL     1     -46.743  -0.209  -2.971  1.00  0.00     0.157 HD
ENDROOT
BRANCH   1   5
HETATM    5  C2  UNL     1     -44.413   0.663  -2.336  1.00  0.00     0.073 C 
HETATM    6  C6  UNL     1     -44.807  -0.192  -1.136  1.00  0.00     0.025 C 
HETATM    7  C7  UNL     1     -43.455  -0.867  -1.284  1.00  0.00     0.003 C 
HETATM    8  C8  UNL     1     -42.974   0.421  -1.922  1.00  0.00     0.025 C 
BRANCH   5   9
HETATM    9  C1  UNL     1     -44.866   2.055  -2.231  1.00  0.00     0.103 C 
HETATM   10  N1  UNL     1     -44.005   2.961  -1.925  1.00  0.00    -0.390 N 
ATOM     11  H12 UNL     1     -44.320   3.929  -1.852  1.00  0.00     0.157 HD
ATOM     12  H11 UNL     1     -43.023   2.742  -1.756  1.00  0.00     0.157 HD
HETATM   13  N2  UNL     1     -46.245   2.362  -2.468  1.00  0.00    -0.087 NA
ENDBRANCH   5   9
ENDBRANCH   1   5
BRANCH   1  14
HETATM   14  N4  UNL     1     -43.834  -0.322  -4.578  1.00  0.00    -0.378 N 
ATOM     15  H4  UNL     1     -43.634   0.394  -5.277  1.00  0.00     0.160 HD
BRANCH  14  16
HETATM   16  C4  UNL     1     -43.121  -1.573  -4.635  1.00  0.00     0.141 C 
BRANCH  16  17
HETATM   17  C5  UNL     1     -43.727  -2.407  -5.737  1.00  0.00     0.153 C 
BRANCH  17  18
HETATM   18  N5  UNL     1     -44.992  -3.002  -5.361  1.00  0.00    -0.301 N 
ATOM     19  H5  UNL     1     -45.168  -3.582  -4.540  1.00  0.00     0.173 HD
BRANCH  18  20
HETATM   20  S1  UNL     1     -46.148  -2.548  -6.556  1.00  0.00     0.312 S 
HETATM   21  O1  UNL     1     -46.350  -3.611  -7.587  1.00  0.00    -0.183 OA
HETATM   22  O2  UNL     1     -47.466  -2.171  -5.931  1.00  0.00    -0.183 OA
BRANCH  20  23
HETATM   23  N6  UNL     1     -45.519  -1.155  -7.394  1.00  0.00    -0.312 N 
ATOM     24  H62 UNL     1     -44.571  -0.789  -7.306  1.00  0.00     0.170 HD
ATOM     25  H61 UNL     1     -46.268  -0.783  -7.979  1.00  0.00     0.170 HD
ENDBRANCH  20  23
ENDBRANCH  18  20
ENDBRANCH  17  18
ENDBRANCH  16  17
ENDBRANCH  14  16
ENDBRANCH   1  14
TORSDOF 8
ENDMDL
MODEL 5
REMARK VINA RESULT: -7.504952938      1.287      2.007
REMARK  8 active torsions:
REMARK  status: ('A' for Active; 'I' for Inactive)
REMARK    1  A    between atoms: C1_4  and  C2_6 
REMARK    2  A    between atoms: C2_6  and  C3_7 
REMARK    3  A    between atoms: C3_7  and  N4_11 
REMARK    4  A    between atoms: N4_11  and  C4_13 
REMARK    5  A    between atoms: C4_13  and  C5_14 
REMARK    6  A    between atoms: C5_14  and  N5_15 
REMARK    7  A    between atoms: N5_15  and  S1_17 
REMARK    8  A    between atoms: S1_17  and  N6_18 
ROOT
HETATM    1  C3  UNL     1     -44.355  -0.164  -2.219  1.00  0.00     0.086 C 
HETATM    2  N3  UNL     1     -44.232  -0.535  -0.991  1.00  0.00    -0.388 N 
ATOM      3  H31 UNL     1     -44.306  -1.534  -0.799  1.00  0.00     0.157 HD
ATOM      4  H32 UNL     1     -44.064   0.117  -0.225  1.00  0.00     0.157 HD
ENDROOT
BRANCH   1   5
HETATM    5  C2  UNL     1     -44.247   1.294  -2.500  1.00  0.00     0.073 C 
HETATM    6  C6  UNL     1     -42.829   1.749  -2.171  1.00  0.00     0.025 C 
HETATM    7  C7  UNL     1     -42.467   1.355  -3.592  1.00  0.00     0.003 C 
HETATM    8  C8  UNL     1     -43.918   1.615  -3.945  1.00  0.00     0.025 C 
BRANCH   5   9
HETATM    9  C1  UNL     1     -45.282   2.139  -1.894  1.00  0.00     0.103 C 
HETATM   10  N1  UNL     1     -45.022   2.726  -0.779  1.00  0.00    -0.390 N 
ATOM     11  H12 UNL     1     -45.742   3.314  -0.357  1.00  0.00     0.157 HD
ATOM     12  H11 UNL     1     -44.124   2.623  -0.307  1.00  0.00     0.157 HD
HETATM   13  N2  UNL     1     -46.544   2.284  -2.556  1.00  0.00    -0.087 NA
ENDBRANCH   5   9
ENDBRANCH   1   5
BRANCH   1  14
HETATM   14  N4  UNL     1     -44.588  -1.072  -3.285  1.00  0.00    -0.378 N 
ATOM     15  H4  UNL     1     -45.479  -1.035  -3.780  1.00  0.00     0.160 HD
BRANCH  14  16
HETATM   16  C4  UNL     1     -43.604  -2.045  -3.690  1.00  0.00     0.141 C 
BRANCH  16  17
HETATM   17  C5  UNL     1     -44.000  -2.575  -5.046  1.00  0.00     0.153 C 
BRANCH  17  18
HETATM   18  N5  UNL     1     -45.326  -3.157  -5.057  1.00  0.00    -0.301 N 
ATOM     19  H5  UNL     1     -45.708  -3.805  -4.368  1.00  0.00     0.173 HD
BRANCH  18  20
HETATM   20  S1  UNL     1     -46.140  -2.553  -6.451  1.00  0.00     0.312 S 
HETATM   21  O1  UNL     1     -46.154  -3.538  -7.575  1.00  0.00    -0.183 OA
HETATM   22  O2  UNL     1     -47.545  -2.118  -6.122  1.00  0.00    -0.183 OA
BRANCH  20  23
HETATM   23  N6  UNL     1     -45.253  -1.163  -7.018  1.00  0.00    -0.312 N 
ATOM     24  H62 UNL     1     -45.658  -0.253  -7.239  1.00  0.00     0.170 HD
ATOM     25  H61 UNL     1     -44.271  -1.431  -7.086  1.00  0.00     0.170 HD
ENDBRANCH  20  23
ENDBRANCH  18  20
ENDBRANCH  17  18
ENDBRANCH  16  17
ENDBRANCH  14  16
ENDBRANCH   1  14
TORSDOF 8
ENDMDL
