MODEL 1
REMARK VINA RESULT: -4.995785267      0.000      0.000
REMARK  7 active torsions:
REMARK  status: ('A' for Active; 'I' for Inactive)
REMARK    1  A    between atoms: O1_2  and  C2_3 
REMARK    2  A    between atoms: C2_3  and  C3_4 
REMARK    3  A    between atoms: C4_5  and  N1_6 
REMARK       I    between atoms: N1_6  and  C5_8 
REMARK    4  A    between atoms: C6_13  and  O2_14 
REMARK    5  A    between atoms: C7_16  and  N4_17 
REMARK    6  A    between atoms: N4_17  and  C8_18 
REMARK    7  A    between atoms: N5_22  and  N6_23 
ROOT
HETATM    1  C3  UNL     1     -43.575  -2.172  -3.676  1.00  0.00     0.128 C 
HETATM    2  C4  UNL     1     -44.618  -1.477  -4.581  1.00  0.00     0.137 C 
HETATM    3  C6  UNL     1     -44.578  -0.038  -4.420  1.00  0.00     0.180 C 
HETATM    4  C7  UNL     1     -43.774   0.491  -3.304  1.00  0.00     0.216 C 
HETATM    5  C9  UNL     1     -43.646  -0.431  -2.142  1.00  0.00     0.114 C 
HETATM    6  C10 UNL     1     -44.447  -0.029  -0.913  1.00  0.00     0.031 C 
HETATM    7  N5  UNL     1     -43.929  -1.836  -2.336  1.00  0.00    -0.222 NA
ENDROOT
BRANCH   2   8
HETATM    8  N1  UNL     1     -44.403  -2.039  -5.881  1.00  0.00    -0.356 N 
HETATM    9  C5  UNL     1     -45.552  -2.251  -6.744  1.00  0.00     0.182 C 
HETATM   10  N2  UNL     1     -46.413  -1.335  -6.955  1.00  0.00    -0.374 N 
HETATM   11  N3  UNL     1     -45.652  -3.531  -7.324  1.00  0.00    -0.064 NA
ATOM     12  H22 UNL     1     -46.341  -0.409  -6.534  1.00  0.00     0.158 HD
ATOM     13  H21 UNL     1     -47.220  -1.484  -7.561  1.00  0.00     0.158 HD
ATOM     14  H1  UNL     1     -43.465  -2.286  -6.194  1.00  0.00     0.162 HD
ENDBRANCH   2   8
BRANCH   1  15
HETATM   15  C2  UNL     1     -43.649  -3.626  -4.032  1.00  0.00     0.190 C 
BRANCH  15  16
HETATM   16  O1  UNL     1     -44.828  -4.241  -3.862  1.00  0.00    -0.394 OA
HETATM   17  C1  UNL     1     -44.884  -5.224  -2.933  1.00  0.00     0.201 C 
ENDBRANCH  15  16
ENDBRANCH   1  15
BRANCH   3  18
HETATM   18  O2  UNL     1     -44.295   0.653  -5.627  1.00  0.00    -0.390 OA
ATOM     19  H2  UNL     1     -44.674   1.523  -5.658  1.00  0.00     0.210 HD
ENDBRANCH   3  18
BRANCH   7  20
HETATM   20  N6  UNL     1     -43.162  -2.498  -1.402  1.00  0.00    -0.362 NA
ATOM     21  H62 UNL     1     -43.091  -3.458  -1.739  1.00  0.00     0.171 HD
ATOM     22  H61 UNL     1     -43.598  -2.522  -0.481  1.00  0.00     0.171 HD
ENDBRANCH   7  20
BRANCH   4  23
HETATM   23  N4  UNL     1     -44.074   1.819  -2.864  1.00  0.00    -0.413 NA
BRANCH  23  24
HETATM   24  C8  UNL     1     -44.354   3.059  -2.454  1.00  0.00     0.435 C 
HETATM   25  O3  UNL     1     -43.733   3.869  -1.734  1.00  0.00    -0.269 OA
ENDBRANCH  23  24
ENDBRANCH   4  23
TORSDOF 7
ENDMDL
MODEL 2
REMARK VINA RESULT: -4.951151057      2.080      5.812
REMARK  7 active torsions:
REMARK  status: ('A' for Active; 'I' for Inactive)
REMARK    1  A    between atoms: O1_2  and  C2_3 
REMARK    2  A    between atoms: C2_3  and  C3_4 
REMARK    3  A    between atoms: C4_5  and  N1_6 
REMARK       I    between atoms: N1_6  and  C5_8 
REMARK    4  A    between atoms: C6_13  and  O2_14 
REMARK    5  A    between atoms: C7_16  and  N4_17 
REMARK    6  A    between atoms: N4_17  and  C8_18 
REMARK    7  A    between atoms: N5_22  and  N6_23 
ROOT
HETATM    1  C3  UNL     1     -44.564   1.210  -1.723  1.00  0.00     0.128 C 
HETATM    2  C4  UNL     1     -43.634   1.574  -2.903  1.00  0.00     0.137 C 
HETATM    3  C6  UNL     1     -43.958   0.801  -4.085  1.00  0.00     0.180 C 
HETATM    4  C7  UNL     1     -44.900  -0.319  -3.917  1.00  0.00     0.216 C 
HETATM    5  C9  UNL     1     -44.901  -0.929  -2.559  1.00  0.00     0.114 C 
HETATM    6  C10 UNL     1     -44.251  -2.301  -2.471  1.00  0.00     0.031 C 
HETATM    7  N5  UNL     1     -44.344  -0.174  -1.458  1.00  0.00    -0.222 NA
ENDROOT
BRANCH   2   8
HETATM    8  N1  UNL     1     -43.675   3.004  -2.971  1.00  0.00    -0.356 N 
HETATM    9  C5  UNL     1     -42.434   3.743  -2.818  1.00  0.00     0.182 C 
HETATM   10  N2  UNL     1     -41.387   3.444  -3.479  1.00  0.00    -0.374 N 
HETATM   11  N3  UNL     1     -42.465   4.802  -1.889  1.00  0.00    -0.064 NA
ATOM     12  H22 UNL     1     -41.364   2.677  -4.151  1.00  0.00     0.158 HD
ATOM     13  H21 UNL     1     -40.515   3.963  -3.371  1.00  0.00     0.158 HD
ATOM     14  H1  UNL     1     -44.557   3.493  -3.124  1.00  0.00     0.162 HD
ENDBRANCH   2   8
BRANCH   1  15
HETATM   15  C2  UNL     1     -44.194   2.158  -0.622  1.00  0.00     0.190 C 
BRANCH  15  16
HETATM   16  O1  UNL     1     -45.195   2.685   0.097  1.00  0.00    -0.394 OA
HETATM   17  C1  UNL     1     -44.990   2.828   1.428  1.00  0.00     0.201 C 
ENDBRANCH  15  16
ENDBRANCH   1  15
BRANCH   3  18
HETATM   18  O2  UNL     1     -44.312   1.606  -5.199  1.00  0.00    -0.390 OA
ATOM     19  H2  UNL     1     -43.564   2.010  -5.622  1.00  0.00     0.210 HD
ENDBRANCH   3  18
BRANCH   7  20
HETATM   20  N6  UNL     1     -45.011  -0.612  -0.336  1.00  0.00    -0.362 NA
ATOM     21  H62 UNL     1     -44.747   0.034   0.408  1.00  0.00     0.171 HD
ATOM     22  H61 UNL     1     -44.727  -1.550  -0.051  1.00  0.00     0.171 HD
ENDBRANCH   7  20
BRANCH   4  23
HETATM   23  N4  UNL     1     -44.883  -1.334  -4.926  1.00  0.00    -0.413 NA
BRANCH  23  24
HETATM   24  C8  UNL     1     -44.869  -2.280  -5.868  1.00  0.00     0.435 C 
HETATM   25  O3  UNL     1     -45.464  -3.373  -5.974  1.00  0.00    -0.269 OA
ENDBRANCH  23  24
ENDBRANCH   4  23
TORSDOF 7
ENDMDL
MODEL 3
REMARK VINA RESULT: -4.911494581      1.623      1.844
REMARK  7 active torsions:
REMARK  status: ('A' for Active; 'I' for Inactive)
REMARK    1  A    between atoms: O1_2  and  C2_3 
REMARK    2  A    between atoms: C2_3  and  C3_4 
REMARK    3  A    between atoms: C4_5  and  N1_6 
REMARK       I    between atoms: N1_6  and  C5_8 
REMARK    4  A    between atoms: C6_13  and  O2_14 
REMARK    5  A    between atoms: C7_16  and  N4_17 
REMARK    6  A    between atoms: N4_17  and  C8_18 
REMARK    7  A    between atoms: N5_22  and  N6_23 
ROOT
HETATM    1  C3  UNL     1     -44.136  -0.927  -2.638  1.00  0.00     0.128 C 
HETATM    2  C4  UNL     1     -44.097  -0.187  -3.995  1.00  0.00     0.137 C 
HETATM    3  C6  UNL     1     -43.424   1.091  -3.878  1.00  0.00     0.180 C 
HETATM    4  C7  UNL     1     -43.123   1.568  -2.518  1.00  0.00     0.216 C 
HETATM    5  C9  UNL     1     -44.055   1.076  -1.467  1.00  0.00     0.114 C 
HETATM    6  C10 UNL     1     -45.023   2.119  -0.928  1.00  0.00     0.031 C 
HETATM    7  N5  UNL     1     -44.869  -0.086  -1.750  1.00  0.00    -0.222 NA
ENDROOT
BRANCH   2   8
HETATM    8  N1  UNL     1     -43.597  -1.156  -4.923  1.00  0.00    -0.356 N 
HETATM    9  C5  UNL     1     -44.325  -1.374  -6.161  1.00  0.00     0.182 C 
HETATM   10  N2  UNL     1     -44.687  -0.406  -6.907  1.00  0.00    -0.374 N 
HETATM   11  N3  UNL     1     -44.608  -2.718  -6.475  1.00  0.00    -0.064 NA
ATOM     12  H22 UNL     1     -44.482   0.567  -6.680  1.00  0.00     0.158 HD
ATOM     13  H21 UNL     1     -45.199  -0.559  -7.776  1.00  0.00     0.158 HD
ATOM     14  H1  UNL     1     -42.747  -1.683  -4.720  1.00  0.00     0.162 HD
ENDBRANCH   2   8
BRANCH   1  15
HETATM   15  C2  UNL     1     -44.746  -2.263  -2.934  1.00  0.00     0.190 C 
BRANCH  15  16
HETATM   16  O1  UNL     1     -43.953  -3.339  -2.826  1.00  0.00    -0.394 OA
HETATM   17  C1  UNL     1     -44.418  -4.502  -3.340  1.00  0.00     0.201 C 
ENDBRANCH  15  16
ENDBRANCH   1  15
BRANCH   3  18
HETATM   18  O2  UNL     1     -42.291   1.206  -4.725  1.00  0.00    -0.390 OA
ATOM     19  H2  UNL     1     -41.873   2.057  -4.677  1.00  0.00     0.210 HD
ENDBRANCH   3  18
BRANCH   7  20
HETATM   20  N6  UNL     1     -45.103  -0.678  -0.529  1.00  0.00    -0.362 NA
ATOM     21  H62 UNL     1     -46.083  -0.959  -0.546  1.00  0.00     0.171 HD
ATOM     22  H61 UNL     1     -44.976  -0.033   0.251  1.00  0.00     0.171 HD
ENDBRANCH   7  20
BRANCH   4  23
HETATM   23  N4  UNL     1     -42.883   2.971  -2.364  1.00  0.00    -0.413 NA
BRANCH  23  24
HETATM   24  C8  UNL     1     -42.660   4.279  -2.219  1.00  0.00     0.435 C 
HETATM   25  O3  UNL     1     -42.734   5.043  -1.233  1.00  0.00    -0.269 OA
ENDBRANCH  23  24
ENDBRANCH   4  23
TORSDOF 7
ENDMDL
MODEL 4
REMARK VINA RESULT: -4.577618961      2.176      3.755
REMARK  7 active torsions:
REMARK  status: ('A' for Active; 'I' for Inactive)
REMARK    1  A    between atoms: O1_2  and  C2_3 
REMARK    2  A    between atoms: C2_3  and  C3_4 
REMARK    3  A    between atoms: C4_5  and  N1_6 
REMARK       I    between atoms: N1_6  and  C5_8 
REMARK    4  A    between atoms: C6_13  and  O2_14 
REMARK    5  A    between atoms: C7_16  and  N4_17 
REMARK    6  A    between atoms: N4_17  and  C8_18 
REMARK    7  A    between atoms: N5_22  and  N6_23 
ROOT
HETATM    1  C3  UNL     1     -44.851  -0.017  -4.053  1.00  0.00     0.128 C 
HETATM    2  C4  UNL     1     -44.378  -0.831  -2.826  1.00  0.00     0.137 C 
HETATM    3  C6  UNL     1     -44.584  -0.094  -1.596  1.00  0.00     0.180 C 
HETATM    4  C7  UNL     1     -44.955   1.326  -1.718  1.00  0.00     0.216 C 
HETATM    5  C9  UNL     1     -44.463   1.992  -2.956  1.00  0.00     0.114 C 
HETATM    6  C10 UNL     1     -43.318   2.970  -2.745  1.00  0.00     0.031 C 
HETATM    7  N5  UNL     1     -44.055   1.166  -4.072  1.00  0.00    -0.222 NA
ENDROOT
BRANCH   2   8
HETATM    8  N1  UNL     1     -44.995  -2.114  -2.982  1.00  0.00    -0.356 N 
HETATM    9  C5  UNL     1     -44.147  -3.294  -3.005  1.00  0.00     0.182 C 
HETATM   10  N2  UNL     1     -43.255  -3.498  -2.118  1.00  0.00    -0.374 N 
HETATM   11  N3  UNL     1     -44.373  -4.187  -4.070  1.00  0.00    -0.064 NA
ATOM     12  H22 UNL     1     -43.091  -2.850  -1.347  1.00  0.00     0.158 HD
ATOM     13  H21 UNL     1     -42.659  -4.326  -2.134  1.00  0.00     0.158 HD
ATOM     14  H1  UNL     1     -46.006  -2.199  -3.075  1.00  0.00     0.162 HD
ENDBRANCH   2   8
BRANCH   1  15
HETATM   15  C2  UNL     1     -44.688  -0.938  -5.224  1.00  0.00     0.190 C 
BRANCH  15  16
HETATM   16  O1  UNL     1     -45.798  -1.505  -5.719  1.00  0.00    -0.394 OA
HETATM   17  C1  UNL     1     -45.640  -2.393  -6.729  1.00  0.00     0.201 C 
ENDBRANCH  15  16
ENDBRANCH   1  15
BRANCH   3  18
HETATM   18  O2  UNL     1     -45.429  -0.767  -0.675  1.00  0.00    -0.390 OA
ATOM     19  H2  UNL     1     -45.074  -0.798   0.205  1.00  0.00     0.210 HD
ENDBRANCH   3  18
BRANCH   7  20
HETATM   20  N6  UNL     1     -44.273   1.934  -5.195  1.00  0.00    -0.362 NA
ATOM     21  H62 UNL     1     -43.541   2.645  -5.185  1.00  0.00     0.171 HD
ATOM     22  H61 UNL     1     -45.173   2.412  -5.176  1.00  0.00     0.171 HD
ENDBRANCH   7  20
BRANCH   4  23
HETATM   23  N4  UNL     1     -44.727   2.155  -0.574  1.00  0.00    -0.413 NA
BRANCH  23  24
HETATM   24  C8  UNL     1     -44.512   2.928   0.493  1.00  0.00     0.435 C 
HETATM   25  O3  UNL     1     -45.056   2.984   1.616  1.00  0.00    -0.269 OA
ENDBRANCH  23  24
ENDBRANCH   4  23
TORSDOF 7
ENDMDL
MODEL 5
REMARK VINA RESULT: -4.561144114      1.027      1.244
REMARK  7 active torsions:
REMARK  status: ('A' for Active; 'I' for Inactive)
REMARK    1  A    between atoms: O1_2  and  C2_3 
REMARK    2  A    between atoms: C2_3  and  C3_4 
REMARK    3  A    between atoms: C4_5  and  N1_6 
REMARK       I    between atoms: N1_6  and  C5_8 
REMARK    4  A    between atoms: C6_13  and  O2_14 
REMARK    5  A    between atoms: C7_16  and  N4_17 
REMARK    6  A    between atoms: N4_17  and  C8_18 
REMARK    7  A    between atoms: N5_22  and  N6_23 
ROOT
HETATM    1  C3  UNL     1     -44.094  -1.670  -3.494  1.00  0.00     0.128 C 
HETATM    2  C4  UNL     1     -45.010  -0.726  -4.306  1.00  0.00     0.137 C 
HETATM    3  C6  UNL     1     -44.761   0.662  -3.973  1.00  0.00     0.180 C 
HETATM    4  C7  UNL     1     -43.904   0.929  -2.805  1.00  0.00     0.216 C 
HETATM    5  C9  UNL     1     -43.929  -0.134  -1.763  1.00  0.00     0.114 C 
HETATM    6  C10 UNL     1     -44.679   0.233  -0.491  1.00  0.00     0.031 C 
HETATM    7  N5  UNL     1     -44.413  -1.449  -2.123  1.00  0.00    -0.222 NA
ENDROOT
BRANCH   2   8
HETATM    8  N1  UNL     1     -44.863  -1.155  -5.664  1.00  0.00    -0.356 N 
HETATM    9  C5  UNL     1     -45.907  -1.979  -6.250  1.00  0.00     0.182 C 
HETATM   10  N2  UNL     1     -47.138  -1.662  -6.170  1.00  0.00    -0.374 N 
HETATM   11  N3  UNL     1     -45.467  -3.147  -6.902  1.00  0.00    -0.064 NA
ATOM     12  H22 UNL     1     -47.456  -0.816  -5.697  1.00  0.00     0.158 HD
ATOM     13  H21 UNL     1     -47.871  -2.241  -6.581  1.00  0.00     0.158 HD
ATOM     14  H1  UNL     1     -44.044  -0.888  -6.209  1.00  0.00     0.162 HD
ENDBRANCH   2   8
BRANCH   1  15
HETATM   15  C2  UNL     1     -44.376  -3.044  -4.022  1.00  0.00     0.190 C 
BRANCH  15  16
HETATM   16  O1  UNL     1     -43.327  -3.778  -4.420  1.00  0.00    -0.394 OA
HETATM   17  C1  UNL     1     -42.381  -3.152  -5.160  1.00  0.00     0.201 C 
ENDBRANCH  15  16
ENDBRANCH   1  15
BRANCH   3  18
HETATM   18  O2  UNL     1     -44.364   1.442  -5.090  1.00  0.00    -0.390 OA
ATOM     19  H2  UNL     1     -45.031   2.054  -5.376  1.00  0.00     0.210 HD
ENDBRANCH   3  18
BRANCH   7  20
HETATM   20  N6  UNL     1     -43.765  -2.323  -1.278  1.00  0.00    -0.362 NA
ATOM     21  H62 UNL     1     -44.445  -3.053  -1.067  1.00  0.00     0.171 HD
ATOM     22  H61 UNL     1     -43.490  -1.888  -0.398  1.00  0.00     0.171 HD
ENDBRANCH   7  20
BRANCH   4  23
HETATM   23  N4  UNL     1     -44.011   2.225  -2.208  1.00  0.00    -0.413 NA
BRANCH  23  24
HETATM   24  C8  UNL     1     -44.110   3.434  -1.650  1.00  0.00     0.435 C 
HETATM   25  O3  UNL     1     -43.310   4.123  -0.983  1.00  0.00    -0.269 OA
ENDBRANCH  23  24
ENDBRANCH   4  23
TORSDOF 7
ENDMDL
