MODEL 1
REMARK VINA RESULT: -7.885158284      0.000      0.000
REMARK  8 active torsions:
REMARK  status: ('A' for Active; 'I' for Inactive)
REMARK    1  A    between atoms: C2_2  and  C3_6 
REMARK    2  A    between atoms: C3_6  and  N2_7 
REMARK    3  A    between atoms: C3_6  and  C4_11 
REMARK       I    between atoms: C4_11  and  N3_13 
REMARK    4  A    between atoms: N3_13  and  C5_15 
REMARK    5  A    between atoms: C5_15  and  C7_17 
REMARK       I    between atoms: C7_17  and  N4_19 
REMARK    6  A    between atoms: N4_19  and  C8_21 
REMARK    7  A    between atoms: C8_21  and  C9_22 
REMARK    8  A    between atoms: C8_21  and  C10_24 
ROOT
HETATM    1  C4  UNL     1     -43.116   1.336  -2.724  1.00  0.00     0.254 C 
HETATM    2  O1  UNL     1     -42.271   1.062  -3.608  1.00  0.00    -0.271 OA
HETATM    3  N3  UNL     1     -43.511   0.298  -1.846  1.00  0.00    -0.346 N 
ATOM      4  H3  UNL     1     -44.199   0.520  -1.126  1.00  0.00     0.163 HD
ENDROOT
BRANCH   3   5
HETATM    5  C5  UNL     1     -43.013  -1.039  -1.898  1.00  0.00     0.172 C 
HETATM    6  C6  UNL     1     -43.354  -1.715  -0.578  1.00  0.00     0.042 C 
BRANCH   5   7
HETATM    7  C7  UNL     1     -43.536  -1.806  -3.057  1.00  0.00     0.241 C 
HETATM    8  O2  UNL     1     -43.137  -2.996  -3.241  1.00  0.00    -0.271 OA
HETATM    9  N4  UNL     1     -44.471  -1.246  -3.966  1.00  0.00    -0.341 N 
ATOM     10  H4  UNL     1     -44.782  -0.288  -3.803  1.00  0.00     0.163 HD
BRANCH   9  11
HETATM   11  C8  UNL     1     -45.004  -1.939  -5.098  1.00  0.00     0.235 C 
BRANCH  11  12
HETATM   12  C9  UNL     1     -46.424  -1.605  -5.406  1.00  0.00     0.265 C 
HETATM   13  O3  UNL     1     -47.190  -2.345  -5.995  1.00  0.00    -0.304 OA
ENDBRANCH  11  12
BRANCH  11  14
HETATM   14  C10 UNL     1     -44.165  -1.819  -6.314  1.00  0.00     0.260 C 
HETATM   15  N5  UNL     1     -44.415  -0.796  -7.249  1.00  0.00    -0.060 NA
HETATM   16  O4  UNL     1     -43.230  -2.637  -6.505  1.00  0.00    -0.274 OA
ENDBRANCH  11  14
ENDBRANCH   9  11
ENDBRANCH   5   7
ENDBRANCH   3   5
BRANCH   1  17
HETATM   17  C3  UNL     1     -43.640   2.717  -2.662  1.00  0.00     0.319 C 
BRANCH  17  18
HETATM   18  C2  UNL     1     -42.572   3.710  -2.433  1.00  0.00     0.015 C 
HETATM   19  C1  UNL     1     -42.619   4.682  -1.304  1.00  0.00     0.065 C 
HETATM   20  N1  UNL     1     -41.562   3.767  -3.206  1.00  0.00    -0.404 N 
ATOM     21  H12 UNL     1     -40.823   4.453  -3.047  1.00  0.00     0.155 HD
ATOM     22  H11 UNL     1     -41.529   3.102  -3.978  1.00  0.00     0.155 HD
ENDBRANCH  17  18
BRANCH  17  23
HETATM   23  N2  UNL     1     -44.667   2.876  -1.654  1.00  0.00    -0.061 N 
ATOM     24  H23 UNL     1     -44.709   2.080  -1.017  1.00  0.00     0.275 HD
ATOM     25  H22 UNL     1     -44.431   3.596  -0.972  1.00  0.00     0.275 HD
ATOM     26  H21 UNL     1     -45.563   3.053  -2.109  1.00  0.00     0.275 HD
ENDBRANCH  17  23
ENDBRANCH   1  17
TORSDOF 8
ENDMDL
MODEL 2
REMARK VINA RESULT: -7.706283980      1.610      1.804
REMARK  8 active torsions:
REMARK  status: ('A' for Active; 'I' for Inactive)
REMARK    1  A    between atoms: C2_2  and  C3_6 
REMARK    2  A    between atoms: C3_6  and  N2_7 
REMARK    3  A    between atoms: C3_6  and  C4_11 
REMARK       I    between atoms: C4_11  and  N3_13 
REMARK    4  A    between atoms: N3_13  and  C5_15 
REMARK    5  A    between atoms: C5_15  and  C7_17 
REMARK       I    between atoms: C7_17  and  N4_19 
REMARK    6  A    between atoms: N4_19  and  C8_21 
REMARK    7  A    between atoms: C8_21  and  C9_22 
REMARK    8  A    between atoms: C8_21  and  C10_24 
ROOT
HETATM    1  C4  UNL     1     -43.753   1.762  -2.755  1.00  0.00     0.254 C 
HETATM    2  O1  UNL     1     -43.691   1.599  -3.996  1.00  0.00    -0.271 OA
HETATM    3  N3  UNL     1     -43.647   0.613  -1.934  1.00  0.00    -0.346 N 
ATOM      4  H3  UNL     1     -43.698   0.746  -0.923  1.00  0.00     0.163 HD
ENDROOT
BRANCH   3   5
HETATM    5  C5  UNL     1     -43.474  -0.716  -2.422  1.00  0.00     0.172 C 
HETATM    6  C6  UNL     1     -43.318  -1.637  -1.220  1.00  0.00     0.042 C 
BRANCH   5   7
HETATM    7  C7  UNL     1     -44.582  -1.156  -3.308  1.00  0.00     0.241 C 
HETATM    8  O2  UNL     1     -45.727  -1.368  -2.806  1.00  0.00    -0.271 OA
HETATM    9  N4  UNL     1     -44.397  -1.345  -4.702  1.00  0.00    -0.341 N 
ATOM     10  H4  UNL     1     -43.470  -1.169  -5.090  1.00  0.00     0.163 HD
BRANCH   9  11
HETATM   11  C8  UNL     1     -45.429  -1.769  -5.599  1.00  0.00     0.235 C 
BRANCH  11  12
HETATM   12  C9  UNL     1     -45.267  -1.272  -6.995  1.00  0.00     0.265 C 
HETATM   13  O3  UNL     1     -44.329  -0.597  -7.378  1.00  0.00    -0.304 OA
ENDBRANCH  11  12
BRANCH  11  14
HETATM   14  C10 UNL     1     -45.654  -3.233  -5.590  1.00  0.00     0.260 C 
HETATM   15  N5  UNL     1     -46.553  -3.817  -6.505  1.00  0.00    -0.060 NA
HETATM   16  O4  UNL     1     -45.039  -3.951  -4.762  1.00  0.00    -0.274 OA
ENDBRANCH  11  14
ENDBRANCH   9  11
ENDBRANCH   5   7
ENDBRANCH   3   5
BRANCH   1  17
HETATM   17  C3  UNL     1     -43.933   3.136  -2.239  1.00  0.00     0.319 C 
BRANCH  17  18
HETATM   18  C2  UNL     1     -42.667   3.893  -2.211  1.00  0.00     0.015 C 
HETATM   19  C1  UNL     1     -42.380   4.924  -1.173  1.00  0.00     0.065 C 
HETATM   20  N1  UNL     1     -41.766   3.684  -3.086  1.00  0.00    -0.404 N 
ATOM     21  H12 UNL     1     -40.891   4.207  -3.067  1.00  0.00     0.155 HD
ATOM     22  H11 UNL     1     -41.962   2.978  -3.796  1.00  0.00     0.155 HD
ENDBRANCH  17  18
BRANCH  17  23
HETATM   23  N2  UNL     1     -44.536   3.159  -0.923  1.00  0.00    -0.061 N 
ATOM     24  H23 UNL     1     -43.918   3.567  -0.222  1.00  0.00     0.275 HD
ATOM     25  H22 UNL     1     -45.296   3.836  -0.858  1.00  0.00     0.275 HD
ATOM     26  H21 UNL     1     -44.836   2.216  -0.671  1.00  0.00     0.275 HD
ENDBRANCH  17  23
ENDBRANCH   1  17
TORSDOF 8
ENDMDL
MODEL 3
REMARK VINA RESULT: -7.326938958      1.556      2.142
REMARK  8 active torsions:
REMARK  status: ('A' for Active; 'I' for Inactive)
REMARK    1  A    between atoms: C2_2  and  C3_6 
REMARK    2  A    between atoms: C3_6  and  N2_7 
REMARK    3  A    between atoms: C3_6  and  C4_11 
REMARK       I    between atoms: C4_11  and  N3_13 
REMARK    4  A    between atoms: N3_13  and  C5_15 
REMARK    5  A    between atoms: C5_15  and  C7_17 
REMARK       I    between atoms: C7_17  and  N4_19 
REMARK    6  A    between atoms: N4_19  and  C8_21 
REMARK    7  A    between atoms: C8_21  and  C9_22 
REMARK    8  A    between atoms: C8_21  and  C10_24 
ROOT
HETATM    1  C4  UNL     1     -42.361   1.177  -3.088  1.00  0.00     0.254 C 
HETATM    2  O1  UNL     1     -42.504   0.969  -4.315  1.00  0.00    -0.271 OA
HETATM    3  N3  UNL     1     -42.669   0.118  -2.200  1.00  0.00    -0.346 N 
ATOM      4  H3  UNL     1     -42.553   0.287  -1.200  1.00  0.00     0.163 HD
ENDROOT
BRANCH   3   5
HETATM    5  C5  UNL     1     -43.131  -1.170  -2.607  1.00  0.00     0.172 C 
HETATM    6  C6  UNL     1     -43.449  -1.969  -1.352  1.00  0.00     0.042 C 
BRANCH   5   7
HETATM    7  C7  UNL     1     -44.300  -1.102  -3.522  1.00  0.00     0.241 C 
HETATM    8  O2  UNL     1     -45.414  -0.697  -3.072  1.00  0.00    -0.271 OA
HETATM    9  N4  UNL     1     -44.204  -1.477  -4.888  1.00  0.00    -0.341 N 
ATOM     10  H4  UNL     1     -43.300  -1.798  -5.233  1.00  0.00     0.163 HD
BRANCH   9  11
HETATM   11  C8  UNL     1     -45.297  -1.432  -5.810  1.00  0.00     0.235 C 
BRANCH  11  12
HETATM   12  C9  UNL     1     -45.040  -0.604  -7.023  1.00  0.00     0.265 C 
HETATM   13  O3  UNL     1     -44.021  -0.659  -7.686  1.00  0.00    -0.304 OA
ENDBRANCH  11  12
BRANCH  11  14
HETATM   14  C10 UNL     1     -45.803  -2.771  -6.191  1.00  0.00     0.260 C 
HETATM   15  N5  UNL     1     -46.520  -2.943  -7.392  1.00  0.00    -0.060 NA
HETATM   16  O4  UNL     1     -45.589  -3.753  -5.437  1.00  0.00    -0.274 OA
ENDBRANCH  11  14
ENDBRANCH   9  11
ENDBRANCH   5   7
ENDBRANCH   3   5
BRANCH   1  17
HETATM   17  C3  UNL     1     -41.883   2.508  -2.655  1.00  0.00     0.319 C 
BRANCH  17  18
HETATM   18  C2  UNL     1     -42.987   3.382  -2.215  1.00  0.00     0.015 C 
HETATM   19  C1  UNL     1     -42.748   4.648  -1.465  1.00  0.00     0.065 C 
HETATM   20  N1  UNL     1     -44.197   3.077  -2.468  1.00  0.00    -0.404 N 
ATOM     21  H12 UNL     1     -44.961   3.681  -2.164  1.00  0.00     0.155 HD
ATOM     22  H11 UNL     1     -44.361   2.211  -2.981  1.00  0.00     0.155 HD
ENDBRANCH  17  18
BRANCH  17  23
HETATM   23  N2  UNL     1     -41.116   3.182  -3.682  1.00  0.00    -0.061 N 
ATOM     24  H23 UNL     1     -40.635   4.007  -3.325  1.00  0.00     0.275 HD
ATOM     25  H22 UNL     1     -40.295   2.647  -3.965  1.00  0.00     0.275 HD
ATOM     26  H21 UNL     1     -41.725   3.401  -4.470  1.00  0.00     0.275 HD
ENDBRANCH  17  23
ENDBRANCH   1  17
TORSDOF 8
ENDMDL
MODEL 4
REMARK VINA RESULT: -7.239382484      1.179      1.858
REMARK  8 active torsions:
REMARK  status: ('A' for Active; 'I' for Inactive)
REMARK    1  A    between atoms: C2_2  and  C3_6 
REMARK    2  A    between atoms: C3_6  and  N2_7 
REMARK    3  A    between atoms: C3_6  and  C4_11 
REMARK       I    between atoms: C4_11  and  N3_13 
REMARK    4  A    between atoms: N3_13  and  C5_15 
REMARK    5  A    between atoms: C5_15  and  C7_17 
REMARK       I    between atoms: C7_17  and  N4_19 
REMARK    6  A    between atoms: N4_19  and  C8_21 
REMARK    7  A    between atoms: C8_21  and  C9_22 
REMARK    8  A    between atoms: C8_21  and  C10_24 
ROOT
HETATM    1  C4  UNL     1     -43.241   1.683  -2.872  1.00  0.00     0.254 C 
HETATM    2  O1  UNL     1     -42.517   1.542  -3.886  1.00  0.00    -0.271 OA
HETATM    3  N3  UNL     1     -43.611   0.516  -2.160  1.00  0.00    -0.346 N 
ATOM      4  H3  UNL     1     -44.200   0.630  -1.335  1.00  0.00     0.163 HD
ENDROOT
BRANCH   3   5
HETATM    5  C5  UNL     1     -43.216  -0.808  -2.516  1.00  0.00     0.172 C 
HETATM    6  C6  UNL     1     -43.759  -1.757  -1.459  1.00  0.00     0.042 C 
BRANCH   5   7
HETATM    7  C7  UNL     1     -43.660  -1.196  -3.880  1.00  0.00     0.241 C 
HETATM    8  O2  UNL     1     -42.933  -1.973  -4.569  1.00  0.00    -0.271 OA
HETATM    9  N4  UNL     1     -44.878  -0.723  -4.434  1.00  0.00    -0.341 N 
ATOM     10  H4  UNL     1     -45.452  -0.100  -3.866  1.00  0.00     0.163 HD
BRANCH   9  11
HETATM   11  C8  UNL     1     -45.352  -1.064  -5.741  1.00  0.00     0.235 C 
BRANCH  11  12
HETATM   12  C9  UNL     1     -44.277  -1.183  -6.768  1.00  0.00     0.265 C 
HETATM   13  O3  UNL     1     -44.229  -0.523  -7.789  1.00  0.00    -0.304 OA
ENDBRANCH  11  12
BRANCH  11  14
HETATM   14  C10 UNL     1     -46.225  -2.261  -5.759  1.00  0.00     0.260 C 
HETATM   15  N5  UNL     1     -45.668  -3.547  -5.611  1.00  0.00    -0.060 NA
HETATM   16  O4  UNL     1     -47.465  -2.121  -5.908  1.00  0.00    -0.274 OA
ENDBRANCH  11  14
ENDBRANCH   9  11
ENDBRANCH   5   7
ENDBRANCH   3   5
BRANCH   1  17
HETATM   17  C3  UNL     1     -43.656   3.051  -2.495  1.00  0.00     0.319 C 
BRANCH  17  18
HETATM   18  C2  UNL     1     -42.503   3.945  -2.275  1.00  0.00     0.015 C 
HETATM   19  C1  UNL     1     -42.429   4.877  -1.114  1.00  0.00     0.065 C 
HETATM   20  N1  UNL     1     -41.520   3.947  -3.085  1.00  0.00    -0.404 N 
ATOM     21  H12 UNL     1     -40.723   4.565  -2.933  1.00  0.00     0.155 HD
ATOM     22  H11 UNL     1     -41.570   3.309  -3.879  1.00  0.00     0.155 HD
ENDBRANCH  17  18
BRANCH  17  23
HETATM   23  N2  UNL     1     -44.507   3.068  -1.323  1.00  0.00    -0.061 N 
ATOM     24  H23 UNL     1     -45.318   2.459  -1.426  1.00  0.00     0.275 HD
ATOM     25  H22 UNL     1     -44.076   2.601  -0.525  1.00  0.00     0.275 HD
ATOM     26  H21 UNL     1     -44.772   4.030  -1.111  1.00  0.00     0.275 HD
ENDBRANCH  17  23
ENDBRANCH   1  17
TORSDOF 8
ENDMDL
MODEL 5
REMARK VINA RESULT: -7.195506874      1.159      1.204
REMARK  8 active torsions:
REMARK  status: ('A' for Active; 'I' for Inactive)
REMARK    1  A    between atoms: C2_2  and  C3_6 
REMARK    2  A    between atoms: C3_6  and  N2_7 
REMARK    3  A    between atoms: C3_6  and  C4_11 
REMARK       I    between atoms: C4_11  and  N3_13 
REMARK    4  A    between atoms: N3_13  and  C5_15 
REMARK    5  A    between atoms: C5_15  and  C7_17 
REMARK       I    between atoms: C7_17  and  N4_19 
REMARK    6  A    between atoms: N4_19  and  C8_21 
REMARK    7  A    between atoms: C8_21  and  C9_22 
REMARK    8  A    between atoms: C8_21  and  C10_24 
ROOT
HETATM    1  C4  UNL     1     -43.741   1.336  -2.702  1.00  0.00     0.254 C 
HETATM    2  O1  UNL     1     -42.911   1.285  -3.640  1.00  0.00    -0.271 OA
HETATM    3  N3  UNL     1     -43.896   0.182  -1.896  1.00  0.00    -0.346 N 
ATOM      4  H3  UNL     1     -44.572   0.223  -1.132  1.00  0.00     0.163 HD
ENDROOT
BRANCH   3   5
HETATM    5  C5  UNL     1     -43.173  -1.035  -2.079  1.00  0.00     0.172 C 
HETATM    6  C6  UNL     1     -43.271  -1.834  -0.788  1.00  0.00     0.042 C 
BRANCH   5   7
HETATM    7  C7  UNL     1     -43.651  -1.822  -3.246  1.00  0.00     0.241 C 
HETATM    8  O2  UNL     1     -43.197  -2.991  -3.431  1.00  0.00    -0.271 OA
HETATM    9  N4  UNL     1     -44.602  -1.301  -4.161  1.00  0.00    -0.341 N 
ATOM     10  H4  UNL     1     -44.958  -0.359  -3.997  1.00  0.00     0.163 HD
BRANCH   9  11
HETATM   11  C8  UNL     1     -45.093  -2.014  -5.301  1.00  0.00     0.235 C 
BRANCH  11  12
HETATM   12  C9  UNL     1     -46.543  -1.803  -5.575  1.00  0.00     0.265 C 
HETATM   13  O3  UNL     1     -47.217  -2.518  -6.293  1.00  0.00    -0.304 OA
ENDBRANCH  11  12
BRANCH  11  14
HETATM   14  C10 UNL     1     -44.293  -1.790  -6.528  1.00  0.00     0.260 C 
HETATM   15  N5  UNL     1     -44.544  -0.669  -7.343  1.00  0.00    -0.060 NA
HETATM   16  O4  UNL     1     -43.390  -2.607  -6.836  1.00  0.00    -0.274 OA
ENDBRANCH  11  14
ENDBRANCH   9  11
ENDBRANCH   5   7
ENDBRANCH   3   5
BRANCH   1  17
HETATM   17  C3  UNL     1     -44.496   2.591  -2.504  1.00  0.00     0.319 C 
BRANCH  17  18
HETATM   18  C2  UNL     1     -44.048   3.330  -1.307  1.00  0.00     0.015 C 
HETATM   19  C1  UNL     1     -42.973   4.361  -1.365  1.00  0.00     0.065 C 
HETATM   20  N1  UNL     1     -44.576   3.106  -0.170  1.00  0.00    -0.404 N 
ATOM     21  H12 UNL     1     -44.267   3.616   0.657  1.00  0.00     0.155 HD
ATOM     22  H11 UNL     1     -45.312   2.401  -0.130  1.00  0.00     0.155 HD
ENDBRANCH  17  18
BRANCH  17  23
HETATM   23  N2  UNL     1     -45.925   2.373  -2.427  1.00  0.00    -0.061 N 
ATOM     24  H23 UNL     1     -46.387   3.052  -1.822  1.00  0.00     0.275 HD
ATOM     25  H22 UNL     1     -46.399   2.609  -3.298  1.00  0.00     0.275 HD
ATOM     26  H21 UNL     1     -46.105   1.412  -2.136  1.00  0.00     0.275 HD
ENDBRANCH  17  23
ENDBRANCH   1  17
TORSDOF 8
ENDMDL
