MODEL 1
REMARK VINA RESULT: -7.207339277      0.000      0.000
REMARK  6 active torsions:
REMARK  status: ('A' for Active; 'I' for Inactive)
REMARK    1  A    between atoms: C2_2  and  N1_4 
REMARK    2  A    between atoms: C2_2  and  C4_8 
REMARK       I    between atoms: C4_8  and  N2_10 
REMARK    3  A    between atoms: N2_10  and  C5_12 
REMARK    4  A    between atoms: C5_12  and  C6_13 
REMARK       I    between atoms: C6_13  and  N3_15 
REMARK    5  A    between atoms: N3_15  and  C7_17 
REMARK    6  A    between atoms: C7_17  and  C8_18 
ROOT
HETATM    1  C4  UNL     1      16.410  12.915  60.652  1.00  0.00     0.253 C 
HETATM    2  O1  UNL     1      16.002  13.976  60.052  1.00  0.00    -0.271 OA
HETATM    3  N2  UNL     1      16.453  12.967  62.040  1.00  0.00    -0.350 N 
ATOM      4  H2  UNL     1      16.796  12.150  62.545  1.00  0.00     0.163 HD
ENDROOT
BRANCH   3   5
HETATM    5  C5  UNL     1      16.032  14.134  62.810  1.00  0.00     0.225 C 
BRANCH   5   6
HETATM    6  C6  UNL     1      14.585  14.359  62.768  1.00  0.00     0.236 C 
HETATM    7  O2  UNL     1      13.868  13.805  63.682  1.00  0.00    -0.272 OA
HETATM    8  N3  UNL     1      13.983  15.157  61.718  1.00  0.00    -0.342 N 
ATOM      9  H3  UNL     1      14.607  15.587  61.036  1.00  0.00     0.163 HD
BRANCH   8  10
HETATM   10  C7  UNL     1      12.589  15.386  61.566  1.00  0.00     0.111 A 
HETATM   11  C9  UNL     1      11.776  15.022  60.397  1.00  0.00     0.043 A 
HETATM   12  C10 UNL     1      11.661  14.185  61.629  1.00  0.00     0.043 A 
BRANCH  10  13
HETATM   13  C8  UNL     1      12.072  16.531  62.355  1.00  0.00     0.259 C 
HETATM   14  N4  UNL     1      12.659  17.000  63.542  1.00  0.00    -0.060 NA
HETATM   15  O3  UNL     1      11.002  17.103  61.916  1.00  0.00    -0.274 OA
ENDBRANCH  10  13
ENDBRANCH   8  10
ENDBRANCH   5   6
ENDBRANCH   3   5
BRANCH   1  16
HETATM   16  C2  UNL     1      16.794  11.724  59.899  1.00  0.00     0.196 C 
HETATM   17  C1  UNL     1      18.227  11.343  60.087  1.00  0.00     0.056 C 
HETATM   18  C3  UNL     1      15.877  10.592  60.462  1.00  0.00     0.056 C 
BRANCH  16  19
HETATM   19  N1  UNL     1      16.399  11.847  58.504  1.00  0.00    -0.062 N 
ATOM     20  H13 UNL     1      16.771  12.706  58.099  1.00  0.00     0.275 HD
ATOM     21  H12 UNL     1      16.888  11.160  57.930  1.00  0.00     0.275 HD
ATOM     22  H11 UNL     1      15.391  11.787  58.355  1.00  0.00     0.275 HD
ENDBRANCH  16  19
ENDBRANCH   1  16
TORSDOF 6
ENDMDL
MODEL 2
REMARK VINA RESULT: -6.971764541      2.600      3.397
REMARK  6 active torsions:
REMARK  status: ('A' for Active; 'I' for Inactive)
REMARK    1  A    between atoms: C2_2  and  N1_4 
REMARK    2  A    between atoms: C2_2  and  C4_8 
REMARK       I    between atoms: C4_8  and  N2_10 
REMARK    3  A    between atoms: N2_10  and  C5_12 
REMARK    4  A    between atoms: C5_12  and  C6_13 
REMARK       I    between atoms: C6_13  and  N3_15 
REMARK    5  A    between atoms: N3_15  and  C7_17 
REMARK    6  A    between atoms: C7_17  and  C8_18 
ROOT
HETATM    1  C4  UNL     1      15.558  11.518  58.382  1.00  0.00     0.253 C 
HETATM    2  O1  UNL     1      16.496  12.179  58.961  1.00  0.00    -0.271 OA
HETATM    3  N2  UNL     1      14.704  10.800  59.211  1.00  0.00    -0.350 N 
ATOM      4  H2  UNL     1      13.964  10.245  58.781  1.00  0.00     0.163 HD
ENDROOT
BRANCH   3   5
HETATM    5  C5  UNL     1      14.815  10.802  60.667  1.00  0.00     0.225 C 
BRANCH   5   6
HETATM    6  C6  UNL     1      14.030  11.863  61.302  1.00  0.00     0.236 C 
HETATM    7  O2  UNL     1      13.721  11.716  62.543  1.00  0.00    -0.272 OA
HETATM    8  N3  UNL     1      13.595  13.024  60.551  1.00  0.00    -0.342 N 
ATOM      9  H3  UNL     1      13.891  13.092  59.577  1.00  0.00     0.163 HD
BRANCH   8  10
HETATM   10  C7  UNL     1      12.789  14.074  61.066  1.00  0.00     0.111 A 
HETATM   11  C9  UNL     1      13.204  15.071  62.064  1.00  0.00     0.043 A 
HETATM   12  C10 UNL     1      13.114  15.495  60.635  1.00  0.00     0.043 A 
BRANCH  10  13
HETATM   13  C8  UNL     1      11.333  13.799  61.025  1.00  0.00     0.259 C 
HETATM   14  N4  UNL     1      10.509  14.073  59.920  1.00  0.00    -0.060 NA
HETATM   15  O3  UNL     1      10.806  13.295  62.089  1.00  0.00    -0.274 OA
ENDBRANCH  10  13
ENDBRANCH   8  10
ENDBRANCH   5   6
ENDBRANCH   3   5
BRANCH   1  16
HETATM   16  C2  UNL     1      15.406  11.540  56.929  1.00  0.00     0.196 C 
HETATM   17  C1  UNL     1      14.149  10.884  56.456  1.00  0.00     0.056 C 
HETATM   18  C3  UNL     1      15.370  13.058  56.562  1.00  0.00     0.056 C 
BRANCH  16  19
HETATM   19  N1  UNL     1      16.608  11.041  56.278  1.00  0.00    -0.062 N 
ATOM     20  H13 UNL     1      16.499  11.052  55.264  1.00  0.00     0.275 HD
ATOM     21  H12 UNL     1      17.372  11.709  56.376  1.00  0.00     0.275 HD
ATOM     22  H11 UNL     1      16.895  10.116  56.599  1.00  0.00     0.275 HD
ENDBRANCH  16  19
ENDBRANCH   1  16
TORSDOF 6
ENDMDL
MODEL 3
REMARK VINA RESULT: -6.937993822      1.262      1.812
REMARK  6 active torsions:
REMARK  status: ('A' for Active; 'I' for Inactive)
REMARK    1  A    between atoms: C2_2  and  N1_4 
REMARK    2  A    between atoms: C2_2  and  C4_8 
REMARK       I    between atoms: C4_8  and  N2_10 
REMARK    3  A    between atoms: N2_10  and  C5_12 
REMARK    4  A    between atoms: C5_12  and  C6_13 
REMARK       I    between atoms: C6_13  and  N3_15 
REMARK    5  A    between atoms: N3_15  and  C7_17 
REMARK    6  A    between atoms: C7_17  and  C8_18 
ROOT
HETATM    1  C4  UNL     1      16.460  12.884  60.686  1.00  0.00     0.253 C 
HETATM    2  O1  UNL     1      15.944  13.915  60.117  1.00  0.00    -0.271 OA
HETATM    3  N2  UNL     1      16.610  12.949  62.066  1.00  0.00    -0.350 N 
ATOM      4  H2  UNL     1      17.039  12.157  62.545  1.00  0.00     0.163 HD
ENDROOT
BRANCH   3   5
HETATM    5  C5  UNL     1      16.183  14.096  62.863  1.00  0.00     0.225 C 
BRANCH   5   6
HETATM    6  C6  UNL     1      14.732  14.300  62.846  1.00  0.00     0.236 C 
HETATM    7  O2  UNL     1      14.031  13.682  63.732  1.00  0.00    -0.272 OA
HETATM    8  N3  UNL     1      14.108  15.148  61.849  1.00  0.00    -0.342 N 
ATOM      9  H3  UNL     1      14.720  15.626  61.188  1.00  0.00     0.163 HD
BRANCH   8  10
HETATM   10  C7  UNL     1      12.709  15.363  61.722  1.00  0.00     0.111 A 
HETATM   11  C9  UNL     1      11.877  16.183  62.614  1.00  0.00     0.043 A 
HETATM   12  C10 UNL     1      12.241  16.738  61.276  1.00  0.00     0.043 A 
BRANCH  10  13
HETATM   13  C8  UNL     1      11.988  14.274  61.020  1.00  0.00     0.259 C 
HETATM   14  N4  UNL     1      10.823  13.658  61.506  1.00  0.00    -0.060 NA
HETATM   15  O3  UNL     1      12.493  13.868  59.904  1.00  0.00    -0.274 OA
ENDBRANCH  10  13
ENDBRANCH   8  10
ENDBRANCH   5   6
ENDBRANCH   3   5
BRANCH   1  16
HETATM   16  C2  UNL     1      16.853  11.711  59.908  1.00  0.00     0.196 C 
HETATM   17  C1  UNL     1      18.288  11.338  60.087  1.00  0.00     0.056 C 
HETATM   18  C3  UNL     1      15.946  10.560  60.451  1.00  0.00     0.056 C 
BRANCH  16  19
HETATM   19  N1  UNL     1      16.454  11.859  58.517  1.00  0.00    -0.062 N 
ATOM     20  H13 UNL     1      17.272  11.911  57.911  1.00  0.00     0.275 HD
ATOM     21  H12 UNL     1      16.038  10.994  58.169  1.00  0.00     0.275 HD
ATOM     22  H11 UNL     1      15.832  12.649  58.349  1.00  0.00     0.275 HD
ENDBRANCH  16  19
ENDBRANCH   1  16
TORSDOF 6
ENDMDL
MODEL 4
REMARK VINA RESULT: -6.925403235      2.820      3.468
REMARK  6 active torsions:
REMARK  status: ('A' for Active; 'I' for Inactive)
REMARK    1  A    between atoms: C2_2  and  N1_4 
REMARK    2  A    between atoms: C2_2  and  C4_8 
REMARK       I    between atoms: C4_8  and  N2_10 
REMARK    3  A    between atoms: N2_10  and  C5_12 
REMARK    4  A    between atoms: C5_12  and  C6_13 
REMARK       I    between atoms: C6_13  and  N3_15 
REMARK    5  A    between atoms: N3_15  and  C7_17 
REMARK    6  A    between atoms: C7_17  and  C8_18 
ROOT
HETATM    1  C4  UNL     1      14.818  11.171  58.237  1.00  0.00     0.253 C 
HETATM    2  O1  UNL     1      15.728  12.068  58.381  1.00  0.00    -0.271 OA
HETATM    3  N2  UNL     1      14.376  10.545  59.397  1.00  0.00    -0.350 N 
ATOM      4  H2  UNL     1      13.673   9.811  59.314  1.00  0.00     0.163 HD
ENDROOT
BRANCH   3   5
HETATM    5  C5  UNL     1      14.870  10.888  60.727  1.00  0.00     0.225 C 
BRANCH   5   6
HETATM    6  C6  UNL     1      14.106  11.964  61.365  1.00  0.00     0.236 C 
HETATM    7  O2  UNL     1      13.885  11.871  62.630  1.00  0.00    -0.272 OA
HETATM    8  N3  UNL     1      13.597  13.079  60.592  1.00  0.00    -0.342 N 
ATOM      9  H3  UNL     1      13.824  13.106  59.598  1.00  0.00     0.163 HD
BRANCH   8  10
HETATM   10  C7  UNL     1      12.805  14.138  61.111  1.00  0.00     0.111 A 
HETATM   11  C9  UNL     1      13.241  15.143  62.091  1.00  0.00     0.043 A 
HETATM   12  C10 UNL     1      13.126  15.552  60.659  1.00  0.00     0.043 A 
BRANCH  10  13
HETATM   13  C8  UNL     1      11.347  13.867  61.101  1.00  0.00     0.259 C 
HETATM   14  N4  UNL     1      10.519  14.049  59.980  1.00  0.00    -0.060 NA
HETATM   15  O3  UNL     1      10.823  13.460  62.207  1.00  0.00    -0.274 OA
ENDBRANCH  10  13
ENDBRANCH   8  10
ENDBRANCH   5   6
ENDBRANCH   3   5
BRANCH   1  16
HETATM   16  C2  UNL     1      14.282  10.846  56.917  1.00  0.00     0.196 C 
HETATM   17  C1  UNL     1      15.339  10.682  55.874  1.00  0.00     0.056 C 
HETATM   18  C3  UNL     1      13.538   9.487  57.121  1.00  0.00     0.056 C 
BRANCH  16  19
HETATM   19  N1  UNL     1      13.230  11.779  56.545  1.00  0.00    -0.062 N 
ATOM     20  H13 UNL     1      13.539  12.742  56.678  1.00  0.00     0.275 HD
ATOM     21  H12 UNL     1      13.093  11.781  55.534  1.00  0.00     0.275 HD
ATOM     22  H11 UNL     1      12.346  11.616  57.027  1.00  0.00     0.275 HD
ENDBRANCH  16  19
ENDBRANCH   1  16
TORSDOF 6
ENDMDL
MODEL 5
REMARK VINA RESULT: -6.864876502      2.366      3.772
REMARK  6 active torsions:
REMARK  status: ('A' for Active; 'I' for Inactive)
REMARK    1  A    between atoms: C2_2  and  N1_4 
REMARK    2  A    between atoms: C2_2  and  C4_8 
REMARK       I    between atoms: C4_8  and  N2_10 
REMARK    3  A    between atoms: N2_10  and  C5_12 
REMARK    4  A    between atoms: C5_12  and  C6_13 
REMARK       I    between atoms: C6_13  and  N3_15 
REMARK    5  A    between atoms: N3_15  and  C7_17 
REMARK    6  A    between atoms: C7_17  and  C8_18 
ROOT
HETATM    1  C4  UNL     1      15.470  11.487  58.235  1.00  0.00     0.253 C 
HETATM    2  O1  UNL     1      16.633  11.810  58.674  1.00  0.00    -0.271 OA
HETATM    3  N2  UNL     1      14.646  10.792  59.113  1.00  0.00    -0.350 N 
ATOM      4  H2  UNL     1      13.726  10.500  58.786  1.00  0.00     0.163 HD
ENDROOT
BRANCH   3   5
HETATM    5  C5  UNL     1      15.036  10.461  60.481  1.00  0.00     0.225 C 
BRANCH   5   6
HETATM    6  C6  UNL     1      14.723  11.522  61.441  1.00  0.00     0.236 C 
HETATM    7  O2  UNL     1      13.609  11.439  62.081  1.00  0.00    -0.272 OA
HETATM    8  N3  UNL     1      15.625  12.638  61.643  1.00  0.00    -0.342 N 
ATOM      9  H3  UNL     1      16.502  12.635  61.122  1.00  0.00     0.163 HD
BRANCH   8  10
HETATM   10  C7  UNL     1      15.383  13.736  62.511  1.00  0.00     0.111 A 
HETATM   11  C9  UNL     1      15.519  13.727  63.975  1.00  0.00     0.043 A 
HETATM   12  C10 UNL     1      16.581  14.400  63.168  1.00  0.00     0.043 A 
BRANCH  10  13
HETATM   13  C8  UNL     1      14.418  14.729  61.979  1.00  0.00     0.259 C 
HETATM   14  N4  UNL     1      13.473  15.411  62.765  1.00  0.00    -0.060 NA
HETATM   15  O3  UNL     1      14.452  14.950  60.709  1.00  0.00    -0.274 OA
ENDBRANCH  10  13
ENDBRANCH   8  10
ENDBRANCH   5   6
ENDBRANCH   3   5
BRANCH   1  16
HETATM   16  C2  UNL     1      15.048  11.848  56.883  1.00  0.00     0.196 C 
HETATM   17  C1  UNL     1      15.217  10.741  55.895  1.00  0.00     0.056 C 
HETATM   18  C3  UNL     1      13.529  12.190  57.025  1.00  0.00     0.056 C 
BRANCH  16  19
HETATM   19  N1  UNL     1      15.661  13.102  56.470  1.00  0.00    -0.062 N 
ATOM     20  H13 UNL     1      16.663  13.090  56.657  1.00  0.00     0.275 HD
ATOM     21  H12 UNL     1      15.677  13.176  55.453  1.00  0.00     0.275 HD
ATOM     22  H11 UNL     1      15.228  13.927  56.884  1.00  0.00     0.275 HD
ENDBRANCH  16  19
ENDBRANCH   1  16
TORSDOF 6
ENDMDL
