MODEL 1
REMARK VINA RESULT: -7.169560638      0.000      0.000
REMARK  5 active torsions:
REMARK  status: ('A' for Active; 'I' for Inactive)
REMARK    1  A    between atoms: N1_2  and  C2_5 
REMARK    2  A    between atoms: C5_8  and  N2_9 
REMARK    3  A    between atoms: C5_8  and  C7_12 
REMARK    4  A    between atoms: C7_12  and  N3_13 
REMARK    5  A    between atoms: C7_12  and  C9_18 
ROOT
HETATM    1  C2  UNL     1      13.722  11.695  56.828  1.00  0.00     0.188 C 
HETATM    2  C3  UNL     1      15.049  12.404  56.690  1.00  0.00     0.035 C 
HETATM    3  C4  UNL     1      15.121  13.245  57.952  1.00  0.00     0.035 C 
HETATM    4  C5  UNL     1      14.471  12.403  59.019  1.00  0.00     0.056 C 
HETATM    5  C10 UNL     1      13.334  11.696  58.266  1.00  0.00     0.066 C 
ENDROOT
BRANCH   4   6
HETATM    6  N2  UNL     1      15.381  11.378  59.405  1.00  0.00    -0.414 N 
HETATM    7  C6  UNL     1      14.999  10.584  60.536  1.00  0.00     0.141 C 
ATOM      8  H2  UNL     1      16.256  11.218  58.905  1.00  0.00     0.153 HD
ENDBRANCH   4   6
BRANCH   4   9
HETATM    9  C7  UNL     1      13.903  13.213  60.171  1.00  0.00     0.200 C 
BRANCH   9  10
HETATM   10  N3  UNL     1      12.555  13.495  59.986  1.00  0.00    -0.352 N 
HETATM   11  C8  UNL     1      11.568  13.965  60.521  1.00  0.00     0.197 C 
HETATM   12  N4  UNL     1      10.332  13.990  59.756  1.00  0.00    -0.067 NA
HETATM   13  N5  UNL     1      11.432  14.511  61.818  1.00  0.00    -0.067 NA
ATOM     14  H3  UNL     1      12.293  13.195  59.047  1.00  0.00     0.162 HD
ENDBRANCH   9  10
BRANCH   9  15
HETATM   15  C9  UNL     1      14.787  14.288  60.629  1.00  0.00     0.256 C 
HETATM   16  N6  UNL     1      16.056  14.016  61.268  1.00  0.00    -0.060 NA
HETATM   17  O1  UNL     1      14.543  15.512  60.520  1.00  0.00    -0.274 OA
ENDBRANCH   9  15
ENDBRANCH   4   9
BRANCH   1  18
HETATM   18  N1  UNL     1      13.838  10.392  56.235  1.00  0.00    -0.075 N 
HETATM   19  C1  UNL     1      13.081   9.445  57.048  1.00  0.00     0.267 C 
ATOM     20  H12 UNL     1      14.809  10.107  56.104  1.00  0.00     0.277 HD
ATOM     21  H11 UNL     1      13.556  10.381  55.255  1.00  0.00     0.277 HD
ENDBRANCH   1  18
TORSDOF 5
ENDMDL
MODEL 2
REMARK VINA RESULT: -6.997481026      2.265      4.228
REMARK  5 active torsions:
REMARK  status: ('A' for Active; 'I' for Inactive)
REMARK    1  A    between atoms: N1_2  and  C2_5 
REMARK    2  A    between atoms: C5_8  and  N2_9 
REMARK    3  A    between atoms: C5_8  and  C7_12 
REMARK    4  A    between atoms: C7_12  and  N3_13 
REMARK    5  A    between atoms: C7_12  and  C9_18 
ROOT
HETATM    1  C2  UNL     1      16.194  13.503  61.087  1.00  0.00     0.188 C 
HETATM    2  C3  UNL     1      15.634  12.537  62.104  1.00  0.00     0.035 C 
HETATM    3  C4  UNL     1      14.209  13.027  62.293  1.00  0.00     0.035 C 
HETATM    4  C5  UNL     1      13.778  13.508  60.932  1.00  0.00     0.056 C 
HETATM    5  C10 UNL     1      15.058  14.131  60.357  1.00  0.00     0.066 C 
ENDROOT
BRANCH   4   6
HETATM    6  N2  UNL     1      13.496  12.373  60.119  1.00  0.00    -0.414 N 
HETATM    7  C6  UNL     1      13.801  12.501  58.724  1.00  0.00     0.141 C 
ATOM      8  H2  UNL     1      13.098  11.518  60.507  1.00  0.00     0.153 HD
ENDBRANCH   4   6
BRANCH   4   9
HETATM    9  C7  UNL     1      12.672  14.547  60.977  1.00  0.00     0.200 C 
BRANCH   9  10
HETATM   10  N3  UNL     1      12.866  15.461  62.005  1.00  0.00    -0.352 N 
HETATM   11  C8  UNL     1      12.453  16.501  62.485  1.00  0.00     0.197 C 
HETATM   12  N4  UNL     1      13.122  17.011  63.670  1.00  0.00    -0.067 NA
HETATM   13  N5  UNL     1      11.385  17.320  62.052  1.00  0.00    -0.067 NA
ATOM     14  H3  UNL     1      13.650  15.140  62.572  1.00  0.00     0.162 HD
ENDBRANCH   9  10
BRANCH   9  15
HETATM   15  C9  UNL     1      11.331  13.991  60.777  1.00  0.00     0.256 C 
HETATM   16  N6  UNL     1      10.567  14.244  59.576  1.00  0.00    -0.060 NA
HETATM   17  O1  UNL     1      10.727  13.263  61.599  1.00  0.00    -0.274 OA
ENDBRANCH   9  15
ENDBRANCH   4   9
BRANCH   1  18
HETATM   18  N1  UNL     1      17.129  12.797  60.256  1.00  0.00    -0.075 N 
HETATM   19  C1  UNL     1      17.116  11.389  60.639  1.00  0.00     0.267 C 
ATOM     20  H12 UNL     1      18.064  13.203  60.287  1.00  0.00     0.277 HD
ATOM     21  H11 UNL     1      16.951  12.934  59.261  1.00  0.00     0.277 HD
ENDBRANCH   1  18
TORSDOF 5
ENDMDL
MODEL 3
REMARK VINA RESULT: -6.866957883      2.270      3.775
REMARK  5 active torsions:
REMARK  status: ('A' for Active; 'I' for Inactive)
REMARK    1  A    between atoms: N1_2  and  C2_5 
REMARK    2  A    between atoms: C5_8  and  N2_9 
REMARK    3  A    between atoms: C5_8  and  C7_12 
REMARK    4  A    between atoms: C7_12  and  N3_13 
REMARK    5  A    between atoms: C7_12  and  C9_18 
ROOT
HETATM    1  C2  UNL     1      15.989  13.035  59.957  1.00  0.00     0.188 C 
HETATM    2  C3  UNL     1      15.982  12.588  61.400  1.00  0.00     0.035 C 
HETATM    3  C4  UNL     1      14.758  13.284  61.969  1.00  0.00     0.035 C 
HETATM    4  C5  UNL     1      13.751  13.279  60.848  1.00  0.00     0.056 C 
HETATM    5  C10 UNL     1      14.616  13.485  59.596  1.00  0.00     0.066 C 
ENDROOT
BRANCH   4   6
HETATM    6  N2  UNL     1      13.205  11.969  60.735  1.00  0.00    -0.414 N 
HETATM    7  C6  UNL     1      12.963  11.495  59.404  1.00  0.00     0.141 C 
ATOM      8  H2  UNL     1      12.997  11.400  61.556  1.00  0.00     0.153 HD
ENDBRANCH   4   6
BRANCH   4   9
HETATM    9  C7  UNL     1      12.720  14.389  60.952  1.00  0.00     0.200 C 
BRANCH   9  10
HETATM   10  N3  UNL     1      12.998  15.252  62.005  1.00  0.00    -0.352 N 
HETATM   11  C8  UNL     1      12.674  16.305  62.523  1.00  0.00     0.197 C 
HETATM   12  N4  UNL     1      13.396  16.723  63.713  1.00  0.00    -0.067 NA
HETATM   13  N5  UNL     1      11.669  17.219  62.131  1.00  0.00    -0.067 NA
ATOM     14  H3  UNL     1      13.761  14.852  62.551  1.00  0.00     0.162 HD
ENDBRANCH   9  10
BRANCH   9  15
HETATM   15  C9  UNL     1      11.340  13.933  60.766  1.00  0.00     0.256 C 
HETATM   16  N6  UNL     1      10.581  14.252  59.577  1.00  0.00    -0.060 NA
HETATM   17  O1  UNL     1      10.696  13.242  61.590  1.00  0.00    -0.274 OA
ENDBRANCH   9  15
ENDBRANCH   4   9
BRANCH   1  18
HETATM   18  N1  UNL     1      16.505  11.964  59.152  1.00  0.00    -0.075 N 
HETATM   19  C1  UNL     1      15.997  12.122  57.792  1.00  0.00     0.267 C 
ATOM     20  H12 UNL     1      16.298  11.045  59.543  1.00  0.00     0.277 HD
ATOM     21  H11 UNL     1      17.522  11.903  59.185  1.00  0.00     0.277 HD
ENDBRANCH   1  18
TORSDOF 5
ENDMDL
MODEL 4
REMARK VINA RESULT: -6.781069912      1.496      1.538
REMARK  5 active torsions:
REMARK  status: ('A' for Active; 'I' for Inactive)
REMARK    1  A    between atoms: N1_2  and  C2_5 
REMARK    2  A    between atoms: C5_8  and  N2_9 
REMARK    3  A    between atoms: C5_8  and  C7_12 
REMARK    4  A    between atoms: C7_12  and  N3_13 
REMARK    5  A    between atoms: C7_12  and  C9_18 
ROOT
HETATM    1  C2  UNL     1      13.546  12.115  57.423  1.00  0.00     0.188 C 
HETATM    2  C3  UNL     1      14.929  12.479  56.935  1.00  0.00     0.035 C 
HETATM    3  C4  UNL     1      15.528  13.212  58.122  1.00  0.00     0.035 C 
HETATM    4  C5  UNL     1      14.978  12.507  59.335  1.00  0.00     0.056 C 
HETATM    5  C10 UNL     1      13.548  12.143  58.912  1.00  0.00     0.066 C 
ENDROOT
BRANCH   4   6
HETATM    6  N2  UNL     1      15.668  11.271  59.491  1.00  0.00    -0.414 N 
HETATM    7  C6  UNL     1      15.064  10.316  60.374  1.00  0.00     0.141 C 
ATOM      8  H2  UNL     1      16.542  11.076  59.003  1.00  0.00     0.153 HD
ENDBRANCH   4   6
BRANCH   4   9
HETATM    9  C7  UNL     1      14.944  13.376  60.580  1.00  0.00     0.200 C 
BRANCH   9  10
HETATM   10  N3  UNL     1      13.958  14.352  60.498  1.00  0.00    -0.352 N 
HETATM   11  C8  UNL     1      13.319  15.158  61.149  1.00  0.00     0.197 C 
HETATM   12  N4  UNL     1      12.342  15.972  60.445  1.00  0.00    -0.067 NA
HETATM   13  N5  UNL     1      13.382  15.436  62.534  1.00  0.00    -0.067 NA
ATOM     14  H3  UNL     1      13.655  14.418  59.527  1.00  0.00     0.162 HD
ENDBRANCH   9  10
BRANCH   9  15
HETATM   15  C9  UNL     1      16.270  13.759  61.069  1.00  0.00     0.256 C 
HETATM   16  N6  UNL     1      17.143  12.817  61.735  1.00  0.00    -0.060 NA
HETATM   17  O1  UNL     1      16.770  14.903  60.965  1.00  0.00    -0.274 OA
ENDBRANCH   9  15
ENDBRANCH   4   9
BRANCH   1  18
HETATM   18  N1  UNL     1      13.176  10.855  56.842  1.00  0.00    -0.075 N 
HETATM   19  C1  UNL     1      14.298  10.364  56.049  1.00  0.00     0.267 C 
ATOM     20  H12 UNL     1      12.311  10.910  56.305  1.00  0.00     0.277 HD
ATOM     21  H11 UNL     1      12.863  10.179  57.539  1.00  0.00     0.277 HD
ENDBRANCH   1  18
TORSDOF 5
ENDMDL
MODEL 5
REMARK VINA RESULT: -6.777466965      2.481      3.710
REMARK  5 active torsions:
REMARK  status: ('A' for Active; 'I' for Inactive)
REMARK    1  A    between atoms: N1_2  and  C2_5 
REMARK    2  A    between atoms: C5_8  and  N2_9 
REMARK    3  A    between atoms: C5_8  and  C7_12 
REMARK    4  A    between atoms: C7_12  and  N3_13 
REMARK    5  A    between atoms: C7_12  and  C9_18 
ROOT
HETATM    1  C2  UNL     1      15.084  11.694  60.075  1.00  0.00     0.188 C 
HETATM    2  C3  UNL     1      15.834  12.703  59.237  1.00  0.00     0.035 C 
HETATM    3  C4  UNL     1      14.940  13.929  59.297  1.00  0.00     0.035 C 
HETATM    4  C5  UNL     1      14.361  13.922  60.687  1.00  0.00     0.056 C 
HETATM    5  C10 UNL     1      14.150  12.428  60.973  1.00  0.00     0.066 C 
ENDROOT
BRANCH   4   6
HETATM    6  N2  UNL     1      15.365  14.358  61.599  1.00  0.00    -0.414 N 
HETATM    7  C6  UNL     1      15.379  13.715  62.880  1.00  0.00     0.141 C 
ATOM      8  H2  UNL     1      16.035  15.086  61.354  1.00  0.00     0.153 HD
ENDBRANCH   4   6
BRANCH   4   9
HETATM    9  C7  UNL     1      13.039  14.661  60.799  1.00  0.00     0.200 C 
BRANCH   9  10
HETATM   10  N3  UNL     1      13.023  15.524  61.889  1.00  0.00    -0.352 N 
HETATM   11  C8  UNL     1      12.406  16.434  62.411  1.00  0.00     0.197 C 
HETATM   12  N4  UNL     1      12.928  16.978  63.654  1.00  0.00    -0.067 NA
HETATM   13  N5  UNL     1      11.217  17.067  61.980  1.00  0.00    -0.067 NA
ATOM     14  H3  UNL     1      13.834  15.316  62.471  1.00  0.00     0.162 HD
ENDBRANCH   9  10
BRANCH   9  15
HETATM   15  C9  UNL     1      11.867  13.815  60.559  1.00  0.00     0.256 C 
HETATM   16  N6  UNL     1      10.984  13.407  61.628  1.00  0.00    -0.060 NA
HETATM   17  O1  UNL     1      11.520  13.372  59.439  1.00  0.00    -0.274 OA
ENDBRANCH   9  15
ENDBRANCH   4   9
BRANCH   1  18
HETATM   18  N1  UNL     1      16.041  10.862  60.749  1.00  0.00    -0.075 N 
HETATM   19  C1  UNL     1      17.365  11.457  60.589  1.00  0.00     0.267 C 
ATOM     20  H12 UNL     1      16.007   9.892  60.434  1.00  0.00     0.277 HD
ATOM     21  H11 UNL     1      15.800  10.700  61.726  1.00  0.00     0.277 HD
ENDBRANCH   1  18
TORSDOF 5
ENDMDL
