MODEL 1
REMARK VINA RESULT: -7.778688908      0.000      0.000
REMARK  4 active torsions:
REMARK  status: ('A' for Active; 'I' for Inactive)
REMARK       I    between atoms: C1_2  and  N2_4 
REMARK       I    between atoms: N2_4  and  C2_6 
REMARK    1  A    between atoms: C2_6  and  C3_8 
REMARK    2  A    between atoms: C6_11  and  N3_12 
REMARK       I    between atoms: N3_12  and  C7_14 
REMARK       I    between atoms: C7_14  and  N4_16 
REMARK    3  A    between atoms: N4_16  and  N5_18 
REMARK    4  A    between atoms: N5_18  and  C8_19 
ROOT
HETATM    1  C3  UNL     1      14.437  13.613  61.955  1.00  0.00     0.080 C 
HETATM    2  C4  UNL     1      15.952  13.612  62.024  1.00  0.00     0.016 C 
HETATM    3  C5  UNL     1      16.377  12.662  60.987  1.00  0.00     0.026 C 
HETATM    4  C6  UNL     1      15.214  12.412  60.061  1.00  0.00     0.087 C 
HETATM    5  C9  UNL     1      14.196  13.433  60.445  1.00  0.00     0.039 C 
ENDROOT
BRANCH   4   6
HETATM    6  N3  UNL     1      15.615  12.491  58.688  1.00  0.00    -0.336 N 
HETATM    7  C7  UNL     1      15.118  11.431  57.842  1.00  0.00     0.345 C 
HETATM    8  O3  UNL     1      14.417  10.515  58.279  1.00  0.00    -0.245 OA
HETATM    9  N4  UNL     1      15.441  11.423  56.431  1.00  0.00    -0.182 N 
ATOM     10  H4  UNL     1      15.993  12.207  56.083  1.00  0.00     0.207 HD
ATOM     11  H3  UNL     1      16.208  13.241  58.333  1.00  0.00     0.164 HD
BRANCH   9  12
HETATM   12  N5  UNL     1      15.092  10.497  55.542  1.00  0.00    -0.293 NA
BRANCH  12  13
HETATM   13  C8  UNL     1      14.745   9.537  54.650  1.00  0.00     0.466 C 
HETATM   14  O4  UNL     1      15.366   8.543  54.186  1.00  0.00    -0.266 OA
ENDBRANCH  12  13
ENDBRANCH   9  12
ENDBRANCH   4   6
BRANCH   1  15
HETATM   15  C2  UNL     1      13.831  14.809  62.524  1.00  0.00     0.229 C 
HETATM   16  N2  UNL     1      12.723  15.428  61.898  1.00  0.00    -0.281 N 
HETATM   17  C1  UNL     1      12.100  16.562  62.447  1.00  0.00     0.335 C 
ATOM     18  H2  UNL     1      12.368  15.041  61.023  1.00  0.00     0.173 HD
HETATM   19  N1  UNL     1      12.559  17.164  63.615  1.00  0.00    -0.040 NA
HETATM   20  O1  UNL     1      11.087  17.048  61.863  1.00  0.00    -0.251 OA
HETATM   21  O2  UNL     1      14.325  15.263  63.606  1.00  0.00    -0.273 OA
ENDBRANCH   1  15
TORSDOF 4
ENDMDL
MODEL 2
REMARK VINA RESULT: -7.561540646      2.001      2.190
REMARK  4 active torsions:
REMARK  status: ('A' for Active; 'I' for Inactive)
REMARK       I    between atoms: C1_2  and  N2_4 
REMARK       I    between atoms: N2_4  and  C2_6 
REMARK    1  A    between atoms: C2_6  and  C3_8 
REMARK    2  A    between atoms: C6_11  and  N3_12 
REMARK       I    between atoms: N3_12  and  C7_14 
REMARK       I    between atoms: C7_14  and  N4_16 
REMARK    3  A    between atoms: N4_16  and  N5_18 
REMARK    4  A    between atoms: N5_18  and  C8_19 
ROOT
HETATM    1  C3  UNL     1      12.367  12.600  60.578  1.00  0.00     0.080 C 
HETATM    2  C4  UNL     1      13.662  12.008  61.100  1.00  0.00     0.016 C 
HETATM    3  C5  UNL     1      14.110  11.089  60.045  1.00  0.00     0.026 C 
HETATM    4  C6  UNL     1      13.357  11.412  58.778  1.00  0.00     0.087 C 
HETATM    5  C9  UNL     1      12.656  12.696  59.070  1.00  0.00     0.039 C 
ENDROOT
BRANCH   4   6
HETATM    6  N3  UNL     1      14.239  11.483  57.651  1.00  0.00    -0.336 N 
HETATM    7  C7  UNL     1      14.223  10.326  56.787  1.00  0.00     0.345 C 
HETATM    8  O3  UNL     1      13.516   9.343  57.017  1.00  0.00    -0.245 OA
HETATM    9  N4  UNL     1      15.057  10.299  55.604  1.00  0.00    -0.182 N 
ATOM     10  H4  UNL     1      15.609  11.136  55.412  1.00  0.00     0.207 HD
ATOM     11  H3  UNL     1      14.834  12.292  57.472  1.00  0.00     0.164 HD
BRANCH   9  12
HETATM   12  N5  UNL     1      15.178   9.294  54.741  1.00  0.00    -0.293 NA
BRANCH  12  13
HETATM   13  C8  UNL     1      15.306   8.255  53.881  1.00  0.00     0.466 C 
HETATM   14  O4  UNL     1      16.289   7.538  53.551  1.00  0.00    -0.266 OA
ENDBRANCH  12  13
ENDBRANCH   9  12
ENDBRANCH   4   6
BRANCH   1  15
HETATM   15  C2  UNL     1      12.012  13.866  61.207  1.00  0.00     0.229 C 
HETATM   16  N2  UNL     1      12.703  15.056  60.878  1.00  0.00    -0.281 N 
HETATM   17  C1  UNL     1      12.356  16.294  61.446  1.00  0.00     0.335 C 
ATOM     18  H2  UNL     1      13.474  15.014  60.211  1.00  0.00     0.173 HD
HETATM   19  N1  UNL     1      11.343  16.415  62.392  1.00  0.00    -0.040 NA
HETATM   20  O1  UNL     1      12.983  17.333  61.082  1.00  0.00    -0.251 OA
HETATM   21  O2  UNL     1      11.056  13.860  62.048  1.00  0.00    -0.273 OA
ENDBRANCH   1  15
TORSDOF 4
ENDMDL
MODEL 3
REMARK VINA RESULT: -6.800204401      2.340      3.151
REMARK  4 active torsions:
REMARK  status: ('A' for Active; 'I' for Inactive)
REMARK       I    between atoms: C1_2  and  N2_4 
REMARK       I    between atoms: N2_4  and  C2_6 
REMARK    1  A    between atoms: C2_6  and  C3_8 
REMARK    2  A    between atoms: C6_11  and  N3_12 
REMARK       I    between atoms: N3_12  and  C7_14 
REMARK       I    between atoms: C7_14  and  N4_16 
REMARK    3  A    between atoms: N4_16  and  N5_18 
REMARK    4  A    between atoms: N5_18  and  C8_19 
ROOT
HETATM    1  C3  UNL     1      13.938  13.986  61.360  1.00  0.00     0.080 C 
HETATM    2  C4  UNL     1      12.421  13.995  61.347  1.00  0.00     0.016 C 
HETATM    3  C5  UNL     1      12.051  13.517  60.008  1.00  0.00     0.026 C 
HETATM    4  C6  UNL     1      13.257  12.859  59.385  1.00  0.00     0.087 C 
HETATM    5  C9  UNL     1      14.247  12.750  60.496  1.00  0.00     0.039 C 
ENDROOT
BRANCH   4   6
HETATM    6  N3  UNL     1      12.917  11.599  58.795  1.00  0.00    -0.336 N 
HETATM    7  C7  UNL     1      13.620  11.284  57.573  1.00  0.00     0.345 C 
HETATM    8  O3  UNL     1      14.439  12.056  57.069  1.00  0.00    -0.245 OA
HETATM    9  N4  UNL     1      13.373  10.025  56.903  1.00  0.00    -0.182 N 
ATOM     10  H4  UNL     1      12.718   9.386  57.355  1.00  0.00     0.207 HD
ATOM     11  H3  UNL     1      12.228  10.970  59.207  1.00  0.00     0.164 HD
BRANCH   9  12
HETATM   12  N5  UNL     1      13.911   9.616  55.758  1.00  0.00    -0.293 NA
BRANCH  12  13
HETATM   13  C8  UNL     1      14.478   9.189  54.603  1.00  0.00     0.466 C 
HETATM   14  O4  UNL     1      15.627   8.749  54.331  1.00  0.00    -0.266 OA
ENDBRANCH  12  13
ENDBRANCH   9  12
ENDBRANCH   4   6
BRANCH   1  15
HETATM   15  C2  UNL     1      14.506  13.943  62.701  1.00  0.00     0.229 C 
HETATM   16  N2  UNL     1      15.780  14.499  62.964  1.00  0.00    -0.281 N 
HETATM   17  C1  UNL     1      16.335  14.501  64.256  1.00  0.00     0.335 C 
ATOM     18  H2  UNL     1      16.311  14.910  62.196  1.00  0.00     0.173 HD
HETATM   19  N1  UNL     1      15.682  13.922  65.341  1.00  0.00    -0.040 NA
HETATM   20  O1  UNL     1      17.461  15.050  64.439  1.00  0.00    -0.251 OA
HETATM   21  O2  UNL     1      13.811  13.402  63.620  1.00  0.00    -0.273 OA
ENDBRANCH   1  15
TORSDOF 4
ENDMDL
MODEL 4
REMARK VINA RESULT: -6.747790199      1.629      1.632
REMARK  4 active torsions:
REMARK  status: ('A' for Active; 'I' for Inactive)
REMARK       I    between atoms: C1_2  and  N2_4 
REMARK       I    between atoms: N2_4  and  C2_6 
REMARK    1  A    between atoms: C2_6  and  C3_8 
REMARK    2  A    between atoms: C6_11  and  N3_12 
REMARK       I    between atoms: N3_12  and  C7_14 
REMARK       I    between atoms: C7_14  and  N4_16 
REMARK    3  A    between atoms: N4_16  and  N5_18 
REMARK    4  A    between atoms: N5_18  and  C8_19 
ROOT
HETATM    1  C3  UNL     1      15.057  13.740  62.651  1.00  0.00     0.080 C 
HETATM    2  C4  UNL     1      16.477  14.087  62.245  1.00  0.00     0.016 C 
HETATM    3  C5  UNL     1      16.911  12.970  61.395  1.00  0.00     0.026 C 
HETATM    4  C6  UNL     1      15.691  12.193  60.967  1.00  0.00     0.087 C 
HETATM    5  C9  UNL     1      14.535  13.039  61.384  1.00  0.00     0.039 C 
ENDROOT
BRANCH   4   6
HETATM    6  N3  UNL     1      15.719  11.911  59.563  1.00  0.00    -0.336 N 
HETATM    7  C7  UNL     1      14.642  11.076  59.083  1.00  0.00     0.345 C 
HETATM    8  O3  UNL     1      13.776  10.624  59.835  1.00  0.00    -0.245 OA
HETATM    9  N4  UNL     1      14.557  10.747  57.676  1.00  0.00    -0.182 N 
ATOM     10  H4  UNL     1      15.263  11.160  57.065  1.00  0.00     0.207 HD
ATOM     11  H3  UNL     1      16.446  12.275  58.946  1.00  0.00     0.164 HD
BRANCH   9  12
HETATM   12  N5  UNL     1      13.652   9.962  57.097  1.00  0.00    -0.293 NA
BRANCH  12  13
HETATM   13  C8  UNL     1      12.748   9.151  56.497  1.00  0.00     0.466 C 
HETATM   14  O4  UNL     1      11.663   8.646  56.893  1.00  0.00    -0.266 OA
ENDBRANCH  12  13
ENDBRANCH   9  12
ENDBRANCH   4   6
BRANCH   1  15
HETATM   15  C2  UNL     1      14.274  14.896  63.068  1.00  0.00     0.229 C 
HETATM   16  N2  UNL     1      13.219  15.384  62.262  1.00  0.00    -0.281 N 
HETATM   17  C1  UNL     1      12.427  16.475  62.659  1.00  0.00     0.335 C 
ATOM     18  H2  UNL     1      13.027  14.931  61.367  1.00  0.00     0.173 HD
HETATM   19  N1  UNL     1      12.660  17.163  63.846  1.00  0.00    -0.040 NA
HETATM   20  O1  UNL     1      11.470  16.842  61.915  1.00  0.00    -0.251 OA
HETATM   21  O2  UNL     1      14.567  15.436  64.183  1.00  0.00    -0.273 OA
ENDBRANCH   1  15
TORSDOF 4
ENDMDL
MODEL 5
REMARK VINA RESULT: -6.645472106      2.411      8.082
REMARK  4 active torsions:
REMARK  status: ('A' for Active; 'I' for Inactive)
REMARK       I    between atoms: C1_2  and  N2_4 
REMARK       I    between atoms: N2_4  and  C2_6 
REMARK    1  A    between atoms: C2_6  and  C3_8 
REMARK    2  A    between atoms: C6_11  and  N3_12 
REMARK       I    between atoms: N3_12  and  C7_14 
REMARK       I    between atoms: C7_14  and  N4_16 
REMARK    3  A    between atoms: N4_16  and  N5_18 
REMARK    4  A    between atoms: N5_18  and  C8_19 
ROOT
HETATM    1  C3  UNL     1      13.763  12.442  58.803  1.00  0.00     0.080 C 
HETATM    2  C4  UNL     1      15.043  13.234  58.617  1.00  0.00     0.016 C 
HETATM    3  C5  UNL     1      15.231  13.952  59.886  1.00  0.00     0.026 C 
HETATM    4  C6  UNL     1      14.349  13.316  60.931  1.00  0.00     0.087 C 
HETATM    5  C9  UNL     1      13.846  12.064  60.293  1.00  0.00     0.039 C 
ENDROOT
BRANCH   4   6
HETATM    6  N3  UNL     1      15.065  13.090  62.150  1.00  0.00    -0.336 N 
HETATM    7  C7  UNL     1      14.918  14.123  63.149  1.00  0.00     0.345 C 
HETATM    8  O3  UNL     1      14.240  15.134  62.953  1.00  0.00    -0.245 OA
HETATM    9  N4  UNL     1      15.578  13.987  64.430  1.00  0.00    -0.182 N 
ATOM     10  H4  UNL     1      16.106  13.128  64.585  1.00  0.00     0.207 HD
ATOM     11  H3  UNL     1      15.637  12.259  62.303  1.00  0.00     0.164 HD
BRANCH   9  12
HETATM   12  N5  UNL     1      15.568  14.869  65.426  1.00  0.00    -0.293 NA
BRANCH  12  13
HETATM   13  C8  UNL     1      15.561  15.785  66.424  1.00  0.00     0.466 C 
HETATM   14  O4  UNL     1      14.927  16.864  66.585  1.00  0.00    -0.266 OA
ENDBRANCH  12  13
ENDBRANCH   9  12
ENDBRANCH   4   6
BRANCH   1  15
HETATM   15  C2  UNL     1      13.646  11.307  57.898  1.00  0.00     0.229 C 
HETATM   16  N2  UNL     1      14.405  11.252  56.704  1.00  0.00    -0.281 N 
HETATM   17  C1  UNL     1      14.334  10.152  55.832  1.00  0.00     0.335 C 
ATOM     18  H2  UNL     1      15.019  12.033  56.470  1.00  0.00     0.173 HD
HETATM   19  N1  UNL     1      13.488   9.073  56.071  1.00  0.00    -0.040 NA
HETATM   20  O1  UNL     1      15.068  10.140  54.800  1.00  0.00    -0.251 OA
HETATM   21  O2  UNL     1      12.851  10.369  58.227  1.00  0.00    -0.273 OA
ENDBRANCH   1  15
TORSDOF 4
ENDMDL
