MODEL 1
REMARK VINA RESULT: -7.375071137      0.000      0.000
REMARK  6 active torsions:
REMARK  status: ('A' for Active; 'I' for Inactive)
REMARK    1  A    between atoms: C2_2  and  N1_3 
REMARK    2  A    between atoms: C2_2  and  C7_14 
REMARK       I    between atoms: N1_3  and  C3_5 
REMARK    3  A    between atoms: C3_5  and  C4_7 
REMARK    4  A    between atoms: C4_7  and  N2_10 
REMARK    5  A    between atoms: C7_14  and  N3_15 
REMARK    6  A    between atoms: C7_14  and  C8_19 
REMARK       I    between atoms: C8_19  and  N4_21 
REMARK       I    between atoms: N4_21  and  C9_23 
ROOT
HETATM    1  C1  UNL     1      16.745  12.725  61.365  1.00  0.00     0.035 C 
HETATM    2  C2  UNL     1      15.368  12.244  61.039  1.00  0.00     0.120 C 
ENDROOT
BRANCH   2   3
HETATM    3  N1  UNL     1      15.118  12.561  59.646  1.00  0.00    -0.352 N 
HETATM    4  C3  UNL     1      14.557  11.613  58.778  1.00  0.00     0.253 C 
HETATM    5  O1  UNL     1      14.266  10.482  59.200  1.00  0.00    -0.271 OA
ATOM      6  H1  UNL     1      15.354  13.489  59.292  1.00  0.00     0.163 HD
BRANCH   4   7
HETATM    7  C4  UNL     1      14.312  11.973  57.347  1.00  0.00     0.196 C 
HETATM    8  C5  UNL     1      15.294  13.025  56.951  1.00  0.00     0.056 C 
HETATM    9  C6  UNL     1      14.454  10.728  56.477  1.00  0.00     0.056 C 
BRANCH   7  10
HETATM   10  N2  UNL     1      12.964  12.445  57.193  1.00  0.00    -0.062 N 
ATOM     11  H23 UNL     1      12.317  11.691  56.961  1.00  0.00     0.275 HD
ATOM     12  H22 UNL     1      12.550  12.725  58.082  1.00  0.00     0.275 HD
ATOM     13  H21 UNL     1      12.942  13.198  56.505  1.00  0.00     0.275 HD
ENDBRANCH   7  10
ENDBRANCH   4   7
ENDBRANCH   2   3
BRANCH   2  14
HETATM   14  C7  UNL     1      14.282  12.859  61.854  1.00  0.00     0.297 C 
BRANCH  14  15
HETATM   15  N3  UNL     1      13.060  12.089  61.860  1.00  0.00    -0.064 N 
ATOM     16  H33 UNL     1      12.281  12.647  61.511  1.00  0.00     0.275 HD
ATOM     17  H32 UNL     1      13.086  11.365  61.142  1.00  0.00     0.275 HD
ATOM     18  H31 UNL     1      12.837  11.687  62.770  1.00  0.00     0.275 HD
ENDBRANCH  14  15
BRANCH  14  19
HETATM   19  C8  UNL     1      13.955  14.244  61.518  1.00  0.00     0.258 C 
HETATM   20  O2  UNL     1      14.715  15.028  60.908  1.00  0.00    -0.271 OA
HETATM   21  N4  UNL     1      12.673  14.734  61.915  1.00  0.00    -0.280 N 
HETATM   22  C9  UNL     1      12.248  16.052  61.646  1.00  0.00     0.335 C 
ATOM     23  H4  UNL     1      12.041  14.107  62.413  1.00  0.00     0.173 HD
HETATM   24  N5  UNL     1      13.134  16.945  60.942  1.00  0.00    -0.040 NA
HETATM   25  O3  UNL     1      11.115  16.436  62.014  1.00  0.00    -0.251 OA
ENDBRANCH  14  19
ENDBRANCH   2  14
TORSDOF 6
ENDMDL
MODEL 2
REMARK VINA RESULT: -7.229406113      1.529      1.796
REMARK  6 active torsions:
REMARK  status: ('A' for Active; 'I' for Inactive)
REMARK    1  A    between atoms: C2_2  and  N1_3 
REMARK    2  A    between atoms: C2_2  and  C7_14 
REMARK       I    between atoms: N1_3  and  C3_5 
REMARK    3  A    between atoms: C3_5  and  C4_7 
REMARK    4  A    between atoms: C4_7  and  N2_10 
REMARK    5  A    between atoms: C7_14  and  N3_15 
REMARK    6  A    between atoms: C7_14  and  C8_19 
REMARK       I    between atoms: C8_19  and  N4_21 
REMARK       I    between atoms: N4_21  and  C9_23 
ROOT
HETATM    1  C1  UNL     1      16.882  11.796  60.987  1.00  0.00     0.035 C 
HETATM    2  C2  UNL     1      15.571  12.417  60.623  1.00  0.00     0.120 C 
ENDROOT
BRANCH   2   3
HETATM    3  N1  UNL     1      15.366  12.192  59.204  1.00  0.00    -0.352 N 
HETATM    4  C3  UNL     1      14.268  11.452  58.740  1.00  0.00     0.253 C 
HETATM    5  O1  UNL     1      13.454  10.978  59.550  1.00  0.00    -0.271 OA
ATOM      6  H1  UNL     1      16.030  12.579  58.533  1.00  0.00     0.163 HD
BRANCH   4   7
HETATM    7  C4  UNL     1      14.086  11.240  57.272  1.00  0.00     0.196 C 
HETATM    8  C5  UNL     1      15.405  11.436  56.600  1.00  0.00     0.056 C 
HETATM    9  C6  UNL     1      13.543   9.836  57.022  1.00  0.00     0.056 C 
BRANCH   7  10
HETATM   10  N2  UNL     1      13.110  12.166  56.768  1.00  0.00    -0.062 N 
ATOM     11  H23 UNL     1      12.322  12.278  57.406  1.00  0.00     0.275 HD
ATOM     12  H22 UNL     1      13.449  13.128  56.784  1.00  0.00     0.275 HD
ATOM     13  H21 UNL     1      12.814  11.878  55.836  1.00  0.00     0.275 HD
ENDBRANCH   7  10
ENDBRANCH   4   7
ENDBRANCH   2   3
BRANCH   2  14
HETATM   14  C7  UNL     1      15.482  13.882  60.876  1.00  0.00     0.297 C 
BRANCH  14  15
HETATM   15  N3  UNL     1      16.508  14.377  61.763  1.00  0.00    -0.064 N 
ATOM     16  H33 UNL     1      16.148  15.132  62.347  1.00  0.00     0.275 HD
ATOM     17  H32 UNL     1      16.721  13.691  62.487  1.00  0.00     0.275 HD
ATOM     18  H31 UNL     1      17.358  14.668  61.281  1.00  0.00     0.275 HD
ENDBRANCH  14  15
BRANCH  14  19
HETATM   19  C8  UNL     1      14.185  14.355  61.359  1.00  0.00     0.258 C 
HETATM   20  O2  UNL     1      14.027  15.217  62.251  1.00  0.00    -0.271 OA
HETATM   21  N4  UNL     1      13.014  13.791  60.764  1.00  0.00    -0.280 N 
HETATM   22  C9  UNL     1      11.710  14.169  61.148  1.00  0.00     0.335 C 
ATOM     23  H4  UNL     1      13.125  13.087  60.033  1.00  0.00     0.173 HD
HETATM   24  N5  UNL     1      11.543  15.163  62.178  1.00  0.00    -0.040 NA
HETATM   25  O3  UNL     1      10.715  13.647  60.598  1.00  0.00    -0.251 OA
ENDBRANCH  14  19
ENDBRANCH   2  14
TORSDOF 6
ENDMDL
MODEL 3
REMARK VINA RESULT: -7.193656114      1.439      1.567
REMARK  6 active torsions:
REMARK  status: ('A' for Active; 'I' for Inactive)
REMARK    1  A    between atoms: C2_2  and  N1_3 
REMARK    2  A    between atoms: C2_2  and  C7_14 
REMARK       I    between atoms: N1_3  and  C3_5 
REMARK    3  A    between atoms: C3_5  and  C4_7 
REMARK    4  A    between atoms: C4_7  and  N2_10 
REMARK    5  A    between atoms: C7_14  and  N3_15 
REMARK    6  A    between atoms: C7_14  and  C8_19 
REMARK       I    between atoms: C8_19  and  N4_21 
REMARK       I    between atoms: N4_21  and  C9_23 
ROOT
HETATM    1  C1  UNL     1      16.972  11.938  60.912  1.00  0.00     0.035 C 
HETATM    2  C2  UNL     1      15.604  12.505  60.703  1.00  0.00     0.120 C 
ENDROOT
BRANCH   2   3
HETATM    3  N1  UNL     1      15.303  12.396  59.288  1.00  0.00    -0.352 N 
HETATM    4  C3  UNL     1      14.436  11.403  58.808  1.00  0.00     0.253 C 
HETATM    5  O1  UNL     1      13.913  10.601  59.599  1.00  0.00    -0.271 OA
ATOM      6  H1  UNL     1      15.729  13.051  58.632  1.00  0.00     0.163 HD
BRANCH   4   7
HETATM    7  C4  UNL     1      14.147  11.319  57.343  1.00  0.00     0.196 C 
HETATM    8  C5  UNL     1      15.413  11.579  56.597  1.00  0.00     0.056 C 
HETATM    9  C6  UNL     1      13.584   9.939  57.013  1.00  0.00     0.056 C 
BRANCH   7  10
HETATM   10  N2  UNL     1      13.138  12.281  56.995  1.00  0.00    -0.062 N 
ATOM     11  H23 UNL     1      12.363  12.282  57.659  1.00  0.00     0.275 HD
ATOM     12  H22 UNL     1      13.455  13.240  57.139  1.00  0.00     0.275 HD
ATOM     13  H21 UNL     1      12.826  12.118  56.038  1.00  0.00     0.275 HD
ENDBRANCH   7  10
ENDBRANCH   4   7
ENDBRANCH   2   3
BRANCH   2  14
HETATM   14  C7  UNL     1      15.452  13.933  61.099  1.00  0.00     0.297 C 
BRANCH  14  15
HETATM   15  N3  UNL     1      16.255  14.303  62.241  1.00  0.00    -0.064 N 
ATOM     16  H33 UNL     1      15.831  15.084  62.742  1.00  0.00     0.275 HD
ATOM     17  H32 UNL     1      16.203  13.588  62.966  1.00  0.00     0.275 HD
ATOM     18  H31 UNL     1      17.226  14.509  62.006  1.00  0.00     0.275 HD
ENDBRANCH  14  15
BRANCH  14  19
HETATM   19  C8  UNL     1      14.078  14.373  61.336  1.00  0.00     0.258 C 
HETATM   20  O2  UNL     1      13.064  13.855  60.819  1.00  0.00    -0.271 OA
HETATM   21  N4  UNL     1      13.883  15.475  62.225  1.00  0.00    -0.280 N 
HETATM   22  C9  UNL     1      12.604  15.987  62.530  1.00  0.00     0.335 C 
ATOM     23  H4  UNL     1      14.700  15.909  62.656  1.00  0.00     0.173 HD
HETATM   24  N5  UNL     1      11.444  15.380  61.928  1.00  0.00    -0.040 NA
HETATM   25  O3  UNL     1      12.483  16.954  63.315  1.00  0.00    -0.251 OA
ENDBRANCH  14  19
ENDBRANCH   2  14
TORSDOF 6
ENDMDL
MODEL 4
REMARK VINA RESULT: -7.187700815      1.227      1.267
REMARK  6 active torsions:
REMARK  status: ('A' for Active; 'I' for Inactive)
REMARK    1  A    between atoms: C2_2  and  N1_3 
REMARK    2  A    between atoms: C2_2  and  C7_14 
REMARK       I    between atoms: N1_3  and  C3_5 
REMARK    3  A    between atoms: C3_5  and  C4_7 
REMARK    4  A    between atoms: C4_7  and  N2_10 
REMARK    5  A    between atoms: C7_14  and  N3_15 
REMARK    6  A    between atoms: C7_14  and  C8_19 
REMARK       I    between atoms: C8_19  and  N4_21 
REMARK       I    between atoms: N4_21  and  C9_23 
ROOT
HETATM    1  C1  UNL     1      16.956  11.699  60.961  1.00  0.00     0.035 C 
HETATM    2  C2  UNL     1      15.504  12.048  60.889  1.00  0.00     0.120 C 
ENDROOT
BRANCH   2   3
HETATM    3  N1  UNL     1      15.213  12.406  59.514  1.00  0.00    -0.352 N 
HETATM    4  C3  UNL     1      14.628  11.483  58.634  1.00  0.00     0.253 C 
HETATM    5  O1  UNL     1      14.352  10.338  59.031  1.00  0.00    -0.271 OA
ATOM      6  H1  UNL     1      15.436  13.345  59.181  1.00  0.00     0.163 HD
BRANCH   4   7
HETATM    7  C4  UNL     1      14.341  11.885  57.223  1.00  0.00     0.196 C 
HETATM    8  C5  UNL     1      15.342  12.913  56.813  1.00  0.00     0.056 C 
HETATM    9  C6  UNL     1      14.407  10.657  56.319  1.00  0.00     0.056 C 
BRANCH   7  10
HETATM   10  N2  UNL     1      13.004  12.404  57.133  1.00  0.00    -0.062 N 
ATOM     11  H23 UNL     1      12.910  13.095  56.388  1.00  0.00     0.275 HD
ATOM     12  H22 UNL     1      12.346  11.712  56.776  1.00  0.00     0.275 HD
ATOM     13  H21 UNL     1      12.719  12.774  58.040  1.00  0.00     0.275 HD
ENDBRANCH   7  10
ENDBRANCH   4   7
ENDBRANCH   2   3
BRANCH   2  14
HETATM   14  C7  UNL     1      15.091  13.185  61.760  1.00  0.00     0.297 C 
BRANCH  14  15
HETATM   15  N3  UNL     1      14.980  12.831  63.155  1.00  0.00    -0.064 N 
ATOM     16  H33 UNL     1      15.278  13.605  63.749  1.00  0.00     0.275 HD
ATOM     17  H32 UNL     1      14.002  12.768  63.436  1.00  0.00     0.275 HD
ATOM     18  H31 UNL     1      15.481  11.976  63.400  1.00  0.00     0.275 HD
ENDBRANCH  14  15
BRANCH  14  19
HETATM   19  C8  UNL     1      13.861  13.866  61.356  1.00  0.00     0.258 C 
HETATM   20  O2  UNL     1      12.814  13.290  60.988  1.00  0.00    -0.271 OA
HETATM   21  N4  UNL     1      13.859  15.295  61.387  1.00  0.00    -0.280 N 
HETATM   22  C9  UNL     1      12.732  16.060  61.020  1.00  0.00     0.335 C 
ATOM     23  H4  UNL     1      14.705  15.781  61.686  1.00  0.00     0.173 HD
HETATM   24  N5  UNL     1      11.532  15.383  60.598  1.00  0.00    -0.040 NA
HETATM   25  O3  UNL     1      12.778  17.310  61.063  1.00  0.00    -0.251 OA
ENDBRANCH  14  19
ENDBRANCH   2  14
TORSDOF 6
ENDMDL
MODEL 5
REMARK VINA RESULT: -6.848409063      2.306      6.044
REMARK  6 active torsions:
REMARK  status: ('A' for Active; 'I' for Inactive)
REMARK    1  A    between atoms: C2_2  and  N1_3 
REMARK    2  A    between atoms: C2_2  and  C7_14 
REMARK       I    between atoms: N1_3  and  C3_5 
REMARK    3  A    between atoms: C3_5  and  C4_7 
REMARK    4  A    between atoms: C4_7  and  N2_10 
REMARK    5  A    between atoms: C7_14  and  N3_15 
REMARK    6  A    between atoms: C7_14  and  C8_19 
REMARK       I    between atoms: C8_19  and  N4_21 
REMARK       I    between atoms: N4_21  and  C9_23 
ROOT
HETATM    1  C1  UNL     1      16.231  11.370  59.855  1.00  0.00     0.035 C 
HETATM    2  C2  UNL     1      15.756  12.553  59.074  1.00  0.00     0.120 C 
ENDROOT
BRANCH   2   3
HETATM    3  N1  UNL     1      14.374  12.792  59.448  1.00  0.00    -0.352 N 
HETATM    4  C3  UNL     1      14.012  13.927  60.188  1.00  0.00     0.253 C 
HETATM    5  O1  UNL     1      14.880  14.746  60.533  1.00  0.00    -0.271 OA
ATOM      6  H1  UNL     1      13.656  12.124  59.168  1.00  0.00     0.163 HD
BRANCH   4   7
HETATM    7  C4  UNL     1      12.579  14.143  60.557  1.00  0.00     0.196 C 
HETATM    8  C5  UNL     1      12.269  13.307  61.754  1.00  0.00     0.056 C 
HETATM    9  C6  UNL     1      12.343  15.624  60.840  1.00  0.00     0.056 C 
BRANCH   7  10
HETATM   10  N2  UNL     1      11.737  13.786  59.448  1.00  0.00    -0.062 N 
ATOM     11  H23 UNL     1      10.798  14.175  59.538  1.00  0.00     0.275 HD
ATOM     12  H22 UNL     1      12.011  14.262  58.589  1.00  0.00     0.275 HD
ATOM     13  H21 UNL     1      11.726  12.772  59.340  1.00  0.00     0.275 HD
ENDBRANCH   7  10
ENDBRANCH   4   7
ENDBRANCH   2   3
BRANCH   2  14
HETATM   14  C7  UNL     1      15.811  12.387  57.594  1.00  0.00     0.297 C 
BRANCH  14  15
HETATM   15  N3  UNL     1      15.533  13.604  56.867  1.00  0.00    -0.064 N 
ATOM     16  H33 UNL     1      14.537  13.818  56.890  1.00  0.00     0.275 HD
ATOM     17  H32 UNL     1      15.893  14.415  57.370  1.00  0.00     0.275 HD
ATOM     18  H31 UNL     1      15.878  13.593  55.908  1.00  0.00     0.275 HD
ENDBRANCH  14  15
BRANCH  14  19
HETATM   19  C8  UNL     1      14.968  11.322  57.052  1.00  0.00     0.258 C 
HETATM   20  O2  UNL     1      13.898  10.927  57.567  1.00  0.00    -0.271 OA
HETATM   21  N4  UNL     1      15.401  10.687  55.847  1.00  0.00    -0.280 N 
HETATM   22  C9  UNL     1      14.670   9.648  55.232  1.00  0.00     0.335 C 
ATOM     23  H4  UNL     1      16.271  10.998  55.414  1.00  0.00     0.173 HD
HETATM   24  N5  UNL     1      13.439   9.204  55.835  1.00  0.00    -0.040 NA
HETATM   25  O3  UNL     1      15.090   9.123  54.177  1.00  0.00    -0.251 OA
ENDBRANCH  14  19
ENDBRANCH   2  14
TORSDOF 6
ENDMDL
