MODEL 1
REMARK VINA RESULT: -7.739983062      0.000      0.000
REMARK  4 active torsions:
REMARK  status: ('A' for Active; 'I' for Inactive)
REMARK    1  A    between atoms: C2_2  and  C4_4 
REMARK    2  A    between atoms: C6_6  and  N1_7 
REMARK    3  A    between atoms: N1_7  and  C7_9 
REMARK    4  A    between atoms: C16_19  and  O1_20 
ROOT
HETATM    1  C7  UNL     1      67.849  79.634  23.916  1.00  0.00     0.096 C 
HETATM    2  C8  UNL     1      67.452  80.364  22.683  1.00  0.00     0.005 C 
HETATM    3  C9  UNL     1      66.997  79.299  21.671  1.00  0.00     0.012 C 
HETATM    4  C10 UNL     1      68.480  81.185  22.021  1.00  0.00     0.007 C 
HETATM    5  C11 UNL     1      69.435  81.912  22.899  1.00  0.00     0.009 C 
HETATM    6  C12 UNL     1      69.123  81.617  24.343  1.00  0.00     0.035 C 
HETATM    7  C13 UNL     1      69.952  82.370  25.317  1.00  0.00     0.106 C 
HETATM    8  C14 UNL     1      70.509  83.631  24.688  1.00  0.00     0.052 C 
HETATM    9  F1  UNL     1      69.167  82.797  26.389  1.00  0.00    -0.243 F 
HETATM   10  C15 UNL     1      71.083  81.578  25.926  1.00  0.00     0.075 C 
HETATM   11  C16 UNL     1      70.666  80.235  26.415  1.00  0.00     0.122 C 
HETATM   12  C17 UNL     1      69.276  79.829  25.978  1.00  0.00     0.043 C 
HETATM   13  C18 UNL     1      69.167  80.127  24.505  1.00  0.00    -0.014 C 
HETATM   14  C19 UNL     1      70.262  79.437  23.792  1.00  0.00     0.018 C 
ENDROOT
BRANCH   1  15
HETATM   15  N1  UNL     1      67.825  78.200  23.798  1.00  0.00    -0.363 N 
ATOM     16  H1  UNL     1      68.337  77.768  23.029  1.00  0.00     0.162 HD
BRANCH  15  17
HETATM   17  C6  UNL     1      67.182  77.426  24.624  1.00  0.00     0.168 A 
HETATM   18  C5  UNL     1      67.736  76.449  25.423  1.00  0.00     0.085 A 
HETATM   19  C4  UNL     1      66.713  75.845  26.162  1.00  0.00     0.040 A 
HETATM   20  N2  UNL     1      65.601  76.498  25.759  1.00  0.00    -0.263 N 
HETATM   21  O2  UNL     1      65.901  77.401  24.876  1.00  0.00    -0.220 OA
ATOM     22  H2  UNL     1      64.659  76.309  26.101  1.00  0.00     0.194 HD
BRANCH  19  23
HETATM   23  C2  UNL     1      66.853  74.756  27.138  1.00  0.00     0.029 C 
HETATM   24  C1  UNL     1      68.239  74.708  27.754  1.00  0.00     0.016 C 
HETATM   25  C3  UNL     1      65.859  74.843  28.264  1.00  0.00     0.016 C 
ENDBRANCH  19  23
ENDBRANCH  15  17
ENDBRANCH   1  15
BRANCH  11  26
HETATM   26  O1  UNL     1      70.807  80.101  27.816  1.00  0.00    -0.395 OA
ATOM     27  H1  UNL     1      70.124  80.554  28.295  1.00  0.00     0.210 HD
ENDBRANCH  11  26
TORSDOF 4
ENDMDL
MODEL 2
REMARK VINA RESULT: -7.335705144      2.227      3.650
REMARK  4 active torsions:
REMARK  status: ('A' for Active; 'I' for Inactive)
REMARK    1  A    between atoms: C2_2  and  C4_4 
REMARK    2  A    between atoms: C6_6  and  N1_7 
REMARK    3  A    between atoms: N1_7  and  C7_9 
REMARK    4  A    between atoms: C16_19  and  O1_20 
ROOT
HETATM    1  C7  UNL     1      69.015  80.187  24.680  1.00  0.00     0.096 C 
HETATM    2  C8  UNL     1      69.682  81.031  25.707  1.00  0.00     0.005 C 
HETATM    3  C9  UNL     1      68.815  80.947  26.975  1.00  0.00     0.012 C 
HETATM    4  C10 UNL     1      69.864  82.459  25.396  1.00  0.00     0.007 C 
HETATM    5  C11 UNL     1      70.190  82.809  23.989  1.00  0.00     0.009 C 
HETATM    6  C12 UNL     1      70.253  81.557  23.155  1.00  0.00     0.035 C 
HETATM    7  C13 UNL     1      70.671  81.775  21.748  1.00  0.00     0.106 C 
HETATM    8  C14 UNL     1      71.457  83.064  21.614  1.00  0.00     0.052 C 
HETATM    9  F1  UNL     1      71.537  80.760  21.340  1.00  0.00    -0.243 F 
HETATM   10  C15 UNL     1      69.541  81.778  20.748  1.00  0.00     0.075 C 
HETATM   11  C16 UNL     1      68.602  80.635  20.917  1.00  0.00     0.122 C 
HETATM   12  C17 UNL     1      68.809  79.856  22.196  1.00  0.00     0.043 C 
HETATM   13  C18 UNL     1      68.935  80.859  23.313  1.00  0.00    -0.014 C 
HETATM   14  C19 UNL     1      67.743  81.733  23.313  1.00  0.00     0.018 C 
ENDROOT
BRANCH   1  15
HETATM   15  N1  UNL     1      67.741  79.649  25.082  1.00  0.00    -0.363 N 
ATOM     16  H1  UNL     1      66.993  80.300  25.320  1.00  0.00     0.162 HD
BRANCH  15  17
HETATM   17  C6  UNL     1      67.497  78.373  25.157  1.00  0.00     0.168 A 
HETATM   18  C5  UNL     1      68.358  77.406  25.629  1.00  0.00     0.085 A 
HETATM   19  C4  UNL     1      67.720  76.162  25.545  1.00  0.00     0.040 A 
HETATM   20  N2  UNL     1      66.510  76.461  25.025  1.00  0.00    -0.263 N 
HETATM   21  O2  UNL     1      66.410  77.737  24.813  1.00  0.00    -0.220 OA
ATOM     22  H2  UNL     1      65.778  75.779  24.827  1.00  0.00     0.194 HD
BRANCH  19  23
HETATM   23  C2  UNL     1      68.271  74.860  25.940  1.00  0.00     0.029 C 
HETATM   24  C1  UNL     1      69.662  74.627  25.382  1.00  0.00     0.016 C 
HETATM   25  C3  UNL     1      68.345  74.680  27.432  1.00  0.00     0.016 C 
ENDBRANCH  19  23
ENDBRANCH  15  17
ENDBRANCH   1  15
BRANCH  11  26
HETATM   26  O1  UNL     1      68.598  79.768  19.800  1.00  0.00    -0.395 OA
ATOM     27  H1  UNL     1      69.121  80.099  19.081  1.00  0.00     0.210 HD
ENDBRANCH  11  26
TORSDOF 4
ENDMDL
MODEL 3
REMARK VINA RESULT: -7.266893531      2.649      4.163
REMARK  4 active torsions:
REMARK  status: ('A' for Active; 'I' for Inactive)
REMARK    1  A    between atoms: C2_2  and  C4_4 
REMARK    2  A    between atoms: C6_6  and  N1_7 
REMARK    3  A    between atoms: N1_7  and  C7_9 
REMARK    4  A    between atoms: C16_19  and  O1_20 
ROOT
HETATM    1  C7  UNL     1      70.861  79.515  24.290  1.00  0.00     0.096 C 
HETATM    2  C8  UNL     1      72.229  79.989  24.626  1.00  0.00     0.005 C 
HETATM    3  C9  UNL     1      72.306  80.055  26.161  1.00  0.00     0.012 C 
HETATM    4  C10 UNL     1      72.635  81.308  24.112  1.00  0.00     0.007 C 
HETATM    5  C11 UNL     1      72.159  81.681  22.754  1.00  0.00     0.009 C 
HETATM    6  C12 UNL     1      71.316  80.568  22.188  1.00  0.00     0.035 C 
HETATM    7  C13 UNL     1      70.867  80.787  20.790  1.00  0.00     0.106 C 
HETATM    8  C14 UNL     1      71.782  81.763  20.078  1.00  0.00     0.052 C 
HETATM    9  F1  UNL     1      70.948  79.597  20.066  1.00  0.00    -0.243 F 
HETATM   10  C15 UNL     1      69.440  81.256  20.654  1.00  0.00     0.075 C 
HETATM   11  C16 UNL     1      68.478  80.462  21.468  1.00  0.00     0.122 C 
HETATM   12  C17 UNL     1      69.139  79.529  22.457  1.00  0.00     0.043 C 
HETATM   13  C18 UNL     1      70.209  80.316  23.167  1.00  0.00    -0.014 C 
HETATM   14  C19 UNL     1      69.601  81.520  23.771  1.00  0.00     0.018 C 
ENDROOT
BRANCH   1  15
HETATM   15  N1  UNL     1      69.981  79.374  25.420  1.00  0.00    -0.363 N 
ATOM     16  H1  UNL     1      69.996  80.096  26.140  1.00  0.00     0.162 HD
BRANCH  15  17
HETATM   17  C6  UNL     1      69.166  78.371  25.570  1.00  0.00     0.168 A 
HETATM   18  C5  UNL     1      69.521  77.065  25.834  1.00  0.00     0.085 A 
HETATM   19  C4  UNL     1      68.355  76.295  25.923  1.00  0.00     0.040 A 
HETATM   20  N2  UNL     1      67.367  77.190  25.704  1.00  0.00    -0.263 N 
HETATM   21  O2  UNL     1      67.861  78.373  25.505  1.00  0.00    -0.220 OA
ATOM     22  H2  UNL     1      66.372  76.967  25.697  1.00  0.00     0.194 HD
BRANCH  19  23
HETATM   23  C2  UNL     1      68.268  74.855  26.192  1.00  0.00     0.029 C 
HETATM   24  C1  UNL     1      69.384  74.073  25.526  1.00  0.00     0.016 C 
HETATM   25  C3  UNL     1      68.298  74.527  27.660  1.00  0.00     0.016 C 
ENDBRANCH  19  23
ENDBRANCH  15  17
ENDBRANCH   1  15
BRANCH  11  26
HETATM   26  O1  UNL     1      67.541  79.764  20.672  1.00  0.00    -0.395 OA
ATOM     27  H1  UNL     1      67.671  78.823  20.699  1.00  0.00     0.210 HD
ENDBRANCH  11  26
TORSDOF 4
ENDMDL
MODEL 4
REMARK VINA RESULT: -7.257380924      1.266      1.562
REMARK  4 active torsions:
REMARK  status: ('A' for Active; 'I' for Inactive)
REMARK    1  A    between atoms: C2_2  and  C4_4 
REMARK    2  A    between atoms: C6_6  and  N1_7 
REMARK    3  A    between atoms: N1_7  and  C7_9 
REMARK    4  A    between atoms: C16_19  and  O1_20 
ROOT
HETATM    1  C7  UNL     1      68.456  80.290  24.581  1.00  0.00     0.096 C 
HETATM    2  C8  UNL     1      67.913  81.397  23.750  1.00  0.00     0.005 C 
HETATM    3  C9  UNL     1      67.456  80.766  22.424  1.00  0.00     0.012 C 
HETATM    4  C10 UNL     1      68.825  82.504  23.416  1.00  0.00     0.007 C 
HETATM    5  C11 UNL     1      69.792  82.924  24.463  1.00  0.00     0.009 C 
HETATM    6  C12 UNL     1      69.616  82.068  25.690  1.00  0.00     0.035 C 
HETATM    7  C13 UNL     1      70.464  82.463  26.842  1.00  0.00     0.106 C 
HETATM    8  C14 UNL     1      70.880  83.916  26.731  1.00  0.00     0.052 C 
HETATM    9  F1  UNL     1      69.737  82.368  28.030  1.00  0.00    -0.243 F 
HETATM   10  C15 UNL     1      71.692  81.610  27.043  1.00  0.00     0.075 C 
HETATM   11  C16 UNL     1      71.410  80.149  26.987  1.00  0.00     0.122 C 
HETATM   12  C17 UNL     1      70.023  79.812  26.489  1.00  0.00     0.043 C 
HETATM   13  C18 UNL     1      69.778  80.642  25.256  1.00  0.00    -0.014 C 
HETATM   14  C19 UNL     1      70.859  80.388  24.282  1.00  0.00     0.018 C 
ENDROOT
BRANCH   1  15
HETATM   15  N1  UNL     1      68.523  79.017  23.914  1.00  0.00    -0.363 N 
ATOM     16  H1  UNL     1      68.992  78.968  23.010  1.00  0.00     0.162 HD
BRANCH  15  17
HETATM   17  C6  UNL     1      68.015  77.925  24.407  1.00  0.00     0.168 A 
HETATM   18  C5  UNL     1      68.722  76.861  24.928  1.00  0.00     0.085 A 
HETATM   19  C4  UNL     1      67.811  75.887  25.353  1.00  0.00     0.040 A 
HETATM   20  N2  UNL     1      66.608  76.427  25.059  1.00  0.00    -0.263 N 
HETATM   21  O2  UNL     1      66.756  77.597  24.517  1.00  0.00    -0.220 OA
ATOM     22  H2  UNL     1      65.710  75.979  25.237  1.00  0.00     0.194 HD
BRANCH  19  23
HETATM   23  C2  UNL     1      68.127  74.593  25.969  1.00  0.00     0.029 C 
HETATM   24  C1  UNL     1      69.392  73.976  25.403  1.00  0.00     0.016 C 
HETATM   25  C3  UNL     1      68.293  74.677  27.462  1.00  0.00     0.016 C 
ENDBRANCH  19  23
ENDBRANCH  15  17
ENDBRANCH   1  15
BRANCH  11  26
HETATM   26  O1  UNL     1      71.670  79.500  28.217  1.00  0.00    -0.395 OA
ATOM     27  H1  UNL     1      71.879  78.581  28.105  1.00  0.00     0.210 HD
ENDBRANCH  11  26
TORSDOF 4
ENDMDL
MODEL 5
REMARK VINA RESULT: -7.214251040      2.687      4.196
REMARK  4 active torsions:
REMARK  status: ('A' for Active; 'I' for Inactive)
REMARK    1  A    between atoms: C2_2  and  C4_4 
REMARK    2  A    between atoms: C6_6  and  N1_7 
REMARK    3  A    between atoms: N1_7  and  C7_9 
REMARK    4  A    between atoms: C16_19  and  O1_20 
ROOT
HETATM    1  C7  UNL     1      70.659  78.998  23.638  1.00  0.00     0.096 C 
HETATM    2  C8  UNL     1      72.012  79.614  23.610  1.00  0.00     0.005 C 
HETATM    3  C9  UNL     1      72.568  79.516  25.041  1.00  0.00     0.012 C 
HETATM    4  C10 UNL     1      72.106  81.025  23.201  1.00  0.00     0.007 C 
HETATM    5  C11 UNL     1      71.189  81.480  22.124  1.00  0.00     0.009 C 
HETATM    6  C12 UNL     1      70.318  80.334  21.680  1.00  0.00     0.035 C 
HETATM    7  C13 UNL     1      69.428  80.645  20.534  1.00  0.00     0.106 C 
HETATM    8  C14 UNL     1      69.971  81.812  19.733  1.00  0.00     0.052 C 
HETATM    9  F1  UNL     1      69.385  79.566  19.650  1.00  0.00    -0.243 F 
HETATM   10  C15 UNL     1      67.994  80.927  20.909  1.00  0.00     0.075 C 
HETATM   11  C16 UNL     1      67.422  79.923  21.848  1.00  0.00     0.122 C 
HETATM   12  C17 UNL     1      68.449  78.983  22.438  1.00  0.00     0.043 C 
HETATM   13  C18 UNL     1      69.611  79.823  22.899  1.00  0.00    -0.014 C 
HETATM   14  C19 UNL     1      69.116  80.858  23.833  1.00  0.00     0.018 C 
ENDROOT
BRANCH   1  15
HETATM   15  N1  UNL     1      70.203  78.611  24.948  1.00  0.00    -0.363 N 
ATOM     16  H1  UNL     1      70.257  79.296  25.702  1.00  0.00     0.162 HD
BRANCH  15  17
HETATM   17  C6  UNL     1      69.726  77.431  25.218  1.00  0.00     0.168 A 
HETATM   18  C5  UNL     1      68.528  77.162  25.846  1.00  0.00     0.085 A 
HETATM   19  C4  UNL     1      68.381  75.773  25.947  1.00  0.00     0.040 A 
HETATM   20  N2  UNL     1      69.505  75.292  25.372  1.00  0.00    -0.263 N 
HETATM   21  O2  UNL     1      70.258  76.266  24.963  1.00  0.00    -0.220 OA
ATOM     22  H2  UNL     1      69.730  74.302  25.273  1.00  0.00     0.194 HD
BRANCH  19  23
HETATM   23  C2  UNL     1      67.254  75.047  26.545  1.00  0.00     0.029 C 
HETATM   24  C1  UNL     1      67.487  74.723  28.009  1.00  0.00     0.016 C 
HETATM   25  C3  UNL     1      65.953  75.796  26.448  1.00  0.00     0.016 C 
ENDBRANCH  19  23
ENDBRANCH  15  17
ENDBRANCH   1  15
BRANCH  11  26
HETATM   26  O1  UNL     1      66.351  79.197  21.279  1.00  0.00    -0.395 OA
ATOM     27  H1  UNL     1      65.811  78.771  21.934  1.00  0.00     0.210 HD
ENDBRANCH  11  26
TORSDOF 4
ENDMDL
