MODEL 1
REMARK VINA RESULT: -6.183793684      0.000      0.000
REMARK  2 active torsions:
REMARK  status: ('A' for Active; 'I' for Inactive)
REMARK    1  A    between atoms: N2_8  and  C4_9 
REMARK    2  A    between atoms: C4_9  and  C5_10 
ROOT
HETATM    1  C5  UNL     1      69.909  77.440  25.823  1.00  0.00     0.008 C 
HETATM    2  C6  UNL     1      71.300  77.075  26.176  1.00  0.00     0.039 C 
HETATM    3  C7  UNL     1      72.039  78.167  26.911  1.00  0.00     0.186 C 
HETATM    4  C8  UNL     1      73.423  78.351  26.331  1.00  0.00     0.033 C 
HETATM    5  C9  UNL     1      73.437  79.142  25.062  1.00  0.00     0.004 C 
HETATM    6  C10 UNL     1      72.101  79.415  24.461  1.00  0.00     0.033 C 
HETATM    7  C11 UNL     1      71.001  79.663  25.447  1.00  0.00     0.186 C 
HETATM    8  C12 UNL     1      69.784  78.790  25.162  1.00  0.00     0.039 C 
HETATM    9  N3  UNL     1      71.364  79.444  26.813  1.00  0.00    -0.067 N 
ATOM     10  H31 UNL     1      71.917  80.210  27.199  1.00  0.00     0.278 HD
ATOM     11  H32 UNL     1      70.567  79.515  27.446  1.00  0.00     0.278 HD
ENDROOT
BRANCH   1  12
HETATM   12  C4  UNL     1      69.189  76.423  24.990  1.00  0.00     0.137 C 
BRANCH  12  13
HETATM   13  N2  UNL     1      67.778  76.350  25.190  1.00  0.00    -0.316 N 
HETATM   14  C1  UNL     1      66.730  76.825  24.500  1.00  0.00     0.178 A 
HETATM   15  S1  UNL     1      66.821  77.711  23.144  1.00  0.00    -0.040 SA
HETATM   16  N1  UNL     1      65.560  76.476  25.094  1.00  0.00    -0.340 N 
HETATM   17  C2  UNL     1      65.851  75.763  26.189  1.00  0.00     0.128 A 
ATOM     18  H1  UNL     1      64.625  76.714  24.764  1.00  0.00     0.167 HD
HETATM   19  C3  UNL     1      67.225  75.691  26.240  1.00  0.00     0.099 A 
HETATM   20 BR1  UNL     1      68.160  74.775  27.622  1.00  0.00    -0.029 Br
ENDBRANCH  12  13
ENDBRANCH   1  12
TORSDOF 2
ENDMDL
MODEL 2
REMARK VINA RESULT: -6.176747208      0.970      1.641
REMARK  2 active torsions:
REMARK  status: ('A' for Active; 'I' for Inactive)
REMARK    1  A    between atoms: N2_8  and  C4_9 
REMARK    2  A    between atoms: C4_9  and  C5_10 
ROOT
HETATM    1  C5  UNL     1      69.931  77.606  24.756  1.00  0.00     0.008 C 
HETATM    2  C6  UNL     1      69.699  78.493  25.920  1.00  0.00     0.039 C 
HETATM    3  C7  UNL     1      70.508  79.767  25.872  1.00  0.00     0.186 C 
HETATM    4  C8  UNL     1      71.147  80.036  27.216  1.00  0.00     0.033 C 
HETATM    5  C9  UNL     1      72.375  79.219  27.466  1.00  0.00     0.004 C 
HETATM    6  C10 UNL     1      72.634  78.131  26.482  1.00  0.00     0.033 C 
HETATM    7  C11 UNL     1      72.267  78.456  25.066  1.00  0.00     0.186 C 
HETATM    8  C12 UNL     1      71.389  77.372  24.451  1.00  0.00     0.039 C 
HETATM    9  N3  UNL     1      71.578  79.699  24.899  1.00  0.00    -0.067 N 
ATOM     10  H31 UNL     1      72.204  80.503  24.949  1.00  0.00     0.278 HD
ATOM     11  H32 UNL     1      71.247  79.838  23.944  1.00  0.00     0.278 HD
ENDROOT
BRANCH   1  12
HETATM   12  C4  UNL     1      69.232  76.282  24.833  1.00  0.00     0.137 C 
BRANCH  12  13
HETATM   13  N2  UNL     1      67.828  76.341  25.082  1.00  0.00    -0.316 N 
HETATM   14  C1  UNL     1      66.801  76.884  24.410  1.00  0.00     0.178 A 
HETATM   15  S1  UNL     1      66.920  77.715  23.021  1.00  0.00    -0.040 SA
HETATM   16  N1  UNL     1      65.628  76.658  25.054  1.00  0.00    -0.340 N 
HETATM   17  C2  UNL     1      65.894  75.959  26.164  1.00  0.00     0.128 A 
ATOM     18  H1  UNL     1      64.705  76.967  24.747  1.00  0.00     0.167 HD
HETATM   19  C3  UNL     1      67.258  75.767  26.171  1.00  0.00     0.099 A 
HETATM   20 BR1  UNL     1      68.159  74.817  27.554  1.00  0.00    -0.029 Br
ENDBRANCH  12  13
ENDBRANCH   1  12
TORSDOF 2
ENDMDL
MODEL 3
REMARK VINA RESULT: -6.110407974      1.649      1.953
REMARK  2 active torsions:
REMARK  status: ('A' for Active; 'I' for Inactive)
REMARK    1  A    between atoms: N2_8  and  C4_9 
REMARK    2  A    between atoms: C4_9  and  C5_10 
ROOT
HETATM    1  C5  UNL     1      71.051  78.458  26.298  1.00  0.00     0.008 C 
HETATM    2  C6  UNL     1      72.206  77.616  26.687  1.00  0.00     0.039 C 
HETATM    3  C7  UNL     1      73.000  78.183  27.839  1.00  0.00     0.186 C 
HETATM    4  C8  UNL     1      74.482  78.114  27.543  1.00  0.00     0.033 C 
HETATM    5  C9  UNL     1      74.958  79.198  26.630  1.00  0.00     0.004 C 
HETATM    6  C10 UNL     1      73.889  80.011  25.986  1.00  0.00     0.033 C 
HETATM    7  C11 UNL     1      72.689  80.274  26.844  1.00  0.00     0.186 C 
HETATM    8  C12 UNL     1      71.394  79.916  26.122  1.00  0.00     0.039 C 
HETATM    9  N3  UNL     1      72.682  79.573  28.091  1.00  0.00    -0.067 N 
ATOM     10  H31 UNL     1      73.301  79.997  28.782  1.00  0.00     0.278 HD
ATOM     11  H32 UNL     1      71.805  79.687  28.599  1.00  0.00     0.278 HD
ENDROOT
BRANCH   1  12
HETATM   12  C4  UNL     1      70.314  77.982  25.083  1.00  0.00     0.137 C 
BRANCH  12  13
HETATM   13  N2  UNL     1      68.918  77.745  25.264  1.00  0.00    -0.316 N 
HETATM   14  C1  UNL     1      67.831  78.516  25.107  1.00  0.00     0.178 A 
HETATM   15  S1  UNL     1      67.840  80.074  24.652  1.00  0.00    -0.040 SA
HETATM   16  N1  UNL     1      66.700  77.821  25.393  1.00  0.00    -0.340 N 
HETATM   17  C2  UNL     1      67.056  76.580  25.742  1.00  0.00     0.128 A 
ATOM     18  H1  UNL     1      65.747  78.182  25.348  1.00  0.00     0.167 HD
HETATM   19  C3  UNL     1      68.430  76.542  25.659  1.00  0.00     0.099 A 
HETATM   20 BR1  UNL     1      69.446  74.983  26.059  1.00  0.00    -0.029 Br
ENDBRANCH  12  13
ENDBRANCH   1  12
TORSDOF 2
ENDMDL
MODEL 4
REMARK VINA RESULT: -5.939445833      1.940      2.100
REMARK  2 active torsions:
REMARK  status: ('A' for Active; 'I' for Inactive)
REMARK    1  A    between atoms: N2_8  and  C4_9 
REMARK    2  A    between atoms: C4_9  and  C5_10 
ROOT
HETATM    1  C5  UNL     1      69.923  77.530  25.758  1.00  0.00     0.008 C 
HETATM    2  C6  UNL     1      71.315  77.101  26.034  1.00  0.00     0.039 C 
HETATM    3  C7  UNL     1      72.085  78.080  26.886  1.00  0.00     0.186 C 
HETATM    4  C8  UNL     1      73.462  78.315  26.306  1.00  0.00     0.033 C 
HETATM    5  C9  UNL     1      73.467  79.260  25.147  1.00  0.00     0.004 C 
HETATM    6  C10 UNL     1      72.126  79.627  24.612  1.00  0.00     0.033 C 
HETATM    7  C11 UNL     1      71.048  79.766  25.644  1.00  0.00     0.186 C 
HETATM    8  C12 UNL     1      69.811  78.955  25.275  1.00  0.00     0.039 C 
HETATM    9  N3  UNL     1      71.432  79.370  26.964  1.00  0.00    -0.067 N 
ATOM     10  H31 UNL     1      72.006  80.072  27.432  1.00  0.00     0.278 HD
ATOM     11  H32 UNL     1      70.648  79.373  27.617  1.00  0.00     0.278 HD
ENDROOT
BRANCH   1  12
HETATM   12  C4  UNL     1      69.171  76.638  24.818  1.00  0.00     0.137 C 
BRANCH  12  13
HETATM   13  N2  UNL     1      67.768  76.531  25.061  1.00  0.00    -0.316 N 
HETATM   14  C1  UNL     1      67.049  75.922  26.015  1.00  0.00     0.178 A 
HETATM   15  S1  UNL     1      67.658  75.045  27.237  1.00  0.00    -0.040 SA
HETATM   16  N1  UNL     1      65.720  76.122  25.822  1.00  0.00    -0.340 N 
HETATM   17  C2  UNL     1      65.572  76.873  24.723  1.00  0.00     0.128 A 
ATOM     18  H1  UNL     1      64.967  75.765  26.410  1.00  0.00     0.167 HD
HETATM   19  C3  UNL     1      66.845  77.121  24.260  1.00  0.00     0.099 A 
HETATM   20 BR1  UNL     1      67.193  78.158  22.702  1.00  0.00    -0.029 Br
ENDBRANCH  12  13
ENDBRANCH   1  12
TORSDOF 2
ENDMDL
MODEL 5
REMARK VINA RESULT: -5.900604718      3.027      5.941
REMARK  2 active torsions:
REMARK  status: ('A' for Active; 'I' for Inactive)
REMARK    1  A    between atoms: N2_8  and  C4_9 
REMARK    2  A    between atoms: C4_9  and  C5_10 
ROOT
HETATM    1  C5  UNL     1      68.494  78.318  25.159  1.00  0.00     0.008 C 
HETATM    2  C6  UNL     1      68.909  77.056  25.817  1.00  0.00     0.039 C 
HETATM    3  C7  UNL     1      68.448  75.820  25.085  1.00  0.00     0.186 C 
HETATM    4  C8  UNL     1      67.859  74.821  26.055  1.00  0.00     0.033 C 
HETATM    5  C9  UNL     1      66.459  75.145  26.467  1.00  0.00     0.004 C 
HETATM    6  C10 UNL     1      65.962  76.487  26.054  1.00  0.00     0.033 C 
HETATM    7  C11 UNL     1      66.440  76.955  24.713  1.00  0.00     0.186 C 
HETATM    8  C12 UNL     1      67.033  78.358  24.786  1.00  0.00     0.039 C 
HETATM    9  N3  UNL     1      67.425  76.114  24.104  1.00  0.00    -0.067 N 
ATOM     10  H31 UNL     1      67.020  75.271  23.695  1.00  0.00     0.278 HD
ATOM     11  H32 UNL     1      67.807  76.516  23.248  1.00  0.00     0.278 HD
ENDROOT
BRANCH   1  12
HETATM   12  C4  UNL     1      68.834  79.561  25.924  1.00  0.00     0.137 C 
BRANCH  12  13
HETATM   13  N2  UNL     1      69.825  80.399  25.329  1.00  0.00    -0.316 N 
HETATM   14  C1  UNL     1      71.166  80.374  25.332  1.00  0.00     0.178 A 
HETATM   15  S1  UNL     1      72.085  79.289  26.114  1.00  0.00    -0.040 SA
HETATM   16  N1  UNL     1      71.671  81.395  24.594  1.00  0.00    -0.340 N 
HETATM   17  C2  UNL     1      70.642  82.098  24.104  1.00  0.00     0.128 A 
ATOM     18  H1  UNL     1      72.660  81.593  24.439  1.00  0.00     0.167 HD
HETATM   19  C3  UNL     1      69.504  81.473  24.564  1.00  0.00     0.099 A 
HETATM   20 BR1  UNL     1      67.751  82.085  24.148  1.00  0.00    -0.029 Br
ENDBRANCH  12  13
ENDBRANCH   1  12
TORSDOF 2
ENDMDL
