MODEL 1
REMARK VINA RESULT: -6.133475941      0.000      0.000
REMARK  2 active torsions:
REMARK  status: ('A' for Active; 'I' for Inactive)
REMARK    1  A    between atoms: C2_2  and  C3_4 
REMARK    2  A    between atoms: C3_4  and  C6_7 
ROOT
HETATM    1  C6  UNL     1      67.877  79.780  23.780  1.00  0.00     0.012 A 
HETATM    2  C7  UNL     1      67.833  79.921  22.411  1.00  0.00     0.097 A 
HETATM    3  C8  UNL     1      68.332  81.038  21.605  1.00  0.00     0.107 C 
HETATM    4  N1  UNL     1      68.709  81.907  20.956  1.00  0.00    -0.191 NA
HETATM    5  S1  UNL     1      67.037  78.508  21.892  1.00  0.00    -0.058 SA
HETATM    6  C9  UNL     1      66.778  77.772  23.402  1.00  0.00     0.105 A 
HETATM    7  N2  UNL     1      66.255  76.686  24.020  1.00  0.00    -0.325 N 
ATOM      8  H2  UNL     1      65.795  75.892  23.575  1.00  0.00     0.169 HD
HETATM    9  C10 UNL     1      66.460  76.859  25.333  1.00  0.00     0.177 A 
HETATM   10  S2  UNL     1      66.022  75.831  26.554  1.00  0.00    -0.040 SA
HETATM   11  N3  UNL     1      67.098  78.031  25.501  1.00  0.00    -0.330 N 
ATOM     12  H3  UNL     1      67.379  78.411  26.405  1.00  0.00     0.168 HD
HETATM   13  C11 UNL     1      67.322  78.651  24.294  1.00  0.00     0.078 A 
ENDROOT
BRANCH   1  14
HETATM   14  C3  UNL     1      68.560  80.877  24.590  1.00  0.00     0.017 C 
HETATM   15  C4  UNL     1      67.816  82.186  24.290  1.00  0.00     0.026 C 
HETATM   16  C5  UNL     1      68.480  80.673  26.064  1.00  0.00     0.026 C 
BRANCH  14  17
HETATM   17  C2  UNL     1      69.994  81.013  24.227  1.00  0.00    -0.008 C 
HETATM   18  C1  UNL     1      70.523  82.212  24.118  1.00  0.00     0.028 C 
HETATM   19 BR1  UNL     1      71.060  79.485  23.871  1.00  0.00    -0.055 Br
ENDBRANCH  14  17
ENDBRANCH   1  14
TORSDOF 2
ENDMDL
MODEL 2
REMARK VINA RESULT: -5.782634040      2.375      2.819
REMARK  2 active torsions:
REMARK  status: ('A' for Active; 'I' for Inactive)
REMARK    1  A    between atoms: C2_2  and  C3_4 
REMARK    2  A    between atoms: C3_4  and  C6_7 
ROOT
HETATM    1  C6  UNL     1      69.426  78.127  24.350  1.00  0.00     0.012 A 
HETATM    2  C7  UNL     1      69.238  78.860  23.200  1.00  0.00     0.097 A 
HETATM    3  C8  UNL     1      70.220  79.679  22.484  1.00  0.00     0.107 C 
HETATM    4  N1  UNL     1      70.973  80.332  21.914  1.00  0.00    -0.191 NA
HETATM    5  S1  UNL     1      67.595  78.608  22.833  1.00  0.00    -0.058 SA
HETATM    6  C9  UNL     1      67.179  77.591  24.129  1.00  0.00     0.105 A 
HETATM    7  N2  UNL     1      66.167  76.891  24.696  1.00  0.00    -0.325 N 
ATOM      8  H2  UNL     1      65.206  76.826  24.361  1.00  0.00     0.169 HD
HETATM    9  C10 UNL     1      66.677  76.299  25.785  1.00  0.00     0.177 A 
HETATM   10  S2  UNL     1      65.877  75.320  26.853  1.00  0.00    -0.040 SA
HETATM   11  N3  UNL     1      67.975  76.639  25.870  1.00  0.00    -0.330 N 
ATOM     12  H3  UNL     1      68.606  76.325  26.608  1.00  0.00     0.168 HD
HETATM   13  C11 UNL     1      68.341  77.464  24.833  1.00  0.00     0.078 A 
ENDROOT
BRANCH   1  14
HETATM   14  C3  UNL     1      70.822  78.102  24.962  1.00  0.00     0.017 C 
HETATM   15  C4  UNL     1      70.818  77.013  26.045  1.00  0.00     0.026 C 
HETATM   16  C5  UNL     1      71.895  77.733  23.996  1.00  0.00     0.026 C 
BRANCH  14  17
HETATM   17  C2  UNL     1      71.180  79.413  25.562  1.00  0.00    -0.008 C 
HETATM   18  C1  UNL     1      72.408  79.866  25.439  1.00  0.00     0.028 C 
HETATM   19 BR1  UNL     1      69.905  80.419  26.541  1.00  0.00    -0.055 Br
ENDBRANCH  14  17
ENDBRANCH   1  14
TORSDOF 2
ENDMDL
MODEL 3
REMARK VINA RESULT: -5.740625530      2.538      4.734
REMARK  2 active torsions:
REMARK  status: ('A' for Active; 'I' for Inactive)
REMARK    1  A    between atoms: C2_2  and  C3_4 
REMARK    2  A    between atoms: C3_4  and  C6_7 
ROOT
HETATM    1  C6  UNL     1      69.468  78.597  23.858  1.00  0.00     0.012 A 
HETATM    2  C7  UNL     1      68.649  77.645  24.422  1.00  0.00     0.097 A 
HETATM    3  C8  UNL     1      68.912  76.815  25.600  1.00  0.00     0.107 C 
HETATM    4  N1  UNL     1      69.103  76.150  26.516  1.00  0.00    -0.191 NA
HETATM    5  S1  UNL     1      67.281  77.647  23.408  1.00  0.00    -0.058 SA
HETATM    6  C9  UNL     1      67.766  78.841  22.299  1.00  0.00     0.105 A 
HETATM    7  N2  UNL     1      67.399  79.524  21.189  1.00  0.00    -0.325 N 
ATOM      8  H2  UNL     1      66.527  79.422  20.670  1.00  0.00     0.169 HD
HETATM    9  C10 UNL     1      68.406  80.361  20.905  1.00  0.00     0.177 A 
HETATM   10  S2  UNL     1      68.487  81.434  19.648  1.00  0.00    -0.040 SA
HETATM   11  N3  UNL     1      69.364  80.183  21.833  1.00  0.00    -0.330 N 
ATOM     12  H3  UNL     1      70.246  80.695  21.856  1.00  0.00     0.168 HD
HETATM   13  C11 UNL     1      69.000  79.221  22.744  1.00  0.00     0.078 A 
ENDROOT
BRANCH   1  14
HETATM   14  C3  UNL     1      70.803  78.886  24.537  1.00  0.00     0.017 C 
HETATM   15  C4  UNL     1      71.575  77.559  24.591  1.00  0.00     0.026 C 
HETATM   16  C5  UNL     1      71.662  79.845  23.789  1.00  0.00     0.026 C 
BRANCH  14  17
HETATM   17  C2  UNL     1      70.613  79.419  25.910  1.00  0.00    -0.008 C 
HETATM   18  C1  UNL     1      71.460  79.082  26.858  1.00  0.00     0.028 C 
HETATM   19 BR1  UNL     1      69.142  80.542  26.327  1.00  0.00    -0.055 Br
ENDBRANCH  14  17
ENDBRANCH   1  14
TORSDOF 2
ENDMDL
MODEL 4
REMARK VINA RESULT: -5.717919369      1.795      2.290
REMARK  2 active torsions:
REMARK  status: ('A' for Active; 'I' for Inactive)
REMARK    1  A    between atoms: C2_2  and  C3_4 
REMARK    2  A    between atoms: C3_4  and  C6_7 
ROOT
HETATM    1  C6  UNL     1      69.016  79.242  22.722  1.00  0.00     0.012 A 
HETATM    2  C7  UNL     1      68.181  79.770  21.763  1.00  0.00     0.097 A 
HETATM    3  C8  UNL     1      68.425  80.926  20.896  1.00  0.00     0.107 C 
HETATM    4  N1  UNL     1      68.595  81.833  20.212  1.00  0.00    -0.191 NA
HETATM    5  S1  UNL     1      66.798  78.781  21.852  1.00  0.00    -0.058 SA
HETATM    6  C9  UNL     1      67.296  77.728  23.089  1.00  0.00     0.105 A 
HETATM    7  N2  UNL     1      66.929  76.660  23.838  1.00  0.00    -0.325 N 
ATOM      8  H2  UNL     1      66.047  76.151  23.784  1.00  0.00     0.169 HD
HETATM    9  C10 UNL     1      67.953  76.403  24.663  1.00  0.00     0.177 A 
HETATM   10  S2  UNL     1      68.042  75.200  25.796  1.00  0.00    -0.040 SA
HETATM   11  N3  UNL     1      68.921  77.303  24.413  1.00  0.00    -0.330 N 
ATOM     12  H3  UNL     1      69.817  77.337  24.901  1.00  0.00     0.168 HD
HETATM   13  C11 UNL     1      68.546  78.171  23.415  1.00  0.00     0.078 A 
ENDROOT
BRANCH   1  14
HETATM   14  C3  UNL     1      70.390  79.880  22.905  1.00  0.00     0.017 C 
HETATM   15  C4  UNL     1      71.171  78.989  23.882  1.00  0.00     0.026 C 
HETATM   16  C5  UNL     1      71.195  79.941  21.653  1.00  0.00     0.026 C 
BRANCH  14  17
HETATM   17  C2  UNL     1      70.284  81.258  23.447  1.00  0.00    -0.008 C 
HETATM   18  C1  UNL     1      71.090  82.194  22.996  1.00  0.00     0.028 C 
HETATM   19 BR1  UNL     1      69.037  81.678  24.813  1.00  0.00    -0.055 Br
ENDBRANCH  14  17
ENDBRANCH   1  14
TORSDOF 2
ENDMDL
MODEL 5
REMARK VINA RESULT: -5.698791649      1.492      1.884
REMARK  2 active torsions:
REMARK  status: ('A' for Active; 'I' for Inactive)
REMARK    1  A    between atoms: C2_2  and  C3_4 
REMARK    2  A    between atoms: C3_4  and  C6_7 
ROOT
HETATM    1  C6  UNL     1      68.349  78.762  23.636  1.00  0.00     0.012 A 
HETATM    2  C7  UNL     1      67.994  79.065  22.341  1.00  0.00     0.097 A 
HETATM    3  C8  UNL     1      68.673  79.971  21.411  1.00  0.00     0.107 C 
HETATM    4  N1  UNL     1      69.186  80.682  20.669  1.00  0.00    -0.191 NA
HETATM    5  S1  UNL     1      66.571  78.162  22.098  1.00  0.00    -0.058 SA
HETATM    6  C9  UNL     1      66.452  77.425  23.625  1.00  0.00     0.105 A 
HETATM    7  N2  UNL     1      65.714  76.579  24.383  1.00  0.00    -0.325 N 
ATOM      8  H2  UNL     1      64.862  76.095  24.102  1.00  0.00     0.169 HD
HETATM    9  C10 UNL     1      66.324  76.502  25.573  1.00  0.00     0.177 A 
HETATM   10  S2  UNL     1      65.849  75.605  26.881  1.00  0.00    -0.040 SA
HETATM   11  N3  UNL     1      67.413  77.291  25.530  1.00  0.00    -0.330 N 
ATOM     12  H3  UNL     1      68.063  77.418  26.306  1.00  0.00     0.168 HD
HETATM   13  C11 UNL     1      67.536  77.902  24.305  1.00  0.00     0.078 A 
ENDROOT
BRANCH   1  14
HETATM   14  C3  UNL     1      69.622  79.390  24.195  1.00  0.00     0.017 C 
HETATM   15  C4  UNL     1      69.835  78.800  25.597  1.00  0.00     0.026 C 
HETATM   16  C5  UNL     1      70.846  79.065  23.409  1.00  0.00     0.026 C 
BRANCH  14  17
HETATM   17  C2  UNL     1      69.512  80.869  24.277  1.00  0.00    -0.008 C 
HETATM   18  C1  UNL     1      70.578  81.609  24.071  1.00  0.00     0.028 C 
HETATM   19 BR1  UNL     1      67.866  81.702  24.720  1.00  0.00    -0.055 Br
ENDBRANCH  14  17
ENDBRANCH   1  14
TORSDOF 2
ENDMDL
