MODEL 1
REMARK VINA RESULT: -4.565432113      0.000      0.000
REMARK  1 active torsions:
REMARK  status: ('A' for Active; 'I' for Inactive)
REMARK    1  A    between atoms: C2_2  and  N1_4 
ROOT
HETATM    1  N1  UNL     1      46.581  67.199  56.134  1.00  0.00     0.106 N 
HETATM    2  C4  UNL     1      47.238  67.640  57.346  1.00  0.00     0.224 C 
HETATM    3  C5  UNL     1      48.047  68.813  57.190  1.00  0.00     0.042 C 
HETATM    4  C6  UNL     1      49.319  68.341  56.451  1.00  0.00     0.071 C 
HETATM    5  C7  UNL     1      49.135  67.245  55.528  1.00  0.00     0.075 C 
HETATM    6  S1  UNL     1      49.655  67.626  54.010  1.00  0.00    -0.066 SA
HETATM    7  N2  UNL     1      48.638  65.887  55.480  1.00  0.00    -0.349 N 
ATOM      8  H2  UNL     1      49.110  65.337  54.763  1.00  0.00     0.163 HD
HETATM    9  C8  UNL     1      47.647  65.110  56.186  1.00  0.00     0.241 C 
HETATM   10  C9  UNL     1      47.251  64.047  55.204  1.00  0.00     0.109 C 
HETATM   11  N3  UNL     1      46.934  63.233  54.424  1.00  0.00    -0.193 NA
HETATM   12  C10 UNL     1      48.245  64.301  57.277  1.00  0.00     0.109 C 
HETATM   13  N4  UNL     1      48.715  63.685  58.146  1.00  0.00    -0.193 NA
HETATM   14  C11 UNL     1      46.400  65.793  56.550  1.00  0.00     0.281 C 
HETATM   15  C12 UNL     1      45.984  65.900  57.979  1.00  0.00     0.043 C 
HETATM   16  C13 UNL     1      46.180  67.405  58.344  1.00  0.00     0.038 C 
ENDROOT
BRANCH   1  17
HETATM   17  C2  UNL     1      45.322  67.739  55.874  1.00  0.00     0.216 C 
HETATM   18  C1  UNL     1      44.759  67.007  54.638  1.00  0.00     0.042 C 
HETATM   19  C3  UNL     1      45.223  69.176  55.512  1.00  0.00     0.042 C 
ENDBRANCH   1  17
TORSDOF 1
ENDMDL
MODEL 2
REMARK VINA RESULT: -4.546007797      7.057      9.430
REMARK  1 active torsions:
REMARK  status: ('A' for Active; 'I' for Inactive)
REMARK    1  A    between atoms: C2_2  and  N1_4 
ROOT
HETATM    1  N1  UNL     1      47.859  73.510  58.163  1.00  0.00     0.106 N 
HETATM    2  C4  UNL     1      49.280  73.663  58.391  1.00  0.00     0.224 C 
HETATM    3  C5  UNL     1      49.839  72.716  59.310  1.00  0.00     0.042 C 
HETATM    4  C6  UNL     1      49.377  73.178  60.710  1.00  0.00     0.071 C 
HETATM    5  C7  UNL     1      48.087  73.827  60.758  1.00  0.00     0.075 C 
HETATM    6  S1  UNL     1      47.063  73.079  61.813  1.00  0.00    -0.066 SA
HETATM    7  N2  UNL     1      47.368  74.943  60.184  1.00  0.00    -0.349 N 
ATOM      8  H2  UNL     1      46.662  75.308  60.824  1.00  0.00     0.163 HD
HETATM    9  C8  UNL     1      47.391  75.674  58.939  1.00  0.00     0.241 C 
HETATM   10  C9  UNL     1      46.002  76.225  58.815  1.00  0.00     0.109 C 
HETATM   11  N3  UNL     1      44.909  76.636  58.716  1.00  0.00    -0.193 NA
HETATM   12  C10 UNL     1      48.198  76.916  59.036  1.00  0.00     0.109 C 
HETATM   13  N4  UNL     1      48.850  77.877  59.110  1.00  0.00    -0.193 NA
HETATM   14  C11 UNL     1      47.617  74.897  57.715  1.00  0.00     0.281 C 
HETATM   15  C12 UNL     1      48.785  75.191  56.834  1.00  0.00     0.043 C 
HETATM   16  C13 UNL     1      49.752  73.982  57.032  1.00  0.00     0.038 C 
ENDROOT
BRANCH   1  17
HETATM   17  C2  UNL     1      47.480  72.649  57.133  1.00  0.00     0.216 C 
HETATM   18  C1  UNL     1      46.182  73.216  56.521  1.00  0.00     0.042 C 
HETATM   19  C3  UNL     1      47.132  71.245  57.468  1.00  0.00     0.042 C 
ENDBRANCH   1  17
TORSDOF 1
ENDMDL
MODEL 3
REMARK VINA RESULT: -4.460642100      4.861      6.492
REMARK  1 active torsions:
REMARK  status: ('A' for Active; 'I' for Inactive)
REMARK    1  A    between atoms: C2_2  and  N1_4 
ROOT
HETATM    1  N1  UNL     1      48.755  71.289  57.033  1.00  0.00     0.106 N 
HETATM    2  C4  UNL     1      48.702  70.078  57.825  1.00  0.00     0.224 C 
HETATM    3  C5  UNL     1      47.916  70.184  59.019  1.00  0.00     0.042 C 
HETATM    4  C6  UNL     1      48.771  71.013  60.004  1.00  0.00     0.071 C 
HETATM    5  C7  UNL     1      49.632  72.004  59.401  1.00  0.00     0.075 C 
HETATM    6  S1  UNL     1      49.349  73.512  60.007  1.00  0.00    -0.066 SA
HETATM    7  N2  UNL     1      50.690  72.129  58.422  1.00  0.00    -0.349 N 
ATOM      8  H2  UNL     1      51.315  72.906  58.638  1.00  0.00     0.163 HD
HETATM    9  C8  UNL     1      51.089  71.438  57.219  1.00  0.00     0.241 C 
HETATM   10  C9  UNL     1      51.834  72.477  56.434  1.00  0.00     0.109 C 
HETATM   11  N3  UNL     1      52.397  73.299  55.818  1.00  0.00    -0.193 NA
HETATM   12  C10 UNL     1      52.155  70.438  57.478  1.00  0.00     0.109 C 
HETATM   13  N4  UNL     1      52.975  69.639  57.688  1.00  0.00    -0.193 NA
HETATM   14  C11 UNL     1      50.017  70.969  56.333  1.00  0.00     0.281 C 
HETATM   15  C12 UNL     1      49.882  69.518  56.009  1.00  0.00     0.043 C 
HETATM   16  C13 UNL     1      48.602  69.053  56.772  1.00  0.00     0.038 C 
ENDROOT
BRANCH   1  17
HETATM   17  C2  UNL     1      47.757  71.451  56.072  1.00  0.00     0.216 C 
HETATM   18  C1  UNL     1      48.257  72.512  55.071  1.00  0.00     0.042 C 
HETATM   19  C3  UNL     1      46.431  71.963  56.502  1.00  0.00     0.042 C 
ENDBRANCH   1  17
TORSDOF 1
ENDMDL
MODEL 4
REMARK VINA RESULT: -4.382727293      4.178      6.619
REMARK  1 active torsions:
REMARK  status: ('A' for Active; 'I' for Inactive)
REMARK    1  A    between atoms: C2_2  and  N1_4 
ROOT
HETATM    1  N1  UNL     1      49.393  71.406  57.083  1.00  0.00     0.106 N 
HETATM    2  C4  UNL     1      49.289  72.847  56.990  1.00  0.00     0.224 C 
HETATM    3  C5  UNL     1      49.724  73.551  58.160  1.00  0.00     0.042 C 
HETATM    4  C6  UNL     1      48.602  73.352  59.203  1.00  0.00     0.071 C 
HETATM    5  C7  UNL     1      47.889  72.098  59.120  1.00  0.00     0.075 C 
HETATM    6  S1  UNL     1      47.932  71.270  60.545  1.00  0.00    -0.066 SA
HETATM    7  N2  UNL     1      47.123  71.300  58.186  1.00  0.00    -0.349 N 
ATOM      8  H2  UNL     1      46.429  70.724  58.662  1.00  0.00     0.163 HD
HETATM    9  C8  UNL     1      47.089  71.109  56.756  1.00  0.00     0.241 C 
HETATM   10  C9  UNL     1      46.533  69.726  56.587  1.00  0.00     0.109 C 
HETATM   11  N3  UNL     1      46.117  68.638  56.464  1.00  0.00    -0.193 NA
HETATM   12  C10 UNL     1      46.039  71.934  56.108  1.00  0.00     0.109 C 
HETATM   13  N4  UNL     1      45.230  72.599  55.600  1.00  0.00    -0.193 NA
HETATM   14  C11 UNL     1      48.377  71.104  56.053  1.00  0.00     0.281 C 
HETATM   15  C12 UNL     1      48.659  72.100  54.978  1.00  0.00     0.043 C 
HETATM   16  C13 UNL     1      49.711  73.073  55.596  1.00  0.00     0.038 C 
ENDROOT
BRANCH   1  17
HETATM   17  C2  UNL     1      50.602  70.840  56.679  1.00  0.00     0.216 C 
HETATM   18  C1  UNL     1      50.354  69.330  56.484  1.00  0.00     0.042 C 
HETATM   19  C3  UNL     1      51.760  70.895  57.607  1.00  0.00     0.042 C 
ENDBRANCH   1  17
TORSDOF 1
ENDMDL
MODEL 5
REMARK VINA RESULT: -4.335518465      6.575      8.557
REMARK  1 active torsions:
REMARK  status: ('A' for Active; 'I' for Inactive)
REMARK    1  A    between atoms: C2_2  and  N1_4 
ROOT
HETATM    1  N1  UNL     1      47.858  73.742  60.395  1.00  0.00     0.106 N 
HETATM    2  C4  UNL     1      49.043  74.573  60.405  1.00  0.00     0.224 C 
HETATM    3  C5  UNL     1      48.803  75.946  60.735  1.00  0.00     0.042 C 
HETATM    4  C6  UNL     1      48.155  76.566  59.477  1.00  0.00     0.071 C 
HETATM    5  C7  UNL     1      47.334  75.671  58.693  1.00  0.00     0.075 C 
HETATM    6  S1  UNL     1      45.805  76.256  58.495  1.00  0.00    -0.066 SA
HETATM    7  N2  UNL     1      47.400  74.403  58.000  1.00  0.00    -0.349 N 
ATOM      8  H2  UNL     1      46.754  74.369  57.211  1.00  0.00     0.163 HD
HETATM    9  C8  UNL     1      48.143  73.173  58.137  1.00  0.00     0.241 C 
HETATM   10  C9  UNL     1      47.254  72.140  57.511  1.00  0.00     0.109 C 
HETATM   11  N3  UNL     1      46.545  71.335  57.038  1.00  0.00    -0.193 NA
HETATM   12  C10 UNL     1      49.325  73.133  57.240  1.00  0.00     0.109 C 
HETATM   13  N4  UNL     1      50.263  73.114  56.551  1.00  0.00    -0.193 NA
HETATM   14  C11 UNL     1      48.400  72.697  59.501  1.00  0.00     0.281 C 
HETATM   15  C12 UNL     1      49.798  72.508  59.988  1.00  0.00     0.043 C 
HETATM   16  C13 UNL     1      50.024  73.659  61.018  1.00  0.00     0.038 C 
ENDROOT
BRANCH   1  17
HETATM   17  C2  UNL     1      47.506  73.140  61.602  1.00  0.00     0.216 C 
HETATM   18  C1  UNL     1      46.854  71.784  61.262  1.00  0.00     0.042 C 
HETATM   19  C3  UNL     1      46.504  73.810  62.469  1.00  0.00     0.042 C 
ENDBRANCH   1  17
TORSDOF 1
ENDMDL
