MODEL 1
REMARK VINA RESULT: -5.410691676      0.000      0.000
REMARK  2 active torsions:
REMARK  status: ('A' for Active; 'I' for Inactive)
REMARK    1  A    between atoms: C2_2  and  C3_3 
REMARK       I    between atoms: C3_3  and  N1_5 
REMARK    2  A    between atoms: N1_5  and  C4_7 
ROOT
HETATM    1  C4  UNL     1      47.659  70.700  62.133  1.00  0.00     0.161 C 
HETATM    2  S1  UNL     1      47.343  69.134  61.361  1.00  0.00    -0.013 SA
HETATM    3  N2  UNL     1      47.534  71.679  61.192  1.00  0.00    -0.324 N 
HETATM    4  C5  UNL     1      47.469  71.276  59.713  1.00  0.00     0.205 C 
HETATM    5  S2  UNL     1      48.696  72.493  59.048  1.00  0.00    -0.134 SA
HETATM    6  C6  UNL     1      48.667  73.620  60.528  1.00  0.00     0.041 C 
HETATM    7  C7  UNL     1      48.452  75.038  60.128  1.00  0.00     0.033 C 
HETATM    8  C8  UNL     1      49.898  73.344  61.299  1.00  0.00     0.033 C 
HETATM    9  C9  UNL     1      47.390  73.074  61.133  1.00  0.00     0.006 C 
HETATM   10  C10 UNL     1      46.758  73.788  62.206  1.00  0.00     0.065 C 
ENDROOT
BRANCH   1  11
HETATM   11  N1  UNL     1      47.820  70.539  63.491  1.00  0.00    -0.307 N 
HETATM   12  C3  UNL     1      47.094  70.613  64.660  1.00  0.00     0.223 C 
HETATM   13  O1  UNL     1      45.913  70.914  64.792  1.00  0.00    -0.273 OA
ATOM     14  H1  UNL     1      48.786  70.284  63.698  1.00  0.00     0.171 HD
BRANCH  12  15
HETATM   15  C2  UNL     1      47.795  70.291  65.987  1.00  0.00     0.099 C 
HETATM   16  C1  UNL     1      47.047  69.255  66.735  1.00  0.00     0.014 C 
ENDBRANCH  12  15
ENDBRANCH   1  11
TORSDOF 2
ENDMDL
MODEL 2
REMARK VINA RESULT: -4.906512712      2.767      3.729
REMARK  2 active torsions:
REMARK  status: ('A' for Active; 'I' for Inactive)
REMARK    1  A    between atoms: C2_2  and  C3_3 
REMARK       I    between atoms: C3_3  and  N1_5 
REMARK    2  A    between atoms: N1_5  and  C4_7 
ROOT
HETATM    1  C4  UNL     1      47.402  74.337  61.133  1.00  0.00     0.161 C 
HETATM    2  S1  UNL     1      46.725  75.930  61.521  1.00  0.00    -0.013 SA
HETATM    3  N2  UNL     1      48.248  74.473  60.071  1.00  0.00    -0.324 N 
HETATM    4  C5  UNL     1      48.223  75.782  59.272  1.00  0.00     0.205 C 
HETATM    5  S2  UNL     1      48.170  75.058  57.569  1.00  0.00    -0.134 SA
HETATM    6  C6  UNL     1      48.733  73.357  58.069  1.00  0.00     0.041 C 
HETATM    7  C7  UNL     1      49.861  72.886  57.219  1.00  0.00     0.033 C 
HETATM    8  C8  UNL     1      47.531  72.496  58.084  1.00  0.00     0.033 C 
HETATM    9  C9  UNL     1      49.265  73.747  59.432  1.00  0.00     0.006 C 
HETATM   10  C10 UNL     1      50.066  72.812  60.170  1.00  0.00     0.065 C 
ENDROOT
BRANCH   1  11
HETATM   11  N1  UNL     1      47.005  73.407  62.069  1.00  0.00    -0.307 N 
HETATM   12  C3  UNL     1      47.160  73.121  63.408  1.00  0.00     0.223 C 
HETATM   13  O1  UNL     1      47.828  73.732  64.234  1.00  0.00    -0.273 OA
ATOM     14  H1  UNL     1      46.406  72.708  61.631  1.00  0.00     0.171 HD
BRANCH  12  15
HETATM   15  C2  UNL     1      46.431  71.902  63.992  1.00  0.00     0.099 C 
HETATM   16  C1  UNL     1      46.712  71.770  65.440  1.00  0.00     0.014 C 
ENDBRANCH  12  15
ENDBRANCH   1  11
TORSDOF 2
ENDMDL
MODEL 3
REMARK VINA RESULT: -4.820373156      2.611      3.760
REMARK  2 active torsions:
REMARK  status: ('A' for Active; 'I' for Inactive)
REMARK    1  A    between atoms: C2_2  and  C3_3 
REMARK       I    between atoms: C3_3  and  N1_5 
REMARK    2  A    between atoms: N1_5  and  C4_7 
ROOT
HETATM    1  C4  UNL     1      47.462  73.845  61.024  1.00  0.00     0.161 C 
HETATM    2  S1  UNL     1      46.847  75.267  61.888  1.00  0.00    -0.013 SA
HETATM    3  N2  UNL     1      48.281  74.269  60.019  1.00  0.00    -0.324 N 
HETATM    4  C5  UNL     1      48.275  75.756  59.641  1.00  0.00     0.205 C 
HETATM    5  S2  UNL     1      48.150  75.567  57.804  1.00  0.00    -0.134 SA
HETATM    6  C6  UNL     1      48.673  73.782  57.761  1.00  0.00     0.041 C 
HETATM    7  C7  UNL     1      49.762  73.558  56.770  1.00  0.00     0.033 C 
HETATM    8  C8  UNL     1      47.446  72.981  57.567  1.00  0.00     0.033 C 
HETATM    9  C9  UNL     1      49.256  73.742  59.158  1.00  0.00     0.006 C 
HETATM   10  C10 UNL     1      50.048  72.614  59.559  1.00  0.00     0.065 C 
ENDROOT
BRANCH   1  11
HETATM   11  N1  UNL     1      47.063  72.690  61.660  1.00  0.00    -0.307 N 
HETATM   12  C3  UNL     1      47.563  71.462  62.036  1.00  0.00     0.223 C 
HETATM   13  O1  UNL     1      48.688  71.017  61.840  1.00  0.00    -0.273 OA
ATOM     14  H1  UNL     1      46.086  72.769  61.943  1.00  0.00     0.171 HD
BRANCH  12  15
HETATM   15  C2  UNL     1      46.645  70.493  62.795  1.00  0.00     0.099 C 
HETATM   16  C1  UNL     1      46.970  70.490  64.240  1.00  0.00     0.014 C 
ENDBRANCH  12  15
ENDBRANCH   1  11
TORSDOF 2
ENDMDL
MODEL 4
REMARK VINA RESULT: -4.626752256      6.194      7.034
REMARK  2 active torsions:
REMARK  status: ('A' for Active; 'I' for Inactive)
REMARK    1  A    between atoms: C2_2  and  C3_3 
REMARK       I    between atoms: C3_3  and  N1_5 
REMARK    2  A    between atoms: N1_5  and  C4_7 
ROOT
HETATM    1  C4  UNL     1      45.007  66.113  58.792  1.00  0.00     0.161 C 
HETATM    2  S1  UNL     1      45.210  64.400  59.209  1.00  0.00    -0.013 SA
HETATM    3  N2  UNL     1      45.663  66.354  57.621  1.00  0.00    -0.324 N 
HETATM    4  C5  UNL     1      46.634  65.292  57.088  1.00  0.00     0.205 C 
HETATM    5  S2  UNL     1      48.060  66.405  56.695  1.00  0.00    -0.134 SA
HETATM    6  C6  UNL     1      47.079  67.985  56.715  1.00  0.00     0.041 C 
HETATM    7  C7  UNL     1      47.324  68.792  55.488  1.00  0.00     0.033 C 
HETATM    8  C8  UNL     1      47.374  68.655  58.000  1.00  0.00     0.033 C 
HETATM    9  C9  UNL     1      45.713  67.339  56.623  1.00  0.00     0.006 C 
HETATM   10  C10 UNL     1      44.565  68.155  56.346  1.00  0.00     0.065 C 
ENDROOT
BRANCH   1  11
HETATM   11  N1  UNL     1      44.145  66.721  59.678  1.00  0.00    -0.307 N 
HETATM   12  C3  UNL     1      43.342  66.414  60.754  1.00  0.00     0.223 C 
HETATM   13  O1  UNL     1      43.156  65.314  61.263  1.00  0.00    -0.273 OA
ATOM     14  H1  UNL     1      44.081  67.718  59.470  1.00  0.00     0.171 HD
BRANCH  12  15
HETATM   15  C2  UNL     1      42.561  67.544  61.440  1.00  0.00     0.099 C 
HETATM   16  C1  UNL     1      41.114  67.229  61.481  1.00  0.00     0.014 C 
ENDBRANCH  12  15
ENDBRANCH   1  11
TORSDOF 2
ENDMDL
MODEL 5
REMARK VINA RESULT: -4.450085550      3.252      4.372
REMARK  2 active torsions:
REMARK  status: ('A' for Active; 'I' for Inactive)
REMARK    1  A    between atoms: C2_2  and  C3_3 
REMARK       I    between atoms: C3_3  and  N1_5 
REMARK    2  A    between atoms: N1_5  and  C4_7 
ROOT
HETATM    1  C4  UNL     1      47.664  74.575  60.041  1.00  0.00     0.161 C 
HETATM    2  S1  UNL     1      47.133  76.262  59.913  1.00  0.00    -0.013 SA
HETATM    3  N2  UNL     1      48.416  74.273  58.943  1.00  0.00    -0.324 N 
HETATM    4  C5  UNL     1      48.404  75.242  57.753  1.00  0.00     0.205 C 
HETATM    5  S2  UNL     1      48.147  74.003  56.401  1.00  0.00    -0.134 SA
HETATM    6  C6  UNL     1      48.639  72.518  57.407  1.00  0.00     0.041 C 
HETATM    7  C7  UNL     1      49.651  71.690  56.694  1.00  0.00     0.033 C 
HETATM    8  C8  UNL     1      47.389  71.827  57.788  1.00  0.00     0.033 C 
HETATM    9  C9  UNL     1      49.319  73.285  58.521  1.00  0.00     0.006 C 
HETATM   10  C10 UNL     1      50.121  72.575  59.477  1.00  0.00     0.065 C 
ENDROOT
BRANCH   1  11
HETATM   11  N1  UNL     1      47.295  74.048  61.259  1.00  0.00    -0.307 N 
HETATM   12  C3  UNL     1      47.069  72.829  61.860  1.00  0.00     0.223 C 
HETATM   13  O1  UNL     1      47.140  71.716  61.352  1.00  0.00    -0.273 OA
ATOM     14  H1  UNL     1      47.138  74.800  61.929  1.00  0.00     0.171 HD
BRANCH  12  15
HETATM   15  C2  UNL     1      46.679  72.799  63.345  1.00  0.00     0.099 C 
HETATM   16  C1  UNL     1      47.636  73.590  64.152  1.00  0.00     0.014 C 
ENDBRANCH  12  15
ENDBRANCH   1  11
TORSDOF 2
ENDMDL
