MODEL 1
REMARK VINA RESULT: -4.921634722      0.000      0.000
REMARK  2 active torsions:
REMARK  status: ('A' for Active; 'I' for Inactive)
REMARK    1  A    between atoms: C8_9  and  O1_10 
REMARK    2  A    between atoms: C13_16  and  C15_18 
ROOT
HETATM    1  C15 UNL     1      48.344  71.040  60.296  1.00  0.00     0.134 C 
HETATM    2  C16 UNL     1      47.451  71.764  61.230  1.00  0.00     0.059 C 
HETATM    3  N2  UNL     1      46.759  72.339  61.958  1.00  0.00    -0.197 NA
ENDROOT
BRANCH   1   4
HETATM    4  C13 UNL     1      49.049  72.068  59.480  1.00  0.00    -0.022 C 
HETATM    5  C6  UNL     1      50.052  71.466  58.523  1.00  0.00    -0.002 C 
HETATM    6  C5  UNL     1      50.734  72.462  57.677  1.00  0.00     0.010 C 
HETATM    7  C7  UNL     1      49.359  70.384  57.757  1.00  0.00     0.045 C 
HETATM    8  C4  UNL     1      49.898  73.566  57.135  1.00  0.00    -0.012 C 
HETATM    9  C3  UNL     1      49.480  73.369  55.699  1.00  0.00     0.040 C 
HETATM   10  C12 UNL     1      48.753  73.982  58.023  1.00  0.00     0.012 C 
HETATM   11  C2  UNL     1      48.215  72.618  55.514  1.00  0.00     0.226 C 
HETATM   12  N1  UNL     1      47.184  72.848  56.440  1.00  0.00     0.097 N 
HETATM   13  C9  UNL     1      48.510  71.140  55.609  1.00  0.00     0.076 C 
HETATM   14  C1  UNL     1      45.857  72.844  55.960  1.00  0.00     0.311 C 
HETATM   15  C10 UNL     1      47.392  71.950  57.587  1.00  0.00     0.262 C 
HETATM   16  C8  UNL     1      48.126  70.798  57.053  1.00  0.00     0.091 C 
HETATM   17  C11 UNL     1      48.035  72.772  58.628  1.00  0.00     0.032 C 
HETATM   18  C14 UNL     1      49.685  73.064  60.418  1.00  0.00     0.017 C 
BRANCH  16  19
HETATM   19  O1  UNL     1      47.308  69.646  56.937  1.00  0.00    -0.388 OA
ATOM     20  H1  UNL     1      47.230  69.452  56.011  1.00  0.00     0.210 HD
ENDBRANCH  16  19
ENDBRANCH   1   4
TORSDOF 2
ENDMDL
MODEL 2
REMARK VINA RESULT: -4.849035993      0.971      1.021
REMARK  2 active torsions:
REMARK  status: ('A' for Active; 'I' for Inactive)
REMARK    1  A    between atoms: C8_9  and  O1_10 
REMARK    2  A    between atoms: C13_16  and  C15_18 
ROOT
HETATM    1  C15 UNL     1      48.945  71.549  60.369  1.00  0.00     0.134 C 
HETATM    2  C16 UNL     1      47.771  71.970  61.168  1.00  0.00     0.059 C 
HETATM    3  N2  UNL     1      46.854  72.308  61.789  1.00  0.00    -0.197 NA
ENDROOT
BRANCH   1   4
HETATM    4  C13 UNL     1      49.103  72.542  59.270  1.00  0.00    -0.022 C 
HETATM    5  C6  UNL     1      50.301  72.256  58.394  1.00  0.00    -0.002 C 
HETATM    6  C5  UNL     1      50.456  73.203  57.275  1.00  0.00     0.010 C 
HETATM    7  C7  UNL     1      50.227  70.821  57.975  1.00  0.00     0.045 C 
HETATM    8  C4  UNL     1      49.213  73.613  56.567  1.00  0.00    -0.012 C 
HETATM    9  C3  UNL     1      48.983  72.887  55.265  1.00  0.00     0.040 C 
HETATM   10  C12 UNL     1      47.982  73.659  57.435  1.00  0.00     0.012 C 
HETATM   11  C2  UNL     1      48.231  71.616  55.383  1.00  0.00     0.226 C 
HETATM   12  N1  UNL     1      47.187  71.565  56.321  1.00  0.00     0.097 N 
HETATM   13  C9  UNL     1      49.188  70.523  55.798  1.00  0.00     0.076 C 
HETATM   14  C1  UNL     1      46.035  70.823  55.982  1.00  0.00     0.311 C 
HETATM   15  C10 UNL     1      47.759  71.191  57.623  1.00  0.00     0.262 C 
HETATM   16  C8  UNL     1      48.967  70.420  57.312  1.00  0.00     0.091 C 
HETATM   17  C11 UNL     1      47.903  72.451  58.374  1.00  0.00     0.032 C 
HETATM   18  C14 UNL     1      49.163  73.920  59.881  1.00  0.00     0.017 C 
BRANCH  16  19
HETATM   19  O1  UNL     1      48.796  69.033  57.550  1.00  0.00    -0.388 OA
ATOM     20  H1  UNL     1      48.515  68.939  58.452  1.00  0.00     0.210 HD
ENDBRANCH  16  19
ENDBRANCH   1   4
TORSDOF 2
ENDMDL
MODEL 3
REMARK VINA RESULT: -4.511605544      1.708      2.577
REMARK  2 active torsions:
REMARK  status: ('A' for Active; 'I' for Inactive)
REMARK    1  A    between atoms: C8_9  and  O1_10 
REMARK    2  A    between atoms: C13_16  and  C15_18 
ROOT
HETATM    1  C15 UNL     1      49.831  72.614  60.121  1.00  0.00     0.134 C 
HETATM    2  C16 UNL     1      48.809  72.132  61.078  1.00  0.00     0.059 C 
HETATM    3  N2  UNL     1      48.002  71.761  61.820  1.00  0.00    -0.197 NA
ENDROOT
BRANCH   1   4
HETATM    4  C13 UNL     1      49.116  72.991  58.870  1.00  0.00    -0.022 C 
HETATM    5  C6  UNL     1      50.046  73.523  57.804  1.00  0.00    -0.002 C 
HETATM    6  C5  UNL     1      49.365  73.866  56.543  1.00  0.00     0.010 C 
HETATM    7  C7  UNL     1      51.167  72.543  57.648  1.00  0.00     0.045 C 
HETATM    8  C4  UNL     1      48.306  72.931  56.077  1.00  0.00    -0.012 C 
HETATM    9  C3  UNL     1      48.759  71.984  54.993  1.00  0.00     0.040 C 
HETATM   10  C12 UNL     1      47.552  72.236  57.181  1.00  0.00     0.012 C 
HETATM   11  C2  UNL     1      49.353  70.716  55.480  1.00  0.00     0.226 C 
HETATM   12  N1  UNL     1      48.786  70.133  56.624  1.00  0.00     0.097 N 
HETATM   13  C9  UNL     1      50.799  70.965  55.838  1.00  0.00     0.076 C 
HETATM   14  C1  UNL     1      48.716  68.724  56.677  1.00  0.00     0.311 C 
HETATM   15  C10 UNL     1      49.426  70.729  57.806  1.00  0.00     0.262 C 
HETATM   16  C8  UNL     1      50.757  71.153  57.359  1.00  0.00     0.091 C 
HETATM   17  C11 UNL     1      48.488  71.756  58.294  1.00  0.00     0.032 C 
HETATM   18  C14 UNL     1      48.033  73.980  59.223  1.00  0.00     0.017 C 
BRANCH  16  19
HETATM   19  O1  UNL     1      51.783  70.307  57.848  1.00  0.00    -0.388 OA
ATOM     20  H1  UNL     1      51.358  69.568  58.268  1.00  0.00     0.210 HD
ENDBRANCH  16  19
ENDBRANCH   1   4
TORSDOF 2
ENDMDL
MODEL 4
REMARK VINA RESULT: -4.511038227      4.502      5.957
REMARK  2 active torsions:
REMARK  status: ('A' for Active; 'I' for Inactive)
REMARK    1  A    between atoms: C8_9  and  O1_10 
REMARK    2  A    between atoms: C13_16  and  C15_18 
ROOT
HETATM    1  C15 UNL     1      46.107  65.437  57.307  1.00  0.00     0.134 C 
HETATM    2  C16 UNL     1      46.825  64.781  58.424  1.00  0.00     0.059 C 
HETATM    3  N2  UNL     1      47.395  64.267  59.291  1.00  0.00    -0.197 NA
ENDROOT
BRANCH   1   4
HETATM    4  C13 UNL     1      47.141  65.970  56.376  1.00  0.00    -0.022 C 
HETATM    5  C6  UNL     1      46.628  66.127  54.963  1.00  0.00    -0.002 C 
HETATM    6  C5  UNL     1      47.622  66.689  54.032  1.00  0.00     0.010 C 
HETATM    7  C7  UNL     1      45.345  66.896  55.027  1.00  0.00     0.045 C 
HETATM    8  C4  UNL     1      48.469  67.800  54.545  1.00  0.00    -0.012 C 
HETATM    9  C3  UNL     1      48.016  69.169  54.102  1.00  0.00     0.040 C 
HETATM   10  C12 UNL     1      48.765  67.733  56.022  1.00  0.00     0.012 C 
HETATM   11  C2  UNL     1      47.020  69.815  54.990  1.00  0.00     0.226 C 
HETATM   12  N1  UNL     1      47.161  69.620  56.373  1.00  0.00     0.097 N 
HETATM   13  C9  UNL     1      45.650  69.277  54.652  1.00  0.00     0.076 C 
HETATM   14  C1  UNL     1      46.843  70.700  57.225  1.00  0.00     0.311 C 
HETATM   15  C10 UNL     1      46.471  68.372  56.731  1.00  0.00     0.262 C 
HETATM   16  C8  UNL     1      45.423  68.200  55.719  1.00  0.00     0.091 C 
HETATM   17  C11 UNL     1      47.525  67.346  56.833  1.00  0.00     0.032 C 
HETATM   18  C14 UNL     1      48.350  65.070  56.444  1.00  0.00     0.017 C 
BRANCH  16  19
HETATM   19  O1  UNL     1      44.131  68.476  56.231  1.00  0.00    -0.388 OA
ATOM     20  H1  UNL     1      43.595  68.756  55.498  1.00  0.00     0.210 HD
ENDBRANCH  16  19
ENDBRANCH   1   4
TORSDOF 2
ENDMDL
MODEL 5
REMARK VINA RESULT: -4.466170195      5.498      7.454
REMARK  2 active torsions:
REMARK  status: ('A' for Active; 'I' for Inactive)
REMARK    1  A    between atoms: C8_9  and  O1_10 
REMARK    2  A    between atoms: C13_16  and  C15_18 
ROOT
HETATM    1  C15 UNL     1      45.469  67.531  54.721  1.00  0.00     0.134 C 
HETATM    2  C16 UNL     1      45.140  68.949  54.992  1.00  0.00     0.059 C 
HETATM    3  N2  UNL     1      44.892  70.059  55.208  1.00  0.00    -0.197 NA
ENDROOT
BRANCH   1   4
HETATM    4  C13 UNL     1      46.954  67.417  54.731  1.00  0.00    -0.022 C 
HETATM    5  C6  UNL     1      47.540  67.537  56.118  1.00  0.00    -0.002 C 
HETATM    6  C5  UNL     1      49.006  67.388  56.157  1.00  0.00     0.010 C 
HETATM    7  C7  UNL     1      46.804  66.583  57.007  1.00  0.00     0.045 C 
HETATM    8  C4  UNL     1      49.596  66.333  55.290  1.00  0.00    -0.012 C 
HETATM    9  C3  UNL     1      49.948  65.063  56.024  1.00  0.00     0.040 C 
HETATM   10  C12 UNL     1      48.841  66.077  54.010  1.00  0.00     0.012 C 
HETATM   11  C2  UNL     1      48.853  64.068  56.109  1.00  0.00     0.226 C 
HETATM   12  N1  UNL     1      48.011  63.933  54.994  1.00  0.00     0.097 N 
HETATM   13  C9  UNL     1      47.940  64.449  57.251  1.00  0.00     0.076 C 
HETATM   14  C1  UNL     1      47.546  62.639  54.675  1.00  0.00     0.311 C 
HETATM   15  C10 UNL     1      46.934  64.927  55.112  1.00  0.00     0.262 C 
HETATM   16  C8  UNL     1      46.788  65.177  56.550  1.00  0.00     0.091 C 
HETATM   17  C11 UNL     1      47.327  66.049  54.240  1.00  0.00     0.032 C 
HETATM   18  C14 UNL     1      47.515  68.451  53.786  1.00  0.00     0.017 C 
BRANCH  16  19
HETATM   19  O1  UNL     1      45.617  64.581  57.083  1.00  0.00    -0.388 OA
ATOM     20  H1  UNL     1      45.195  64.113  56.372  1.00  0.00     0.210 HD
ENDBRANCH  16  19
ENDBRANCH   1   4
TORSDOF 2
ENDMDL
