MODEL 1
REMARK VINA RESULT: -5.844895051      0.000      0.000
REMARK  2 active torsions:
REMARK  status: ('A' for Active; 'I' for Inactive)
REMARK    1  A    between atoms: N1_1  and  C1_5 
REMARK    2  A    between atoms: C10_14  and  N2_15 
ROOT
HETATM    1  C1  UNL     1      47.576  71.939  56.715  1.00  0.00     0.188 C 
HETATM    2  C2  UNL     1      48.007  73.325  57.047  1.00  0.00     0.043 C 
HETATM    3  C3  UNL     1      48.818  73.314  58.361  1.00  0.00    -0.032 C 
HETATM    4  C4  UNL     1      50.180  72.922  58.018  1.00  0.00     0.010 C 
HETATM    5  C5  UNL     1      50.533  71.469  58.108  1.00  0.00     0.001 C 
HETATM    6  C6  UNL     1      49.624  70.618  57.228  1.00  0.00     0.007 C 
HETATM    7  C7  UNL     1      48.175  70.852  57.527  1.00  0.00     0.016 C 
HETATM    8  C8  UNL     1      48.023  71.013  59.011  1.00  0.00     0.014 C 
HETATM    9  C9  UNL     1      48.017  72.498  59.304  1.00  0.00     0.029 C 
HETATM   10  C10 UNL     1      48.183  72.833  60.754  1.00  0.00     0.101 C 
HETATM   11  C11 UNL     1      49.458  73.521  61.104  1.00  0.00     0.042 C 
HETATM   12  C12 UNL     1      48.902  74.739  60.435  1.00  0.00    -0.009 C 
HETATM   13  C13 UNL     1      48.875  74.726  58.957  1.00  0.00     0.014 C 
HETATM   14  C14 UNL     1      47.539  74.224  60.937  1.00  0.00     0.042 C 
ENDROOT
BRANCH   1  15
HETATM   15  N1  UNL     1      46.112  71.799  56.743  1.00  0.00    -0.075 N 
ATOM     16  H13 UNL     1      45.801  71.321  57.588  1.00  0.00     0.274 HD
ATOM     17  H12 UNL     1      45.656  72.699  56.891  1.00  0.00     0.274 HD
ATOM     18  H11 UNL     1      45.758  71.338  55.904  1.00  0.00     0.274 HD
ENDBRANCH   1  15
BRANCH  10  19
HETATM   19  N2  UNL     1      47.716  71.844  61.660  1.00  0.00    -0.145 N 
HETATM   20  O1  UNL     1      46.512  71.887  62.057  1.00  0.00    -0.536 OA
HETATM   21  O2  UNL     1      48.470  70.816  62.159  1.00  0.00    -0.536 OA
ENDBRANCH  10  19
TORSDOF 2
ENDMDL
MODEL 2
REMARK VINA RESULT: -5.461017126      2.931      4.468
REMARK  2 active torsions:
REMARK  status: ('A' for Active; 'I' for Inactive)
REMARK    1  A    between atoms: N1_1  and  C1_5 
REMARK    2  A    between atoms: C10_14  and  N2_15 
ROOT
HETATM    1  C1  UNL     1      45.996  76.783  58.973  1.00  0.00     0.188 C 
HETATM    2  C2  UNL     1      45.955  76.282  60.374  1.00  0.00     0.043 C 
HETATM    3  C3  UNL     1      47.321  75.664  60.743  1.00  0.00    -0.032 C 
HETATM    4  C4  UNL     1      48.201  76.766  61.114  1.00  0.00     0.010 C 
HETATM    5  C5  UNL     1      49.066  77.360  60.045  1.00  0.00     0.001 C 
HETATM    6  C6  UNL     1      48.234  77.872  58.874  1.00  0.00     0.007 C 
HETATM    7  C7  UNL     1      47.329  76.812  58.324  1.00  0.00     0.016 C 
HETATM    8  C8  UNL     1      48.070  75.508  58.342  1.00  0.00     0.014 C 
HETATM    9  C9  UNL     1      47.665  74.778  59.605  1.00  0.00     0.029 C 
HETATM   10  C10 UNL     1      48.537  73.606  59.936  1.00  0.00     0.101 C 
HETATM   11  C11 UNL     1      49.359  73.755  61.170  1.00  0.00     0.042 C 
HETATM   12  C12 UNL     1      48.092  73.592  61.949  1.00  0.00    -0.009 C 
HETATM   13  C13 UNL     1      47.174  74.751  61.967  1.00  0.00     0.014 C 
HETATM   14  C14 UNL     1      47.663  72.667  60.795  1.00  0.00     0.042 C 
ENDROOT
BRANCH   1  15
HETATM   15  N1  UNL     1      45.060  76.056  58.102  1.00  0.00    -0.075 N 
ATOM     16  H13 UNL     1      44.865  76.579  57.248  1.00  0.00     0.274 HD
ATOM     17  H12 UNL     1      45.502  75.234  57.688  1.00  0.00     0.274 HD
ATOM     18  H11 UNL     1      44.200  75.808  58.591  1.00  0.00     0.274 HD
ENDBRANCH   1  15
BRANCH  10  19
HETATM   19  N2  UNL     1      49.156  72.979  58.821  1.00  0.00    -0.145 N 
HETATM   20  O1  UNL     1      50.421  72.906  58.776  1.00  0.00    -0.536 OA
HETATM   21  O2  UNL     1      48.490  72.428  57.760  1.00  0.00    -0.536 OA
ENDBRANCH  10  19
TORSDOF 2
ENDMDL
MODEL 3
REMARK VINA RESULT: -4.919289947      2.320      3.985
REMARK  2 active torsions:
REMARK  status: ('A' for Active; 'I' for Inactive)
REMARK    1  A    between atoms: N1_1  and  C1_5 
REMARK    2  A    between atoms: C10_14  and  N2_15 
ROOT
HETATM    1  C1  UNL     1      51.945  70.916  56.781  1.00  0.00     0.188 C 
HETATM    2  C2  UNL     1      50.827  70.050  56.313  1.00  0.00     0.043 C 
HETATM    3  C3  UNL     1      49.477  70.703  56.684  1.00  0.00    -0.032 C 
HETATM    4  C4  UNL     1      49.192  71.702  55.662  1.00  0.00     0.010 C 
HETATM    5  C5  UNL     1      49.632  73.110  55.920  1.00  0.00     0.001 C 
HETATM    6  C6  UNL     1      51.135  73.190  56.168  1.00  0.00     0.007 C 
HETATM    7  C7  UNL     1      51.572  72.267  57.264  1.00  0.00     0.016 C 
HETATM    8  C8  UNL     1      50.525  72.287  58.338  1.00  0.00     0.014 C 
HETATM    9  C9  UNL     1      49.617  71.099  58.105  1.00  0.00     0.029 C 
HETATM   10  C10 UNL     1      48.345  71.142  58.895  1.00  0.00     0.101 C 
HETATM   11  C11 UNL     1      47.103  71.309  58.088  1.00  0.00     0.042 C 
HETATM   12  C12 UNL     1      47.290  69.895  57.635  1.00  0.00    -0.009 C 
HETATM   13  C13 UNL     1      48.356  69.657  56.640  1.00  0.00     0.014 C 
HETATM   14  C14 UNL     1      47.894  69.671  59.036  1.00  0.00     0.042 C 
ENDROOT
BRANCH   1  15
HETATM   15  N1  UNL     1      52.759  70.252  57.810  1.00  0.00    -0.075 N 
ATOM     16  H13 UNL     1      52.373  70.403  58.742  1.00  0.00     0.274 HD
ATOM     17  H12 UNL     1      52.663  69.237  57.761  1.00  0.00     0.274 HD
ATOM     18  H11 UNL     1      53.738  70.535  57.762  1.00  0.00     0.274 HD
ENDBRANCH   1  15
BRANCH  10  19
HETATM   19  N2  UNL     1      48.418  71.855  60.121  1.00  0.00    -0.145 N 
HETATM   20  O1  UNL     1      48.927  71.292  61.136  1.00  0.00    -0.536 OA
HETATM   21  O2  UNL     1      47.974  73.136  60.312  1.00  0.00    -0.536 OA
ENDBRANCH  10  19
TORSDOF 2
ENDMDL
MODEL 4
REMARK VINA RESULT: -4.800029188      4.931      6.373
REMARK  2 active torsions:
REMARK  status: ('A' for Active; 'I' for Inactive)
REMARK    1  A    between atoms: N1_1  and  C1_5 
REMARK    2  A    between atoms: C10_14  and  N2_15 
ROOT
HETATM    1  C1  UNL     1      46.849  75.757  60.994  1.00  0.00     0.188 C 
HETATM    2  C2  UNL     1      45.811  76.243  60.044  1.00  0.00     0.043 C 
HETATM    3  C3  UNL     1      46.493  76.917  58.833  1.00  0.00    -0.032 C 
HETATM    4  C4  UNL     1      46.894  75.852  57.922  1.00  0.00     0.010 C 
HETATM    5  C5  UNL     1      48.283  75.307  58.054  1.00  0.00     0.001 C 
HETATM    6  C6  UNL     1      48.542  74.770  59.457  1.00  0.00     0.007 C 
HETATM    7  C7  UNL     1      48.251  75.793  60.512  1.00  0.00     0.016 C 
HETATM    8  C8  UNL     1      48.711  77.129  60.008  1.00  0.00     0.014 C 
HETATM    9  C9  UNL     1      47.506  77.828  59.417  1.00  0.00     0.029 C 
HETATM   10  C10 UNL     1      47.844  79.034  58.596  1.00  0.00     0.101 C 
HETATM   11  C11 UNL     1      47.559  78.910  57.139  1.00  0.00     0.042 C 
HETATM   12  C12 UNL     1      46.106  79.009  57.486  1.00  0.00    -0.009 C 
HETATM   13  C13 UNL     1      45.490  77.811  58.093  1.00  0.00     0.014 C 
HETATM   14  C14 UNL     1      46.583  79.926  58.629  1.00  0.00     0.042 C 
ENDROOT
BRANCH   1  15
HETATM   15  N1  UNL     1      46.775  76.451  62.289  1.00  0.00    -0.075 N 
ATOM     16  H13 UNL     1      47.702  76.720  62.619  1.00  0.00     0.274 HD
ATOM     17  H12 UNL     1      46.365  77.379  62.189  1.00  0.00     0.274 HD
ATOM     18  H11 UNL     1      46.278  75.899  62.989  1.00  0.00     0.274 HD
ENDBRANCH   1  15
BRANCH  10  19
HETATM   19  N2  UNL     1      49.044  79.699  58.963  1.00  0.00    -0.145 N 
HETATM   20  O1  UNL     1      49.873  80.023  58.060  1.00  0.00    -0.536 OA
HETATM   21  O2  UNL     1      49.399  80.031  60.243  1.00  0.00    -0.536 OA
ENDBRANCH  10  19
TORSDOF 2
ENDMDL
MODEL 5
REMARK VINA RESULT: -4.766543597      2.487      3.371
REMARK  2 active torsions:
REMARK  status: ('A' for Active; 'I' for Inactive)
REMARK    1  A    between atoms: N1_1  and  C1_5 
REMARK    2  A    between atoms: C10_14  and  N2_15 
ROOT
HETATM    1  C1  UNL     1      50.212  72.073  57.138  1.00  0.00     0.188 C 
HETATM    2  C2  UNL     1      50.109  71.324  58.421  1.00  0.00     0.043 C 
HETATM    3  C3  UNL     1      48.864  71.802  59.200  1.00  0.00    -0.032 C 
HETATM    4  C4  UNL     1      47.717  71.095  58.643  1.00  0.00     0.010 C 
HETATM    5  C5  UNL     1      46.949  71.767  57.546  1.00  0.00     0.001 C 
HETATM    6  C6  UNL     1      47.846  72.098  56.359  1.00  0.00     0.007 C 
HETATM    7  C7  UNL     1      49.041  72.904  56.767  1.00  0.00     0.016 C 
HETATM    8  C8  UNL     1      48.607  73.888  57.812  1.00  0.00     0.014 C 
HETATM    9  C9  UNL     1      48.927  73.282  59.162  1.00  0.00     0.029 C 
HETATM   10  C10 UNL     1      48.284  73.988  60.314  1.00  0.00     0.101 C 
HETATM   11  C11 UNL     1      47.242  73.205  61.037  1.00  0.00     0.042 C 
HETATM   12  C12 UNL     1      48.355  72.376  61.598  1.00  0.00    -0.009 C 
HETATM   13  C13 UNL     1      48.984  71.406  60.678  1.00  0.00     0.014 C 
HETATM   14  C14 UNL     1      49.172  73.681  61.540  1.00  0.00     0.042 C 
ENDROOT
BRANCH   1  15
HETATM   15  N1  UNL     1      51.422  72.907  57.084  1.00  0.00    -0.075 N 
ATOM     16  H13 UNL     1      51.838  73.016  58.009  1.00  0.00     0.274 HD
ATOM     17  H12 UNL     1      52.188  72.419  56.620  1.00  0.00     0.274 HD
ATOM     18  H11 UNL     1      51.241  73.812  56.650  1.00  0.00     0.274 HD
ENDBRANCH   1  15
BRANCH  10  19
HETATM   19  N2  UNL     1      48.023  75.370  60.108  1.00  0.00    -0.145 N 
HETATM   20  O1  UNL     1      48.984  76.195  60.154  1.00  0.00    -0.536 OA
HETATM   21  O2  UNL     1      46.789  75.907  59.856  1.00  0.00    -0.536 OA
ENDBRANCH  10  19
TORSDOF 2
ENDMDL
