MODEL 1
REMARK VINA RESULT: -8.473623276      0.000      0.000
REMARK  2 active torsions:
REMARK  status: ('A' for Active; 'I' for Inactive)
REMARK    1  A    between atoms: O1_1  and  C1_3 
REMARK    2  A    between atoms: N1_6  and  C4_7 
ROOT
HETATM    1  C4  UNL     1      46.738  72.056  63.451  1.00  0.00     0.224 C 
HETATM    2  C5  UNL     1      47.355  70.700  63.143  1.00  0.00     0.036 C 
HETATM    3  C6  UNL     1      46.635  69.836  64.174  1.00  0.00     0.014 C 
HETATM    4  C7  UNL     1      46.726  70.701  65.385  1.00  0.00    -0.011 C 
HETATM    5  C8  UNL     1      47.955  70.196  66.146  1.00  0.00     0.178 C 
HETATM    6  O2  UNL     1      47.454  68.945  66.546  1.00  0.00    -0.385 OA
HETATM    7  C9  UNL     1      46.216  69.219  67.097  1.00  0.00     0.126 C 
HETATM    8  C10 UNL     1      45.151  68.222  66.695  1.00  0.00     0.032 C 
HETATM    9  C11 UNL     1      43.893  69.071  66.846  1.00  0.00     0.003 C 
HETATM   10  C12 UNL     1      44.309  70.300  66.042  1.00  0.00     0.008 C 
HETATM   11  C13 UNL     1      45.703  70.486  66.434  1.00  0.00     0.025 C 
HETATM   12  C14 UNL     1      46.880  72.127  64.949  1.00  0.00     0.048 C 
ENDROOT
BRANCH   1  13
HETATM   13  N1  UNL     1      47.558  73.066  62.836  1.00  0.00     0.095 N 
HETATM   14  C3  UNL     1      48.331  72.538  61.735  1.00  0.00     0.275 C 
HETATM   15  C2  UNL     1      48.861  73.822  61.108  1.00  0.00     0.064 C 
HETATM   16  C1  UNL     1      47.603  74.674  61.104  1.00  0.00     0.148 C 
HETATM   17  C15 UNL     1      46.778  74.128  62.259  1.00  0.00     0.304 C 
BRANCH  16  18
HETATM   18  O1  UNL     1      47.876  76.024  61.249  1.00  0.00    -0.394 OA
ATOM     19  H1  UNL     1      47.536  76.379  62.062  1.00  0.00     0.210 HD
ENDBRANCH  16  18
ENDBRANCH   1  13
TORSDOF 2
ENDMDL
MODEL 2
REMARK VINA RESULT: -8.127094888      0.935      1.299
REMARK  2 active torsions:
REMARK  status: ('A' for Active; 'I' for Inactive)
REMARK    1  A    between atoms: O1_1  and  C1_3 
REMARK    2  A    between atoms: N1_6  and  C4_7 
ROOT
HETATM    1  C4  UNL     1      46.228  71.582  62.895  1.00  0.00     0.224 C 
HETATM    2  C5  UNL     1      46.960  70.255  62.775  1.00  0.00     0.036 C 
HETATM    3  C6  UNL     1      46.435  69.544  64.020  1.00  0.00     0.014 C 
HETATM    4  C7  UNL     1      46.539  70.631  65.034  1.00  0.00    -0.011 C 
HETATM    5  C8  UNL     1      47.880  70.398  65.736  1.00  0.00     0.178 C 
HETATM    6  O2  UNL     1      47.558  69.207  66.410  1.00  0.00    -0.385 OA
HETATM    7  C9  UNL     1      46.352  69.468  67.034  1.00  0.00     0.126 C 
HETATM    8  C10 UNL     1      45.372  68.319  66.941  1.00  0.00     0.032 C 
HETATM    9  C11 UNL     1      44.047  69.064  67.069  1.00  0.00     0.003 C 
HETATM   10  C12 UNL     1      44.250  70.146  66.014  1.00  0.00     0.008 C 
HETATM   11  C13 UNL     1      45.646  70.531  66.210  1.00  0.00     0.025 C 
HETATM   12  C14 UNL     1      46.495  71.954  64.330  1.00  0.00     0.048 C 
ENDROOT
BRANCH   1  13
HETATM   13  N1  UNL     1      46.872  72.525  62.019  1.00  0.00     0.095 N 
HETATM   14  C3  UNL     1      46.985  73.833  62.622  1.00  0.00     0.275 C 
HETATM   15  C2  UNL     1      47.923  74.526  61.642  1.00  0.00     0.064 C 
HETATM   16  C1  UNL     1      48.971  73.445  61.440  1.00  0.00     0.148 C 
HETATM   17  C15 UNL     1      48.225  72.147  61.708  1.00  0.00     0.304 C 
BRANCH  16  18
HETATM   18  O1  UNL     1      49.529  73.476  60.173  1.00  0.00    -0.394 OA
ATOM     19  H1  UNL     1      50.158  72.777  60.035  1.00  0.00     0.210 HD
ENDBRANCH  16  18
ENDBRANCH   1  13
TORSDOF 2
ENDMDL
MODEL 3
REMARK VINA RESULT: -7.061889578      1.471      1.816
REMARK  2 active torsions:
REMARK  status: ('A' for Active; 'I' for Inactive)
REMARK    1  A    between atoms: O1_1  and  C1_3 
REMARK    2  A    between atoms: N1_6  and  C4_7 
ROOT
HETATM    1  C4  UNL     1      46.815  71.740  62.075  1.00  0.00     0.224 C 
HETATM    2  C5  UNL     1      48.034  71.057  62.677  1.00  0.00     0.036 C 
HETATM    3  C6  UNL     1      47.380  70.318  63.841  1.00  0.00     0.014 C 
HETATM    4  C7  UNL     1      46.483  71.377  64.384  1.00  0.00    -0.011 C 
HETATM    5  C8  UNL     1      47.273  72.023  65.526  1.00  0.00     0.178 C 
HETATM    6  O2  UNL     1      47.260  70.942  66.426  1.00  0.00    -0.385 OA
HETATM    7  C9  UNL     1      45.938  70.543  66.481  1.00  0.00     0.126 C 
HETATM    8  C10 UNL     1      45.769  69.039  66.474  1.00  0.00     0.032 C 
HETATM    9  C11 UNL     1      44.368  68.912  65.887  1.00  0.00     0.003 C 
HETATM   10  C12 UNL     1      44.519  69.794  64.651  1.00  0.00     0.008 C 
HETATM   11  C13 UNL     1      45.303  70.920  65.152  1.00  0.00     0.025 C 
HETATM   12  C14 UNL     1      46.174  72.355  63.291  1.00  0.00     0.048 C 
ENDROOT
BRANCH   1  13
HETATM   13  N1  UNL     1      47.280  72.778  61.192  1.00  0.00     0.095 N 
HETATM   14  C3  UNL     1      47.900  73.865  61.915  1.00  0.00     0.275 C 
HETATM   15  C2  UNL     1      48.533  74.650  60.774  1.00  0.00     0.064 C 
HETATM   16  C1  UNL     1      49.160  73.524  59.970  1.00  0.00     0.148 C 
HETATM   17  C15 UNL     1      48.297  72.313  60.288  1.00  0.00     0.304 C 
BRANCH  16  18
HETATM   18  O1  UNL     1      49.197  73.798  58.613  1.00  0.00    -0.394 OA
ATOM     19  H1  UNL     1      49.664  74.602  58.416  1.00  0.00     0.210 HD
ENDBRANCH  16  18
ENDBRANCH   1  13
TORSDOF 2
ENDMDL
MODEL 4
REMARK VINA RESULT: -6.995463213      2.495      6.536
REMARK  2 active torsions:
REMARK  status: ('A' for Active; 'I' for Inactive)
REMARK    1  A    between atoms: O1_1  and  C1_3 
REMARK    2  A    between atoms: N1_6  and  C4_7 
ROOT
HETATM    1  C4  UNL     1      45.999  69.067  66.071  1.00  0.00     0.224 C 
HETATM    2  C5  UNL     1      45.024  70.231  66.153  1.00  0.00     0.036 C 
HETATM    3  C6  UNL     1      45.395  70.983  64.878  1.00  0.00     0.014 C 
HETATM    4  C7  UNL     1      46.884  70.946  64.948  1.00  0.00    -0.011 C 
HETATM    5  C8  UNL     1      47.287  72.277  65.588  1.00  0.00     0.178 C 
HETATM    6  O2  UNL     1      46.926  73.135  64.534  1.00  0.00    -0.385 OA
HETATM    7  C9  UNL     1      47.497  72.571  63.408  1.00  0.00     0.126 C 
HETATM    8  C10 UNL     1      46.583  72.594  62.203  1.00  0.00     0.032 C 
HETATM    9  C11 UNL     1      47.130  71.412  61.408  1.00  0.00     0.003 C 
HETATM   10  C12 UNL     1      47.138  70.344  62.497  1.00  0.00     0.008 C 
HETATM   11  C13 UNL     1      47.613  71.078  63.667  1.00  0.00     0.025 C 
HETATM   12  C14 UNL     1      47.298  69.772  65.783  1.00  0.00     0.048 C 
ENDROOT
BRANCH   1  13
HETATM   13  N1  UNL     1      46.059  68.446  67.369  1.00  0.00     0.095 N 
HETATM   14  C3  UNL     1      45.834  67.021  67.297  1.00  0.00     0.275 C 
HETATM   15  C2  UNL     1      46.226  66.593  68.706  1.00  0.00     0.064 C 
HETATM   16  C1  UNL     1      47.515  67.375  68.891  1.00  0.00     0.148 C 
HETATM   17  C15 UNL     1      47.353  68.583  67.981  1.00  0.00     0.304 C 
BRANCH  16  18
HETATM   18  O1  UNL     1      47.731  67.738  70.210  1.00  0.00    -0.394 OA
ATOM     19  H1  UNL     1      47.224  68.499  70.465  1.00  0.00     0.210 HD
ENDBRANCH  16  18
ENDBRANCH   1  13
TORSDOF 2
ENDMDL
MODEL 5
REMARK VINA RESULT: -6.938826119      1.555      6.305
REMARK  2 active torsions:
REMARK  status: ('A' for Active; 'I' for Inactive)
REMARK    1  A    between atoms: O1_1  and  C1_3 
REMARK    2  A    between atoms: N1_6  and  C4_7 
ROOT
HETATM    1  C4  UNL     1      46.663  72.588  65.138  1.00  0.00     0.224 C 
HETATM    2  C5  UNL     1      48.146  72.926  65.153  1.00  0.00     0.036 C 
HETATM    3  C6  UNL     1      48.224  73.849  63.941  1.00  0.00     0.014 C 
HETATM    4  C7  UNL     1      47.403  73.093  62.953  1.00  0.00    -0.011 C 
HETATM    5  C8  UNL     1      48.410  72.286  62.128  1.00  0.00     0.178 C 
HETATM    6  O2  UNL     1      49.026  73.353  61.450  1.00  0.00    -0.385 OA
HETATM    7  C9  UNL     1      47.981  74.102  60.945  1.00  0.00     0.126 C 
HETATM    8  C10 UNL     1      48.191  75.593  61.091  1.00  0.00     0.032 C 
HETATM    9  C11 UNL     1      46.747  76.086  61.103  1.00  0.00     0.003 C 
HETATM   10  C12 UNL     1      46.163  75.162  62.168  1.00  0.00     0.008 C 
HETATM   11  C13 UNL     1      46.788  73.878  61.859  1.00  0.00     0.025 C 
HETATM   12  C14 UNL     1      46.448  72.208  63.697  1.00  0.00     0.048 C 
ENDROOT
BRANCH   1  13
HETATM   13  N1  UNL     1      46.461  71.438  65.981  1.00  0.00     0.095 N 
HETATM   14  C3  UNL     1      45.580  70.470  65.371  1.00  0.00     0.275 C 
HETATM   15  C2  UNL     1      45.765  69.279  66.303  1.00  0.00     0.064 C 
HETATM   16  C1  UNL     1      47.276  69.271  66.455  1.00  0.00     0.148 C 
HETATM   17  C15 UNL     1      47.682  70.719  66.226  1.00  0.00     0.304 C 
BRANCH  16  18
HETATM   18  O1  UNL     1      47.683  68.803  67.694  1.00  0.00    -0.394 OA
ATOM     19  H1  UNL     1      47.965  67.897  67.665  1.00  0.00     0.210 HD
ENDBRANCH  16  18
ENDBRANCH   1  13
TORSDOF 2
ENDMDL
