MODEL 1
REMARK VINA RESULT: -6.031615564      0.000      0.000
REMARK  2 active torsions:
REMARK  status: ('A' for Active; 'I' for Inactive)
REMARK    1  A    between atoms: C6_6  and  C7_7 
REMARK    2  A    between atoms: C7_7  and  N1_8 
ROOT
HETATM    1  C1  UNL     1      49.734  71.570  58.227  1.00  0.00     0.045 C 
HETATM    2  C2  UNL     1      48.368  72.023  58.675  1.00  0.00     0.055 C 
HETATM    3  C3  UNL     1      47.449  72.162  57.458  1.00  0.00     0.045 C 
HETATM    4  C4  UNL     1      47.740  71.075  59.671  1.00  0.00     0.045 C 
HETATM    5  C5  UNL     1      48.188  71.671  60.985  1.00  0.00     0.032 C 
HETATM    6  C6  UNL     1      47.136  71.647  62.044  1.00  0.00     0.031 C 
HETATM    7  C12 UNL     1      46.645  73.076  62.218  1.00  0.00     0.013 C 
HETATM    8  C13 UNL     1      47.371  73.924  61.235  1.00  0.00     0.039 C 
HETATM    9  C14 UNL     1      48.483  73.089  60.643  1.00  0.00     0.063 C 
HETATM   10  C15 UNL     1      49.838  73.474  61.225  1.00  0.00     0.046 C 
HETATM   11  O1  UNL     1      48.460  73.248  59.283  1.00  0.00    -0.370 OA
ENDROOT
BRANCH   6  12
HETATM   12  C7  UNL     1      47.684  71.191  63.352  1.00  0.00     0.068 C 
BRANCH  12  13
HETATM   13  N1  UNL     1      46.975  70.162  63.999  1.00  0.00    -0.370 N 
HETATM   14  C8  UNL     1      47.093  70.052  65.394  1.00  0.00     0.090 C 
HETATM   15  C9  UNL     1      45.987  70.881  66.041  1.00  0.00     0.277 C 
HETATM   16  N2  UNL     1      44.744  70.639  65.361  1.00  0.00    -0.069 N 
HETATM   17  C10 UNL     1      44.771  69.462  64.522  1.00  0.00     0.252 C 
ATOM     18  H22 UNL     1      43.971  70.591  66.025  1.00  0.00     0.277 HD
ATOM     19  H21 UNL     1      44.456  71.459  64.827  1.00  0.00     0.277 HD
HETATM   20  C11 UNL     1      45.807  69.654  63.401  1.00  0.00     0.154 C 
ENDBRANCH  12  13
ENDBRANCH   6  12
TORSDOF 2
ENDMDL
MODEL 2
REMARK VINA RESULT: -5.821245763      2.159      3.719
REMARK  2 active torsions:
REMARK  status: ('A' for Active; 'I' for Inactive)
REMARK    1  A    between atoms: C6_6  and  C7_7 
REMARK    2  A    between atoms: C7_7  and  N1_8 
ROOT
HETATM    1  C1  UNL     1      46.572  77.313  59.401  1.00  0.00     0.045 C 
HETATM    2  C2  UNL     1      47.688  76.881  60.318  1.00  0.00     0.055 C 
HETATM    3  C3  UNL     1      48.518  78.101  60.726  1.00  0.00     0.045 C 
HETATM    4  C4  UNL     1      47.182  76.182  61.559  1.00  0.00     0.045 C 
HETATM    5  C5  UNL     1      47.199  74.735  61.125  1.00  0.00     0.032 C 
HETATM    6  C6  UNL     1      47.667  73.797  62.187  1.00  0.00     0.031 C 
HETATM    7  C12 UNL     1      49.062  73.336  61.794  1.00  0.00     0.013 C 
HETATM    8  C13 UNL     1      49.429  74.038  60.534  1.00  0.00     0.039 C 
HETATM    9  C14 UNL     1      48.185  74.717  60.010  1.00  0.00     0.063 C 
HETATM   10  C15 UNL     1      47.593  73.959  58.829  1.00  0.00     0.046 C 
HETATM   11  O1  UNL     1      48.513  76.002  59.665  1.00  0.00    -0.370 OA
ENDROOT
BRANCH   6  12
HETATM   12  C7  UNL     1      46.797  72.590  62.274  1.00  0.00     0.068 C 
BRANCH  12  13
HETATM   13  N1  UNL     1      46.374  72.220  63.564  1.00  0.00    -0.370 N 
HETATM   14  C8  UNL     1      45.661  71.018  63.707  1.00  0.00     0.090 C 
HETATM   15  C9  UNL     1      46.656  69.895  63.983  1.00  0.00     0.277 C 
HETATM   16  N2  UNL     1      47.617  70.331  64.960  1.00  0.00    -0.069 N 
HETATM   17  C10 UNL     1      47.209  71.522  65.670  1.00  0.00     0.252 C 
ATOM     18  H22 UNL     1      47.838  69.578  65.612  1.00  0.00     0.277 HD
ATOM     19  H21 UNL     1      48.535  70.459  64.534  1.00  0.00     0.277 HD
HETATM   20  C11 UNL     1      47.085  72.694  64.681  1.00  0.00     0.154 C 
ENDBRANCH  12  13
ENDBRANCH   6  12
TORSDOF 2
ENDMDL
MODEL 3
REMARK VINA RESULT: -5.690378553      2.099      3.507
REMARK  2 active torsions:
REMARK  status: ('A' for Active; 'I' for Inactive)
REMARK    1  A    between atoms: C6_6  and  C7_7 
REMARK    2  A    between atoms: C7_7  and  N1_8 
ROOT
HETATM    1  C1  UNL     1      46.689  76.934  59.229  1.00  0.00     0.045 C 
HETATM    2  C2  UNL     1      48.025  76.397  59.677  1.00  0.00     0.055 C 
HETATM    3  C3  UNL     1      48.948  77.563  60.046  1.00  0.00     0.045 C 
HETATM    4  C4  UNL     1      47.908  75.459  60.856  1.00  0.00     0.045 C 
HETATM    5  C5  UNL     1      47.785  74.119  60.168  1.00  0.00     0.032 C 
HETATM    6  C6  UNL     1      48.542  73.026  60.847  1.00  0.00     0.031 C 
HETATM    7  C12 UNL     1      49.752  72.716  59.980  1.00  0.00     0.013 C 
HETATM    8  C13 UNL     1      49.731  73.655  58.825  1.00  0.00     0.039 C 
HETATM    9  C14 UNL     1      48.392  74.355  58.830  1.00  0.00     0.063 C 
HETATM   10  C15 UNL     1      47.468  73.797  57.755  1.00  0.00     0.046 C 
HETATM   11  O1  UNL     1      48.611  75.696  58.655  1.00  0.00    -0.370 OA
ENDROOT
BRANCH   6  12
HETATM   12  C7  UNL     1      47.729  71.782  60.956  1.00  0.00     0.068 C 
BRANCH  12  13
HETATM   13  N1  UNL     1      47.737  71.141  62.208  1.00  0.00    -0.370 N 
HETATM   14  C8  UNL     1      47.853  71.938  63.359  1.00  0.00     0.090 C 
HETATM   15  C9  UNL     1      46.452  72.306  63.836  1.00  0.00     0.277 C 
HETATM   16  N2  UNL     1      45.608  71.143  63.799  1.00  0.00    -0.069 N 
HETATM   17  C10 UNL     1      46.346  69.906  63.678  1.00  0.00     0.252 C 
ATOM     18  H22 UNL     1      44.989  71.117  64.609  1.00  0.00     0.277 HD
ATOM     19  H21 UNL     1      44.912  71.223  63.057  1.00  0.00     0.277 HD
HETATM   20  C11 UNL     1      47.109  69.889  62.342  1.00  0.00     0.154 C 
ENDBRANCH  12  13
ENDBRANCH   6  12
TORSDOF 2
ENDMDL
MODEL 4
REMARK VINA RESULT: -5.566875081      3.625      5.229
REMARK  2 active torsions:
REMARK  status: ('A' for Active; 'I' for Inactive)
REMARK    1  A    between atoms: C6_6  and  C7_7 
REMARK    2  A    between atoms: C7_7  and  N1_8 
ROOT
HETATM    1  C1  UNL     1      47.006  79.816  60.006  1.00  0.00     0.045 C 
HETATM    2  C2  UNL     1      48.141  78.895  59.635  1.00  0.00     0.055 C 
HETATM    3  C3  UNL     1      49.386  79.724  59.304  1.00  0.00     0.045 C 
HETATM    4  C4  UNL     1      48.472  77.909  60.731  1.00  0.00     0.045 C 
HETATM    5  C5  UNL     1      47.608  76.729  60.352  1.00  0.00     0.032 C 
HETATM    6  C6  UNL     1      48.277  75.409  60.548  1.00  0.00     0.031 C 
HETATM    7  C12 UNL     1      48.619  74.872  59.167  1.00  0.00     0.013 C 
HETATM    8  C13 UNL     1      48.195  75.893  58.170  1.00  0.00     0.039 C 
HETATM    9  C14 UNL     1      47.366  76.926  58.897  1.00  0.00     0.063 C 
HETATM   10  C15 UNL     1      45.880  76.751  58.607  1.00  0.00     0.046 C 
HETATM   11  O1  UNL     1      47.805  78.168  58.522  1.00  0.00    -0.370 OA
ENDROOT
BRANCH   6  12
HETATM   12  C7  UNL     1      47.371  74.428  61.207  1.00  0.00     0.068 C 
BRANCH  12  13
HETATM   13  N1  UNL     1      47.992  73.420  61.967  1.00  0.00    -0.370 N 
HETATM   14  C8  UNL     1      47.766  73.400  63.353  1.00  0.00     0.090 C 
HETATM   15  C9  UNL     1      46.554  72.516  63.633  1.00  0.00     0.277 C 
HETATM   16  N2  UNL     1      46.651  71.307  62.861  1.00  0.00    -0.069 N 
HETATM   17  C10 UNL     1      47.973  71.076  62.324  1.00  0.00     0.252 C 
ATOM     18  H22 UNL     1      46.335  70.504  63.404  1.00  0.00     0.277 HD
ATOM     19  H21 UNL     1      45.951  71.294  62.118  1.00  0.00     0.277 HD
HETATM   20  C11 UNL     1      48.336  72.205  61.345  1.00  0.00     0.154 C 
ENDBRANCH  12  13
ENDBRANCH   6  12
TORSDOF 2
ENDMDL
MODEL 5
REMARK VINA RESULT: -5.494846733      1.256      1.896
REMARK  2 active torsions:
REMARK  status: ('A' for Active; 'I' for Inactive)
REMARK    1  A    between atoms: C6_6  and  C7_7 
REMARK    2  A    between atoms: C7_7  and  N1_8 
ROOT
HETATM    1  C1  UNL     1      48.982  70.540  58.358  1.00  0.00     0.045 C 
HETATM    2  C2  UNL     1      47.938  71.608  58.560  1.00  0.00     0.055 C 
HETATM    3  C3  UNL     1      46.955  71.592  57.385  1.00  0.00     0.045 C 
HETATM    4  C4  UNL     1      47.176  71.439  59.854  1.00  0.00     0.045 C 
HETATM    5  C5  UNL     1      47.991  72.287  60.802  1.00  0.00     0.032 C 
HETATM    6  C6  UNL     1      47.163  73.078  61.760  1.00  0.00     0.031 C 
HETATM    7  C12 UNL     1      47.228  74.530  61.314  1.00  0.00     0.013 C 
HETATM    8  C13 UNL     1      48.049  74.584  60.074  1.00  0.00     0.039 C 
HETATM    9  C14 UNL     1      48.703  73.233  59.900  1.00  0.00     0.063 C 
HETATM   10  C15 UNL     1      50.178  73.276  60.282  1.00  0.00     0.046 C 
HETATM   11  O1  UNL     1      48.536  72.841  58.598  1.00  0.00    -0.370 OA
ENDROOT
BRANCH   6  12
HETATM   12  C7  UNL     1      47.707  73.002  63.146  1.00  0.00     0.068 C 
BRANCH  12  13
HETATM   13  N1  UNL     1      46.874  72.406  64.109  1.00  0.00    -0.370 N 
HETATM   14  C8  UNL     1      46.008  71.382  63.693  1.00  0.00     0.090 C 
HETATM   15  C9  UNL     1      46.727  70.045  63.852  1.00  0.00     0.277 C 
HETATM   16  N2  UNL     1      47.396  70.006  65.124  1.00  0.00    -0.069 N 
HETATM   17  C10 UNL     1      46.945  71.030  66.038  1.00  0.00     0.252 C 
ATOM     18  H22 UNL     1      47.316  69.081  65.547  1.00  0.00     0.277 HD
ATOM     19  H21 UNL     1      48.408  70.048  65.002  1.00  0.00     0.277 HD
HETATM   20  C11 UNL     1      47.270  72.417  65.459  1.00  0.00     0.154 C 
ENDBRANCH  12  13
ENDBRANCH   6  12
TORSDOF 2
ENDMDL
