MODEL 1
REMARK VINA RESULT: -6.466208761      0.000      0.000
REMARK  12 active torsions:
REMARK  status: ('A' for Active; 'I' for Inactive)
REMARK       I    between atoms: C2_4  and  N2_5 
REMARK       I    between atoms: C2_4  and  N4_28 
REMARK    1  A    between atoms: N2_5  and  C3_7 
REMARK    2  A    between atoms: C3_7  and  C4_8 
REMARK    3  A    between atoms: C4_8  and  S1_9 
REMARK    4  A    between atoms: S1_9  and  S2_10 
REMARK    5  A    between atoms: S2_10  and  C5_11 
REMARK    6  A    between atoms: C6_13  and  C7_14 
REMARK    7  A    between atoms: C7_14  and  S3_15 
REMARK    8  A    between atoms: S3_15  and  C8_16 
REMARK    9  A    between atoms: C9_19  and  O3_20 
REMARK   10  A    between atoms: C10_22  and  O4_23 
REMARK   11  A    between atoms: C11_25  and  O5_26 
REMARK   12  A    between atoms: C15_32  and  O6_33 
ROOT
HETATM    1  C5  UNL     1       3.916  49.855  -6.244  1.00  0.00     0.225 C 
HETATM    2  O1  UNL     1       4.702  48.764  -6.013  1.00  0.00    -0.363 OA
HETATM    3  C6  UNL     1       4.472  48.045  -4.878  1.00  0.00     0.164 C 
HETATM    4  C9  UNL     1       3.474  48.576  -3.915  1.00  0.00     0.179 C 
HETATM    5  C10 UNL     1       3.271  50.051  -3.921  1.00  0.00     0.181 C 
HETATM    6  C11 UNL     1       3.971  50.766  -5.037  1.00  0.00     0.189 C 
ENDROOT
BRANCH   1   7
HETATM    7  S2  UNL     1       4.600  50.806  -7.631  1.00  0.00    -0.063 SA
BRANCH   7   8
HETATM    8  S1  UNL     1       3.366  52.468  -8.103  1.00  0.00    -0.093 SA
BRANCH   8   9
HETATM    9  C4  UNL     1       4.025  54.016  -7.375  1.00  0.00     0.106 C 
BRANCH   9  10
HETATM   10  C3  UNL     1       5.488  53.836  -7.155  1.00  0.00     0.149 C 
BRANCH  10  11
HETATM   11  N2  UNL     1       5.771  53.805  -5.744  1.00  0.00    -0.226 N 
HETATM   12  C2  UNL     1       6.929  54.455  -5.253  1.00  0.00     0.673 C 
HETATM   13  N1  UNL     1       6.958  55.699  -5.046  1.00  0.00    -0.231 N 
HETATM   14  N4  UNL     1       8.059  53.653  -4.996  1.00  0.00    -0.192 N 
HETATM   15  C1  UNL     1       8.025  56.509  -4.560  1.00  0.00     0.165 C 
ATOM     16  H1  UNL     1       6.093  56.196  -5.256  1.00  0.00     0.177 HD
HETATM   17  C12 UNL     1       8.844  53.489  -3.786  1.00  0.00     0.144 C 
HETATM   18  C15 UNL     1       8.645  52.784  -6.019  1.00  0.00     0.237 C 
HETATM   19  C13 UNL     1      10.243  53.328  -4.332  1.00  0.00     0.025 C 
HETATM   20  C14 UNL     1      10.028  52.469  -5.553  1.00  0.00     0.056 C 
ATOM     21  H2  UNL     1       5.143  53.320  -5.103  1.00  0.00     0.177 HD
BRANCH  18  22
HETATM   22  O6  UNL     1       7.868  51.617  -6.095  1.00  0.00    -0.376 OA
ATOM     23  H6  UNL     1       8.347  50.979  -6.611  1.00  0.00     0.212 HD
ENDBRANCH  18  22
ENDBRANCH  10  11
ENDBRANCH   9  10
ENDBRANCH   8   9
ENDBRANCH   7   8
ENDBRANCH   1   7
BRANCH   6  24
HETATM   24  O5  UNL     1       5.258  51.152  -4.757  1.00  0.00    -0.389 OA
ATOM     25  H5  UNL     1       5.276  51.919  -4.196  1.00  0.00     0.210 HD
ENDBRANCH   6  24
BRANCH   3  26
HETATM   26  C7  UNL     1       5.805  47.714  -4.237  1.00  0.00     0.118 C 
BRANCH  26  27
HETATM   27  S3  UNL     1       6.214  45.973  -4.254  1.00  0.00    -0.070 SA
BRANCH  27  28
HETATM   28  C8  UNL     1       6.535  45.366  -5.900  1.00  0.00     0.292 C 
HETATM   29  N3  UNL     1       5.461  45.136  -6.796  1.00  0.00    -0.051 NA
HETATM   30  O2  UNL     1       7.700  45.131  -6.305  1.00  0.00    -0.264 OA
ENDBRANCH  27  28
ENDBRANCH  26  27
ENDBRANCH   3  26
BRANCH   5  31
HETATM   31  O4  UNL     1       1.927  50.418  -3.993  1.00  0.00    -0.390 OA
ATOM     32  H4  UNL     1       1.777  51.329  -3.771  1.00  0.00     0.210 HD
ENDBRANCH   5  31
BRANCH   4  33
HETATM   33  O3  UNL     1       2.241  47.881  -3.995  1.00  0.00    -0.390 OA
ATOM     34  H3  UNL     1       2.200  47.159  -3.377  1.00  0.00     0.210 HD
ENDBRANCH   4  33
TORSDOF 12
ENDMDL
MODEL 2
REMARK VINA RESULT: -6.392454203      1.485      2.208
REMARK  12 active torsions:
REMARK  status: ('A' for Active; 'I' for Inactive)
REMARK       I    between atoms: C2_4  and  N2_5 
REMARK       I    between atoms: C2_4  and  N4_28 
REMARK    1  A    between atoms: N2_5  and  C3_7 
REMARK    2  A    between atoms: C3_7  and  C4_8 
REMARK    3  A    between atoms: C4_8  and  S1_9 
REMARK    4  A    between atoms: S1_9  and  S2_10 
REMARK    5  A    between atoms: S2_10  and  C5_11 
REMARK    6  A    between atoms: C6_13  and  C7_14 
REMARK    7  A    between atoms: C7_14  and  S3_15 
REMARK    8  A    between atoms: S3_15  and  C8_16 
REMARK    9  A    between atoms: C9_19  and  O3_20 
REMARK   10  A    between atoms: C10_22  and  O4_23 
REMARK   11  A    between atoms: C11_25  and  O5_26 
REMARK   12  A    between atoms: C15_32  and  O6_33 
ROOT
HETATM    1  C5  UNL     1       4.017  50.140  -6.239  1.00  0.00     0.225 C 
HETATM    2  O1  UNL     1       4.834  49.063  -6.061  1.00  0.00    -0.363 OA
HETATM    3  C6  UNL     1       4.537  48.201  -5.049  1.00  0.00     0.164 C 
HETATM    4  C9  UNL     1       3.426  48.569  -4.133  1.00  0.00     0.179 C 
HETATM    5  C10 UNL     1       3.147  50.024  -3.985  1.00  0.00     0.181 C 
HETATM    6  C11 UNL     1       3.910  50.898  -4.934  1.00  0.00     0.189 C 
ENDROOT
BRANCH   1   7
HETATM    7  S2  UNL     1       4.777  51.282  -7.430  1.00  0.00    -0.063 SA
BRANCH   7   8
HETATM    8  S1  UNL     1       6.830  50.828  -7.724  1.00  0.00    -0.093 SA
BRANCH   8   9
HETATM    9  C4  UNL     1       7.896  52.263  -7.313  1.00  0.00     0.106 C 
BRANCH   9  10
HETATM   10  C3  UNL     1       7.866  52.451  -5.835  1.00  0.00     0.149 C 
BRANCH  10  11
HETATM   11  N2  UNL     1       7.054  53.591  -5.503  1.00  0.00    -0.226 N 
HETATM   12  C2  UNL     1       7.666  54.745  -4.956  1.00  0.00     0.673 C 
HETATM   13  N1  UNL     1       8.245  55.599  -5.681  1.00  0.00    -0.231 N 
HETATM   14  N4  UNL     1       7.599  54.909  -3.558  1.00  0.00    -0.192 N 
HETATM   15  C1  UNL     1       8.906  56.804  -5.305  1.00  0.00     0.165 C 
ATOM     16  H1  UNL     1       8.240  55.398  -6.680  1.00  0.00     0.177 HD
HETATM   17  C12 UNL     1       7.092  56.012  -2.762  1.00  0.00     0.144 C 
HETATM   18  C15 UNL     1       8.074  53.882  -2.630  1.00  0.00     0.237 C 
HETATM   19  C13 UNL     1       8.051  56.032  -1.596  1.00  0.00     0.025 C 
HETATM   20  C14 UNL     1       8.268  54.565  -1.318  1.00  0.00     0.056 C 
ATOM     21  H2  UNL     1       6.046  53.569  -5.659  1.00  0.00     0.177 HD
BRANCH  18  22
HETATM   22  O6  UNL     1       7.083  52.892  -2.533  1.00  0.00    -0.376 OA
ATOM     23  H6  UNL     1       7.374  52.135  -3.028  1.00  0.00     0.212 HD
ENDBRANCH  18  22
ENDBRANCH  10  11
ENDBRANCH   9  10
ENDBRANCH   8   9
ENDBRANCH   7   8
ENDBRANCH   1   7
BRANCH   6  24
HETATM   24  O5  UNL     1       5.143  51.299  -4.484  1.00  0.00    -0.389 OA
ATOM     25  H5  UNL     1       5.101  52.155  -4.072  1.00  0.00     0.210 HD
ENDBRANCH   6  24
BRANCH   3  26
HETATM   26  C7  UNL     1       5.819  47.849  -4.322  1.00  0.00     0.118 C 
BRANCH  26  27
HETATM   27  S3  UNL     1       6.176  46.097  -4.273  1.00  0.00    -0.070 SA
BRANCH  27  28
HETATM   28  C8  UNL     1       6.516  45.427  -5.890  1.00  0.00     0.292 C 
HETATM   29  N3  UNL     1       5.451  45.142  -6.781  1.00  0.00    -0.051 NA
HETATM   30  O2  UNL     1       7.687  45.195  -6.279  1.00  0.00    -0.264 OA
ENDBRANCH  27  28
ENDBRANCH  26  27
ENDBRANCH   3  26
BRANCH   5  31
HETATM   31  O4  UNL     1       1.798  50.341  -4.147  1.00  0.00    -0.390 OA
ATOM     32  H4  UNL     1       1.278  49.609  -4.456  1.00  0.00     0.210 HD
ENDBRANCH   5  31
BRANCH   4  33
HETATM   33  O3  UNL     1       2.244  47.838  -4.417  1.00  0.00    -0.390 OA
ATOM     34  H3  UNL     1       2.411  46.905  -4.483  1.00  0.00     0.210 HD
ENDBRANCH   4  33
TORSDOF 12
ENDMDL
MODEL 3
REMARK VINA RESULT: -6.362320412      2.292      3.376
REMARK  12 active torsions:
REMARK  status: ('A' for Active; 'I' for Inactive)
REMARK       I    between atoms: C2_4  and  N2_5 
REMARK       I    between atoms: C2_4  and  N4_28 
REMARK    1  A    between atoms: N2_5  and  C3_7 
REMARK    2  A    between atoms: C3_7  and  C4_8 
REMARK    3  A    between atoms: C4_8  and  S1_9 
REMARK    4  A    between atoms: S1_9  and  S2_10 
REMARK    5  A    between atoms: S2_10  and  C5_11 
REMARK    6  A    between atoms: C6_13  and  C7_14 
REMARK    7  A    between atoms: C7_14  and  S3_15 
REMARK    8  A    between atoms: S3_15  and  C8_16 
REMARK    9  A    between atoms: C9_19  and  O3_20 
REMARK   10  A    between atoms: C10_22  and  O4_23 
REMARK   11  A    between atoms: C11_25  and  O5_26 
REMARK   12  A    between atoms: C15_32  and  O6_33 
ROOT
HETATM    1  C5  UNL     1       4.829  51.167  -5.526  1.00  0.00     0.225 C 
HETATM    2  O1  UNL     1       5.282  50.168  -6.337  1.00  0.00    -0.363 OA
HETATM    3  C6  UNL     1       4.752  48.925  -6.169  1.00  0.00     0.164 C 
HETATM    4  C9  UNL     1       3.820  48.719  -5.031  1.00  0.00     0.179 C 
HETATM    5  C10 UNL     1       3.998  49.622  -3.860  1.00  0.00     0.181 C 
HETATM    6  C11 UNL     1       4.977  50.736  -4.083  1.00  0.00     0.189 C 
ENDROOT
BRANCH   1   7
HETATM    7  S2  UNL     1       5.882  52.632  -5.730  1.00  0.00    -0.063 SA
BRANCH   7   8
HETATM    8  S1  UNL     1       7.541  52.216  -6.986  1.00  0.00    -0.093 SA
BRANCH   8   9
HETATM    9  C4  UNL     1       9.124  52.365  -6.072  1.00  0.00     0.106 C 
BRANCH   9  10
HETATM   10  C3  UNL     1       8.824  52.904  -4.716  1.00  0.00     0.149 C 
BRANCH  10  11
HETATM   11  N2  UNL     1       9.523  54.147  -4.518  1.00  0.00    -0.226 N 
HETATM   12  C2  UNL     1       9.751  54.613  -3.200  1.00  0.00     0.673 C 
HETATM   13  N1  UNL     1      10.700  54.178  -2.494  1.00  0.00    -0.231 N 
HETATM   14  N4  UNL     1       8.872  55.596  -2.704  1.00  0.00    -0.192 N 
HETATM   15  C1  UNL     1      11.074  54.531  -1.165  1.00  0.00     0.165 C 
ATOM     16  H1  UNL     1      11.286  53.471  -2.939  1.00  0.00     0.177 HD
HETATM   17  C12 UNL     1       9.143  56.914  -2.156  1.00  0.00     0.144 C 
HETATM   18  C15 UNL     1       7.421  55.402  -2.677  1.00  0.00     0.237 C 
HETATM   19  C13 UNL     1       8.101  57.028  -1.069  1.00  0.00     0.025 C 
HETATM   20  C14 UNL     1       6.886  56.399  -1.704  1.00  0.00     0.056 C 
ATOM     21  H2  UNL     1       9.850  54.687  -5.318  1.00  0.00     0.177 HD
BRANCH  18  22
HETATM   22  O6  UNL     1       6.926  55.652  -3.967  1.00  0.00    -0.376 OA
ATOM     23  H6  UNL     1       6.711  56.575  -4.026  1.00  0.00     0.212 HD
ENDBRANCH  18  22
ENDBRANCH  10  11
ENDBRANCH   9  10
ENDBRANCH   8   9
ENDBRANCH   7   8
ENDBRANCH   1   7
BRANCH   6  24
HETATM   24  O5  UNL     1       6.279  50.427  -3.782  1.00  0.00    -0.389 OA
ATOM     25  H5  UNL     1       6.332  49.766  -3.102  1.00  0.00     0.210 HD
ENDBRANCH   6  24
BRANCH   3  26
HETATM   26  C7  UNL     1       5.878  47.910  -6.209  1.00  0.00     0.118 C 
BRANCH  26  27
HETATM   27  S3  UNL     1       5.856  46.736  -4.860  1.00  0.00    -0.070 SA
BRANCH  27  28
HETATM   28  C8  UNL     1       6.638  45.193  -5.288  1.00  0.00     0.292 C 
HETATM   29  N3  UNL     1       7.499  45.120  -6.412  1.00  0.00    -0.051 NA
HETATM   30  O2  UNL     1       6.452  44.147  -4.620  1.00  0.00    -0.264 OA
ENDBRANCH  27  28
ENDBRANCH  26  27
ENDBRANCH   3  26
BRANCH   5  31
HETATM   31  O4  UNL     1       2.807  50.215  -3.441  1.00  0.00    -0.390 OA
ATOM     32  H4  UNL     1       2.724  50.255  -2.496  1.00  0.00     0.210 HD
ENDBRANCH   5  31
BRANCH   4  33
HETATM   33  O3  UNL     1       2.467  48.680  -5.457  1.00  0.00    -0.390 OA
ATOM     34  H3  UNL     1       1.867  48.621  -4.723  1.00  0.00     0.210 HD
ENDBRANCH   4  33
TORSDOF 12
ENDMDL
MODEL 4
REMARK VINA RESULT: -6.337409681      3.927      6.230
REMARK  12 active torsions:
REMARK  status: ('A' for Active; 'I' for Inactive)
REMARK       I    between atoms: C2_4  and  N2_5 
REMARK       I    between atoms: C2_4  and  N4_28 
REMARK    1  A    between atoms: N2_5  and  C3_7 
REMARK    2  A    between atoms: C3_7  and  C4_8 
REMARK    3  A    between atoms: C4_8  and  S1_9 
REMARK    4  A    between atoms: S1_9  and  S2_10 
REMARK    5  A    between atoms: S2_10  and  C5_11 
REMARK    6  A    between atoms: C6_13  and  C7_14 
REMARK    7  A    between atoms: C7_14  and  S3_15 
REMARK    8  A    between atoms: S3_15  and  C8_16 
REMARK    9  A    between atoms: C9_19  and  O3_20 
REMARK   10  A    between atoms: C10_22  and  O4_23 
REMARK   11  A    between atoms: C11_25  and  O5_26 
REMARK   12  A    between atoms: C15_32  and  O6_33 
ROOT
HETATM    1  C5  UNL     1       4.468  51.090  -5.839  1.00  0.00     0.225 C 
HETATM    2  O1  UNL     1       4.983  50.026  -6.519  1.00  0.00    -0.363 OA
HETATM    3  C6  UNL     1       4.627  48.777  -6.108  1.00  0.00     0.164 C 
HETATM    4  C9  UNL     1       3.811  48.663  -4.872  1.00  0.00     0.179 C 
HETATM    5  C10 UNL     1       3.957  49.765  -3.881  1.00  0.00     0.181 C 
HETATM    6  C11 UNL     1       4.771  50.927  -4.366  1.00  0.00     0.189 C 
ENDROOT
BRANCH   1   7
HETATM    7  S2  UNL     1       5.312  52.608  -6.367  1.00  0.00    -0.063 SA
BRANCH   7   8
HETATM    8  S1  UNL     1       4.351  53.473  -8.052  1.00  0.00    -0.093 SA
BRANCH   8   9
HETATM    9  C4  UNL     1       4.321  52.312  -9.471  1.00  0.00     0.106 C 
BRANCH   9  10
HETATM   10  C3  UNL     1       3.138  51.421  -9.312  1.00  0.00     0.149 C 
BRANCH  10  11
HETATM   11  N2  UNL     1       2.015  52.180  -8.826  1.00  0.00    -0.226 N 
HETATM   12  C2  UNL     1       0.883  51.498  -8.319  1.00  0.00     0.673 C 
HETATM   13  N1  UNL     1       0.850  51.043  -7.143  1.00  0.00    -0.231 N 
HETATM   14  N4  UNL     1      -0.221  51.350  -9.183  1.00  0.00    -0.192 N 
HETATM   15  C1  UNL     1      -0.194  50.340  -6.475  1.00  0.00     0.165 C 
ATOM     16  H1  UNL     1       1.692  51.202  -6.591  1.00  0.00     0.177 HD
HETATM   17  C12 UNL     1      -1.610  51.735  -9.012  1.00  0.00     0.144 C 
HETATM   18  C15 UNL     1      -0.098  50.730 -10.503  1.00  0.00     0.237 C 
HETATM   19  C13 UNL     1      -2.341  50.607  -9.701  1.00  0.00     0.025 C 
HETATM   20  C14 UNL     1      -1.480  50.340 -10.910  1.00  0.00     0.056 C 
ATOM     21  H2  UNL     1       2.035  53.199  -8.847  1.00  0.00     0.177 HD
BRANCH  18  22
HETATM   22  O6  UNL     1       0.428  51.688 -11.385  1.00  0.00    -0.376 OA
ATOM     23  H6  UNL     1      -0.159  51.756 -12.129  1.00  0.00     0.212 HD
ENDBRANCH  18  22
ENDBRANCH  10  11
ENDBRANCH   9  10
ENDBRANCH   8   9
ENDBRANCH   7   8
ENDBRANCH   1   7
BRANCH   6  24
HETATM   24  O5  UNL     1       6.120  50.821  -4.139  1.00  0.00    -0.389 OA
ATOM     25  H5  UNL     1       6.411  51.441  -3.480  1.00  0.00     0.210 HD
ENDBRANCH   6  24
BRANCH   3  26
HETATM   26  C7  UNL     1       5.864  47.902  -6.089  1.00  0.00     0.118 C 
BRANCH  26  27
HETATM   27  S3  UNL     1       5.884  46.689  -4.775  1.00  0.00    -0.070 SA
BRANCH  27  28
HETATM   28  C8  UNL     1       6.652  45.159  -5.273  1.00  0.00     0.292 C 
HETATM   29  N3  UNL     1       7.487  45.123  -6.418  1.00  0.00    -0.051 NA
HETATM   30  O2  UNL     1       6.479  44.091  -4.637  1.00  0.00    -0.264 OA
ENDBRANCH  27  28
ENDBRANCH  26  27
ENDBRANCH   3  26
BRANCH   5  31
HETATM   31  O4  UNL     1       2.734  50.283  -3.455  1.00  0.00    -0.390 OA
ATOM     32  H4  UNL     1       2.191  49.640  -3.015  1.00  0.00     0.210 HD
ENDBRANCH   5  31
BRANCH   4  33
HETATM   33  O3  UNL     1       2.447  48.402  -5.162  1.00  0.00    -0.390 OA
ATOM     34  H3  UNL     1       1.886  49.127  -4.911  1.00  0.00     0.210 HD
ENDBRANCH   4  33
TORSDOF 12
ENDMDL
MODEL 5
REMARK VINA RESULT: -6.330654751      1.986      2.621
REMARK  12 active torsions:
REMARK  status: ('A' for Active; 'I' for Inactive)
REMARK       I    between atoms: C2_4  and  N2_5 
REMARK       I    between atoms: C2_4  and  N4_28 
REMARK    1  A    between atoms: N2_5  and  C3_7 
REMARK    2  A    between atoms: C3_7  and  C4_8 
REMARK    3  A    between atoms: C4_8  and  S1_9 
REMARK    4  A    between atoms: S1_9  and  S2_10 
REMARK    5  A    between atoms: S2_10  and  C5_11 
REMARK    6  A    between atoms: C6_13  and  C7_14 
REMARK    7  A    between atoms: C7_14  and  S3_15 
REMARK    8  A    between atoms: S3_15  and  C8_16 
REMARK    9  A    between atoms: C9_19  and  O3_20 
REMARK   10  A    between atoms: C10_22  and  O4_23 
REMARK   11  A    between atoms: C11_25  and  O5_26 
REMARK   12  A    between atoms: C15_32  and  O6_33 
ROOT
HETATM    1  C5  UNL     1       4.278  51.058  -6.023  1.00  0.00     0.225 C 
HETATM    2  O1  UNL     1       4.874  49.963  -6.576  1.00  0.00    -0.363 OA
HETATM    3  C6  UNL     1       4.610  48.748  -6.021  1.00  0.00     0.164 C 
HETATM    4  C9  UNL     1       3.800  48.718  -4.777  1.00  0.00     0.179 C 
HETATM    5  C10 UNL     1       3.860  49.935  -3.921  1.00  0.00     0.181 C 
HETATM    6  C11 UNL     1       4.587  51.090  -4.542  1.00  0.00     0.189 C 
ENDROOT
BRANCH   1   7
HETATM    7  S2  UNL     1       5.009  52.563  -6.728  1.00  0.00    -0.063 SA
BRANCH   7   8
HETATM    8  S1  UNL     1       6.688  52.104  -7.943  1.00  0.00    -0.093 SA
BRANCH   8   9
HETATM    9  C4  UNL     1       8.234  52.066  -6.957  1.00  0.00     0.106 C 
BRANCH   9  10
HETATM   10  C3  UNL     1       8.175  53.175  -5.965  1.00  0.00     0.149 C 
BRANCH  10  11
HETATM   11  N2  UNL     1       8.713  52.734  -4.704  1.00  0.00    -0.226 N 
HETATM   12  C2  UNL     1       8.500  53.519  -3.545  1.00  0.00     0.673 C 
HETATM   13  N1  UNL     1       7.422  53.468  -2.894  1.00  0.00    -0.231 N 
HETATM   14  N4  UNL     1       9.552  54.364  -3.138  1.00  0.00    -0.192 N 
HETATM   15  C1  UNL     1       7.041  54.178  -1.719  1.00  0.00     0.165 C 
ATOM     16  H1  UNL     1       6.721  52.825  -3.262  1.00  0.00     0.177 HD
HETATM   17  C12 UNL     1      10.249  54.456  -1.867  1.00  0.00     0.144 C 
HETATM   18  C15 UNL     1      10.145  55.357  -4.035  1.00  0.00     0.237 C 
HETATM   19  C13 UNL     1      10.502  55.940  -1.749  1.00  0.00     0.025 C 
HETATM   20  C14 UNL     1      10.863  56.330  -3.161  1.00  0.00     0.056 C 
ATOM     21  H2  UNL     1       9.242  51.864  -4.647  1.00  0.00     0.177 HD
BRANCH  18  22
HETATM   22  O6  UNL     1      11.045  54.693  -4.883  1.00  0.00    -0.376 OA
ATOM     23  H6  UNL     1      10.549  54.094  -5.429  1.00  0.00     0.212 HD
ENDBRANCH  18  22
ENDBRANCH  10  11
ENDBRANCH   9  10
ENDBRANCH   8   9
ENDBRANCH   7   8
ENDBRANCH   1   7
BRANCH   6  24
HETATM   24  O5  UNL     1       5.939  51.112  -4.311  1.00  0.00    -0.389 OA
ATOM     25  H5  UNL     1       6.242  51.990  -4.106  1.00  0.00     0.210 HD
ENDBRANCH   6  24
BRANCH   3  26
HETATM   26  C7  UNL     1       5.909  47.976  -5.907  1.00  0.00     0.118 C 
BRANCH  26  27
HETATM   27  S3  UNL     1       5.890  46.688  -4.665  1.00  0.00    -0.070 SA
BRANCH  27  28
HETATM   28  C8  UNL     1       6.646  45.179  -5.239  1.00  0.00     0.292 C 
HETATM   29  N3  UNL     1       7.457  45.187  -6.402  1.00  0.00    -0.051 NA
HETATM   30  O2  UNL     1       6.486  44.087  -4.641  1.00  0.00    -0.264 OA
ENDBRANCH  27  28
ENDBRANCH  26  27
ENDBRANCH   3  26
BRANCH   5  31
HETATM   31  O4  UNL     1       2.600  50.407  -3.552  1.00  0.00    -0.390 OA
ATOM     32  H4  UNL     1       2.617  50.934  -2.763  1.00  0.00     0.210 HD
ENDBRANCH   5  31
BRANCH   4  33
HETATM   33  O3  UNL     1       2.460  48.324  -5.028  1.00  0.00    -0.390 OA
ATOM     34  H3  UNL     1       1.947  48.286  -4.230  1.00  0.00     0.210 HD
ENDBRANCH   4  33
TORSDOF 12
ENDMDL
