MODEL 1
REMARK VINA RESULT: -6.365640734      0.000      0.000
REMARK  10 active torsions:
REMARK  status: ('A' for Active; 'I' for Inactive)
REMARK    1  A    between atoms: C2_2  and  C3_3 
REMARK    2  A    between atoms: C5_8  and  N2_9 
REMARK    3  A    between atoms: C7_14  and  O1_15 
REMARK    4  A    between atoms: O1_15  and  C8_16 
REMARK    5  A    between atoms: C9_17  and  N3_18 
REMARK    6  A    between atoms: C11_23  and  O2_24 
REMARK    7  A    between atoms: O2_24  and  C12_25 
REMARK    8  A    between atoms: C16_29  and  C17_30 
REMARK    9  A    between atoms: C17_30  and  N4_31 
REMARK   10  A    between atoms: C19_38  and  N5_39 
ROOT
HETATM    1  C8  UNL     1       5.726  50.303  -6.671  1.00  0.00     0.182 C 
HETATM    2  C9  UNL     1       5.012  49.000  -6.375  1.00  0.00     0.217 C 
HETATM    3  C10 UNL     1       4.509  48.909  -4.957  1.00  0.00     0.075 C 
HETATM    4  C11 UNL     1       3.341  49.880  -4.839  1.00  0.00     0.198 C 
HETATM    5  C18 UNL     1       3.706  51.124  -5.549  1.00  0.00     0.180 C 
HETATM    6  O4  UNL     1       2.828  51.888  -5.891  1.00  0.00    -0.293 OA
HETATM    7  C19 UNL     1       5.124  51.450  -5.848  1.00  0.00     0.187 C 
ENDROOT
BRANCH   1   8
HETATM    8  O1  UNL     1       5.592  50.527  -8.022  1.00  0.00    -0.376 OA
BRANCH   8   9
HETATM    9  C7  UNL     1       6.752  50.819  -8.692  1.00  0.00     0.125 C 
HETATM   10  C6  UNL     1       6.724  52.046  -9.527  1.00  0.00     0.064 C 
HETATM   11  C5  UNL     1       6.979  53.316  -8.745  1.00  0.00     0.187 C 
HETATM   12  C4  UNL     1       8.398  53.284  -8.270  1.00  0.00     0.047 C 
HETATM   13  C2  UNL     1       8.900  51.911  -7.943  1.00  0.00    -0.008 C 
HETATM   14  C1  UNL     1       9.884  51.440  -9.012  1.00  0.00     0.021 C 
HETATM   15  C21 UNL     1       7.845  50.914  -7.654  1.00  0.00     0.046 C 
BRANCH  11  16
HETATM   16  N2  UNL     1       6.840  54.422  -9.686  1.00  0.00    -0.075 N 
ATOM     17  H23 UNL     1       7.703  54.954  -9.799  1.00  0.00     0.274 HD
ATOM     18  H22 UNL     1       6.744  54.108 -10.651  1.00  0.00     0.274 HD
ATOM     19  H21 UNL     1       6.058  55.002  -9.380  1.00  0.00     0.274 HD
ENDBRANCH  11  16
BRANCH  13  20
HETATM   20  C3  UNL     1       9.715  52.065  -6.678  1.00  0.00     0.062 C 
HETATM   21  N1  UNL     1       9.610  53.210  -6.092  1.00  0.00    -0.410 N 
ATOM     22  H12 UNL     1       9.015  53.949  -6.467  1.00  0.00     0.155 HD
ATOM     23  H11 UNL     1      10.159  53.313  -5.239  1.00  0.00     0.155 HD
ENDBRANCH  13  20
ENDBRANCH   8   9
ENDBRANCH   1   8
BRANCH   2  24
HETATM   24  N3  UNL     1       5.933  47.925  -6.697  1.00  0.00    -0.072 N 
ATOM     25  H33 UNL     1       6.693  48.220  -7.311  1.00  0.00     0.274 HD
ATOM     26  H32 UNL     1       6.508  47.639  -5.904  1.00  0.00     0.274 HD
ATOM     27  H31 UNL     1       5.379  47.161  -7.086  1.00  0.00     0.274 HD
ENDBRANCH   2  24
BRANCH   7  28
HETATM   28  N5  UNL     1       5.807  51.575  -4.578  1.00  0.00    -0.353 N 
HETATM   29  C20 UNL     1       6.535  52.546  -4.232  1.00  0.00     0.197 C 
HETATM   30  N6  UNL     1       7.155  52.561  -2.964  1.00  0.00    -0.067 NA
HETATM   31  N7  UNL     1       6.744  53.634  -5.105  1.00  0.00    -0.067 NA
ATOM     32  H5  UNL     1       5.692  50.815  -3.907  1.00  0.00     0.162 HD
ENDBRANCH   7  28
BRANCH   4  33
HETATM   33  O2  UNL     1       3.047  50.181  -3.532  1.00  0.00    -0.348 OA
BRANCH  33  34
HETATM   34  C12 UNL     1       1.737  49.880  -3.160  1.00  0.00     0.261 C 
HETATM   35  C13 UNL     1       1.782  48.738  -2.200  1.00  0.00     0.061 C 
HETATM   36  C14 UNL     1       0.513  48.481  -1.455  1.00  0.00     0.007 C 
HETATM   37  C15 UNL     1      -0.142  49.758  -1.030  1.00  0.00     0.034 C 
HETATM   38  C16 UNL     1      -0.193  50.744  -2.200  1.00  0.00     0.150 C 
HETATM   39  O3  UNL     1       1.038  50.983  -2.745  1.00  0.00    -0.354 OA
BRANCH  38  40
HETATM   40  C17 UNL     1      -1.080  50.101  -3.244  1.00  0.00     0.261 C 
BRANCH  40  41
HETATM   41  N4  UNL     1      -2.449  49.991  -2.801  1.00  0.00    -0.077 N 
ATOM     42  H43 UNL     1      -2.908  49.180  -3.216  1.00  0.00     0.274 HD
ATOM     43  H42 UNL     1      -2.499  49.720  -1.819  1.00  0.00     0.274 HD
ATOM     44  H41 UNL     1      -2.979  50.844  -2.976  1.00  0.00     0.274 HD
ENDBRANCH  40  41
ENDBRANCH  38  40
ENDBRANCH  33  34
ENDBRANCH   4  33
TORSDOF 10
ENDMDL
MODEL 2
REMARK VINA RESULT: -6.284346751      1.993      3.148
REMARK  10 active torsions:
REMARK  status: ('A' for Active; 'I' for Inactive)
REMARK    1  A    between atoms: C2_2  and  C3_3 
REMARK    2  A    between atoms: C5_8  and  N2_9 
REMARK    3  A    between atoms: C7_14  and  O1_15 
REMARK    4  A    between atoms: O1_15  and  C8_16 
REMARK    5  A    between atoms: C9_17  and  N3_18 
REMARK    6  A    between atoms: C11_23  and  O2_24 
REMARK    7  A    between atoms: O2_24  and  C12_25 
REMARK    8  A    between atoms: C16_29  and  C17_30 
REMARK    9  A    between atoms: C17_30  and  N4_31 
REMARK   10  A    between atoms: C19_38  and  N5_39 
ROOT
HETATM    1  C8  UNL     1       5.794  49.715  -6.519  1.00  0.00     0.182 C 
HETATM    2  C9  UNL     1       4.505  50.491  -6.344  1.00  0.00     0.217 C 
HETATM    3  C10 UNL     1       3.401  49.676  -5.721  1.00  0.00     0.075 C 
HETATM    4  C11 UNL     1       3.779  49.463  -4.261  1.00  0.00     0.198 C 
HETATM    5  C18 UNL     1       5.222  49.153  -4.201  1.00  0.00     0.180 C 
HETATM    6  O4  UNL     1       5.813  49.294  -3.151  1.00  0.00    -0.293 OA
HETATM    7  C19 UNL     1       5.955  48.675  -5.401  1.00  0.00     0.187 C 
ENDROOT
BRANCH   1   8
HETATM    8  O1  UNL     1       6.815  50.637  -6.501  1.00  0.00    -0.376 OA
BRANCH   8   9
HETATM    9  C7  UNL     1       7.406  50.889  -7.711  1.00  0.00     0.125 C 
HETATM   10  C6  UNL     1       7.535  52.321  -8.081  1.00  0.00     0.064 C 
HETATM   11  C5  UNL     1       8.741  52.998  -7.469  1.00  0.00     0.187 C 
HETATM   12  C4  UNL     1       9.966  52.397  -8.085  1.00  0.00     0.047 C 
HETATM   13  C2  UNL     1       9.826  50.945  -8.425  1.00  0.00    -0.008 C 
HETATM   14  C1  UNL     1       9.714  50.765  -9.938  1.00  0.00     0.021 C 
HETATM   15  C21 UNL     1       8.764  50.230  -7.682  1.00  0.00     0.046 C 
BRANCH  11  16
HETATM   16  N2  UNL     1       8.677  54.402  -7.861  1.00  0.00    -0.075 N 
ATOM     17  H23 UNL     1       9.533  54.911  -7.639  1.00  0.00     0.274 HD
ATOM     18  H22 UNL     1       8.699  54.530  -8.872  1.00  0.00     0.274 HD
ATOM     19  H21 UNL     1       7.851  54.815  -7.429  1.00  0.00     0.274 HD
ENDBRANCH  11  16
BRANCH  13  20
HETATM   20  C3  UNL     1      11.140  50.306  -8.034  1.00  0.00     0.062 C 
HETATM   21  N1  UNL     1      11.141  49.015  -8.025  1.00  0.00    -0.410 N 
ATOM     22  H12 UNL     1      10.308  48.479  -8.267  1.00  0.00     0.155 HD
ATOM     23  H11 UNL     1      12.027  48.584  -7.762  1.00  0.00     0.155 HD
ENDBRANCH  13  20
ENDBRANCH   8   9
ENDBRANCH   1   8
BRANCH   2  24
HETATM   24  N3  UNL     1       4.134  51.003  -7.652  1.00  0.00    -0.072 N 
ATOM     25  H33 UNL     1       4.912  51.015  -8.311  1.00  0.00     0.274 HD
ATOM     26  H32 UNL     1       3.529  50.368  -8.173  1.00  0.00     0.274 HD
ATOM     27  H31 UNL     1       3.718  51.923  -7.507  1.00  0.00     0.274 HD
ENDBRANCH   2  24
BRANCH   7  28
HETATM   28  N5  UNL     1       5.357  47.416  -5.790  1.00  0.00    -0.353 N 
HETATM   29  C20 UNL     1       5.985  46.340  -5.991  1.00  0.00     0.197 C 
HETATM   30  N6  UNL     1       5.295  45.168  -6.370  1.00  0.00    -0.067 NA
HETATM   31  N7  UNL     1       7.387  46.287  -5.844  1.00  0.00    -0.067 NA
ATOM     32  H5  UNL     1       4.345  47.396  -5.912  1.00  0.00     0.162 HD
ENDBRANCH   7  28
BRANCH   4  33
HETATM   33  O2  UNL     1       3.075  48.431  -3.688  1.00  0.00    -0.348 OA
BRANCH  33  34
HETATM   34  C12 UNL     1       1.822  48.799  -3.202  1.00  0.00     0.261 C 
HETATM   35  C13 UNL     1       1.601  48.087  -1.909  1.00  0.00     0.061 C 
HETATM   36  C14 UNL     1       0.461  48.591  -1.088  1.00  0.00     0.007 C 
HETATM   37  C15 UNL     1       0.387  50.087  -1.111  1.00  0.00     0.034 C 
HETATM   38  C16 UNL     1       0.511  50.602  -2.548  1.00  0.00     0.150 C 
HETATM   39  O3  UNL     1       1.643  50.157  -3.174  1.00  0.00    -0.354 OA
BRANCH  38  40
HETATM   40  C17 UNL     1      -0.701  50.073  -3.283  1.00  0.00     0.261 C 
BRANCH  40  41
HETATM   41  N4  UNL     1      -0.684  50.426  -4.683  1.00  0.00    -0.077 N 
ATOM     42  H43 UNL     1       0.242  50.289  -5.087  1.00  0.00     0.274 HD
ATOM     43  H42 UNL     1      -1.205  49.749  -5.240  1.00  0.00     0.274 HD
ATOM     44  H41 UNL     1      -1.021  51.374  -4.844  1.00  0.00     0.274 HD
ENDBRANCH  40  41
ENDBRANCH  38  40
ENDBRANCH  33  34
ENDBRANCH   4  33
TORSDOF 10
ENDMDL
MODEL 3
REMARK VINA RESULT: -6.190592739      1.946      3.670
REMARK  10 active torsions:
REMARK  status: ('A' for Active; 'I' for Inactive)
REMARK    1  A    between atoms: C2_2  and  C3_3 
REMARK    2  A    between atoms: C5_8  and  N2_9 
REMARK    3  A    between atoms: C7_14  and  O1_15 
REMARK    4  A    between atoms: O1_15  and  C8_16 
REMARK    5  A    between atoms: C9_17  and  N3_18 
REMARK    6  A    between atoms: C11_23  and  O2_24 
REMARK    7  A    between atoms: O2_24  and  C12_25 
REMARK    8  A    between atoms: C16_29  and  C17_30 
REMARK    9  A    between atoms: C17_30  and  N4_31 
REMARK   10  A    between atoms: C19_38  and  N5_39 
ROOT
HETATM    1  C8  UNL     1       5.870  49.486  -6.452  1.00  0.00     0.182 C 
HETATM    2  C9  UNL     1       4.586  50.284  -6.354  1.00  0.00     0.217 C 
HETATM    3  C10 UNL     1       3.450  49.508  -5.740  1.00  0.00     0.075 C 
HETATM    4  C11 UNL     1       3.773  49.349  -4.260  1.00  0.00     0.198 C 
HETATM    5  C18 UNL     1       5.209  49.024  -4.136  1.00  0.00     0.180 C 
HETATM    6  O4  UNL     1       5.764  49.199  -3.072  1.00  0.00    -0.293 OA
HETATM    7  C19 UNL     1       5.977  48.490  -5.289  1.00  0.00     0.187 C 
ENDROOT
BRANCH   1   8
HETATM    8  O1  UNL     1       6.902  50.395  -6.434  1.00  0.00    -0.376 OA
BRANCH   8   9
HETATM    9  C7  UNL     1       6.535  51.706  -6.281  1.00  0.00     0.125 C 
HETATM   10  C6  UNL     1       6.245  52.137  -4.890  1.00  0.00     0.064 C 
HETATM   11  C5  UNL     1       7.482  52.501  -4.099  1.00  0.00     0.187 C 
HETATM   12  C4  UNL     1       8.065  53.740  -4.704  1.00  0.00     0.047 C 
HETATM   13  C2  UNL     1       7.887  53.835  -6.188  1.00  0.00    -0.008 C 
HETATM   14  C1  UNL     1       6.838  54.892  -6.528  1.00  0.00     0.021 C 
HETATM   15  C21 UNL     1       7.644  52.544  -6.871  1.00  0.00     0.046 C 
BRANCH  11  16
HETATM   16  N2  UNL     1       7.036  52.821  -2.747  1.00  0.00    -0.075 N 
ATOM     17  H23 UNL     1       6.487  53.680  -2.708  1.00  0.00     0.274 HD
ATOM     18  H22 UNL     1       6.318  52.182  -2.408  1.00  0.00     0.274 HD
ATOM     19  H21 UNL     1       7.857  52.851  -2.142  1.00  0.00     0.274 HD
ENDBRANCH  11  16
BRANCH  13  20
HETATM   20  C3  UNL     1       9.195  54.373  -6.723  1.00  0.00     0.062 C 
HETATM   21  N1  UNL     1      10.248  53.719  -6.360  1.00  0.00    -0.410 N 
ATOM     22  H12 UNL     1      10.185  52.900  -5.756  1.00  0.00     0.155 HD
ATOM     23  H11 UNL     1      11.130  54.082  -6.721  1.00  0.00     0.155 HD
ENDBRANCH  13  20
ENDBRANCH   8   9
ENDBRANCH   1   8
BRANCH   2  24
HETATM   24  N3  UNL     1       4.269  50.749  -7.694  1.00  0.00    -0.072 N 
ATOM     25  H33 UNL     1       3.719  50.078  -8.229  1.00  0.00     0.274 HD
ATOM     26  H32 UNL     1       3.592  51.512  -7.703  1.00  0.00     0.274 HD
ATOM     27  H31 UNL     1       5.152  50.992  -8.144  1.00  0.00     0.274 HD
ENDBRANCH   2  24
BRANCH   7  28
HETATM   28  N5  UNL     1       5.376  47.223  -5.650  1.00  0.00    -0.353 N 
HETATM   29  C20 UNL     1       6.006  46.193  -6.013  1.00  0.00     0.197 C 
HETATM   30  N6  UNL     1       5.313  45.008  -6.343  1.00  0.00    -0.067 NA
HETATM   31  N7  UNL     1       7.414  46.203  -6.099  1.00  0.00    -0.067 NA
ATOM     32  H5  UNL     1       4.359  47.159  -5.607  1.00  0.00     0.162 HD
ENDBRANCH   7  28
BRANCH   4  33
HETATM   33  O2  UNL     1       3.035  48.350  -3.673  1.00  0.00    -0.348 OA
BRANCH  33  34
HETATM   34  C12 UNL     1       1.795  48.766  -3.193  1.00  0.00     0.261 C 
HETATM   35  C13 UNL     1       1.543  48.068  -1.897  1.00  0.00     0.061 C 
HETATM   36  C14 UNL     1       0.419  48.619  -1.083  1.00  0.00     0.007 C 
HETATM   37  C15 UNL     1       0.401  50.116  -1.114  1.00  0.00     0.034 C 
HETATM   38  C16 UNL     1       0.549  50.619  -2.552  1.00  0.00     0.150 C 
HETATM   39  O3  UNL     1       1.666  50.130  -3.171  1.00  0.00    -0.354 OA
BRANCH  38  40
HETATM   40  C17 UNL     1      -0.679  50.132  -3.290  1.00  0.00     0.261 C 
BRANCH  40  41
HETATM   41  N4  UNL     1      -0.605  50.400  -4.706  1.00  0.00    -0.077 N 
ATOM     42  H43 UNL     1       0.316  50.166  -5.078  1.00  0.00     0.274 HD
ATOM     43  H42 UNL     1      -1.167  49.736  -5.238  1.00  0.00     0.274 HD
ATOM     44  H41 UNL     1      -0.860  51.361  -4.929  1.00  0.00     0.274 HD
ENDBRANCH  40  41
ENDBRANCH  38  40
ENDBRANCH  33  34
ENDBRANCH   4  33
TORSDOF 10
ENDMDL
MODEL 4
REMARK VINA RESULT: -6.165630335      1.700      2.876
REMARK  10 active torsions:
REMARK  status: ('A' for Active; 'I' for Inactive)
REMARK    1  A    between atoms: C2_2  and  C3_3 
REMARK    2  A    between atoms: C5_8  and  N2_9 
REMARK    3  A    between atoms: C7_14  and  O1_15 
REMARK    4  A    between atoms: O1_15  and  C8_16 
REMARK    5  A    between atoms: C9_17  and  N3_18 
REMARK    6  A    between atoms: C11_23  and  O2_24 
REMARK    7  A    between atoms: O2_24  and  C12_25 
REMARK    8  A    between atoms: C16_29  and  C17_30 
REMARK    9  A    between atoms: C17_30  and  N4_31 
REMARK   10  A    between atoms: C19_38  and  N5_39 
ROOT
HETATM    1  C8  UNL     1       5.831  49.760  -6.507  1.00  0.00     0.182 C 
HETATM    2  C9  UNL     1       5.081  48.521  -6.063  1.00  0.00     0.217 C 
HETATM    3  C10 UNL     1       4.519  48.634  -4.669  1.00  0.00     0.075 C 
HETATM    4  C11 UNL     1       3.366  49.628  -4.736  1.00  0.00     0.198 C 
HETATM    5  C18 UNL     1       3.784  50.756  -5.596  1.00  0.00     0.180 C 
HETATM    6  O4  UNL     1       2.934  51.476  -6.077  1.00  0.00    -0.293 OA
HETATM    7  C19 UNL     1       5.218  51.018  -5.876  1.00  0.00     0.187 C 
ENDROOT
BRANCH   1   8
HETATM    8  O1  UNL     1       5.756  49.796  -7.880  1.00  0.00    -0.376 OA
BRANCH   8   9
HETATM    9  C7  UNL     1       5.534  51.031  -8.429  1.00  0.00     0.125 C 
HETATM   10  C6  UNL     1       6.709  51.675  -9.067  1.00  0.00     0.064 C 
HETATM   11  C5  UNL     1       6.961  51.208 -10.482  1.00  0.00     0.187 C 
HETATM   12  C4  UNL     1       5.829  51.692 -11.334  1.00  0.00     0.047 C 
HETATM   13  C2  UNL     1       4.511  51.739 -10.625  1.00  0.00    -0.008 C 
HETATM   14  C1  UNL     1       4.117  53.187 -10.339  1.00  0.00     0.021 C 
HETATM   15  C21 UNL     1       4.414  50.871  -9.430  1.00  0.00     0.046 C 
BRANCH  11  16
HETATM   16  N2  UNL     1       8.183  51.868 -10.931  1.00  0.00    -0.075 N 
ATOM     17  H23 UNL     1       8.806  51.240 -11.439  1.00  0.00     0.274 HD
ATOM     18  H22 UNL     1       8.015  52.535 -11.684  1.00  0.00     0.274 HD
ATOM     19  H21 UNL     1       8.630  52.294 -10.119  1.00  0.00     0.274 HD
ENDBRANCH  11  16
BRANCH  13  20
HETATM   20  C3  UNL     1       3.493  51.229 -11.620  1.00  0.00     0.062 C 
HETATM   21  N1  UNL     1       3.398  49.944 -11.699  1.00  0.00    -0.410 N 
ATOM     22  H12 UNL     1       3.975  49.330 -11.124  1.00  0.00     0.155 HD
ATOM     23  H11 UNL     1       2.711  49.600 -12.370  1.00  0.00     0.155 HD
ENDBRANCH  13  20
ENDBRANCH   8   9
ENDBRANCH   1   8
BRANCH   2  24
HETATM   24  N3  UNL     1       5.994  47.399  -6.194  1.00  0.00    -0.072 N 
ATOM     25  H33 UNL     1       6.880  47.654  -6.629  1.00  0.00     0.274 HD
ATOM     26  H32 UNL     1       6.372  47.084  -5.300  1.00  0.00     0.274 HD
ATOM     27  H31 UNL     1       5.497  46.664  -6.698  1.00  0.00     0.274 HD
ENDBRANCH   2  24
BRANCH   7  28
HETATM   28  N5  UNL     1       5.852  51.310  -4.608  1.00  0.00    -0.353 N 
HETATM   29  C20 UNL     1       6.485  52.366  -4.334  1.00  0.00     0.197 C 
HETATM   30  N6  UNL     1       7.065  52.543  -3.059  1.00  0.00    -0.067 NA
HETATM   31  N7  UNL     1       6.626  53.390  -5.293  1.00  0.00    -0.067 NA
ATOM     32  H5  UNL     1       5.782  50.603  -3.876  1.00  0.00     0.162 HD
ENDBRANCH   7  28
BRANCH   4  33
HETATM   33  O2  UNL     1       3.026  50.113  -3.497  1.00  0.00    -0.348 OA
BRANCH  33  34
HETATM   34  C12 UNL     1       1.711  49.840  -3.122  1.00  0.00     0.261 C 
HETATM   35  C13 UNL     1       1.736  48.721  -2.134  1.00  0.00     0.061 C 
HETATM   36  C14 UNL     1       0.462  48.500  -1.387  1.00  0.00     0.007 C 
HETATM   37  C15 UNL     1      -0.175  49.798  -0.995  1.00  0.00     0.034 C 
HETATM   38  C16 UNL     1      -0.209  50.755  -2.189  1.00  0.00     0.150 C 
HETATM   39  O3  UNL     1       1.027  50.962  -2.736  1.00  0.00    -0.354 OA
BRANCH  38  40
HETATM   40  C17 UNL     1      -1.102  50.099  -3.220  1.00  0.00     0.261 C 
BRANCH  40  41
HETATM   41  N4  UNL     1      -2.473  50.014  -2.775  1.00  0.00    -0.077 N 
ATOM     42  H43 UNL     1      -2.586  50.420  -1.847  1.00  0.00     0.274 HD
ATOM     43  H42 UNL     1      -3.073  50.647  -3.303  1.00  0.00     0.274 HD
ATOM     44  H41 UNL     1      -2.827  49.058  -2.806  1.00  0.00     0.274 HD
ENDBRANCH  40  41
ENDBRANCH  38  40
ENDBRANCH  33  34
ENDBRANCH   4  33
TORSDOF 10
ENDMDL
MODEL 5
REMARK VINA RESULT: -6.145094488      1.772      3.013
REMARK  10 active torsions:
REMARK  status: ('A' for Active; 'I' for Inactive)
REMARK    1  A    between atoms: C2_2  and  C3_3 
REMARK    2  A    between atoms: C5_8  and  N2_9 
REMARK    3  A    between atoms: C7_14  and  O1_15 
REMARK    4  A    between atoms: O1_15  and  C8_16 
REMARK    5  A    between atoms: C9_17  and  N3_18 
REMARK    6  A    between atoms: C11_23  and  O2_24 
REMARK    7  A    between atoms: O2_24  and  C12_25 
REMARK    8  A    between atoms: C16_29  and  C17_30 
REMARK    9  A    between atoms: C17_30  and  N4_31 
REMARK   10  A    between atoms: C19_38  and  N5_39 
ROOT
HETATM    1  C8  UNL     1       5.073  50.858  -6.974  1.00  0.00     0.182 C 
HETATM    2  C9  UNL     1       3.614  51.236  -6.827  1.00  0.00     0.217 C 
HETATM    3  C10 UNL     1       2.801  50.195  -6.101  1.00  0.00     0.075 C 
HETATM    4  C11 UNL     1       3.232  50.238  -4.640  1.00  0.00     0.198 C 
HETATM    5  C18 UNL     1       4.703  50.371  -4.600  1.00  0.00     0.180 C 
HETATM    6  O4  UNL     1       5.231  50.775  -3.585  1.00  0.00    -0.293 OA
HETATM    7  C19 UNL     1       5.538  50.019  -5.776  1.00  0.00     0.187 C 
ENDROOT
BRANCH   1   8
HETATM    8  O1  UNL     1       5.778  52.035  -7.070  1.00  0.00    -0.376 OA
BRANCH   8   9
HETATM    9  C7  UNL     1       6.991  52.054  -6.432  1.00  0.00     0.125 C 
HETATM   10  C6  UNL     1       8.184  52.072  -7.315  1.00  0.00     0.064 C 
HETATM   11  C5  UNL     1       8.545  53.452  -7.816  1.00  0.00     0.187 C 
HETATM   12  C4  UNL     1       9.002  54.261  -6.643  1.00  0.00     0.047 C 
HETATM   13  C2  UNL     1       8.302  53.925  -5.362  1.00  0.00    -0.008 C 
HETATM   14  C1  UNL     1       9.243  53.161  -4.432  1.00  0.00     0.021 C 
HETATM   15  C21 UNL     1       6.990  53.260  -5.524  1.00  0.00     0.046 C 
BRANCH  11  16
HETATM   16  N2  UNL     1       9.676  53.286  -8.723  1.00  0.00    -0.075 N 
ATOM     17  H23 UNL     1      10.576  53.379  -8.250  1.00  0.00     0.274 HD
ATOM     18  H22 UNL     1       9.787  52.324  -9.042  1.00  0.00     0.274 HD
ATOM     19  H21 UNL     1       9.566  53.947  -9.492  1.00  0.00     0.274 HD
ENDBRANCH  11  16
BRANCH  13  20
HETATM   20  C3  UNL     1       8.041  55.249  -4.680  1.00  0.00     0.062 C 
HETATM   21  N1  UNL     1       7.107  55.233  -3.789  1.00  0.00    -0.410 N 
ATOM     22  H12 UNL     1       6.591  54.380  -3.572  1.00  0.00     0.155 HD
ATOM     23  H11 UNL     1       6.930  56.126  -3.328  1.00  0.00     0.155 HD
ENDBRANCH  13  20
ENDBRANCH   8   9
ENDBRANCH   1   8
BRANCH   2  24
HETATM   24  N3  UNL     1       3.103  51.493  -8.162  1.00  0.00    -0.072 N 
ATOM     25  H33 UNL     1       2.103  51.311  -8.249  1.00  0.00     0.274 HD
ATOM     26  H32 UNL     1       3.077  52.486  -8.396  1.00  0.00     0.274 HD
ATOM     27  H31 UNL     1       3.667  50.944  -8.811  1.00  0.00     0.274 HD
ENDBRANCH   2  24
BRANCH   7  28
HETATM   28  N5  UNL     1       5.336  48.609  -6.034  1.00  0.00    -0.353 N 
HETATM   29  C20 UNL     1       5.701  47.668  -5.278  1.00  0.00     0.197 C 
HETATM   30  N6  UNL     1       5.450  46.325  -5.634  1.00  0.00    -0.067 NA
HETATM   31  N7  UNL     1       6.369  47.937  -4.066  1.00  0.00    -0.067 NA
ATOM     32  H5  UNL     1       4.858  48.356  -6.899  1.00  0.00     0.162 HD
ENDBRANCH   7  28
BRANCH   4  33
HETATM   33  O2  UNL     1       2.866  49.104  -3.957  1.00  0.00    -0.348 OA
BRANCH  33  34
HETATM   34  C12 UNL     1       1.645  49.210  -3.293  1.00  0.00     0.261 C 
HETATM   35  C13 UNL     1       1.677  48.287  -2.119  1.00  0.00     0.061 C 
HETATM   36  C14 UNL     1       0.591  48.493  -1.115  1.00  0.00     0.007 C 
HETATM   37  C15 UNL     1       0.326  49.949  -0.884  1.00  0.00     0.034 C 
HETATM   38  C16 UNL     1       0.207  50.686  -2.221  1.00  0.00     0.150 C 
HETATM   39  O3  UNL     1       1.300  50.508  -3.023  1.00  0.00    -0.354 OA
BRANCH  38  40
HETATM   40  C17 UNL     1      -1.010  50.103  -2.907  1.00  0.00     0.261 C 
BRANCH  40  41
HETATM   41  N4  UNL     1      -2.102  49.890  -1.988  1.00  0.00    -0.077 N 
ATOM     42  H43 UNL     1      -1.763  49.592  -1.074  1.00  0.00     0.274 HD
ATOM     43  H42 UNL     1      -2.536  50.773  -1.720  1.00  0.00     0.274 HD
ATOM     44  H41 UNL     1      -2.792  49.237  -2.357  1.00  0.00     0.274 HD
ENDBRANCH  40  41
ENDBRANCH  38  40
ENDBRANCH  33  34
ENDBRANCH   4  33
TORSDOF 10
ENDMDL
