MODEL 1
REMARK VINA RESULT: -6.553383976      0.000      0.000
REMARK  12 active torsions:
REMARK  status: ('A' for Active; 'I' for Inactive)
REMARK    1  A    between atoms: C2_2  and  O1_3 
REMARK    2  A    between atoms: C2_2  and  C20_44 
REMARK    3  A    between atoms: O1_3  and  C3_4 
REMARK    4  A    between atoms: C5_6  and  N1_7 
REMARK    5  A    between atoms: C6_11  and  C7_12 
REMARK    6  A    between atoms: C7_12  and  N2_13 
REMARK    7  A    between atoms: C10_16  and  N3_17 
REMARK    8  A    between atoms: C13_24  and  O2_25 
REMARK    9  A    between atoms: O2_25  and  C14_26 
REMARK   10  A    between atoms: C15_27  and  N4_28 
REMARK   11  A    between atoms: C17_33  and  N5_34 
REMARK   12  A    between atoms: C19_39  and  N6_40 
ROOT
HETATM    1  C3  UNL     1       5.549  49.209  -4.319  1.00  0.00     0.163 C 
HETATM    2  C4  UNL     1       4.191  48.821  -3.744  1.00  0.00     0.069 C 
HETATM    3  C5  UNL     1       3.228  48.795  -4.915  1.00  0.00     0.204 C 
HETATM    4  C6  UNL     1       2.766  50.220  -5.126  1.00  0.00     0.118 C 
HETATM    5  S1  UNL     1       4.218  51.129  -5.773  1.00  0.00    -0.122 SA
HETATM    6  C13 UNL     1       5.600  50.656  -4.699  1.00  0.00     0.213 C 
ENDROOT
BRANCH   6   7
HETATM    7  O2  UNL     1       6.835  50.961  -5.196  1.00  0.00    -0.363 OA
BRANCH   7   8
HETATM    8  C14 UNL     1       6.939  52.263  -5.677  1.00  0.00     0.184 C 
HETATM    9  C15 UNL     1       8.212  52.319  -6.496  1.00  0.00     0.216 C 
HETATM   10  C16 UNL     1       9.344  51.943  -5.564  1.00  0.00     0.068 C 
HETATM   11  C17 UNL     1       9.502  53.085  -4.586  1.00  0.00     0.187 C 
HETATM   12  C18 UNL     1       8.249  53.333  -3.803  1.00  0.00     0.068 C 
HETATM   13  C19 UNL     1       6.993  53.289  -4.600  1.00  0.00     0.216 C 
BRANCH   9  14
HETATM   14  N4  UNL     1       8.133  51.291  -7.517  1.00  0.00    -0.072 N 
ATOM     15  H43 UNL     1       8.989  51.215  -8.067  1.00  0.00     0.274 HD
ATOM     16  H42 UNL     1       8.137  50.348  -7.129  1.00  0.00     0.274 HD
ATOM     17  H41 UNL     1       7.310  51.479  -8.091  1.00  0.00     0.274 HD
ENDBRANCH   9  14
BRANCH  11  18
HETATM   18  N5  UNL     1      10.014  54.247  -5.247  1.00  0.00    -0.075 N 
ATOM     19  H53 UNL     1      10.893  54.053  -5.727  1.00  0.00     0.274 HD
ATOM     20  H52 UNL     1       9.450  54.501  -6.057  1.00  0.00     0.274 HD
ATOM     21  H51 UNL     1      10.104  55.023  -4.591  1.00  0.00     0.274 HD
ENDBRANCH  11  18
BRANCH  13  22
HETATM   22  N6  UNL     1       6.635  54.591  -5.144  1.00  0.00    -0.072 N 
ATOM     23  H63 UNL     1       7.455  55.130  -5.422  1.00  0.00     0.274 HD
ATOM     24  H62 UNL     1       6.190  54.516  -6.060  1.00  0.00     0.274 HD
ATOM     25  H61 UNL     1       6.053  55.095  -4.475  1.00  0.00     0.274 HD
ENDBRANCH  13  22
ENDBRANCH   7   8
ENDBRANCH   6   7
BRANCH   1  26
HETATM   26  O1  UNL     1       5.763  48.337  -5.376  1.00  0.00    -0.367 OA
BRANCH  26  27
HETATM   27  C2  UNL     1       6.520  47.234  -5.072  1.00  0.00     0.218 C 
HETATM   28  C1  UNL     1       5.913  46.423  -3.930  1.00  0.00     0.051 C 
BRANCH  27  29
HETATM   29  C20 UNL     1       6.567  46.329  -6.234  1.00  0.00     0.202 C 
HETATM   30  O3  UNL     1       5.816  46.517  -7.213  1.00  0.00    -0.646 OA
HETATM   31  O4  UNL     1       7.442  45.269  -6.245  1.00  0.00    -0.646 OA
ENDBRANCH  27  29
ENDBRANCH  26  27
ENDBRANCH   1  26
BRANCH   4  32
HETATM   32  C7  UNL     1       1.614  50.294  -6.106  1.00  0.00     0.080 C 
BRANCH  32  33
HETATM   33  N2  UNL     1       0.413  50.294  -5.394  1.00  0.00    -0.373 N 
HETATM   34  C8  UNL     1      -0.791  49.937  -6.021  1.00  0.00     0.129 C 
HETATM   35  C9  UNL     1      -2.007  50.492  -5.271  1.00  0.00     0.053 C 
HETATM   36  C10 UNL     1      -1.999  49.983  -3.872  1.00  0.00     0.189 C 
HETATM   37  C11 UNL     1      -0.655  50.079  -3.250  1.00  0.00     0.077 C 
HETATM   38  C12 UNL     1       0.395  50.773  -4.074  1.00  0.00     0.065 C 
BRANCH  36  39
HETATM   39  N3  UNL     1      -2.964  50.747  -3.089  1.00  0.00    -0.075 N 
ATOM     40  H33 UNL     1      -2.523  51.482  -2.536  1.00  0.00     0.274 HD
ATOM     41  H32 UNL     1      -3.554  51.342  -3.670  1.00  0.00     0.274 HD
ATOM     42  H31 UNL     1      -3.507  50.101  -2.515  1.00  0.00     0.274 HD
ENDBRANCH  36  39
ENDBRANCH  32  33
ENDBRANCH   4  32
BRANCH   3  43
HETATM   43  N1  UNL     1       2.119  47.893  -4.704  1.00  0.00    -0.073 N 
ATOM     44  H13 UNL     1       1.682  47.636  -5.589  1.00  0.00     0.274 HD
ATOM     45  H12 UNL     1       2.446  46.973  -4.409  1.00  0.00     0.274 HD
ATOM     46  H11 UNL     1       1.430  48.263  -4.049  1.00  0.00     0.274 HD
ENDBRANCH   3  43
TORSDOF 12
ENDMDL
MODEL 2
REMARK VINA RESULT: -6.371348752      3.031      4.580
REMARK  12 active torsions:
REMARK  status: ('A' for Active; 'I' for Inactive)
REMARK    1  A    between atoms: C2_2  and  O1_3 
REMARK    2  A    between atoms: C2_2  and  C20_44 
REMARK    3  A    between atoms: O1_3  and  C3_4 
REMARK    4  A    between atoms: C5_6  and  N1_7 
REMARK    5  A    between atoms: C6_11  and  C7_12 
REMARK    6  A    between atoms: C7_12  and  N2_13 
REMARK    7  A    between atoms: C10_16  and  N3_17 
REMARK    8  A    between atoms: C13_24  and  O2_25 
REMARK    9  A    between atoms: O2_25  and  C14_26 
REMARK   10  A    between atoms: C15_27  and  N4_28 
REMARK   11  A    between atoms: C17_33  and  N5_34 
REMARK   12  A    between atoms: C19_39  and  N6_40 
ROOT
HETATM    1  C3  UNL     1       7.186  52.848  -5.123  1.00  0.00     0.163 C 
HETATM    2  C4  UNL     1       6.825  52.280  -3.755  1.00  0.00     0.069 C 
HETATM    3  C5  UNL     1       6.283  50.886  -4.004  1.00  0.00     0.204 C 
HETATM    4  C6  UNL     1       4.821  51.047  -4.357  1.00  0.00     0.118 C 
HETATM    5  S1  UNL     1       4.786  51.835  -6.010  1.00  0.00    -0.122 SA
HETATM    6  C13 UNL     1       5.967  53.206  -5.915  1.00  0.00     0.213 C 
ENDROOT
BRANCH   6   7
HETATM    7  O2  UNL     1       6.337  53.721  -7.125  1.00  0.00    -0.363 OA
BRANCH   7   8
HETATM    8  C14 UNL     1       5.335  53.661  -8.089  1.00  0.00     0.184 C 
HETATM    9  C15 UNL     1       6.019  53.345  -9.403  1.00  0.00     0.216 C 
HETATM   10  C16 UNL     1       7.013  54.460  -9.653  1.00  0.00     0.068 C 
HETATM   11  C17 UNL     1       6.207  55.701  -9.964  1.00  0.00     0.187 C 
HETATM   12  C18 UNL     1       5.288  56.072  -8.841  1.00  0.00     0.068 C 
HETATM   13  C19 UNL     1       4.564  54.929  -8.220  1.00  0.00     0.216 C 
BRANCH   9  14
HETATM   14  N4  UNL     1       6.778  52.121  -9.230  1.00  0.00    -0.072 N 
ATOM     15  H43 UNL     1       7.502  52.002  -9.938  1.00  0.00     0.274 HD
ATOM     16  H42 UNL     1       7.389  52.148  -8.413  1.00  0.00     0.274 HD
ATOM     17  H41 UNL     1       6.119  51.342  -9.204  1.00  0.00     0.274 HD
ENDBRANCH   9  14
BRANCH  11  18
HETATM   18  N5  UNL     1       5.553  55.574 -11.231  1.00  0.00    -0.075 N 
ATOM     19  H53 UNL     1       5.001  54.718 -11.288  1.00  0.00     0.274 HD
ATOM     20  H52 UNL     1       4.797  56.250 -11.336  1.00  0.00     0.274 HD
ATOM     21  H51 UNL     1       6.228  55.640 -11.992  1.00  0.00     0.274 HD
ENDBRANCH  11  18
BRANCH  13  22
HETATM   22  N6  UNL     1       3.288  54.662  -8.868  1.00  0.00    -0.072 N 
ATOM     23  H63 UNL     1       3.401  54.147  -9.741  1.00  0.00     0.274 HD
ATOM     24  H62 UNL     1       2.736  53.970  -8.360  1.00  0.00     0.274 HD
ATOM     25  H61 UNL     1       2.780  55.536  -9.001  1.00  0.00     0.274 HD
ENDBRANCH  13  22
ENDBRANCH   7   8
ENDBRANCH   6   7
BRANCH   1  26
HETATM   26  O1  UNL     1       7.988  51.886  -5.719  1.00  0.00    -0.367 OA
BRANCH  26  27
HETATM   27  C2  UNL     1       9.182  52.352  -6.209  1.00  0.00     0.218 C 
HETATM   28  C1  UNL     1      10.280  52.330  -5.150  1.00  0.00     0.051 C 
BRANCH  27  29
HETATM   29  C20 UNL     1       9.647  51.474  -7.298  1.00  0.00     0.202 C 
HETATM   30  O3  UNL     1      10.710  51.725  -7.902  1.00  0.00    -0.646 OA
HETATM   31  O4  UNL     1       8.909  50.371  -7.654  1.00  0.00    -0.646 OA
ENDBRANCH  27  29
ENDBRANCH  26  27
ENDBRANCH   1  26
BRANCH   4  32
HETATM   32  C7  UNL     1       4.104  49.714  -4.389  1.00  0.00     0.080 C 
BRANCH  32  33
HETATM   33  N2  UNL     1       2.735  49.940  -4.545  1.00  0.00    -0.373 N 
HETATM   34  C8  UNL     1       2.024  50.704  -3.607  1.00  0.00     0.129 C 
HETATM   35  C9  UNL     1       0.522  50.400  -3.650  1.00  0.00     0.053 C 
HETATM   36  C10 UNL     1       0.003  50.674  -5.019  1.00  0.00     0.189 C 
HETATM   37  C11 UNL     1       0.888  50.119  -6.073  1.00  0.00     0.077 C 
HETATM   38  C12 UNL     1       2.045  49.293  -5.583  1.00  0.00     0.065 C 
BRANCH  36  39
HETATM   39  N3  UNL     1      -1.333  50.098  -5.138  1.00  0.00    -0.075 N 
ATOM     40  H33 UNL     1      -1.675  49.721  -4.254  1.00  0.00     0.274 HD
ATOM     41  H32 UNL     1      -2.052  50.807  -5.278  1.00  0.00     0.274 HD
ATOM     42  H31 UNL     1      -1.324  49.400  -5.882  1.00  0.00     0.274 HD
ENDBRANCH  36  39
ENDBRANCH  32  33
ENDBRANCH   4  32
BRANCH   3  43
HETATM   43  N1  UNL     1       6.473  50.004  -2.875  1.00  0.00    -0.073 N 
ATOM     44  H13 UNL     1       6.846  49.103  -3.174  1.00  0.00     0.274 HD
ATOM     45  H12 UNL     1       7.248  50.318  -2.291  1.00  0.00     0.274 HD
ATOM     46  H11 UNL     1       5.624  49.883  -2.323  1.00  0.00     0.274 HD
ENDBRANCH   3  43
TORSDOF 12
ENDMDL
MODEL 3
REMARK VINA RESULT: -6.208751299      3.013      4.271
REMARK  12 active torsions:
REMARK  status: ('A' for Active; 'I' for Inactive)
REMARK    1  A    between atoms: C2_2  and  O1_3 
REMARK    2  A    between atoms: C2_2  and  C20_44 
REMARK    3  A    between atoms: O1_3  and  C3_4 
REMARK    4  A    between atoms: C5_6  and  N1_7 
REMARK    5  A    between atoms: C6_11  and  C7_12 
REMARK    6  A    between atoms: C7_12  and  N2_13 
REMARK    7  A    between atoms: C10_16  and  N3_17 
REMARK    8  A    between atoms: C13_24  and  O2_25 
REMARK    9  A    between atoms: O2_25  and  C14_26 
REMARK   10  A    between atoms: C15_27  and  N4_28 
REMARK   11  A    between atoms: C17_33  and  N5_34 
REMARK   12  A    between atoms: C19_39  and  N6_40 
ROOT
HETATM    1  C3  UNL     1       6.750  52.303  -5.154  1.00  0.00     0.163 C 
HETATM    2  C4  UNL     1       6.412  51.516  -3.893  1.00  0.00     0.069 C 
HETATM    3  C5  UNL     1       5.625  50.303  -4.348  1.00  0.00     0.204 C 
HETATM    4  C6  UNL     1       4.187  50.749  -4.492  1.00  0.00     0.118 C 
HETATM    5  S1  UNL     1       4.149  51.868  -5.941  1.00  0.00    -0.122 SA
HETATM    6  C13 UNL     1       5.548  52.998  -5.715  1.00  0.00     0.213 C 
ENDROOT
BRANCH   6   7
HETATM    7  O2  UNL     1       5.898  53.699  -6.833  1.00  0.00    -0.363 OA
BRANCH   7   8
HETATM    8  C14 UNL     1       4.811  54.165  -7.565  1.00  0.00     0.184 C 
HETATM    9  C15 UNL     1       5.181  54.023  -9.027  1.00  0.00     0.216 C 
HETATM   10  C16 UNL     1       6.433  54.849  -9.239  1.00  0.00     0.068 C 
HETATM   11  C17 UNL     1       6.024  56.299  -9.118  1.00  0.00     0.187 C 
HETATM   12  C18 UNL     1       5.424  56.606  -7.780  1.00  0.00     0.068 C 
HETATM   13  C19 UNL     1       4.467  55.585  -7.274  1.00  0.00     0.216 C 
BRANCH   9  14
HETATM   14  N4  UNL     1       5.533  52.636  -9.267  1.00  0.00    -0.072 N 
ATOM     15  H43 UNL     1       6.505  52.520  -9.555  1.00  0.00     0.274 HD
ATOM     16  H42 UNL     1       5.579  52.086  -8.409  1.00  0.00     0.274 HD
ATOM     17  H41 UNL     1       4.872  52.256  -9.945  1.00  0.00     0.274 HD
ENDBRANCH   9  14
BRANCH  11  18
HETATM   18  N5  UNL     1       5.203  56.686 -10.225  1.00  0.00    -0.075 N 
ATOM     19  H53 UNL     1       4.357  57.169  -9.918  1.00  0.00     0.274 HD
ATOM     20  H52 UNL     1       5.624  57.444 -10.762  1.00  0.00     0.274 HD
ATOM     21  H51 UNL     1       4.987  55.881 -10.811  1.00  0.00     0.274 HD
ENDBRANCH  11  18
BRANCH  13  22
HETATM   22  N6  UNL     1       3.097  55.853  -7.691  1.00  0.00    -0.072 N 
ATOM     23  H63 UNL     1       2.676  55.054  -8.164  1.00  0.00     0.274 HD
ATOM     24  H62 UNL     1       2.458  55.909  -6.897  1.00  0.00     0.274 HD
ATOM     25  H61 UNL     1       3.071  56.696  -8.265  1.00  0.00     0.274 HD
ENDBRANCH  13  22
ENDBRANCH   7   8
ENDBRANCH   6   7
BRANCH   1  26
HETATM   26  O1  UNL     1       7.327  51.383  -6.017  1.00  0.00    -0.367 OA
BRANCH  26  27
HETATM   27  C2  UNL     1       8.253  51.906  -6.884  1.00  0.00     0.218 C 
HETATM   28  C1  UNL     1       9.558  52.262  -6.179  1.00  0.00     0.051 C 
BRANCH  27  29
HETATM   29  C20 UNL     1       8.602  50.899  -7.903  1.00  0.00     0.202 C 
HETATM   30  O3  UNL     1       7.974  50.846  -8.980  1.00  0.00    -0.646 OA
HETATM   31  O4  UNL     1       9.624  50.010  -7.670  1.00  0.00    -0.646 OA
ENDBRANCH  27  29
ENDBRANCH  26  27
ENDBRANCH   1  26
BRANCH   4  32
HETATM   32  C7  UNL     1       3.256  49.575  -4.703  1.00  0.00     0.080 C 
BRANCH  32  33
HETATM   33  N2  UNL     1       2.236  49.628  -3.750  1.00  0.00    -0.373 N 
HETATM   34  C8  UNL     1       2.222  48.737  -2.666  1.00  0.00     0.129 C 
HETATM   35  C9  UNL     1       0.819  48.596  -2.067  1.00  0.00     0.053 C 
HETATM   36  C10 UNL     1       0.333  49.932  -1.626  1.00  0.00     0.189 C 
HETATM   37  C11 UNL     1       0.587  50.982  -2.643  1.00  0.00     0.077 C 
HETATM   38  C12 UNL     1       1.153  50.499  -3.950  1.00  0.00     0.065 C 
BRANCH  36  39
HETATM   39  N3  UNL     1      -1.097  49.844  -1.349  1.00  0.00    -0.075 N 
ATOM     40  H33 UNL     1      -1.326  50.109  -0.391  1.00  0.00     0.274 HD
ATOM     41  H32 UNL     1      -1.632  50.569  -1.828  1.00  0.00     0.274 HD
ATOM     42  H31 UNL     1      -1.419  48.904  -1.582  1.00  0.00     0.274 HD
ENDBRANCH  36  39
ENDBRANCH  32  33
ENDBRANCH   4  32
BRANCH   3  43
HETATM   43  N1  UNL     1       5.756  49.182  -3.446  1.00  0.00    -0.073 N 
ATOM     44  H13 UNL     1       5.841  48.306  -3.960  1.00  0.00     0.274 HD
ATOM     45  H12 UNL     1       6.665  49.190  -2.981  1.00  0.00     0.274 HD
ATOM     46  H11 UNL     1       4.998  49.135  -2.765  1.00  0.00     0.274 HD
ENDBRANCH   3  43
TORSDOF 12
ENDMDL
MODEL 4
REMARK VINA RESULT: -5.969731339      2.882      4.355
REMARK  12 active torsions:
REMARK  status: ('A' for Active; 'I' for Inactive)
REMARK    1  A    between atoms: C2_2  and  O1_3 
REMARK    2  A    between atoms: C2_2  and  C20_44 
REMARK    3  A    between atoms: O1_3  and  C3_4 
REMARK    4  A    between atoms: C5_6  and  N1_7 
REMARK    5  A    between atoms: C6_11  and  C7_12 
REMARK    6  A    between atoms: C7_12  and  N2_13 
REMARK    7  A    between atoms: C10_16  and  N3_17 
REMARK    8  A    between atoms: C13_24  and  O2_25 
REMARK    9  A    between atoms: O2_25  and  C14_26 
REMARK   10  A    between atoms: C15_27  and  N4_28 
REMARK   11  A    between atoms: C17_33  and  N5_34 
REMARK   12  A    between atoms: C19_39  and  N6_40 
ROOT
HETATM    1  C3  UNL     1       7.132  52.868  -5.117  1.00  0.00     0.163 C 
HETATM    2  C4  UNL     1       6.813  52.310  -3.734  1.00  0.00     0.069 C 
HETATM    3  C5  UNL     1       6.267  50.913  -3.956  1.00  0.00     0.204 C 
HETATM    4  C6  UNL     1       4.795  51.069  -4.267  1.00  0.00     0.118 C 
HETATM    5  S1  UNL     1       4.709  51.844  -5.925  1.00  0.00    -0.122 SA
HETATM    6  C13 UNL     1       5.890  53.218  -5.876  1.00  0.00     0.213 C 
ENDROOT
BRANCH   6   7
HETATM    7  O2  UNL     1       6.223  53.724  -7.100  1.00  0.00    -0.363 OA
BRANCH   7   8
HETATM    8  C14 UNL     1       5.628  54.950  -7.380  1.00  0.00     0.184 C 
HETATM    9  C15 UNL     1       5.730  55.148  -8.878  1.00  0.00     0.216 C 
HETATM   10  C16 UNL     1       7.205  55.116  -9.219  1.00  0.00     0.068 C 
HETATM   11  C17 UNL     1       7.810  56.381  -8.654  1.00  0.00     0.187 C 
HETATM   12  C18 UNL     1       7.627  56.480  -7.171  1.00  0.00     0.068 C 
HETATM   13  C19 UNL     1       6.275  56.095  -6.681  1.00  0.00     0.216 C 
BRANCH   9  14
HETATM   14  N4  UNL     1       5.113  54.004  -9.523  1.00  0.00    -0.072 N 
ATOM     15  H43 UNL     1       4.108  54.118  -9.652  1.00  0.00     0.274 HD
ATOM     16  H42 UNL     1       5.368  53.921 -10.508  1.00  0.00     0.274 HD
ATOM     17  H41 UNL     1       5.350  53.171  -8.983  1.00  0.00     0.274 HD
ENDBRANCH   9  14
BRANCH  11  18
HETATM   18  N5  UNL     1       7.347  57.528  -9.375  1.00  0.00    -0.075 N 
ATOM     19  H53 UNL     1       7.971  58.326  -9.257  1.00  0.00     0.274 HD
ATOM     20  H52 UNL     1       7.443  57.406 -10.383  1.00  0.00     0.274 HD
ATOM     21  H51 UNL     1       6.389  57.755  -9.111  1.00  0.00     0.274 HD
ENDBRANCH  11  18
BRANCH  13  22
HETATM   22  N6  UNL     1       5.357  57.225  -6.637  1.00  0.00    -0.072 N 
ATOM     23  H63 UNL     1       4.427  56.952  -6.320  1.00  0.00     0.274 HD
ATOM     24  H62 UNL     1       5.585  57.875  -5.884  1.00  0.00     0.274 HD
ATOM     25  H61 UNL     1       5.334  57.684  -7.547  1.00  0.00     0.274 HD
ENDBRANCH  13  22
ENDBRANCH   7   8
ENDBRANCH   6   7
BRANCH   1  26
HETATM   26  O1  UNL     1       7.918  51.903  -5.729  1.00  0.00    -0.367 OA
BRANCH  26  27
HETATM   27  C2  UNL     1       9.108  52.362  -6.235  1.00  0.00     0.218 C 
HETATM   28  C1  UNL     1      10.241  52.251  -5.219  1.00  0.00     0.051 C 
BRANCH  27  29
HETATM   29  C20 UNL     1       9.510  51.533  -7.386  1.00  0.00     0.202 C 
HETATM   30  O3  UNL     1      10.436  51.901  -8.137  1.00  0.00    -0.646 OA
HETATM   31  O4  UNL     1       8.863  50.347  -7.638  1.00  0.00    -0.646 OA
ENDBRANCH  27  29
ENDBRANCH  26  27
ENDBRANCH   1  26
BRANCH   4  32
HETATM   32  C7  UNL     1       4.080  49.735  -4.267  1.00  0.00     0.080 C 
BRANCH  32  33
HETATM   33  N2  UNL     1       2.714  49.953  -4.464  1.00  0.00    -0.373 N 
HETATM   34  C8  UNL     1       1.969  50.704  -3.542  1.00  0.00     0.129 C 
HETATM   35  C9  UNL     1       0.472  50.391  -3.634  1.00  0.00     0.053 C 
HETATM   36  C10 UNL     1      -0.007  50.673  -5.015  1.00  0.00     0.189 C 
HETATM   37  C11 UNL     1       0.914  50.132  -6.046  1.00  0.00     0.077 C 
HETATM   38  C12 UNL     1       2.061  49.310  -5.528  1.00  0.00     0.065 C 
BRANCH  36  39
HETATM   39  N3  UNL     1      -1.334  50.088  -5.180  1.00  0.00    -0.075 N 
ATOM     40  H33 UNL     1      -1.388  49.135  -4.822  1.00  0.00     0.274 HD
ATOM     41  H32 UNL     1      -2.026  50.511  -4.561  1.00  0.00     0.274 HD
ATOM     42  H31 UNL     1      -1.601  50.152  -6.163  1.00  0.00     0.274 HD
ENDBRANCH  36  39
ENDBRANCH  32  33
ENDBRANCH   4  32
BRANCH   3  43
HETATM   43  N1  UNL     1       6.491  50.041  -2.827  1.00  0.00    -0.073 N 
ATOM     44  H13 UNL     1       7.481  50.000  -2.587  1.00  0.00     0.274 HD
ATOM     45  H12 UNL     1       6.130  50.454  -1.967  1.00  0.00     0.274 HD
ATOM     46  H11 UNL     1       6.111  49.105  -2.971  1.00  0.00     0.274 HD
ENDBRANCH   3  43
TORSDOF 12
ENDMDL
MODEL 5
REMARK VINA RESULT: -5.808990982      3.145      5.531
REMARK  12 active torsions:
REMARK  status: ('A' for Active; 'I' for Inactive)
REMARK    1  A    between atoms: C2_2  and  O1_3 
REMARK    2  A    between atoms: C2_2  and  C20_44 
REMARK    3  A    between atoms: O1_3  and  C3_4 
REMARK    4  A    between atoms: C5_6  and  N1_7 
REMARK    5  A    between atoms: C6_11  and  C7_12 
REMARK    6  A    between atoms: C7_12  and  N2_13 
REMARK    7  A    between atoms: C10_16  and  N3_17 
REMARK    8  A    between atoms: C13_24  and  O2_25 
REMARK    9  A    between atoms: O2_25  and  C14_26 
REMARK   10  A    between atoms: C15_27  and  N4_28 
REMARK   11  A    between atoms: C17_33  and  N5_34 
REMARK   12  A    between atoms: C19_39  and  N6_40 
ROOT
HETATM    1  C3  UNL     1       8.527  52.952  -6.105  1.00  0.00     0.163 C 
HETATM    2  C4  UNL     1       7.369  53.194  -5.144  1.00  0.00     0.069 C 
HETATM    3  C5  UNL     1       6.963  51.831  -4.619  1.00  0.00     0.204 C 
HETATM    4  C6  UNL     1       6.027  51.233  -5.646  1.00  0.00     0.118 C 
HETATM    5  S1  UNL     1       7.061  50.851  -7.109  1.00  0.00    -0.122 SA
HETATM    6  C13 UNL     1       8.066  52.333  -7.388  1.00  0.00     0.213 C 
ENDROOT
BRANCH   6   7
HETATM    7  O2  UNL     1       9.132  52.147  -8.221  1.00  0.00    -0.363 OA
BRANCH   7   8
HETATM    8  C14 UNL     1       8.905  51.204  -9.219  1.00  0.00     0.184 C 
HETATM    9  C15 UNL     1      10.172  50.382  -9.332  1.00  0.00     0.216 C 
HETATM   10  C16 UNL     1      11.286  51.348  -9.676  1.00  0.00     0.068 C 
HETATM   11  C17 UNL     1      11.038  51.812 -11.093  1.00  0.00     0.187 C 
HETATM   12  C18 UNL     1       9.708  52.485 -11.242  1.00  0.00     0.068 C 
HETATM   13  C19 UNL     1       8.583  51.808 -10.542  1.00  0.00     0.216 C 
BRANCH   9  14
HETATM   14  N4  UNL     1      10.467  49.831  -8.022  1.00  0.00    -0.072 N 
ATOM     15  H43 UNL     1      10.048  48.913  -7.876  1.00  0.00     0.274 HD
ATOM     16  H42 UNL     1      11.444  49.553  -7.922  1.00  0.00     0.274 HD
ATOM     17  H41 UNL     1      10.177  50.514  -7.321  1.00  0.00     0.274 HD
ENDBRANCH   9  14
BRANCH  11  18
HETATM   18  N5  UNL     1      11.255  50.742 -12.020  1.00  0.00    -0.075 N 
ATOM     19  H53 UNL     1      10.395  50.228 -12.211  1.00  0.00     0.274 HD
ATOM     20  H52 UNL     1      11.438  51.088 -12.961  1.00  0.00     0.274 HD
ATOM     21  H51 UNL     1      11.999  50.127 -11.691  1.00  0.00     0.274 HD
ENDBRANCH  11  18
BRANCH  13  22
HETATM   22  N6  UNL     1       7.918  50.822 -11.382  1.00  0.00    -0.072 N 
ATOM     23  H63 UNL     1       7.263  51.252 -12.034  1.00  0.00     0.274 HD
ATOM     24  H62 UNL     1       8.554  50.407 -12.064  1.00  0.00     0.274 HD
ATOM     25  H61 UNL     1       7.471  50.117 -10.796  1.00  0.00     0.274 HD
ENDBRANCH  13  22
ENDBRANCH   7   8
ENDBRANCH   6   7
BRANCH   1  26
HETATM   26  O1  UNL     1       9.437  52.181  -5.397  1.00  0.00    -0.367 OA
BRANCH  26  27
HETATM   27  C2  UNL     1      10.653  52.776  -5.176  1.00  0.00     0.218 C 
HETATM   28  C1  UNL     1      10.714  53.460  -3.814  1.00  0.00     0.051 C 
BRANCH  27  29
HETATM   29  C20 UNL     1      11.712  51.752  -5.167  1.00  0.00     0.202 C 
HETATM   30  O3  UNL     1      12.108  51.241  -6.234  1.00  0.00    -0.646 OA
HETATM   31  O4  UNL     1      12.271  51.352  -3.976  1.00  0.00    -0.646 OA
ENDBRANCH  27  29
ENDBRANCH  26  27
ENDBRANCH   1  26
BRANCH   4  32
HETATM   32  C7  UNL     1       5.356  49.979  -5.128  1.00  0.00     0.080 C 
BRANCH  32  33
HETATM   33  N2  UNL     1       3.972  50.164  -5.147  1.00  0.00    -0.373 N 
HETATM   34  C8  UNL     1       3.230  50.141  -3.956  1.00  0.00     0.129 C 
HETATM   35  C9  UNL     1       1.752  49.833  -4.216  1.00  0.00     0.053 C 
HETATM   36  C10 UNL     1       1.188  50.857  -5.138  1.00  0.00     0.189 C 
HETATM   37  C11 UNL     1       2.087  51.127  -6.287  1.00  0.00     0.077 C 
HETATM   38  C12 UNL     1       3.307  50.251  -6.381  1.00  0.00     0.065 C 
BRANCH  36  39
HETATM   39  N3  UNL     1      -0.108  50.391  -5.621  1.00  0.00    -0.075 N 
ATOM     40  H33 UNL     1      -0.055  49.995  -6.559  1.00  0.00     0.274 HD
ATOM     41  H32 UNL     1      -0.429  49.556  -5.132  1.00  0.00     0.274 HD
ATOM     42  H31 UNL     1      -0.776  51.160  -5.558  1.00  0.00     0.274 HD
ENDBRANCH  36  39
ENDBRANCH  32  33
ENDBRANCH   4  32
BRANCH   3  43
HETATM   43  N1  UNL     1       6.357  51.895  -3.309  1.00  0.00    -0.073 N 
ATOM     44  H13 UNL     1       5.922  51.007  -3.063  1.00  0.00     0.274 HD
ATOM     45  H12 UNL     1       7.068  51.938  -2.578  1.00  0.00     0.274 HD
ATOM     46  H11 UNL     1       5.694  52.665  -3.219  1.00  0.00     0.274 HD
ENDBRANCH   3  43
TORSDOF 12
ENDMDL
