MODEL 1
REMARK VINA RESULT: -6.882112369      0.000      0.000
REMARK  6 active torsions:
REMARK  status: ('A' for Active; 'I' for Inactive)
REMARK    1  A    between atoms: C9_11  and  C10_12 
REMARK    2  A    between atoms: C10_12  and  C11_13 
REMARK    3  A    between atoms: C11_13  and  C12_14 
REMARK    4  A    between atoms: C14_16  and  O3_17 
REMARK    5  A    between atoms: C17_21  and  O4_22 
REMARK    6  A    between atoms: C18_24  and  O5_25 
ROOT
HETATM    1  C1  UNL     1      11.588  60.272  25.796  1.00  0.00     0.017 C 
HETATM    2  C2  UNL     1      11.791  61.322  25.009  1.00  0.00    -0.050 C 
HETATM    3  C3  UNL     1      11.526  62.614  25.690  1.00  0.00     0.069 C 
HETATM    4  C4  UNL     1      12.185  63.707  24.961  1.00  0.00     0.136 C 
HETATM    5  O1  UNL     1      13.370  63.238  24.372  1.00  0.00    -0.346 OA
HETATM    6  C5  UNL     1      13.292  63.131  23.011  1.00  0.00     0.198 C 
HETATM    7  C6  UNL     1      14.688  62.685  22.543  1.00  0.00     0.082 C 
HETATM    8  O2  UNL     1      13.050  64.315  22.343  1.00  0.00    -0.352 OA
HETATM    9  C7  UNL     1      12.522  65.288  23.227  1.00  0.00     0.179 C 
HETATM   10  C8  UNL     1      11.433  64.495  23.986  1.00  0.00     0.046 C 
HETATM   11  C9  UNL     1      10.538  63.878  23.018  1.00  0.00     0.032 C 
HETATM   12  C14 UNL     1      10.887  62.541  22.473  1.00  0.00     0.102 C 
HETATM   13  C15 UNL     1      10.049  61.394  23.050  1.00  0.00     0.045 C 
HETATM   14  C16 UNL     1      11.025  60.203  23.048  1.00  0.00     0.049 C 
HETATM   15  C17 UNL     1      12.231  60.947  23.654  1.00  0.00     0.120 C 
HETATM   16  C18 UNL     1      12.279  62.087  22.665  1.00  0.00     0.179 C 
ENDROOT
BRANCH  11  17
HETATM   17  C10 UNL     1       9.049  63.924  23.395  1.00  0.00     0.008 C 
BRANCH  17  18
HETATM   18  C11 UNL     1       8.216  64.649  22.384  1.00  0.00     0.000 C 
BRANCH  18  19
HETATM   19  C12 UNL     1       8.708  65.995  21.983  1.00  0.00    -0.005 C 
HETATM   20  C13 UNL     1       8.459  66.923  23.181  1.00  0.00     0.005 C 
ENDBRANCH  18  19
ENDBRANCH  17  18
ENDBRANCH  11  17
BRANCH  12  21
HETATM   21  O3  UNL     1      10.580  62.493  21.084  1.00  0.00    -0.386 OA
ATOM     22  H3  UNL     1      11.163  61.882  20.648  1.00  0.00     0.210 HD
ENDBRANCH  12  21
BRANCH  16  23
HETATM   23  O5  UNL     1      12.753  61.491  21.466  1.00  0.00    -0.378 OA
ATOM     24  H5  UNL     1      13.583  61.091  21.697  1.00  0.00     0.211 HD
ENDBRANCH  16  23
BRANCH  15  25
HETATM   25  O4  UNL     1      13.362  60.170  23.648  1.00  0.00    -0.382 OA
ATOM     26  H4  UNL     1      14.123  60.621  23.303  1.00  0.00     0.211 HD
ENDBRANCH  15  25
TORSDOF 6
ENDMDL
MODEL 2
REMARK VINA RESULT: -6.509177676      1.531      2.265
REMARK  6 active torsions:
REMARK  status: ('A' for Active; 'I' for Inactive)
REMARK    1  A    between atoms: C9_11  and  C10_12 
REMARK    2  A    between atoms: C10_12  and  C11_13 
REMARK    3  A    between atoms: C11_13  and  C12_14 
REMARK    4  A    between atoms: C14_16  and  O3_17 
REMARK    5  A    between atoms: C17_21  and  O4_22 
REMARK    6  A    between atoms: C18_24  and  O5_25 
ROOT
HETATM    1  C1  UNL     1      10.814  60.701  25.846  1.00  0.00     0.017 C 
HETATM    2  C2  UNL     1      11.583  61.474  25.089  1.00  0.00    -0.050 C 
HETATM    3  C3  UNL     1      12.352  62.471  25.874  1.00  0.00     0.069 C 
HETATM    4  C4  UNL     1      13.488  62.963  25.081  1.00  0.00     0.136 C 
HETATM    5  O1  UNL     1      13.955  61.944  24.237  1.00  0.00    -0.346 OA
HETATM    6  C5  UNL     1      13.665  62.158  22.917  1.00  0.00     0.198 C 
HETATM    7  C6  UNL     1      14.315  60.994  22.149  1.00  0.00     0.082 C 
HETATM    8  O2  UNL     1      14.219  63.301  22.374  1.00  0.00    -0.352 OA
HETATM    9  C7  UNL     1      14.604  64.203  23.396  1.00  0.00     0.179 C 
HETATM   10  C8  UNL     1      13.366  64.208  24.323  1.00  0.00     0.046 C 
HETATM   11  C9  UNL     1      12.186  64.520  23.530  1.00  0.00     0.032 C 
HETATM   12  C14 UNL     1      11.463  63.410  22.858  1.00  0.00     0.102 C 
HETATM   13  C15 UNL     1      10.144  63.023  23.538  1.00  0.00     0.045 C 
HETATM   14  C16 UNL     1      10.037  61.509  23.274  1.00  0.00     0.049 C 
HETATM   15  C17 UNL     1      11.486  61.150  23.654  1.00  0.00     0.120 C 
HETATM   16  C18 UNL     1      12.181  62.125  22.736  1.00  0.00     0.179 C 
ENDROOT
BRANCH  11  17
HETATM   17  C10 UNL     1      11.186  65.469  24.209  1.00  0.00     0.008 C 
BRANCH  17  18
HETATM   18  C11 UNL     1      11.836  66.702  24.756  1.00  0.00     0.000 C 
BRANCH  18  19
HETATM   19  C12 UNL     1      12.303  67.691  23.746  1.00  0.00    -0.005 C 
HETATM   20  C13 UNL     1      13.798  67.911  24.013  1.00  0.00     0.005 C 
ENDBRANCH  18  19
ENDBRANCH  17  18
ENDBRANCH  11  17
BRANCH  12  21
HETATM   21  O3  UNL     1      11.046  63.823  21.562  1.00  0.00    -0.386 OA
ATOM     22  H3  UNL     1      10.126  64.063  21.583  1.00  0.00     0.210 HD
ENDBRANCH  12  21
BRANCH  16  23
HETATM   23  O5  UNL     1      11.977  61.590  21.436  1.00  0.00    -0.378 OA
ATOM     24  H5  UNL     1      11.484  60.789  21.571  1.00  0.00     0.211 HD
ENDBRANCH  16  23
BRANCH  15  25
HETATM   25  O4  UNL     1      11.773  59.837  23.376  1.00  0.00    -0.382 OA
ATOM     26  H4  UNL     1      11.609  59.602  22.470  1.00  0.00     0.211 HD
ENDBRANCH  15  25
TORSDOF 6
ENDMDL
MODEL 3
REMARK VINA RESULT: -6.426321657      1.506      3.968
REMARK  6 active torsions:
REMARK  status: ('A' for Active; 'I' for Inactive)
REMARK    1  A    between atoms: C9_11  and  C10_12 
REMARK    2  A    between atoms: C10_12  and  C11_13 
REMARK    3  A    between atoms: C11_13  and  C12_14 
REMARK    4  A    between atoms: C14_16  and  O3_17 
REMARK    5  A    between atoms: C17_21  and  O4_22 
REMARK    6  A    between atoms: C18_24  and  O5_25 
ROOT
HETATM    1  C1  UNL     1       8.263  63.917  22.953  1.00  0.00     0.017 C 
HETATM    2  C2  UNL     1       9.375  63.314  23.356  1.00  0.00    -0.050 C 
HETATM    3  C3  UNL     1       9.569  63.379  24.826  1.00  0.00     0.069 C 
HETATM    4  C4  UNL     1      10.520  62.343  25.250  1.00  0.00     0.136 C 
HETATM    5  O1  UNL     1      10.402  61.219  24.417  1.00  0.00    -0.346 OA
HETATM    6  C5  UNL     1      11.466  61.057  23.574  1.00  0.00     0.198 C 
HETATM    7  C6  UNL     1      11.200  59.750  22.806  1.00  0.00     0.082 C 
HETATM    8  O2  UNL     1      12.684  60.865  24.197  1.00  0.00    -0.352 OA
HETATM    9  C7  UNL     1      12.628  61.298  25.544  1.00  0.00     0.179 C 
HETATM   10  C8  UNL     1      11.934  62.675  25.426  1.00  0.00     0.046 C 
HETATM   11  C9  UNL     1      12.663  63.489  24.465  1.00  0.00     0.032 C 
HETATM   12  C14 UNL     1      12.312  63.381  23.026  1.00  0.00     0.102 C 
HETATM   13  C15 UNL     1      11.507  64.571  22.489  1.00  0.00     0.045 C 
HETATM   14  C16 UNL     1      10.608  63.937  21.412  1.00  0.00     0.049 C 
HETATM   15  C17 UNL     1      10.144  62.726  22.244  1.00  0.00     0.120 C 
HETATM   16  C18 UNL     1      11.510  62.208  22.622  1.00  0.00     0.179 C 
ENDROOT
BRANCH  11  17
HETATM   17  C10 UNL     1      12.825  64.964  24.862  1.00  0.00     0.008 C 
BRANCH  17  18
HETATM   18  C11 UNL     1      14.198  65.282  25.368  1.00  0.00     0.000 C 
BRANCH  18  19
HETATM   19  C12 UNL     1      15.006  66.198  24.518  1.00  0.00    -0.005 C 
HETATM   20  C13 UNL     1      14.007  66.985  23.657  1.00  0.00     0.005 C 
ENDBRANCH  18  19
ENDBRANCH  17  18
ENDBRANCH  11  17
BRANCH  12  21
HETATM   21  O3  UNL     1      13.497  63.416  22.238  1.00  0.00    -0.386 OA
ATOM     22  H3  UNL     1      13.283  63.239  21.329  1.00  0.00     0.210 HD
ENDBRANCH  12  21
BRANCH  16  23
HETATM   23  O5  UNL     1      12.029  61.673  21.413  1.00  0.00    -0.378 OA
ATOM     24  H5  UNL     1      12.605  60.966  21.680  1.00  0.00     0.211 HD
ENDBRANCH  16  23
BRANCH  15  25
HETATM   25  O4  UNL     1       9.414  61.842  21.490  1.00  0.00    -0.382 OA
ATOM     26  H4  UNL     1       8.725  61.411  21.981  1.00  0.00     0.211 HD
ENDBRANCH  15  25
TORSDOF 6
ENDMDL
MODEL 4
REMARK VINA RESULT: -6.279729286      1.853      5.067
REMARK  6 active torsions:
REMARK  status: ('A' for Active; 'I' for Inactive)
REMARK    1  A    between atoms: C9_11  and  C10_12 
REMARK    2  A    between atoms: C10_12  and  C11_13 
REMARK    3  A    between atoms: C11_13  and  C12_14 
REMARK    4  A    between atoms: C14_16  and  O3_17 
REMARK    5  A    between atoms: C17_21  and  O4_22 
REMARK    6  A    between atoms: C18_24  and  O5_25 
ROOT
HETATM    1  C1  UNL     1      13.049  65.926  24.847  1.00  0.00     0.017 C 
HETATM    2  C2  UNL     1      12.540  64.713  24.664  1.00  0.00    -0.050 C 
HETATM    3  C3  UNL     1      12.859  63.779  25.772  1.00  0.00     0.069 C 
HETATM    4  C4  UNL     1      11.924  62.644  25.754  1.00  0.00     0.136 C 
HETATM    5  O1  UNL     1      10.673  63.068  25.279  1.00  0.00    -0.346 OA
HETATM    6  C5  UNL     1      10.383  62.601  24.027  1.00  0.00     0.198 C 
HETATM    7  C6  UNL     1       8.960  63.095  23.712  1.00  0.00     0.082 C 
HETATM    8  O2  UNL     1      10.319  61.226  23.915  1.00  0.00    -0.352 OA
HETATM    9  C7  UNL     1      10.976  60.605  25.004  1.00  0.00     0.179 C 
HETATM   10  C8  UNL     1      12.302  61.396  25.092  1.00  0.00     0.046 C 
HETATM   11  C9  UNL     1      12.949  61.376  23.789  1.00  0.00     0.032 C 
HETATM   12  C14 UNL     1      12.591  62.422  22.797  1.00  0.00     0.102 C 
HETATM   13  C15 UNL     1      13.660  63.508  22.622  1.00  0.00     0.045 C 
HETATM   14  C16 UNL     1      12.837  64.769  22.299  1.00  0.00     0.049 C 
HETATM   15  C17 UNL     1      11.781  64.593  23.407  1.00  0.00     0.120 C 
HETATM   16  C18 UNL     1      11.355  63.189  23.055  1.00  0.00     0.179 C 
ENDROOT
BRANCH  11  17
HETATM   17  C10 UNL     1      14.473  61.184  23.829  1.00  0.00     0.008 C 
BRANCH  17  18
HETATM   18  C11 UNL     1      14.876  59.850  24.378  1.00  0.00     0.000 C 
BRANCH  18  19
HETATM   19  C12 UNL     1      15.323  58.845  23.375  1.00  0.00    -0.005 C 
HETATM   20  C13 UNL     1      15.069  59.467  21.994  1.00  0.00     0.005 C 
ENDBRANCH  18  19
ENDBRANCH  17  18
ENDBRANCH  11  17
BRANCH  12  21
HETATM   21  O3  UNL     1      12.507  61.845  21.499  1.00  0.00    -0.386 OA
ATOM     22  H3  UNL     1      11.959  62.386  20.943  1.00  0.00     0.210 HD
ENDBRANCH  12  21
BRANCH  16  23
HETATM   23  O5  UNL     1      10.627  63.335  21.843  1.00  0.00    -0.378 OA
ATOM     24  H5  UNL     1      10.369  62.454  21.599  1.00  0.00     0.211 HD
ENDBRANCH  16  23
BRANCH  15  25
HETATM   25  O4  UNL     1      10.770  65.514  23.295  1.00  0.00    -0.382 OA
ATOM     26  H4  UNL     1       9.940  65.130  23.039  1.00  0.00     0.211 HD
ENDBRANCH  15  25
TORSDOF 6
ENDMDL
MODEL 5
REMARK VINA RESULT: -6.271269276      2.035      3.909
REMARK  6 active torsions:
REMARK  status: ('A' for Active; 'I' for Inactive)
REMARK    1  A    between atoms: C9_11  and  C10_12 
REMARK    2  A    between atoms: C10_12  and  C11_13 
REMARK    3  A    between atoms: C11_13  and  C12_14 
REMARK    4  A    between atoms: C14_16  and  O3_17 
REMARK    5  A    between atoms: C17_21  and  O4_22 
REMARK    6  A    between atoms: C18_24  and  O5_25 
ROOT
HETATM    1  C1  UNL     1      14.236  60.063  23.790  1.00  0.00     0.017 C 
HETATM    2  C2  UNL     1      13.513  61.161  23.604  1.00  0.00    -0.050 C 
HETATM    3  C3  UNL     1      14.323  62.315  23.140  1.00  0.00     0.069 C 
HETATM    4  C4  UNL     1      13.448  63.324  22.526  1.00  0.00     0.136 C 
HETATM    5  O1  UNL     1      12.359  62.694  21.904  1.00  0.00    -0.346 OA
HETATM    6  C5  UNL     1      11.175  62.884  22.563  1.00  0.00     0.198 C 
HETATM    7  C6  UNL     1      10.100  62.197  21.703  1.00  0.00     0.082 C 
HETATM    8  O2  UNL     1      10.767  64.200  22.665  1.00  0.00    -0.352 OA
HETATM    9  C7  UNL     1      11.855  65.078  22.445  1.00  0.00     0.179 C 
HETATM   10  C8  UNL     1      12.970  64.457  23.317  1.00  0.00     0.046 C 
HETATM   11  C9  UNL     1      12.471  64.298  24.675  1.00  0.00     0.032 C 
HETATM   12  C14 UNL     1      11.742  63.052  25.026  1.00  0.00     0.102 C 
HETATM   13  C15 UNL     1      12.559  62.068  25.872  1.00  0.00     0.045 C 
HETATM   14  C16 UNL     1      12.039  60.691  25.418  1.00  0.00     0.049 C 
HETATM   15  C17 UNL     1      12.083  60.964  23.903  1.00  0.00     0.120 C 
HETATM   16  C18 UNL     1      11.255  62.226  23.903  1.00  0.00     0.179 C 
ENDROOT
BRANCH  11  17
HETATM   17  C10 UNL     1      13.481  64.649  25.778  1.00  0.00     0.008 C 
BRANCH  17  18
HETATM   18  C11 UNL     1      14.587  65.535  25.293  1.00  0.00     0.000 C 
BRANCH  18  19
HETATM   19  C12 UNL     1      14.611  66.910  25.861  1.00  0.00    -0.005 C 
HETATM   20  C13 UNL     1      15.981  67.504  25.502  1.00  0.00     0.005 C 
ENDBRANCH  18  19
ENDBRANCH  17  18
ENDBRANCH  11  17
BRANCH  12  21
HETATM   21  O3  UNL     1      10.640  63.363  25.873  1.00  0.00    -0.386 OA
ATOM     22  H3  UNL     1      10.223  62.561  26.164  1.00  0.00     0.210 HD
ENDBRANCH  12  21
BRANCH  16  23
HETATM   23  O5  UNL     1       9.935  61.780  24.179  1.00  0.00    -0.378 OA
ATOM     24  H5  UNL     1      10.015  60.846  24.335  1.00  0.00     0.211 HD
ENDBRANCH  16  23
BRANCH  15  25
HETATM   25  O4  UNL     1      11.517  59.940  23.186  1.00  0.00    -0.382 OA
ATOM     26  H4  UNL     1      11.269  60.192  22.305  1.00  0.00     0.211 HD
ENDBRANCH  15  25
TORSDOF 6
ENDMDL
