MODEL 1
REMARK VINA RESULT: -6.024789188      0.000      0.000
REMARK  7 active torsions:
REMARK  status: ('A' for Active; 'I' for Inactive)
REMARK    1  A    between atoms: C9_10  and  O1_11 
REMARK    2  A    between atoms: N2_13  and  C10_14 
REMARK    3  A    between atoms: N3_18  and  C14_19 
REMARK    4  A    between atoms: C14_19  and  C15_20 
REMARK    5  A    between atoms: C16_21  and  C17_22 
REMARK    6  A    between atoms: C17_22  and  O2_23 
REMARK    7  A    between atoms: C18_25  and  O3_26 
ROOT
HETATM    1  C1  UNL     1      14.667  59.701  23.625  1.00  0.00     0.272 C 
HETATM    2  N1  UNL     1      13.709  60.808  23.525  1.00  0.00    -0.066 N 
HETATM    3  C2  UNL     1      13.535  61.116  22.134  1.00  0.00     0.272 C 
HETATM    4  C3  UNL     1      12.436  60.414  24.146  1.00  0.00     0.246 C 
HETATM    5  C4  UNL     1      12.347  61.267  25.394  1.00  0.00     0.052 C 
HETATM    6  C5  UNL     1      13.844  61.340  25.729  1.00  0.00     0.049 C 
HETATM    7  C6  UNL     1      14.216  61.868  24.329  1.00  0.00     0.228 C 
HETATM    8  C7  UNL     1      13.272  63.010  24.255  1.00  0.00     0.035 A 
HETATM    9  C8  UNL     1      12.115  62.653  24.921  1.00  0.00     0.011 A 
HETATM   10  C9  UNL     1      11.236  63.716  24.860  1.00  0.00     0.153 A 
HETATM   11  N2  UNL     1      11.808  64.719  24.181  1.00  0.00    -0.275 N 
HETATM   12  C18 UNL     1      13.033  64.301  23.814  1.00  0.00     0.155 A 
ENDROOT
BRANCH  11  13
HETATM   13  C10 UNL     1      11.199  66.029  23.884  1.00  0.00     0.332 C 
HETATM   14  C11 UNL     1      11.756  67.104  24.750  1.00  0.00     0.059 C 
HETATM   15  C12 UNL     1      12.428  68.068  23.812  1.00  0.00     0.034 C 
HETATM   16  C13 UNL     1      11.748  67.760  22.487  1.00  0.00     0.275 C 
HETATM   17  N3  UNL     1      11.394  66.378  22.530  1.00  0.00     0.115 N 
BRANCH  17  18
HETATM   18  C14 UNL     1      10.273  66.004  21.724  1.00  0.00     0.302 C 
BRANCH  18  19
HETATM   19  C15 UNL     1       8.984  65.907  22.412  1.00  0.00     0.001 C 
HETATM   20  C16 UNL     1       8.216  64.842  22.512  1.00  0.00    -0.004 C 
BRANCH  20  21
HETATM   21  C17 UNL     1       8.464  63.505  21.962  1.00  0.00     0.191 C 
BRANCH  21  22
HETATM   22  O2  UNL     1       8.586  62.611  23.052  1.00  0.00    -0.397 OA
ATOM     23  H2  UNL     1       9.488  62.312  23.078  1.00  0.00     0.209 HD
ENDBRANCH  21  22
ENDBRANCH  20  21
ENDBRANCH  18  19
ENDBRANCH  17  18
ENDBRANCH  11  13
BRANCH  10  24
HETATM   24  O1  UNL     1       9.974  63.771  25.398  1.00  0.00    -0.345 OA
ATOM     25  H1  UNL     1       9.528  64.544  25.724  1.00  0.00     0.219 HD
ENDBRANCH  10  24
BRANCH  12  26
HETATM   26  O3  UNL     1      13.949  65.045  23.091  1.00  0.00    -0.345 OA
ATOM     27  H3  UNL     1      13.777  65.923  22.771  1.00  0.00     0.219 HD
ENDBRANCH  12  26
TORSDOF 7
ENDMDL
MODEL 2
REMARK VINA RESULT: -5.786271321     11.880     14.723
REMARK  7 active torsions:
REMARK  status: ('A' for Active; 'I' for Inactive)
REMARK    1  A    between atoms: C9_10  and  O1_11 
REMARK    2  A    between atoms: N2_13  and  C10_14 
REMARK    3  A    between atoms: N3_18  and  C14_19 
REMARK    4  A    between atoms: C14_19  and  C15_20 
REMARK    5  A    between atoms: C16_21  and  C17_22 
REMARK    6  A    between atoms: C17_22  and  O2_23 
REMARK    7  A    between atoms: C18_25  and  O3_26 
ROOT
HETATM    1  C1  UNL     1      26.712  65.123  19.521  1.00  0.00     0.272 C 
HETATM    2  N1  UNL     1      25.965  64.070  18.825  1.00  0.00    -0.066 N 
HETATM    3  C2  UNL     1      24.833  64.681  18.188  1.00  0.00     0.272 C 
HETATM    4  C3  UNL     1      26.839  63.414  17.842  1.00  0.00     0.246 C 
HETATM    5  C4  UNL     1      27.060  62.026  18.403  1.00  0.00     0.052 C 
HETATM    6  C5  UNL     1      27.030  62.375  19.898  1.00  0.00     0.049 C 
HETATM    7  C6  UNL     1      25.658  63.071  19.792  1.00  0.00     0.228 C 
HETATM    8  C7  UNL     1      24.900  61.985  19.125  1.00  0.00     0.035 A 
HETATM    9  C8  UNL     1      25.762  61.323  18.270  1.00  0.00     0.011 A 
HETATM   10  C9  UNL     1      25.062  60.306  17.652  1.00  0.00     0.153 A 
HETATM   11  N2  UNL     1      23.797  60.315  18.093  1.00  0.00    -0.275 N 
HETATM   12  C18 UNL     1      23.693  61.321  18.979  1.00  0.00     0.155 A 
ENDROOT
BRANCH  11  13
HETATM   13  C10 UNL     1      22.722  59.396  17.673  1.00  0.00     0.332 C 
HETATM   14  C11 UNL     1      22.447  58.361  18.708  1.00  0.00     0.059 C 
HETATM   15  C12 UNL     1      21.025  58.594  19.141  1.00  0.00     0.034 C 
HETATM   16  C13 UNL     1      20.450  59.366  17.964  1.00  0.00     0.275 C 
HETATM   17  N3  UNL     1      21.532  60.106  17.401  1.00  0.00     0.115 N 
BRANCH  17  18
HETATM   18  C14 UNL     1      21.411  60.414  16.010  1.00  0.00     0.302 C 
BRANCH  18  19
HETATM   19  C15 UNL     1      21.398  59.273  15.092  1.00  0.00     0.001 C 
HETATM   20  C16 UNL     1      22.265  59.013  14.135  1.00  0.00    -0.004 C 
BRANCH  20  21
HETATM   21  C17 UNL     1      23.446  59.800  13.760  1.00  0.00     0.191 C 
BRANCH  21  22
HETATM   22  O2  UNL     1      24.590  59.042  14.106  1.00  0.00    -0.397 OA
ATOM     23  H2  UNL     1      25.349  59.602  13.991  1.00  0.00     0.209 HD
ENDBRANCH  21  22
ENDBRANCH  20  21
ENDBRANCH  18  19
ENDBRANCH  17  18
ENDBRANCH  11  13
BRANCH  10  24
HETATM   24  O1  UNL     1      25.551  59.413  16.730  1.00  0.00    -0.345 OA
ATOM     25  H1  UNL     1      25.252  59.299  15.835  1.00  0.00     0.219 HD
ENDBRANCH  10  24
BRANCH  12  26
HETATM   26  O3  UNL     1      22.542  61.667  19.666  1.00  0.00    -0.345 OA
ATOM     27  H3  UNL     1      22.292  61.283  20.499  1.00  0.00     0.219 HD
ENDBRANCH  12  26
TORSDOF 7
ENDMDL
MODEL 3
REMARK VINA RESULT: -5.752885840      9.547     12.748
REMARK  7 active torsions:
REMARK  status: ('A' for Active; 'I' for Inactive)
REMARK    1  A    between atoms: C9_10  and  O1_11 
REMARK    2  A    between atoms: N2_13  and  C10_14 
REMARK    3  A    between atoms: N3_18  and  C14_19 
REMARK    4  A    between atoms: C14_19  and  C15_20 
REMARK    5  A    between atoms: C16_21  and  C17_22 
REMARK    6  A    between atoms: C17_22  and  O2_23 
REMARK    7  A    between atoms: C18_25  and  O3_26 
ROOT
HETATM    1  C1  UNL     1      15.426  60.503  16.307  1.00  0.00     0.272 C 
HETATM    2  N1  UNL     1      16.840  60.661  16.668  1.00  0.00    -0.066 N 
HETATM    3  C2  UNL     1      17.296  61.909  16.124  1.00  0.00     0.272 C 
HETATM    4  C3  UNL     1      16.980  60.635  18.131  1.00  0.00     0.246 C 
HETATM    5  C4  UNL     1      17.694  59.330  18.416  1.00  0.00     0.052 C 
HETATM    6  C5  UNL     1      17.097  58.489  17.279  1.00  0.00     0.049 C 
HETATM    7  C6  UNL     1      17.520  59.502  16.197  1.00  0.00     0.228 C 
HETATM    8  C7  UNL     1      18.956  59.624  16.543  1.00  0.00     0.035 A 
HETATM    9  C8  UNL     1      19.077  59.508  17.915  1.00  0.00     0.011 A 
HETATM   10  C9  UNL     1      20.415  59.613  18.241  1.00  0.00     0.153 A 
HETATM   11  N2  UNL     1      21.126  59.791  17.120  1.00  0.00    -0.275 N 
HETATM   12  C18 UNL     1      20.256  59.798  16.095  1.00  0.00     0.155 A 
ENDROOT
BRANCH  11  13
HETATM   13  C10 UNL     1      22.590  59.959  17.034  1.00  0.00     0.332 C 
HETATM   14  C11 UNL     1      23.256  58.726  16.530  1.00  0.00     0.059 C 
HETATM   15  C12 UNL     1      23.908  59.123  15.235  1.00  0.00     0.034 C 
HETATM   16  C13 UNL     1      24.020  60.633  15.376  1.00  0.00     0.275 C 
HETATM   17  N3  UNL     1      22.923  61.042  16.192  1.00  0.00     0.115 N 
BRANCH  17  18
HETATM   18  C14 UNL     1      23.124  62.245  16.939  1.00  0.00     0.302 C 
BRANCH  18  19
HETATM   19  C15 UNL     1      24.442  62.412  17.556  1.00  0.00     0.001 C 
HETATM   20  C16 UNL     1      24.715  62.463  18.844  1.00  0.00    -0.004 C 
BRANCH  20  21
HETATM   21  C17 UNL     1      23.772  62.366  19.963  1.00  0.00     0.191 C 
BRANCH  21  22
HETATM   22  O2  UNL     1      23.590  60.992  20.250  1.00  0.00    -0.397 OA
ATOM     23  H2  UNL     1      24.310  60.718  20.806  1.00  0.00     0.209 HD
ENDBRANCH  21  22
ENDBRANCH  20  21
ENDBRANCH  18  19
ENDBRANCH  17  18
ENDBRANCH  11  13
BRANCH  10  24
HETATM   24  O1  UNL     1      20.962  59.551  19.499  1.00  0.00    -0.345 OA
ATOM     25  H1  UNL     1      21.554  58.885  19.830  1.00  0.00     0.219 HD
ENDBRANCH  10  24
BRANCH  12  26
HETATM   26  O3  UNL     1      20.591  59.958  14.761  1.00  0.00    -0.345 OA
ATOM     27  H3  UNL     1      21.443  60.257  14.466  1.00  0.00     0.219 HD
ENDBRANCH  12  26
TORSDOF 7
ENDMDL
MODEL 4
REMARK VINA RESULT: -5.683950347      1.605      1.994
REMARK  7 active torsions:
REMARK  status: ('A' for Active; 'I' for Inactive)
REMARK    1  A    between atoms: C9_10  and  O1_11 
REMARK    2  A    between atoms: N2_13  and  C10_14 
REMARK    3  A    between atoms: N3_18  and  C14_19 
REMARK    4  A    between atoms: C14_19  and  C15_20 
REMARK    5  A    between atoms: C16_21  and  C17_22 
REMARK    6  A    between atoms: C17_22  and  O2_23 
REMARK    7  A    between atoms: C18_25  and  O3_26 
ROOT
HETATM    1  C1  UNL     1      14.604  59.599  22.851  1.00  0.00     0.272 C 
HETATM    2  N1  UNL     1      13.939  60.903  22.952  1.00  0.00    -0.066 N 
HETATM    3  C2  UNL     1      14.144  61.600  21.713  1.00  0.00     0.272 C 
HETATM    4  C3  UNL     1      12.507  60.706  23.221  1.00  0.00     0.246 C 
HETATM    5  C4  UNL     1      12.321  61.195  24.642  1.00  0.00     0.052 C 
HETATM    6  C5  UNL     1      13.689  60.786  25.207  1.00  0.00     0.049 C 
HETATM    7  C6  UNL     1      14.461  61.546  24.110  1.00  0.00     0.228 C 
HETATM    8  C7  UNL     1      13.811  62.872  24.248  1.00  0.00     0.035 A 
HETATM    9  C8  UNL     1      12.487  62.667  24.588  1.00  0.00     0.011 A 
HETATM   10  C9  UNL     1      11.880  63.899  24.725  1.00  0.00     0.153 A 
HETATM   11  N2  UNL     1      12.781  64.861  24.481  1.00  0.00    -0.275 N 
HETATM   12  C18 UNL     1      13.944  64.250  24.194  1.00  0.00     0.155 A 
ENDROOT
BRANCH  11  13
HETATM   13  C10 UNL     1      12.533  66.314  24.512  1.00  0.00     0.332 C 
HETATM   14  C11 UNL     1      13.372  66.994  25.538  1.00  0.00     0.059 C 
HETATM   15  C12 UNL     1      14.256  67.940  24.772  1.00  0.00     0.034 C 
HETATM   16  C13 UNL     1      13.492  68.115  23.468  1.00  0.00     0.275 C 
HETATM   17  N3  UNL     1      12.786  66.894  23.249  1.00  0.00     0.115 N 
BRANCH  17  18
HETATM   18  C14 UNL     1      11.590  67.004  22.473  1.00  0.00     0.302 C 
BRANCH  18  19
HETATM   19  C15 UNL     1      10.773  68.196  22.707  1.00  0.00     0.001 C 
HETATM   20  C16 UNL     1       9.638  68.263  23.373  1.00  0.00    -0.004 C 
BRANCH  20  21
HETATM   21  C17 UNL     1       8.925  67.166  24.036  1.00  0.00     0.191 C 
BRANCH  21  22
HETATM   22  O2  UNL     1       9.545  66.950  25.290  1.00  0.00    -0.397 OA
ATOM     23  H2  UNL     1      10.097  66.182  25.207  1.00  0.00     0.209 HD
ENDBRANCH  21  22
ENDBRANCH  20  21
ENDBRANCH  18  19
ENDBRANCH  17  18
ENDBRANCH  11  13
BRANCH  10  24
HETATM   24  O1  UNL     1      10.569  64.138  25.055  1.00  0.00    -0.345 OA
ATOM     25  H1  UNL     1      10.137  64.983  25.093  1.00  0.00     0.219 HD
ENDBRANCH  10  24
BRANCH  12  26
HETATM   26  O3  UNL     1      15.130  64.893  23.882  1.00  0.00    -0.345 OA
ATOM     27  H3  UNL     1      15.185  65.641  23.300  1.00  0.00     0.219 HD
ENDBRANCH  12  26
TORSDOF 7
ENDMDL
MODEL 5
REMARK VINA RESULT: -5.551042355     12.158     14.519
REMARK  7 active torsions:
REMARK  status: ('A' for Active; 'I' for Inactive)
REMARK    1  A    between atoms: C9_10  and  O1_11 
REMARK    2  A    between atoms: N2_13  and  C10_14 
REMARK    3  A    between atoms: N3_18  and  C14_19 
REMARK    4  A    between atoms: C14_19  and  C15_20 
REMARK    5  A    between atoms: C16_21  and  C17_22 
REMARK    6  A    between atoms: C17_22  and  O2_23 
REMARK    7  A    between atoms: C18_25  and  O3_26 
ROOT
HETATM    1  C1  UNL     1      26.969  66.146  21.606  1.00  0.00     0.272 C 
HETATM    2  N1  UNL     1      26.473  65.183  20.616  1.00  0.00    -0.066 N 
HETATM    3  C2  UNL     1      25.729  65.911  19.628  1.00  0.00     0.272 C 
HETATM    4  C3  UNL     1      27.607  64.471  20.011  1.00  0.00     0.246 C 
HETATM    5  C4  UNL     1      27.485  63.055  20.535  1.00  0.00     0.052 C 
HETATM    6  C5  UNL     1      26.902  63.373  21.920  1.00  0.00     0.049 C 
HETATM    7  C6  UNL     1      25.738  64.195  21.332  1.00  0.00     0.228 C 
HETATM    8  C7  UNL     1      25.218  63.200  20.363  1.00  0.00     0.035 A 
HETATM    9  C8  UNL     1      26.291  62.480  19.871  1.00  0.00     0.011 A 
HETATM   10  C9  UNL     1      25.810  61.547  18.974  1.00  0.00     0.153 A 
HETATM   11  N2  UNL     1      24.478  61.664  18.893  1.00  0.00    -0.275 N 
HETATM   12  C18 UNL     1      24.115  62.655  19.726  1.00  0.00     0.155 A 
ENDROOT
BRANCH  11  13
HETATM   13  C10 UNL     1      23.584  60.859  18.039  1.00  0.00     0.332 C 
HETATM   14  C11 UNL     1      23.775  61.170  16.595  1.00  0.00     0.059 C 
HETATM   15  C12 UNL     1      24.258  59.891  15.969  1.00  0.00     0.034 C 
HETATM   16  C13 UNL     1      23.795  58.844  16.969  1.00  0.00     0.275 C 
HETATM   17  N3  UNL     1      23.799  59.479  18.247  1.00  0.00     0.115 N 
BRANCH  17  18
HETATM   18  C14 UNL     1      22.883  58.943  19.205  1.00  0.00     0.302 C 
BRANCH  18  19
HETATM   19  C15 UNL     1      21.461  59.045  18.870  1.00  0.00     0.001 C 
HETATM   20  C16 UNL     1      20.560  58.087  18.932  1.00  0.00    -0.004 C 
BRANCH  20  21
HETATM   21  C17 UNL     1      20.761  56.695  19.350  1.00  0.00     0.191 C 
BRANCH  21  22
HETATM   22  O2  UNL     1      20.544  56.634  20.747  1.00  0.00    -0.397 OA
ATOM     23  H2  UNL     1      20.550  55.718  20.998  1.00  0.00     0.209 HD
ENDBRANCH  21  22
ENDBRANCH  20  21
ENDBRANCH  18  19
ENDBRANCH  17  18
ENDBRANCH  11  13
BRANCH  10  24
HETATM   24  O1  UNL     1      26.549  60.633  18.263  1.00  0.00    -0.345 OA
ATOM     25  H1  UNL     1      27.124  60.815  17.529  1.00  0.00     0.219 HD
ENDBRANCH  10  24
BRANCH  12  26
HETATM   26  O3  UNL     1      22.818  63.091  19.934  1.00  0.00    -0.345 OA
ATOM     27  H3  UNL     1      22.260  63.430  19.243  1.00  0.00     0.219 HD
ENDBRANCH  12  26
TORSDOF 7
ENDMDL
