MODEL 1
REMARK VINA RESULT: -7.632348838      0.000      0.000
REMARK  12 active torsions:
REMARK  status: ('A' for Active; 'I' for Inactive)
REMARK    1  A    between atoms: C3_3  and  N1_4 
REMARK    2  A    between atoms: C7_10  and  C8_11 
REMARK    3  A    between atoms: C8_11  and  C9_12 
REMARK    4  A    between atoms: C9_12  and  C10_13 
REMARK    5  A    between atoms: C10_13  and  N2_14 
REMARK    6  A    between atoms: C13_23  and  C14_24 
REMARK    7  A    between atoms: C14_24  and  C15_25 
REMARK    8  A    between atoms: C15_25  and  C16_26 
REMARK    9  A    between atoms: C16_26  and  C17_27 
REMARK   10  A    between atoms: C17_27  and  N6_28 
REMARK   11  A    between atoms: C24_40  and  C25_41 
REMARK   12  A    between atoms: C26_42  and  C27_43 
ROOT
HETATM    1  C1  UNL     1      13.035  14.928  10.361  1.00  0.00     0.013 C 
HETATM    2  C2  UNL     1      12.224  15.756  10.722  1.00  0.00    -0.087 C 
HETATM    3  C3  UNL     1      11.261  16.788  11.184  1.00  0.00     0.366 C 
ENDROOT
BRANCH   3   4
HETATM    4  N1  UNL     1      10.340  16.313  12.175  1.00  0.00     0.118 N 
HETATM    5  C4  UNL     1      10.059  17.441  13.063  1.00  0.00     0.319 C 
HETATM    6  C5  UNL     1       9.349  18.506  12.334  1.00  0.00     0.054 C 
HETATM    7  C6  UNL     1      11.336  17.923  13.715  1.00  0.00     0.293 C 
HETATM    8  O1  UNL     1      12.107  16.915  13.949  1.00  0.00    -0.263 OA
HETATM    9  O2  UNL     1      11.531  19.211  13.961  1.00  0.00    -0.305 OA
HETATM   10  C7  UNL     1      11.686  20.103  14.986  1.00  0.00     0.223 C 
HETATM   11  C12 UNL     1      10.767  20.002  16.132  1.00  0.00     0.248 C 
HETATM   12  O3  UNL     1       9.571  20.355  15.981  1.00  0.00    -0.271 OA
HETATM   13  N5  UNL     1      11.086  19.536  17.433  1.00  0.00    -0.344 N 
HETATM   14  C13 UNL     1      11.854  18.269  17.640  1.00  0.00     0.192 C 
ATOM     15  H5  UNL     1      10.786  20.076  18.245  1.00  0.00     0.163 HD
HETATM   16  C18 UNL     1      10.784  17.438  18.335  1.00  0.00     0.313 C 
HETATM   17  O4  UNL     1      10.729  17.618  19.588  1.00  0.00    -0.255 OA
HETATM   18  N7  UNL     1      10.023  16.635  17.608  1.00  0.00    -0.386 NA
HETATM   19  C19 UNL     1       9.353  15.893  16.963  1.00  0.00     0.163 C 
HETATM   20  C20 UNL     1       9.506  14.407  16.932  1.00  0.00     0.034 C 
HETATM   21  C21 UNL     1      10.397  14.002  18.070  1.00  0.00     0.016 C 
HETATM   22  C22 UNL     1      10.135  13.955  15.633  1.00  0.00     0.011 C 
HETATM   23  C23 UNL     1       9.106  13.769  14.544  1.00  0.00     0.009 C 
HETATM   24  C24 UNL     1       9.781  13.711  13.221  1.00  0.00     0.015 C 
HETATM   25  C30 UNL     1       8.911  14.273  12.105  1.00  0.00     0.027 C 
HETATM   26  C31 UNL     1       8.853  13.403  10.895  1.00  0.00     0.007 C 
HETATM   27  C35 UNL     1       9.154  15.692  11.747  1.00  0.00     0.230 C 
HETATM   28  C32 UNL     1       7.593  13.701  10.105  1.00  0.00     0.001 C 
HETATM   29  C33 UNL     1       7.422  15.178  10.040  1.00  0.00     0.002 C 
HETATM   30  C34 UNL     1       8.806  15.831  10.274  1.00  0.00     0.036 C 
BRANCH  10  31
HETATM   31  C8  UNL     1      11.766  21.518  14.455  1.00  0.00     0.044 C 
BRANCH  31  32
HETATM   32  C9  UNL     1      13.113  22.102  14.306  1.00  0.00     0.023 C 
BRANCH  32  33
HETATM   33  C10 UNL     1      13.998  21.829  15.520  1.00  0.00     0.122 C 
BRANCH  33  34
HETATM   34  N2  UNL     1      14.823  22.946  15.855  1.00  0.00    -0.367 N 
HETATM   35  C11 UNL     1      16.075  22.828  16.031  1.00  0.00     0.196 C 
HETATM   36  N3  UNL     1      16.885  23.942  16.362  1.00  0.00    -0.067 NA
HETATM   37  N4  UNL     1      16.700  21.561  15.903  1.00  0.00    -0.067 NA
ATOM     38  H2  UNL     1      14.394  23.866  15.955  1.00  0.00     0.161 HD
ENDBRANCH  33  34
ENDBRANCH  32  33
ENDBRANCH  31  32
ENDBRANCH  10  31
BRANCH  14  39
HETATM   39  C14 UNL     1      12.951  18.614  18.594  1.00  0.00     0.036 C 
BRANCH  39  40
HETATM   40  C15 UNL     1      13.807  19.773  18.282  1.00  0.00     0.004 C 
BRANCH  40  41
HETATM   41  C16 UNL     1      15.207  19.807  18.744  1.00  0.00     0.027 C 
BRANCH  41  42
HETATM   42  C17 UNL     1      15.553  21.157  19.395  1.00  0.00     0.229 C 
BRANCH  42  43
HETATM   43  N6  UNL     1      14.500  22.115  19.275  1.00  0.00    -0.079 N 
ATOM     44  H63 UNL     1      14.151  22.155  18.318  1.00  0.00     0.274 HD
ATOM     45  H62 UNL     1      13.656  21.790  19.746  1.00  0.00     0.274 HD
ATOM     46  H61 UNL     1      14.770  23.042  19.605  1.00  0.00     0.274 HD
ENDBRANCH  42  43
ENDBRANCH  41  42
ENDBRANCH  40  41
ENDBRANCH  39  40
ENDBRANCH  14  39
BRANCH  24  47
HETATM   47  C25 UNL     1      10.165  12.361  12.831  1.00  0.00    -0.013 C 
HETATM   48  C26 UNL     1      10.213  11.204  13.378  1.00  0.00     0.060 C 
BRANCH  48  49
HETATM   49  C27 UNL     1       9.888  10.733  14.676  1.00  0.00    -0.079 C 
HETATM   50  C28 UNL     1       9.637  10.337  15.799  1.00  0.00    -0.106 C 
HETATM   51  C29 UNL     1       9.310   9.874  17.143  1.00  0.00     0.112 C 
ENDBRANCH  48  49
ENDBRANCH  24  47
ENDBRANCH   3   4
TORSDOF 12
ENDMDL
MODEL 2
REMARK VINA RESULT: -7.530814854      1.060      1.363
REMARK  12 active torsions:
REMARK  status: ('A' for Active; 'I' for Inactive)
REMARK    1  A    between atoms: C3_3  and  N1_4 
REMARK    2  A    between atoms: C7_10  and  C8_11 
REMARK    3  A    between atoms: C8_11  and  C9_12 
REMARK    4  A    between atoms: C9_12  and  C10_13 
REMARK    5  A    between atoms: C10_13  and  N2_14 
REMARK    6  A    between atoms: C13_23  and  C14_24 
REMARK    7  A    between atoms: C14_24  and  C15_25 
REMARK    8  A    between atoms: C15_25  and  C16_26 
REMARK    9  A    between atoms: C16_26  and  C17_27 
REMARK   10  A    between atoms: C17_27  and  N6_28 
REMARK   11  A    between atoms: C24_40  and  C25_41 
REMARK   12  A    between atoms: C26_42  and  C27_43 
ROOT
HETATM    1  C1  UNL     1      13.213  14.983  10.534  1.00  0.00     0.013 C 
HETATM    2  C2  UNL     1      12.341  15.777  10.822  1.00  0.00    -0.087 C 
HETATM    3  C3  UNL     1      11.301  16.769  11.194  1.00  0.00     0.366 C 
ENDROOT
BRANCH   3   4
HETATM    4  N1  UNL     1      10.374  16.290  12.178  1.00  0.00     0.118 N 
HETATM    5  C4  UNL     1      10.065  17.422  13.051  1.00  0.00     0.319 C 
HETATM    6  C5  UNL     1       9.349  18.470  12.302  1.00  0.00     0.054 C 
HETATM    7  C6  UNL     1      11.326  17.930  13.715  1.00  0.00     0.293 C 
HETATM    8  O1  UNL     1      12.108  16.936  13.969  1.00  0.00    -0.263 OA
HETATM    9  O2  UNL     1      11.498  19.223  13.950  1.00  0.00    -0.305 OA
HETATM   10  C7  UNL     1      11.627  20.126  14.969  1.00  0.00     0.223 C 
HETATM   11  C12 UNL     1      10.694  20.023  16.103  1.00  0.00     0.248 C 
HETATM   12  O3  UNL     1       9.495  20.357  15.933  1.00  0.00    -0.271 OA
HETATM   13  N5  UNL     1      11.003  19.574  17.414  1.00  0.00    -0.344 N 
HETATM   14  C13 UNL     1      11.786  18.321  17.643  1.00  0.00     0.192 C 
ATOM     15  H5  UNL     1      10.684  20.117  18.216  1.00  0.00     0.163 HD
HETATM   16  C18 UNL     1      10.719  17.481  18.332  1.00  0.00     0.313 C 
HETATM   17  O4  UNL     1      10.645  17.672  19.582  1.00  0.00    -0.255 OA
HETATM   18  N7  UNL     1       9.980  16.660  17.602  1.00  0.00    -0.386 NA
HETATM   19  C19 UNL     1       9.330  15.902  16.956  1.00  0.00     0.163 C 
HETATM   20  C20 UNL     1       9.505  14.418  16.942  1.00  0.00     0.034 C 
HETATM   21  C21 UNL     1      10.386  14.037  18.095  1.00  0.00     0.016 C 
HETATM   22  C22 UNL     1      10.157  13.963  15.655  1.00  0.00     0.011 C 
HETATM   23  C23 UNL     1       9.145  13.752  14.554  1.00  0.00     0.009 C 
HETATM   24  C24 UNL     1       9.839  13.691  13.242  1.00  0.00     0.015 C 
HETATM   25  C30 UNL     1       8.975  14.229  12.109  1.00  0.00     0.027 C 
HETATM   26  C31 UNL     1       8.947  13.347  10.907  1.00  0.00     0.007 C 
HETATM   27  C35 UNL     1       9.203  15.649  11.740  1.00  0.00     0.230 C 
HETATM   28  C32 UNL     1       7.693  13.619  10.097  1.00  0.00     0.001 C 
HETATM   29  C33 UNL     1       7.502  15.092  10.016  1.00  0.00     0.002 C 
HETATM   30  C34 UNL     1       8.872  15.768  10.261  1.00  0.00     0.036 C 
BRANCH  10  31
HETATM   31  C8  UNL     1      11.693  21.538  14.425  1.00  0.00     0.044 C 
BRANCH  31  32
HETATM   32  C9  UNL     1      13.005  22.212  14.471  1.00  0.00     0.023 C 
BRANCH  32  33
HETATM   33  C10 UNL     1      13.994  21.489  15.383  1.00  0.00     0.122 C 
BRANCH  33  34
HETATM   34  N2  UNL     1      13.838  21.856  16.754  1.00  0.00    -0.367 N 
HETATM   35  C11 UNL     1      14.715  21.577  17.628  1.00  0.00     0.196 C 
HETATM   36  N3  UNL     1      14.552  21.945  18.986  1.00  0.00    -0.067 NA
HETATM   37  N4  UNL     1      15.894  20.878  17.262  1.00  0.00    -0.067 NA
ATOM     38  H2  UNL     1      12.996  22.356  17.040  1.00  0.00     0.161 HD
ENDBRANCH  33  34
ENDBRANCH  32  33
ENDBRANCH  31  32
ENDBRANCH  10  31
BRANCH  14  39
HETATM   39  C14 UNL     1      12.865  18.691  18.607  1.00  0.00     0.036 C 
BRANCH  39  40
HETATM   40  C15 UNL     1      13.881  17.675  18.940  1.00  0.00     0.004 C 
BRANCH  40  41
HETATM   41  C16 UNL     1      14.385  17.555  20.321  1.00  0.00     0.027 C 
BRANCH  41  42
HETATM   42  C17 UNL     1      13.625  18.484  21.281  1.00  0.00     0.229 C 
BRANCH  42  43
HETATM   43  N6  UNL     1      12.550  17.827  21.953  1.00  0.00    -0.079 N 
ATOM     44  H63 UNL     1      12.502  16.844  21.690  1.00  0.00     0.274 HD
ATOM     45  H62 UNL     1      12.751  17.723  22.948  1.00  0.00     0.274 HD
ATOM     46  H61 UNL     1      11.652  18.289  21.808  1.00  0.00     0.274 HD
ENDBRANCH  42  43
ENDBRANCH  41  42
ENDBRANCH  40  41
ENDBRANCH  39  40
ENDBRANCH  14  39
BRANCH  24  47
HETATM   47  C25 UNL     1      10.248  12.343  12.870  1.00  0.00    -0.013 C 
HETATM   48  C26 UNL     1      10.283  11.188  13.420  1.00  0.00     0.060 C 
BRANCH  48  49
HETATM   49  C27 UNL     1       9.911  10.716  14.706  1.00  0.00    -0.079 C 
HETATM   50  C28 UNL     1       9.599  10.340  15.820  1.00  0.00    -0.106 C 
HETATM   51  C29 UNL     1       9.202   9.875  17.144  1.00  0.00     0.112 C 
ENDBRANCH  48  49
ENDBRANCH  24  47
ENDBRANCH   3   4
TORSDOF 12
ENDMDL
MODEL 3
REMARK VINA RESULT: -7.249190170      1.237      1.406
REMARK  12 active torsions:
REMARK  status: ('A' for Active; 'I' for Inactive)
REMARK    1  A    between atoms: C3_3  and  N1_4 
REMARK    2  A    between atoms: C7_10  and  C8_11 
REMARK    3  A    between atoms: C8_11  and  C9_12 
REMARK    4  A    between atoms: C9_12  and  C10_13 
REMARK    5  A    between atoms: C10_13  and  N2_14 
REMARK    6  A    between atoms: C13_23  and  C14_24 
REMARK    7  A    between atoms: C14_24  and  C15_25 
REMARK    8  A    between atoms: C15_25  and  C16_26 
REMARK    9  A    between atoms: C16_26  and  C17_27 
REMARK   10  A    between atoms: C17_27  and  N6_28 
REMARK   11  A    between atoms: C24_40  and  C25_41 
REMARK   12  A    between atoms: C26_42  and  C27_43 
ROOT
HETATM    1  C1  UNL     1      12.685  14.819   9.962  1.00  0.00     0.013 C 
HETATM    2  C2  UNL     1      11.997  15.701  10.434  1.00  0.00    -0.087 C 
HETATM    3  C3  UNL     1      11.184  16.787  11.038  1.00  0.00     0.366 C 
ENDROOT
BRANCH   3   4
HETATM    4  N1  UNL     1      10.099  16.313  11.847  1.00  0.00     0.118 N 
HETATM    5  C4  UNL     1       9.913  17.293  12.918  1.00  0.00     0.319 C 
HETATM    6  C5  UNL     1       9.467  18.582  12.363  1.00  0.00     0.054 C 
HETATM    7  C6  UNL     1      11.176  17.411  13.742  1.00  0.00     0.293 C 
HETATM    8  O1  UNL     1      11.744  16.256  13.828  1.00  0.00    -0.263 OA
HETATM    9  O2  UNL     1      11.550  18.577  14.251  1.00  0.00    -0.305 OA
HETATM   10  C7  UNL     1      11.739  19.225  15.440  1.00  0.00     0.223 C 
HETATM   11  C12 UNL     1      10.701  19.085  16.474  1.00  0.00     0.248 C 
HETATM   12  O3  UNL     1       9.600  19.668  16.309  1.00  0.00    -0.271 OA
HETATM   13  N5  UNL     1      10.801  18.340  17.677  1.00  0.00    -0.344 N 
HETATM   14  C13 UNL     1      11.327  16.940  17.685  1.00  0.00     0.192 C 
ATOM     15  H5  UNL     1      10.508  18.768  18.556  1.00  0.00     0.163 HD
HETATM   16  C18 UNL     1      10.068  16.203  18.124  1.00  0.00     0.313 C 
HETATM   17  O4  UNL     1       9.912  16.158  19.380  1.00  0.00    -0.255 OA
HETATM   18  N7  UNL     1       9.268  15.695  17.199  1.00  0.00    -0.386 NA
HETATM   19  C19 UNL     1       8.559  15.215  16.374  1.00  0.00     0.163 C 
HETATM   20  C20 UNL     1       8.471  13.756  16.062  1.00  0.00     0.034 C 
HETATM   21  C21 UNL     1       9.158  12.997  17.159  1.00  0.00     0.016 C 
HETATM   22  C22 UNL     1       9.150  13.442  14.748  1.00  0.00     0.011 C 
HETATM   23  C23 UNL     1       8.226  13.645  13.572  1.00  0.00     0.009 C 
HETATM   24  C24 UNL     1       9.018  13.708  12.316  1.00  0.00     0.015 C 
HETATM   25  C30 UNL     1       8.373  14.611  11.273  1.00  0.00     0.027 C 
HETATM   26  C31 UNL     1       8.303  13.999   9.914  1.00  0.00     0.007 C 
HETATM   27  C35 UNL     1       8.880  16.004  11.221  1.00  0.00     0.230 C 
HETATM   28  C32 UNL     1       7.198  14.657   9.109  1.00  0.00     0.001 C 
HETATM   29  C33 UNL     1       7.277  16.128   9.325  1.00  0.00     0.002 C 
HETATM   30  C34 UNL     1       8.716  16.469   9.783  1.00  0.00     0.036 C 
BRANCH  10  31
HETATM   31  C8  UNL     1      12.103  20.676  15.206  1.00  0.00     0.044 C 
BRANCH  31  32
HETATM   32  C9  UNL     1      13.005  20.965  14.074  1.00  0.00     0.023 C 
BRANCH  32  33
HETATM   33  C10 UNL     1      14.408  20.404  14.295  1.00  0.00     0.122 C 
BRANCH  33  34
HETATM   34  N2  UNL     1      15.410  21.422  14.277  1.00  0.00    -0.367 N 
HETATM   35  C11 UNL     1      15.966  21.836  15.340  1.00  0.00     0.196 C 
HETATM   36  N3  UNL     1      16.960  22.845  15.312  1.00  0.00    -0.067 NA
HETATM   37  N4  UNL     1      15.599  21.294  16.598  1.00  0.00    -0.067 NA
ATOM     38  H2  UNL     1      15.687  21.828  13.383  1.00  0.00     0.161 HD
ENDBRANCH  33  34
ENDBRANCH  32  33
ENDBRANCH  31  32
ENDBRANCH  10  31
BRANCH  14  39
HETATM   39  C14 UNL     1      12.358  16.903  18.765  1.00  0.00     0.036 C 
BRANCH  39  40
HETATM   40  C15 UNL     1      12.535  18.104  19.601  1.00  0.00     0.004 C 
BRANCH  40  41
HETATM   41  C16 UNL     1      13.841  18.386  20.228  1.00  0.00     0.027 C 
BRANCH  41  42
HETATM   42  C17 UNL     1      14.388  19.756  19.796  1.00  0.00     0.229 C 
BRANCH  42  43
HETATM   43  N6  UNL     1      13.666  20.322  18.702  1.00  0.00    -0.079 N 
ATOM     44  H63 UNL     1      14.118  20.103  17.814  1.00  0.00     0.274 HD
ATOM     45  H62 UNL     1      12.780  19.837  18.560  1.00  0.00     0.274 HD
ATOM     46  H61 UNL     1      13.522  21.327  18.801  1.00  0.00     0.274 HD
ENDBRANCH  42  43
ENDBRANCH  41  42
ENDBRANCH  40  41
ENDBRANCH  39  40
ENDBRANCH  14  39
BRANCH  24  47
HETATM   47  C25 UNL     1       9.216  12.405  11.696  1.00  0.00    -0.013 C 
HETATM   48  C26 UNL     1       9.683  11.264  12.041  1.00  0.00     0.060 C 
BRANCH  48  49
HETATM   49  C27 UNL     1      10.234  10.768  13.250  1.00  0.00    -0.079 C 
HETATM   50  C28 UNL     1      10.720  10.371  14.293  1.00  0.00    -0.106 C 
HETATM   51  C29 UNL     1      11.278   9.881  15.548  1.00  0.00     0.112 C 
ENDBRANCH  48  49
ENDBRANCH  24  47
ENDBRANCH   3   4
TORSDOF 12
ENDMDL
MODEL 4
REMARK VINA RESULT: -6.887126850      1.525      1.812
REMARK  12 active torsions:
REMARK  status: ('A' for Active; 'I' for Inactive)
REMARK    1  A    between atoms: C3_3  and  N1_4 
REMARK    2  A    between atoms: C7_10  and  C8_11 
REMARK    3  A    between atoms: C8_11  and  C9_12 
REMARK    4  A    between atoms: C9_12  and  C10_13 
REMARK    5  A    between atoms: C10_13  and  N2_14 
REMARK    6  A    between atoms: C13_23  and  C14_24 
REMARK    7  A    between atoms: C14_24  and  C15_25 
REMARK    8  A    between atoms: C15_25  and  C16_26 
REMARK    9  A    between atoms: C16_26  and  C17_27 
REMARK   10  A    between atoms: C17_27  and  N6_28 
REMARK   11  A    between atoms: C24_40  and  C25_41 
REMARK   12  A    between atoms: C26_42  and  C27_43 
ROOT
HETATM    1  C1  UNL     1      13.004  14.754   9.938  1.00  0.00     0.013 C 
HETATM    2  C2  UNL     1      12.293  15.596  10.446  1.00  0.00    -0.087 C 
HETATM    3  C3  UNL     1      11.451  16.635  11.094  1.00  0.00     0.366 C 
ENDROOT
BRANCH   3   4
HETATM    4  N1  UNL     1      10.373  16.099  11.873  1.00  0.00     0.118 N 
HETATM    5  C4  UNL     1      10.111  17.058  12.946  1.00  0.00     0.319 C 
HETATM    6  C5  UNL     1       9.613  18.328  12.390  1.00  0.00     0.054 C 
HETATM    7  C6  UNL     1      11.346  17.235  13.802  1.00  0.00     0.293 C 
HETATM    8  O1  UNL     1      11.971  16.110  13.893  1.00  0.00    -0.263 OA
HETATM    9  O2  UNL     1      11.648  18.413  14.327  1.00  0.00    -0.305 OA
HETATM   10  C7  UNL     1      11.775  19.060  15.526  1.00  0.00     0.223 C 
HETATM   11  C12 UNL     1      10.721  18.858  16.533  1.00  0.00     0.248 C 
HETATM   12  O3  UNL     1       9.596  19.386  16.346  1.00  0.00    -0.271 OA
HETATM   13  N5  UNL     1      10.831  18.109  17.733  1.00  0.00    -0.344 N 
HETATM   14  C13 UNL     1      11.428  16.738  17.744  1.00  0.00     0.192 C 
ATOM     15  H5  UNL     1      10.495  18.515  18.607  1.00  0.00     0.163 HD
HETATM   16  C18 UNL     1      10.199  15.933  18.147  1.00  0.00     0.313 C 
HETATM   17  O4  UNL     1      10.015  15.870  19.398  1.00  0.00    -0.255 OA
HETATM   18  N7  UNL     1       9.448  15.393  17.199  1.00  0.00    -0.386 NA
HETATM   19  C19 UNL     1       8.784  14.884  16.354  1.00  0.00     0.163 C 
HETATM   20  C20 UNL     1       8.779  13.425  16.029  1.00  0.00     0.034 C 
HETATM   21  C21 UNL     1       9.479  12.694  17.137  1.00  0.00     0.016 C 
HETATM   22  C22 UNL     1       9.505  13.158  14.729  1.00  0.00     0.011 C 
HETATM   23  C23 UNL     1       8.599  13.324  13.533  1.00  0.00     0.009 C 
HETATM   24  C24 UNL     1       9.417  13.438  12.297  1.00  0.00     0.015 C 
HETATM   25  C30 UNL     1       8.751  14.314  11.245  1.00  0.00     0.027 C 
HETATM   26  C31 UNL     1       8.745  13.712   9.881  1.00  0.00     0.007 C 
HETATM   27  C35 UNL     1       9.187  15.733  11.215  1.00  0.00     0.230 C 
HETATM   28  C32 UNL     1       7.627  14.319   9.054  1.00  0.00     0.001 C 
HETATM   29  C33 UNL     1       7.625  15.790   9.282  1.00  0.00     0.002 C 
HETATM   30  C34 UNL     1       9.033  16.200   9.777  1.00  0.00     0.036 C 
BRANCH  10  31
HETATM   31  C8  UNL     1      12.070  20.530  15.311  1.00  0.00     0.044 C 
BRANCH  31  32
HETATM   32  C9  UNL     1      12.675  20.909  14.020  1.00  0.00     0.023 C 
BRANCH  32  33
HETATM   33  C10 UNL     1      14.089  21.462  14.186  1.00  0.00     0.122 C 
BRANCH  33  34
HETATM   34  N2  UNL     1      14.267  22.138  15.432  1.00  0.00    -0.367 N 
HETATM   35  C11 UNL     1      15.416  22.337  15.930  1.00  0.00     0.196 C 
HETATM   36  N3  UNL     1      15.582  23.010  17.166  1.00  0.00    -0.067 NA
HETATM   37  N4  UNL     1      16.578  21.884  15.255  1.00  0.00    -0.067 NA
ATOM     38  H2  UNL     1      13.444  22.470  15.936  1.00  0.00     0.161 HD
ENDBRANCH  33  34
ENDBRANCH  32  33
ENDBRANCH  31  32
ENDBRANCH  10  31
BRANCH  14  39
HETATM   39  C14 UNL     1      12.434  16.745  18.848  1.00  0.00     0.036 C 
BRANCH  39  40
HETATM   40  C15 UNL     1      12.997  18.040  19.270  1.00  0.00     0.004 C 
BRANCH  40  41
HETATM   41  C16 UNL     1      14.419  18.346  19.027  1.00  0.00     0.027 C 
BRANCH  41  42
HETATM   42  C17 UNL     1      14.586  19.622  18.186  1.00  0.00     0.229 C 
BRANCH  42  43
HETATM   43  N6  UNL     1      13.714  20.675  18.599  1.00  0.00    -0.079 N 
ATOM     44  H63 UNL     1      12.906  20.744  17.981  1.00  0.00     0.274 HD
ATOM     45  H62 UNL     1      13.237  20.434  19.468  1.00  0.00     0.274 HD
ATOM     46  H61 UNL     1      14.190  21.574  18.681  1.00  0.00     0.274 HD
ENDBRANCH  42  43
ENDBRANCH  41  42
ENDBRANCH  40  41
ENDBRANCH  39  40
ENDBRANCH  14  39
BRANCH  24  47
HETATM   47  C25 UNL     1       9.697  12.152  11.673  1.00  0.00    -0.013 C 
HETATM   48  C26 UNL     1       9.064  11.063  11.443  1.00  0.00     0.060 C 
BRANCH  48  49
HETATM   49  C27 UNL     1       7.740  10.635  11.721  1.00  0.00    -0.079 C 
HETATM   50  C28 UNL     1       6.603  10.291  11.980  1.00  0.00    -0.106 C 
HETATM   51  C29 UNL     1       5.233   9.874  12.262  1.00  0.00     0.112 C 
ENDBRANCH  48  49
ENDBRANCH  24  47
ENDBRANCH   3   4
TORSDOF 12
ENDMDL
MODEL 5
REMARK VINA RESULT: -6.836117092      4.756      7.597
REMARK  12 active torsions:
REMARK  status: ('A' for Active; 'I' for Inactive)
REMARK    1  A    between atoms: C3_3  and  N1_4 
REMARK    2  A    between atoms: C7_10  and  C8_11 
REMARK    3  A    between atoms: C8_11  and  C9_12 
REMARK    4  A    between atoms: C9_12  and  C10_13 
REMARK    5  A    between atoms: C10_13  and  N2_14 
REMARK    6  A    between atoms: C13_23  and  C14_24 
REMARK    7  A    between atoms: C14_24  and  C15_25 
REMARK    8  A    between atoms: C15_25  and  C16_26 
REMARK    9  A    between atoms: C16_26  and  C17_27 
REMARK   10  A    between atoms: C17_27  and  N6_28 
REMARK   11  A    between atoms: C24_40  and  C25_41 
REMARK   12  A    between atoms: C26_42  and  C27_43 
ROOT
HETATM    1  C1  UNL     1      13.627  18.266  12.949  1.00  0.00     0.013 C 
HETATM    2  C2  UNL     1      13.910  19.366  13.378  1.00  0.00    -0.087 C 
HETATM    3  C3  UNL     1      14.293  20.700  13.907  1.00  0.00     0.366 C 
ENDROOT
BRANCH   3   4
HETATM    4  N1  UNL     1      13.837  20.943  15.244  1.00  0.00     0.118 N 
HETATM    5  C4  UNL     1      14.518  22.151  15.709  1.00  0.00     0.319 C 
HETATM    6  C5  UNL     1      14.090  23.319  14.920  1.00  0.00     0.054 C 
HETATM    7  C6  UNL     1      16.017  21.945  15.690  1.00  0.00     0.293 C 
HETATM    8  O1  UNL     1      16.288  20.723  16.004  1.00  0.00    -0.263 OA
HETATM    9  O2  UNL     1      16.837  22.939  15.380  1.00  0.00    -0.305 OA
HETATM   10  C7  UNL     1      17.818  23.733  15.908  1.00  0.00     0.223 C 
HETATM   11  C12 UNL     1      17.596  24.306  17.245  1.00  0.00     0.248 C 
HETATM   12  O3  UNL     1      16.753  25.228  17.377  1.00  0.00    -0.271 OA
HETATM   13  N5  UNL     1      18.247  23.924  18.447  1.00  0.00    -0.344 N 
HETATM   14  C13 UNL     1      18.390  22.486  18.831  1.00  0.00     0.192 C 
ATOM     15  H5  UNL     1      18.624  24.645  19.062  1.00  0.00     0.163 HD
HETATM   16  C18 UNL     1      17.527  22.475  20.086  1.00  0.00     0.313 C 
HETATM   17  O4  UNL     1      18.144  22.823  21.136  1.00  0.00    -0.255 OA
HETATM   18  N7  UNL     1      16.254  22.123  19.985  1.00  0.00    -0.386 NA
HETATM   19  C19 UNL     1      15.117  21.785  19.905  1.00  0.00     0.163 C 
HETATM   20  C20 UNL     1      14.580  20.467  20.361  1.00  0.00     0.034 C 
HETATM   21  C21 UNL     1      15.623  19.802  21.211  1.00  0.00     0.016 C 
HETATM   22  C22 UNL     1      14.267  19.574  19.180  1.00  0.00     0.011 C 
HETATM   23  C23 UNL     1      12.886  19.831  18.629  1.00  0.00     0.009 C 
HETATM   24  C24 UNL     1      12.768  19.235  17.273  1.00  0.00     0.015 C 
HETATM   25  C30 UNL     1      11.819  20.021  16.379  1.00  0.00     0.027 C 
HETATM   26  C31 UNL     1      10.837  19.167  15.651  1.00  0.00     0.007 C 
HETATM   27  C35 UNL     1      12.453  21.015  15.478  1.00  0.00     0.230 C 
HETATM   28  C32 UNL     1       9.624  19.990  15.263  1.00  0.00     0.001 C 
HETATM   29  C33 UNL     1      10.099  21.298  14.733  1.00  0.00     0.002 C 
HETATM   30  C34 UNL     1      11.559  21.119  14.253  1.00  0.00     0.036 C 
BRANCH  10  31
HETATM   31  C8  UNL     1      18.244  24.789  14.910  1.00  0.00     0.044 C 
BRANCH  31  32
HETATM   32  C9  UNL     1      19.692  25.040  14.776  1.00  0.00     0.023 C 
BRANCH  32  33
HETATM   33  C10 UNL     1      20.093  26.411  15.315  1.00  0.00     0.122 C 
BRANCH  33  34
HETATM   34  N2  UNL     1      20.431  26.373  16.702  1.00  0.00    -0.367 N 
HETATM   35  C11 UNL     1      21.337  27.113  17.194  1.00  0.00     0.196 C 
HETATM   36  N3  UNL     1      21.665  27.069  18.571  1.00  0.00    -0.067 NA
HETATM   37  N4  UNL     1      22.055  28.013  16.365  1.00  0.00    -0.067 NA
ATOM     38  H2  UNL     1      19.929  25.731  17.316  1.00  0.00     0.161 HD
ENDBRANCH  33  34
ENDBRANCH  32  33
ENDBRANCH  31  32
ENDBRANCH  10  31
BRANCH  14  39
HETATM   39  C14 UNL     1      19.830  22.305  19.185  1.00  0.00     0.036 C 
BRANCH  39  40
HETATM   40  C15 UNL     1      20.682  23.505  19.275  1.00  0.00     0.004 C 
BRANCH  40  41
HETATM   41  C16 UNL     1      21.716  23.604  20.322  1.00  0.00     0.027 C 
BRANCH  41  42
HETATM   42  C17 UNL     1      21.439  24.776  21.278  1.00  0.00     0.229 C 
BRANCH  42  43
HETATM   43  N6  UNL     1      20.208  25.441  20.996  1.00  0.00    -0.079 N 
ATOM     44  H63 UNL     1      20.369  26.415  20.741  1.00  0.00     0.274 HD
ATOM     45  H62 UNL     1      19.803  25.106  20.122  1.00  0.00     0.274 HD
ATOM     46  H61 UNL     1      19.536  25.370  21.761  1.00  0.00     0.274 HD
ENDBRANCH  42  43
ENDBRANCH  41  42
ENDBRANCH  40  41
ENDBRANCH  39  40
ENDBRANCH  14  39
BRANCH  24  47
HETATM   47  C25 UNL     1      12.302  17.855  17.290  1.00  0.00    -0.013 C 
HETATM   48  C26 UNL     1      12.075  16.952  18.169  1.00  0.00     0.060 C 
BRANCH  48  49
HETATM   49  C27 UNL     1      12.192  16.926  19.583  1.00  0.00    -0.079 C 
HETATM   50  C28 UNL     1      12.298  16.934  20.795  1.00  0.00    -0.106 C 
HETATM   51  C29 UNL     1      12.402  16.925  22.250  1.00  0.00     0.112 C 
ENDBRANCH  48  49
ENDBRANCH  24  47
ENDBRANCH   3   4
TORSDOF 12
ENDMDL
