MODEL 1
REMARK VINA RESULT: -7.783056713      0.000      0.000
REMARK  13 active torsions:
REMARK  status: ('A' for Active; 'I' for Inactive)
REMARK    1  A    between atoms: C2_2  and  C4_4 
REMARK    2  A    between atoms: C4_4  and  C5_5 
REMARK    3  A    between atoms: C5_5  and  N1_6 
REMARK    4  A    between atoms: C5_5  and  C6_10 
REMARK    5  A    between atoms: C6_10  and  C9_13 
REMARK    6  A    between atoms: C9_13  and  N2_14 
REMARK       I    between atoms: N2_14  and  C10_16 
REMARK    7  A    between atoms: C10_16  and  C11_18 
REMARK    8  A    between atoms: N3_25  and  S1_26 
REMARK    9  A    between atoms: C22_33  and  N4_34 
REMARK       I    between atoms: N4_34  and  C23_36 
REMARK   10  A    between atoms: C23_36  and  C24_38 
REMARK   11  A    between atoms: C24_38  and  N5_39 
REMARK   12  A    between atoms: C24_38  and  C25_43 
REMARK   13  A    between atoms: C25_43  and  C26_44 
ROOT
HETATM    1  C11 UNL     1      11.683  16.306  12.906  1.00  0.00     0.108 C 
HETATM    2  C12 UNL     1      11.891  15.077  12.041  1.00  0.00     0.017 C 
HETATM    3  C13 UNL     1      10.857  14.975  10.998  1.00  0.00     0.001 C 
HETATM    4  C14 UNL     1      10.144  13.708  10.783  1.00  0.00     0.000 C 
HETATM    5  C15 UNL     1      10.649  12.461  11.384  1.00  0.00     0.005 C 
HETATM    6  C16 UNL     1       9.673  11.738  12.290  1.00  0.00     0.046 C 
HETATM    7  C17 UNL     1       9.162  12.533  13.448  1.00  0.00     0.081 C 
HETATM    8  N3  UNL     1      10.069  12.588  14.486  1.00  0.00    -0.270 N 
HETATM    9  C19 UNL     1      10.524  13.765  15.075  1.00  0.00     0.088 C 
HETATM   10  C20 UNL     1      10.207  15.092  14.539  1.00  0.00     0.059 C 
HETATM   11  C21 UNL     1       9.359  15.923  15.474  1.00  0.00     0.066 C 
HETATM   12  C22 UNL     1      10.314  16.916  16.042  1.00  0.00     0.224 C 
HETATM   13  O5  UNL     1      11.251  17.101  15.067  1.00  0.00    -0.360 OA
HETATM   14  C32 UNL     1      11.451  15.950  14.372  1.00  0.00     0.146 C 
ENDROOT
BRANCH   1  15
HETATM   15  C10 UNL     1      12.831  17.260  12.830  1.00  0.00     0.228 C 
HETATM   16  N2  UNL     1      12.733  18.598  13.218  1.00  0.00    -0.340 N 
ATOM     17  H2  UNL     1      11.804  18.824  13.572  1.00  0.00     0.167 HD
HETATM   18  O1  UNL     1      13.888  16.773  12.391  1.00  0.00    -0.273 OA
BRANCH  16  19
HETATM   19  C9  UNL     1      13.581  19.701  13.246  1.00  0.00     0.075 C 
BRANCH  19  20
HETATM   20  C6  UNL     1      13.564  20.716  14.325  1.00  0.00     0.013 C 
HETATM   21  C7  UNL     1      12.706  21.888  14.046  1.00  0.00     0.023 C 
HETATM   22  C8  UNL     1      12.947  20.080  15.613  1.00  0.00     0.023 C 
BRANCH  20  23
HETATM   23  C5  UNL     1      14.978  21.088  14.751  1.00  0.00     0.196 C 
BRANCH  23  24
HETATM   24  C4  UNL     1      15.179  22.302  15.546  1.00  0.00     0.037 C 
BRANCH  24  25
HETATM   25  C2  UNL     1      16.420  22.545  16.304  1.00  0.00    -0.021 C 
HETATM   26  C1  UNL     1      17.274  23.657  15.733  1.00  0.00     0.009 C 
HETATM   27  C3  UNL     1      15.968  23.120  17.693  1.00  0.00     0.009 C 
ENDBRANCH  24  25
ENDBRANCH  23  24
BRANCH  23  28
HETATM   28  N1  UNL     1      15.723  21.339  13.479  1.00  0.00    -0.074 N 
ATOM     29  H13 UNL     1      15.850  20.508  12.901  1.00  0.00     0.274 HD
ATOM     30  H12 UNL     1      15.199  21.879  12.791  1.00  0.00     0.274 HD
ATOM     31  H11 UNL     1      16.596  21.777  13.772  1.00  0.00     0.274 HD
ENDBRANCH  23  28
ENDBRANCH  20  23
ENDBRANCH  19  20
ENDBRANCH  16  19
ENDBRANCH   1  15
BRANCH  12  32
HETATM   32  N4  UNL     1      10.846  16.405  17.279  1.00  0.00    -0.333 N 
HETATM   33  C23 UNL     1      11.050  17.212  18.430  1.00  0.00     0.250 C 
HETATM   34  O4  UNL     1      10.747  18.443  18.354  1.00  0.00    -0.271 OA
ATOM     35  H4  UNL     1      11.089  15.416  17.330  1.00  0.00     0.165 HD
BRANCH  33  36
HETATM   36  C24 UNL     1      11.587  16.731  19.705  1.00  0.00     0.275 C 
BRANCH  36  37
HETATM   37  N5  UNL     1      10.653  15.994  20.495  1.00  0.00    -0.066 N 
ATOM     38  H53 UNL     1      10.373  16.536  21.313  1.00  0.00     0.275 HD
ATOM     39  H52 UNL     1       9.756  15.926  20.016  1.00  0.00     0.275 HD
ATOM     40  H51 UNL     1      10.978  15.069  20.775  1.00  0.00     0.275 HD
ENDBRANCH  36  37
BRANCH  36  41
HETATM   41  C25 UNL     1      12.295  17.771  20.502  1.00  0.00     0.047 C 
BRANCH  41  42
HETATM   42  C26 UNL     1      13.773  17.826  20.354  1.00  0.00    -0.012 C 
HETATM   43  C27 UNL     1      14.163  19.309  20.461  1.00  0.00     0.005 C 
HETATM   44  C28 UNL     1      13.966  19.928  19.094  1.00  0.00     0.000 C 
HETATM   45  C29 UNL     1      15.201  19.530  18.278  1.00  0.00     0.000 C 
HETATM   46  C30 UNL     1      15.581  18.147  18.733  1.00  0.00     0.000 C 
HETATM   47  C31 UNL     1      14.315  17.339  19.049  1.00  0.00     0.005 C 
ENDBRANCH  41  42
ENDBRANCH  36  41
ENDBRANCH  33  36
ENDBRANCH  12  32
BRANCH   8  48
HETATM   48  S1  UNL     1       9.776  11.354  15.685  1.00  0.00     0.231 S 
HETATM   49  C18 UNL     1       8.280  10.487  15.372  1.00  0.00     0.186 C 
HETATM   50  O2  UNL     1       9.618  12.096  16.997  1.00  0.00    -0.206 OA
HETATM   51  O3  UNL     1      10.935  10.409  15.736  1.00  0.00    -0.206 OA
ENDBRANCH   8  48
TORSDOF 13
ENDMDL
MODEL 2
REMARK VINA RESULT: -7.747929548      0.958      1.065
REMARK  13 active torsions:
REMARK  status: ('A' for Active; 'I' for Inactive)
REMARK    1  A    between atoms: C2_2  and  C4_4 
REMARK    2  A    between atoms: C4_4  and  C5_5 
REMARK    3  A    between atoms: C5_5  and  N1_6 
REMARK    4  A    between atoms: C5_5  and  C6_10 
REMARK    5  A    between atoms: C6_10  and  C9_13 
REMARK    6  A    between atoms: C9_13  and  N2_14 
REMARK       I    between atoms: N2_14  and  C10_16 
REMARK    7  A    between atoms: C10_16  and  C11_18 
REMARK    8  A    between atoms: N3_25  and  S1_26 
REMARK    9  A    between atoms: C22_33  and  N4_34 
REMARK       I    between atoms: N4_34  and  C23_36 
REMARK   10  A    between atoms: C23_36  and  C24_38 
REMARK   11  A    between atoms: C24_38  and  N5_39 
REMARK   12  A    between atoms: C24_38  and  C25_43 
REMARK   13  A    between atoms: C25_43  and  C26_44 
ROOT
HETATM    1  C11 UNL     1      11.965  16.325  12.529  1.00  0.00     0.108 C 
HETATM    2  C12 UNL     1      12.310  15.167  11.612  1.00  0.00     0.017 C 
HETATM    3  C13 UNL     1      11.447  15.152  10.419  1.00  0.00     0.001 C 
HETATM    4  C14 UNL     1      10.783  13.910  10.000  1.00  0.00     0.000 C 
HETATM    5  C15 UNL     1      11.201  12.617  10.571  1.00  0.00     0.005 C 
HETATM    6  C16 UNL     1      10.105  11.830  11.259  1.00  0.00     0.046 C 
HETATM    7  C17 UNL     1       9.419  12.533  12.385  1.00  0.00     0.081 C 
HETATM    8  N3  UNL     1      10.158  12.502  13.549  1.00  0.00    -0.270 N 
HETATM    9  C19 UNL     1      10.510  13.627  14.291  1.00  0.00     0.088 C 
HETATM   10  C20 UNL     1      10.268  14.993  13.820  1.00  0.00     0.059 C 
HETATM   11  C21 UNL     1       9.282  15.752  14.678  1.00  0.00     0.066 C 
HETATM   12  C22 UNL     1      10.132  16.692  15.459  1.00  0.00     0.224 C 
HETATM   13  O5  UNL     1      11.205  16.950  14.656  1.00  0.00    -0.360 OA
HETATM   14  C32 UNL     1      11.517  15.856  13.910  1.00  0.00     0.146 C 
ENDROOT
BRANCH   1  15
HETATM   15  C10 UNL     1      13.104  17.278  12.702  1.00  0.00     0.228 C 
HETATM   16  N2  UNL     1      12.935  18.592  13.141  1.00  0.00    -0.340 N 
ATOM     17  H2  UNL     1      11.957  18.803  13.343  1.00  0.00     0.167 HD
HETATM   18  O1  UNL     1      14.223  16.810  12.425  1.00  0.00    -0.273 OA
BRANCH  16  19
HETATM   19  C9  UNL     1      13.759  19.689  13.374  1.00  0.00     0.075 C 
BRANCH  19  20
HETATM   20  C6  UNL     1      13.526  20.670  14.459  1.00  0.00     0.013 C 
HETATM   21  C7  UNL     1      12.637  21.791  14.087  1.00  0.00     0.023 C 
HETATM   22  C8  UNL     1      12.782  19.959  15.637  1.00  0.00     0.023 C 
BRANCH  20  23
HETATM   23  C5  UNL     1      14.839  21.119  15.085  1.00  0.00     0.196 C 
BRANCH  23  24
HETATM   24  C4  UNL     1      14.849  22.326  15.914  1.00  0.00     0.037 C 
BRANCH  24  25
HETATM   25  C2  UNL     1      15.715  22.455  17.100  1.00  0.00    -0.021 C 
HETATM   26  C1  UNL     1      16.772  23.532  16.970  1.00  0.00     0.009 C 
HETATM   27  C3  UNL     1      14.792  22.999  18.247  1.00  0.00     0.009 C 
ENDBRANCH  24  25
ENDBRANCH  23  24
BRANCH  23  28
HETATM   28  N1  UNL     1      15.738  21.440  13.934  1.00  0.00    -0.074 N 
ATOM     29  H13 UNL     1      15.395  21.107  13.033  1.00  0.00     0.274 HD
ATOM     30  H12 UNL     1      15.761  22.430  13.689  1.00  0.00     0.274 HD
ATOM     31  H11 UNL     1      16.646  21.058  14.199  1.00  0.00     0.274 HD
ENDBRANCH  23  28
ENDBRANCH  20  23
ENDBRANCH  19  20
ENDBRANCH  16  19
ENDBRANCH   1  15
BRANCH  12  32
HETATM   32  N4  UNL     1      10.476  16.084  16.719  1.00  0.00    -0.333 N 
HETATM   33  C23 UNL     1      10.700  16.828  17.908  1.00  0.00     0.250 C 
HETATM   34  O4  UNL     1      10.593  18.092  17.846  1.00  0.00    -0.271 OA
ATOM     35  H4  UNL     1      10.562  15.068  16.759  1.00  0.00     0.165 HD
BRANCH  33  36
HETATM   36  C24 UNL     1      11.048  16.247  19.206  1.00  0.00     0.275 C 
BRANCH  36  37
HETATM   37  N5  UNL     1      10.013  15.461  19.796  1.00  0.00    -0.066 N 
ATOM     38  H53 UNL     1       9.107  15.706  19.395  1.00  0.00     0.275 HD
ATOM     39  H52 UNL     1      10.082  14.491  19.486  1.00  0.00     0.275 HD
ATOM     40  H51 UNL     1       9.977  15.508  20.814  1.00  0.00     0.275 HD
ENDBRANCH  36  37
BRANCH  36  41
HETATM   41  C25 UNL     1      11.632  17.217  20.174  1.00  0.00     0.047 C 
BRANCH  41  42
HETATM   42  C26 UNL     1      13.115  17.245  20.270  1.00  0.00    -0.012 C 
HETATM   43  C27 UNL     1      13.502  18.705  20.559  1.00  0.00     0.005 C 
HETATM   44  C28 UNL     1      13.537  19.434  19.233  1.00  0.00     0.000 C 
HETATM   45  C29 UNL     1      14.883  19.070  18.596  1.00  0.00     0.000 C 
HETATM   46  C30 UNL     1      15.166  17.646  18.991  1.00  0.00     0.000 C 
HETATM   47  C31 UNL     1      13.855  16.849  19.034  1.00  0.00     0.005 C 
ENDBRANCH  41  42
ENDBRANCH  36  41
ENDBRANCH  33  36
ENDBRANCH  12  32
BRANCH   8  48
HETATM   48  S1  UNL     1       9.696  11.179  14.589  1.00  0.00     0.231 S 
HETATM   49  C18 UNL     1       9.631  11.670  16.275  1.00  0.00     0.186 C 
HETATM   50  O2  UNL     1      10.800  10.149  14.447  1.00  0.00    -0.206 OA
HETATM   51  O3  UNL     1       8.379  10.621  14.149  1.00  0.00    -0.206 OA
ENDBRANCH   8  48
TORSDOF 13
ENDMDL
MODEL 3
REMARK VINA RESULT: -7.725443338      1.698      2.187
REMARK  13 active torsions:
REMARK  status: ('A' for Active; 'I' for Inactive)
REMARK    1  A    between atoms: C2_2  and  C4_4 
REMARK    2  A    between atoms: C4_4  and  C5_5 
REMARK    3  A    between atoms: C5_5  and  N1_6 
REMARK    4  A    between atoms: C5_5  and  C6_10 
REMARK    5  A    between atoms: C6_10  and  C9_13 
REMARK    6  A    between atoms: C9_13  and  N2_14 
REMARK       I    between atoms: N2_14  and  C10_16 
REMARK    7  A    between atoms: C10_16  and  C11_18 
REMARK    8  A    between atoms: N3_25  and  S1_26 
REMARK    9  A    between atoms: C22_33  and  N4_34 
REMARK       I    between atoms: N4_34  and  C23_36 
REMARK   10  A    between atoms: C23_36  and  C24_38 
REMARK   11  A    between atoms: C24_38  and  N5_39 
REMARK   12  A    between atoms: C24_38  and  C25_43 
REMARK   13  A    between atoms: C25_43  and  C26_44 
ROOT
HETATM    1  C11 UNL     1      12.370  16.322  12.046  1.00  0.00     0.108 C 
HETATM    2  C12 UNL     1      12.850  15.206  11.138  1.00  0.00     0.017 C 
HETATM    3  C13 UNL     1      12.265  15.321   9.792  1.00  0.00     0.001 C 
HETATM    4  C14 UNL     1      11.650  14.152   9.148  1.00  0.00     0.000 C 
HETATM    5  C15 UNL     1      11.874  12.801   9.695  1.00  0.00     0.005 C 
HETATM    6  C16 UNL     1      10.620  12.041  10.073  1.00  0.00     0.046 C 
HETATM    7  C17 UNL     1       9.741  12.711  11.079  1.00  0.00     0.081 C 
HETATM    8  N3  UNL     1      10.209  12.560  12.367  1.00  0.00    -0.270 N 
HETATM    9  C19 UNL     1      10.445  13.611  13.250  1.00  0.00     0.088 C 
HETATM   10  C20 UNL     1      10.374  15.017  12.844  1.00  0.00     0.059 C 
HETATM   11  C21 UNL     1       9.262  15.779  13.529  1.00  0.00     0.066 C 
HETATM   12  C22 UNL     1       9.968  16.612  14.542  1.00  0.00     0.224 C 
HETATM   13  O5  UNL     1      11.199  16.854  14.005  1.00  0.00    -0.360 OA
HETATM   14  C32 UNL     1      11.613  15.793  13.262  1.00  0.00     0.146 C 
ENDROOT
BRANCH   1  15
HETATM   15  C10 UNL     1      13.488  17.188  12.530  1.00  0.00     0.228 C 
HETATM   16  N2  UNL     1      13.298  18.503  12.960  1.00  0.00    -0.340 N 
ATOM     17  H2  UNL     1      12.317  18.778  12.921  1.00  0.00     0.167 HD
HETATM   18  O1  UNL     1      14.609  16.649  12.521  1.00  0.00    -0.273 OA
BRANCH  16  19
HETATM   19  C9  UNL     1      14.107  19.535  13.427  1.00  0.00     0.075 C 
BRANCH  19  20
HETATM   20  C6  UNL     1      13.701  20.466  14.506  1.00  0.00     0.013 C 
HETATM   21  C7  UNL     1      13.111  21.734  14.026  1.00  0.00     0.023 C 
HETATM   22  C8  UNL     1      12.563  19.802  15.348  1.00  0.00     0.023 C 
BRANCH  20  23
HETATM   23  C5  UNL     1      14.824  20.662  15.514  1.00  0.00     0.196 C 
BRANCH  23  24
HETATM   24  C4  UNL     1      14.510  21.260  16.813  1.00  0.00     0.037 C 
BRANCH  24  25
HETATM   25  C2  UNL     1      14.843  20.591  18.084  1.00  0.00    -0.021 C 
HETATM   26  C1  UNL     1      16.322  20.315  18.257  1.00  0.00     0.009 C 
HETATM   27  C3  UNL     1      14.544  21.641  19.212  1.00  0.00     0.009 C 
ENDBRANCH  24  25
ENDBRANCH  23  24
BRANCH  23  28
HETATM   28  N1  UNL     1      15.770  21.627  14.871  1.00  0.00    -0.074 N 
ATOM     29  H13 UNL     1      15.882  21.491  13.866  1.00  0.00     0.274 HD
ATOM     30  H12 UNL     1      15.417  22.581  14.819  1.00  0.00     0.274 HD
ATOM     31  H11 UNL     1      16.636  21.533  15.402  1.00  0.00     0.274 HD
ENDBRANCH  23  28
ENDBRANCH  20  23
ENDBRANCH  19  20
ENDBRANCH  16  19
ENDBRANCH   1  15
BRANCH  12  32
HETATM   32  N4  UNL     1      10.002  15.904  15.795  1.00  0.00    -0.333 N 
HETATM   33  C23 UNL     1      10.046  16.555  17.057  1.00  0.00     0.250 C 
HETATM   34  O4  UNL     1      10.056  17.826  17.070  1.00  0.00    -0.271 OA
ATOM     35  H4  UNL     1       9.995  14.884  15.776  1.00  0.00     0.165 HD
BRANCH  33  36
HETATM   36  C24 UNL     1      10.079  15.872  18.352  1.00  0.00     0.275 C 
BRANCH  36  37
HETATM   37  N5  UNL     1       8.848  15.251  18.722  1.00  0.00    -0.066 N 
ATOM     38  H53 UNL     1       8.723  15.284  19.733  1.00  0.00     0.275 HD
ATOM     39  H52 UNL     1       8.058  15.826  18.430  1.00  0.00     0.275 HD
ATOM     40  H51 UNL     1       8.739  14.297  18.379  1.00  0.00     0.275 HD
ENDBRANCH  36  37
BRANCH  36  41
HETATM   41  C25 UNL     1      10.648  16.688  19.460  1.00  0.00     0.047 C 
BRANCH  41  42
HETATM   42  C26 UNL     1      12.079  16.452  19.788  1.00  0.00    -0.012 C 
HETATM   43  C27 UNL     1      12.231  16.741  21.290  1.00  0.00     0.005 C 
HETATM   44  C28 UNL     1      12.404  18.237  21.448  1.00  0.00     0.000 C 
HETATM   45  C29 UNL     1      13.872  18.521  21.115  1.00  0.00     0.000 C 
HETATM   46  C30 UNL     1      14.254  17.553  20.028  1.00  0.00     0.000 C 
HETATM   47  C31 UNL     1      13.061  17.332  19.087  1.00  0.00     0.005 C 
ENDBRANCH  41  42
ENDBRANCH  36  41
ENDBRANCH  33  36
ENDBRANCH  12  32
BRANCH   8  48
HETATM   48  S1  UNL     1       9.472  11.204  13.182  1.00  0.00     0.231 S 
HETATM   49  C18 UNL     1       9.133  11.565  14.868  1.00  0.00     0.186 C 
HETATM   50  O2  UNL     1      10.508  10.097  13.142  1.00  0.00    -0.206 OA
HETATM   51  O3  UNL     1       8.222  10.798  12.466  1.00  0.00    -0.206 OA
ENDBRANCH   8  48
TORSDOF 13
ENDMDL
MODEL 4
REMARK VINA RESULT: -7.720567604      1.556      2.692
REMARK  13 active torsions:
REMARK  status: ('A' for Active; 'I' for Inactive)
REMARK    1  A    between atoms: C2_2  and  C4_4 
REMARK    2  A    between atoms: C4_4  and  C5_5 
REMARK    3  A    between atoms: C5_5  and  N1_6 
REMARK    4  A    between atoms: C5_5  and  C6_10 
REMARK    5  A    between atoms: C6_10  and  C9_13 
REMARK    6  A    between atoms: C9_13  and  N2_14 
REMARK       I    between atoms: N2_14  and  C10_16 
REMARK    7  A    between atoms: C10_16  and  C11_18 
REMARK    8  A    between atoms: N3_25  and  S1_26 
REMARK    9  A    between atoms: C22_33  and  N4_34 
REMARK       I    between atoms: N4_34  and  C23_36 
REMARK   10  A    between atoms: C23_36  and  C24_38 
REMARK   11  A    between atoms: C24_38  and  N5_39 
REMARK   12  A    between atoms: C24_38  and  C25_43 
REMARK   13  A    between atoms: C25_43  and  C26_44 
ROOT
HETATM    1  C11 UNL     1      11.918  15.988  12.442  1.00  0.00     0.108 C 
HETATM    2  C12 UNL     1      12.262  14.811  11.549  1.00  0.00     0.017 C 
HETATM    3  C13 UNL     1      11.412  14.783  10.347  1.00  0.00     0.001 C 
HETATM    4  C14 UNL     1      10.742  13.539   9.942  1.00  0.00     0.000 C 
HETATM    5  C15 UNL     1      11.142  12.253  10.540  1.00  0.00     0.005 C 
HETATM    6  C16 UNL     1      10.031  11.488  11.229  1.00  0.00     0.046 C 
HETATM    7  C17 UNL     1       9.340  12.216  12.336  1.00  0.00     0.081 C 
HETATM    8  N3  UNL     1      10.066  12.199  13.508  1.00  0.00    -0.270 N 
HETATM    9  C19 UNL     1      10.420  13.333  14.235  1.00  0.00     0.088 C 
HETATM   10  C20 UNL     1      10.196  14.693  13.737  1.00  0.00     0.059 C 
HETATM   11  C21 UNL     1       9.207  15.475  14.572  1.00  0.00     0.066 C 
HETATM   12  C22 UNL     1      10.058  16.421  15.346  1.00  0.00     0.224 C 
HETATM   13  O5  UNL     1      11.141  16.655  14.550  1.00  0.00    -0.360 OA
HETATM   14  C32 UNL     1      11.451  15.546  13.827  1.00  0.00     0.146 C 
ENDROOT
BRANCH   1  15
HETATM   15  C10 UNL     1      13.064  16.932  12.612  1.00  0.00     0.228 C 
HETATM   16  N2  UNL     1      12.908  18.238  13.082  1.00  0.00    -0.340 N 
ATOM     17  H2  UNL     1      11.936  18.447  13.308  1.00  0.00     0.167 HD
HETATM   18  O1  UNL     1      14.175  16.468  12.301  1.00  0.00    -0.273 OA
BRANCH  16  19
HETATM   19  C9  UNL     1      13.741  19.327  13.321  1.00  0.00     0.075 C 
BRANCH  19  20
HETATM   20  C6  UNL     1      13.478  20.342  14.367  1.00  0.00     0.013 C 
HETATM   21  C7  UNL     1      14.568  20.497  15.354  1.00  0.00     0.023 C 
HETATM   22  C8  UNL     1      13.363  21.748  13.693  1.00  0.00     0.023 C 
BRANCH  20  23
HETATM   23  C5  UNL     1      12.110  20.136  15.001  1.00  0.00     0.196 C 
BRANCH  23  24
HETATM   24  C4  UNL     1      11.084  21.165  14.814  1.00  0.00     0.037 C 
BRANCH  24  25
HETATM   25  C2  UNL     1       9.675  20.825  14.541  1.00  0.00    -0.021 C 
HETATM   26  C1  UNL     1       8.947  21.865  13.716  1.00  0.00     0.009 C 
HETATM   27  C3  UNL     1       9.712  19.577  13.589  1.00  0.00     0.009 C 
ENDBRANCH  24  25
ENDBRANCH  23  24
BRANCH  23  28
HETATM   28  N1  UNL     1      12.356  20.108  16.476  1.00  0.00    -0.074 N 
ATOM     29  H13 UNL     1      11.531  19.880  17.030  1.00  0.00     0.274 HD
ATOM     30  H12 UNL     1      12.925  19.322  16.786  1.00  0.00     0.274 HD
ATOM     31  H11 UNL     1      12.758  21.021  16.688  1.00  0.00     0.274 HD
ENDBRANCH  23  28
ENDBRANCH  20  23
ENDBRANCH  19  20
ENDBRANCH  16  19
ENDBRANCH   1  15
BRANCH  12  32
HETATM   32  N4  UNL     1      10.382  15.831  16.619  1.00  0.00    -0.333 N 
HETATM   33  C23 UNL     1      10.597  16.594  17.799  1.00  0.00     0.250 C 
HETATM   34  O4  UNL     1      10.498  17.858  17.715  1.00  0.00    -0.271 OA
ATOM     35  H4  UNL     1      10.461  14.816  16.677  1.00  0.00     0.165 HD
BRANCH  33  36
HETATM   36  C24 UNL     1      10.925  16.032  19.110  1.00  0.00     0.275 C 
BRANCH  36  37
HETATM   37  N5  UNL     1       9.879  15.259  19.698  1.00  0.00    -0.066 N 
ATOM     38  H53 UNL     1      10.115  14.266  19.678  1.00  0.00     0.275 HD
ATOM     39  H52 UNL     1       9.848  15.410  20.706  1.00  0.00     0.275 HD
ATOM     40  H51 UNL     1       8.959  15.414  19.287  1.00  0.00     0.275 HD
ENDBRANCH  36  37
BRANCH  36  41
HETATM   41  C25 UNL     1      11.499  17.016  20.071  1.00  0.00     0.047 C 
BRANCH  41  42
HETATM   42  C26 UNL     1      12.977  16.999  20.230  1.00  0.00    -0.012 C 
HETATM   43  C27 UNL     1      13.371  18.392  20.748  1.00  0.00     0.005 C 
HETATM   44  C28 UNL     1      13.475  19.308  19.548  1.00  0.00     0.000 C 
HETATM   45  C29 UNL     1      14.841  19.015  18.919  1.00  0.00     0.000 C 
HETATM   46  C30 UNL     1      15.087  17.543  19.110  1.00  0.00     0.000 C 
HETATM   47  C31 UNL     1      13.764  16.775  18.981  1.00  0.00     0.005 C 
ENDBRANCH  41  42
ENDBRANCH  36  41
ENDBRANCH  33  36
ENDBRANCH  12  32
BRANCH   8  48
HETATM   48  S1  UNL     1       9.581  10.897  14.566  1.00  0.00     0.231 S 
HETATM   49  C18 UNL     1       9.305  11.463  16.206  1.00  0.00     0.186 C 
HETATM   50  O2  UNL     1      10.757   9.941  14.594  1.00  0.00    -0.206 OA
HETATM   51  O3  UNL     1       8.356  10.230  14.023  1.00  0.00    -0.206 OA
ENDBRANCH   8  48
TORSDOF 13
ENDMDL
MODEL 5
REMARK VINA RESULT: -7.619571920     10.126     15.073
REMARK  13 active torsions:
REMARK  status: ('A' for Active; 'I' for Inactive)
REMARK    1  A    between atoms: C2_2  and  C4_4 
REMARK    2  A    between atoms: C4_4  and  C5_5 
REMARK    3  A    between atoms: C5_5  and  N1_6 
REMARK    4  A    between atoms: C5_5  and  C6_10 
REMARK    5  A    between atoms: C6_10  and  C9_13 
REMARK    6  A    between atoms: C9_13  and  N2_14 
REMARK       I    between atoms: N2_14  and  C10_16 
REMARK    7  A    between atoms: C10_16  and  C11_18 
REMARK    8  A    between atoms: N3_25  and  S1_26 
REMARK    9  A    between atoms: C22_33  and  N4_34 
REMARK       I    between atoms: N4_34  and  C23_36 
REMARK   10  A    between atoms: C23_36  and  C24_38 
REMARK   11  A    between atoms: C24_38  and  N5_39 
REMARK   12  A    between atoms: C24_38  and  C25_43 
REMARK   13  A    between atoms: C25_43  and  C26_44 
ROOT
HETATM    1  C11 UNL     1      22.578  27.476  15.869  1.00  0.00     0.108 C 
HETATM    2  C12 UNL     1      21.862  26.845  14.690  1.00  0.00     0.017 C 
HETATM    3  C13 UNL     1      20.789  27.718  14.185  1.00  0.00     0.001 C 
HETATM    4  C14 UNL     1      19.446  27.175  13.938  1.00  0.00     0.000 C 
HETATM    5  C15 UNL     1      19.231  25.717  13.901  1.00  0.00     0.005 C 
HETATM    6  C16 UNL     1      18.209  25.189  14.886  1.00  0.00     0.046 C 
HETATM    7  C17 UNL     1      18.487  25.489  16.324  1.00  0.00     0.081 C 
HETATM    8  N3  UNL     1      19.432  24.641  16.863  1.00  0.00    -0.270 N 
HETATM    9  C19 UNL     1      20.589  25.059  17.515  1.00  0.00     0.088 C 
HETATM   10  C20 UNL     1      21.012  26.462  17.554  1.00  0.00     0.059 C 
HETATM   11  C21 UNL     1      21.002  27.047  18.948  1.00  0.00     0.066 C 
HETATM   12  C22 UNL     1      22.442  27.108  19.323  1.00  0.00     0.224 C 
HETATM   13  O5  UNL     1      23.107  27.277  18.143  1.00  0.00    -0.360 OA
HETATM   14  C32 UNL     1      22.463  26.630  17.135  1.00  0.00     0.146 C 
ENDROOT
BRANCH   1  15
HETATM   15  C10 UNL     1      24.027  27.719  15.596  1.00  0.00     0.228 C 
HETATM   16  N2  UNL     1      25.019  26.773  15.863  1.00  0.00    -0.340 N 
ATOM     17  H2  UNL     1      24.629  25.909  16.239  1.00  0.00     0.167 HD
HETATM   18  O1  UNL     1      24.288  28.834  15.110  1.00  0.00    -0.273 OA
BRANCH  16  19
HETATM   19  C9  UNL     1      26.404  26.709  15.747  1.00  0.00     0.075 C 
BRANCH  19  20
HETATM   20  C6  UNL     1      27.319  26.648  16.910  1.00  0.00     0.013 C 
HETATM   21  C7  UNL     1      27.512  25.292  17.465  1.00  0.00     0.023 C 
HETATM   22  C8  UNL     1      28.749  27.089  16.455  1.00  0.00     0.023 C 
BRANCH  20  23
HETATM   23  C5  UNL     1      26.943  27.685  17.959  1.00  0.00     0.196 C 
BRANCH  23  24
HETATM   24  C4  UNL     1      27.524  29.026  17.867  1.00  0.00     0.037 C 
BRANCH  24  25
HETATM   25  C2  UNL     1      26.790  30.159  17.275  1.00  0.00    -0.021 C 
HETATM   26  C1  UNL     1      26.904  31.442  18.071  1.00  0.00     0.009 C 
HETATM   27  C3  UNL     1      27.537  30.503  15.938  1.00  0.00     0.009 C 
ENDBRANCH  24  25
ENDBRANCH  23  24
BRANCH  23  28
HETATM   28  N1  UNL     1      27.450  27.139  19.256  1.00  0.00    -0.074 N 
ATOM     29  H13 UNL     1      27.396  27.798  20.033  1.00  0.00     0.274 HD
ATOM     30  H12 UNL     1      26.851  26.425  19.668  1.00  0.00     0.274 HD
ATOM     31  H11 UNL     1      28.396  26.819  19.049  1.00  0.00     0.274 HD
ENDBRANCH  23  28
ENDBRANCH  20  23
ENDBRANCH  19  20
ENDBRANCH  16  19
ENDBRANCH   1  15
BRANCH  12  32
HETATM   32  N4  UNL     1      22.799  25.906  20.031  1.00  0.00    -0.333 N 
HETATM   33  C23 UNL     1      24.059  25.716  20.658  1.00  0.00     0.250 C 
HETATM   34  O4  UNL     1      24.908  26.658  20.583  1.00  0.00    -0.271 OA
ATOM     35  H4  UNL     1      22.112  25.154  20.084  1.00  0.00     0.165 HD
BRANCH  33  36
HETATM   36  C24 UNL     1      24.458  24.511  21.388  1.00  0.00     0.275 C 
BRANCH  36  37
HETATM   37  N5  UNL     1      25.506  24.717  22.336  1.00  0.00    -0.066 N 
ATOM     38  H53 UNL     1      25.811  23.826  22.729  1.00  0.00     0.275 HD
ATOM     39  H52 UNL     1      26.363  25.000  21.862  1.00  0.00     0.275 HD
ATOM     40  H51 UNL     1      25.277  25.375  23.080  1.00  0.00     0.275 HD
ENDBRANCH  36  37
BRANCH  36  41
HETATM   41  C25 UNL     1      24.713  23.327  20.522  1.00  0.00     0.047 C 
BRANCH  41  42
HETATM   42  C26 UNL     1      26.138  22.976  20.285  1.00  0.00    -0.012 C 
HETATM   43  C27 UNL     1      26.191  22.283  18.913  1.00  0.00     0.005 C 
HETATM   44  C28 UNL     1      25.831  20.829  19.128  1.00  0.00     0.000 C 
HETATM   45  C29 UNL     1      27.105  20.161  19.656  1.00  0.00     0.000 C 
HETATM   46  C30 UNL     1      27.793  21.185  20.517  1.00  0.00     0.000 C 
HETATM   47  C31 UNL     1      26.746  22.024  21.262  1.00  0.00     0.005 C 
ENDBRANCH  41  42
ENDBRANCH  36  41
ENDBRANCH  33  36
ENDBRANCH  12  32
BRANCH   8  48
HETATM   48  S1  UNL     1      18.706  23.278  17.676  1.00  0.00     0.231 S 
HETATM   49  C18 UNL     1      17.105  23.665  18.290  1.00  0.00     0.186 C 
HETATM   50  O2  UNL     1      19.603  22.993  18.865  1.00  0.00    -0.206 OA
HETATM   51  O3  UNL     1      18.648  22.103  16.750  1.00  0.00    -0.206 OA
ENDBRANCH   8  48
TORSDOF 13
ENDMDL
