MODEL 1
REMARK VINA RESULT: -8.486148487      0.000      0.000
REMARK  16 active torsions:
REMARK  status: ('A' for Active; 'I' for Inactive)
REMARK       I    between atoms: N1_2  and  C2_4 
REMARK    1  A    between atoms: C2_4  and  C3_6 
REMARK    2  A    between atoms: C3_6  and  O2_7 
REMARK    3  A    between atoms: C3_6  and  C4_9 
REMARK    4  A    between atoms: C4_9  and  C5_10 
REMARK    5  A    between atoms: C4_9  and  C18_35 
REMARK    6  A    between atoms: C4_9  and  C31_49 
REMARK    7  A    between atoms: C5_10  and  O3_11 
REMARK    8  A    between atoms: C5_10  and  N2_13 
REMARK       I    between atoms: N2_13  and  C6_15 
REMARK    9  A    between atoms: C6_15  and  C7_17 
REMARK   10  A    between atoms: C7_17  and  C8_18 
REMARK   11  A    between atoms: C7_17  and  N3_22 
REMARK   12  A    between atoms: C8_18  and  C9_19 
REMARK       I    between atoms: C12_24  and  N4_25 
REMARK       I    between atoms: C12_24  and  N6_29 
REMARK   13  A    between atoms: N6_29  and  C14_31 
REMARK   14  A    between atoms: C18_35  and  C19_36 
REMARK   15  A    between atoms: C18_35  and  N7_44 
REMARK   16  A    between atoms: C19_36  and  C20_37 
ROOT
HETATM    1  N3  UNL     1      21.503  25.956  17.478  1.00  0.00    -0.212 N 
ATOM      2  H3  UNL     1      21.454  25.416  18.341  1.00  0.00     0.178 HD
HETATM    3  C12 UNL     1      22.206  26.921  17.673  1.00  0.00     0.684 C 
HETATM    4  N4  UNL     1      22.780  27.084  18.995  1.00  0.00    -0.126 N 
ATOM      5  H4  UNL     1      22.635  27.972  19.476  1.00  0.00     0.197 HD
HETATM    6  C13 UNL     1      23.508  26.112  19.639  1.00  0.00     0.196 C 
HETATM    7  N5  UNL     1      24.128  25.286  20.169  1.00  0.00    -0.171 NA
HETATM    8  N6  UNL     1      22.550  27.937  16.766  1.00  0.00    -0.218 N 
ATOM      9  H6  UNL     1      21.866  28.675  16.599  1.00  0.00     0.178 HD
ENDROOT
BRANCH   1  10
HETATM   10  C7  UNL     1      20.724  25.300  16.496  1.00  0.00     0.192 C 
BRANCH  10  11
HETATM   11  C6  UNL     1      19.975  24.161  17.069  1.00  0.00     0.246 C 
HETATM   12  N2  UNL     1      18.902  23.512  16.436  1.00  0.00    -0.308 N 
ATOM     13  H2  UNL     1      18.629  23.829  15.505  1.00  0.00     0.170 HD
HETATM   14  O4  UNL     1      20.376  23.778  18.222  1.00  0.00    -0.271 OA
BRANCH  12  15
HETATM   15  C5  UNL     1      18.180  22.450  17.013  1.00  0.00     0.140 C 
BRANCH  15  16
HETATM   16  C4  UNL     1      16.940  22.373  17.788  1.00  0.00     0.127 C 
BRANCH  16  17
HETATM   17  C3  UNL     1      17.341  22.026  19.165  1.00  0.00     0.134 C 
BRANCH  17  18
HETATM   18  C2  UNL     1      18.497  21.823  19.917  1.00  0.00     0.271 C 
HETATM   19  N1  UNL     1      19.148  22.826  20.743  1.00  0.00    -0.360 N 
HETATM   20  C1  UNL     1      20.338  22.575  21.502  1.00  0.00     0.149 C 
ATOM     21  H1  UNL     1      18.736  23.758  20.785  1.00  0.00     0.162 HD
HETATM   22  O1  UNL     1      19.120  20.745  19.975  1.00  0.00    -0.266 OA
ENDBRANCH  17  18
BRANCH  17  23
HETATM   23  O2  UNL     1      16.275  21.854  19.927  1.00  0.00    -0.358 OA
ATOM     24  H2  UNL     1      15.664  22.570  19.793  1.00  0.00     0.217 HD
ENDBRANCH  17  23
ENDBRANCH  16  17
BRANCH  16  25
HETATM   25  C18 UNL     1      16.232  21.078  17.265  1.00  0.00     0.028 C 
BRANCH  25  26
HETATM   26  C19 UNL     1      16.066  21.073  15.799  1.00  0.00     0.009 C 
BRANCH  26  27
HETATM   27  C20 UNL     1      14.859  21.288  15.013  1.00  0.00    -0.024 C 
HETATM   28  C21 UNL     1      15.320  21.431  13.518  1.00  0.00     0.019 C 
HETATM   29  C22 UNL     1      14.055  19.940  14.873  1.00  0.00     0.013 C 
HETATM   30  C23 UNL     1      12.753  20.016  15.626  1.00  0.00     0.001 C 
HETATM   31  C24 UNL     1      11.830  20.919  14.803  1.00  0.00     0.000 C 
HETATM   32  C25 UNL     1      12.683  21.987  14.189  1.00  0.00     0.001 C 
HETATM   33  C26 UNL     1      13.822  22.260  15.210  1.00  0.00     0.013 C 
ENDBRANCH  26  27
ENDBRANCH  25  26
BRANCH  25  34
HETATM   34  N7  UNL     1      15.399  20.325  18.045  1.00  0.00    -0.383 N 
HETATM   35  C27 UNL     1      15.650  19.112  18.677  1.00  0.00     0.123 C 
HETATM   36  C28 UNL     1      14.258  18.422  18.798  1.00  0.00     0.021 C 
HETATM   37  C29 UNL     1      13.382  19.592  19.117  1.00  0.00     0.021 C 
HETATM   38  C30 UNL     1      14.201  20.774  18.666  1.00  0.00     0.123 C 
ENDBRANCH  25  34
ENDBRANCH  16  25
BRANCH  16  39
HETATM   39  C31 UNL     1      16.155  23.612  17.666  1.00  0.00    -0.024 C 
HETATM   40  C32 UNL     1      16.767  24.703  18.581  1.00  0.00     0.016 C 
HETATM   41  C33 UNL     1      14.703  23.704  17.876  1.00  0.00     0.016 C 
HETATM   42  C34 UNL     1      16.358  24.341  16.305  1.00  0.00     0.016 C 
ENDBRANCH  16  39
ENDBRANCH  15  16
BRANCH  15  43
HETATM   43  O3  UNL     1      18.802  21.330  16.778  1.00  0.00    -0.348 OA
ATOM     44  H3  UNL     1      18.996  21.126  15.871  1.00  0.00     0.219 HD
ENDBRANCH  15  43
ENDBRANCH  12  15
ENDBRANCH  10  11
BRANCH  10  45
HETATM   45  C8  UNL     1      19.881  26.277  15.737  1.00  0.00     0.039 C 
BRANCH  45  46
HETATM   46  C9  UNL     1      19.946  26.274  14.259  1.00  0.00    -0.020 C 
HETATM   47  C10 UNL     1      20.329  27.664  13.718  1.00  0.00     0.009 C 
HETATM   48  C11 UNL     1      18.505  26.074  13.741  1.00  0.00     0.009 C 
ENDBRANCH  45  46
ENDBRANCH  10  45
ENDBRANCH   1  10
BRANCH   8  49
HETATM   49  C14 UNL     1      23.803  28.010  16.057  1.00  0.00     0.036 C 
HETATM   50  C15 UNL     1      23.606  28.891  14.833  1.00  0.00     0.038 C 
HETATM   51  C16 UNL     1      24.307  26.683  15.607  1.00  0.00     0.038 C 
HETATM   52  C17 UNL     1      24.884  28.680  16.882  1.00  0.00     0.038 C 
ENDBRANCH   8  49
TORSDOF 16
ENDMDL
MODEL 2
REMARK VINA RESULT: -8.385216054      2.637      9.692
REMARK  16 active torsions:
REMARK  status: ('A' for Active; 'I' for Inactive)
REMARK       I    between atoms: N1_2  and  C2_4 
REMARK    1  A    between atoms: C2_4  and  C3_6 
REMARK    2  A    between atoms: C3_6  and  O2_7 
REMARK    3  A    between atoms: C3_6  and  C4_9 
REMARK    4  A    between atoms: C4_9  and  C5_10 
REMARK    5  A    between atoms: C4_9  and  C18_35 
REMARK    6  A    between atoms: C4_9  and  C31_49 
REMARK    7  A    between atoms: C5_10  and  O3_11 
REMARK    8  A    between atoms: C5_10  and  N2_13 
REMARK       I    between atoms: N2_13  and  C6_15 
REMARK    9  A    between atoms: C6_15  and  C7_17 
REMARK   10  A    between atoms: C7_17  and  C8_18 
REMARK   11  A    between atoms: C7_17  and  N3_22 
REMARK   12  A    between atoms: C8_18  and  C9_19 
REMARK       I    between atoms: C12_24  and  N4_25 
REMARK       I    between atoms: C12_24  and  N6_29 
REMARK   13  A    between atoms: N6_29  and  C14_31 
REMARK   14  A    between atoms: C18_35  and  C19_36 
REMARK   15  A    between atoms: C18_35  and  N7_44 
REMARK   16  A    between atoms: C19_36  and  C20_37 
ROOT
HETATM    1  N3  UNL     1      12.418  19.200  18.082  1.00  0.00    -0.212 N 
ATOM      2  H3  UNL     1      12.774  19.858  17.390  1.00  0.00     0.178 HD
HETATM    3  C12 UNL     1      11.343  18.795  17.705  1.00  0.00     0.684 C 
HETATM    4  N4  UNL     1      10.834  19.301  16.444  1.00  0.00    -0.126 N 
ATOM      5  H4  UNL     1       9.898  19.705  16.432  1.00  0.00     0.197 HD
HETATM    6  C13 UNL     1      11.540  19.267  15.266  1.00  0.00     0.196 C 
HETATM    7  N5  UNL     1      12.143  19.225  14.274  1.00  0.00    -0.171 NA
HETATM    8  N6  UNL     1      10.492  17.877  18.343  1.00  0.00    -0.218 N 
ATOM      9  H6  UNL     1       9.910  18.220  19.107  1.00  0.00     0.178 HD
ENDROOT
BRANCH   1  10
HETATM   10  C7  UNL     1      13.365  19.097  19.129  1.00  0.00     0.192 C 
BRANCH  10  11
HETATM   11  C6  UNL     1      14.181  20.326  19.244  1.00  0.00     0.246 C 
HETATM   12  N2  UNL     1      14.465  21.197  18.179  1.00  0.00    -0.308 N 
ATOM     13  H2  UNL     1      14.065  20.987  17.265  1.00  0.00     0.170 HD
HETATM   14  O4  UNL     1      14.632  20.565  20.417  1.00  0.00    -0.271 OA
BRANCH  12  15
HETATM   15  C5  UNL     1      15.272  22.345  18.302  1.00  0.00     0.140 C 
BRANCH  15  16
HETATM   16  C4  UNL     1      16.680  22.626  18.019  1.00  0.00     0.127 C 
BRANCH  16  17
HETATM   17  C3  UNL     1      17.033  23.803  18.836  1.00  0.00     0.134 C 
BRANCH  17  18
HETATM   18  C2  UNL     1      18.000  24.211  19.753  1.00  0.00     0.271 C 
HETATM   19  N1  UNL     1      19.403  24.437  19.450  1.00  0.00    -0.360 N 
HETATM   20  C1  UNL     1      20.366  24.855  20.425  1.00  0.00     0.149 C 
ATOM     21  H1  UNL     1      19.719  24.289  18.491  1.00  0.00     0.162 HD
HETATM   22  O1  UNL     1      17.777  24.434  20.959  1.00  0.00    -0.266 OA
ENDBRANCH  17  18
BRANCH  17  23
HETATM   23  O2  UNL     1      16.163  24.780  18.639  1.00  0.00    -0.358 OA
ATOM     24  H2  UNL     1      16.044  24.922  17.707  1.00  0.00     0.217 HD
ENDBRANCH  17  23
ENDBRANCH  16  17
BRANCH  16  25
HETATM   25  C18 UNL     1      16.683  23.172  16.551  1.00  0.00     0.028 C 
BRANCH  25  26
HETATM   26  C19 UNL     1      17.311  24.503  16.441  1.00  0.00     0.009 C 
BRANCH  26  27
HETATM   27  C20 UNL     1      18.437  24.920  15.616  1.00  0.00    -0.024 C 
HETATM   28  C21 UNL     1      17.826  25.588  14.333  1.00  0.00     0.019 C 
HETATM   29  C22 UNL     1      19.117  26.199  16.235  1.00  0.00     0.013 C 
HETATM   30  C23 UNL     1      20.496  25.875  16.746  1.00  0.00     0.001 C 
HETATM   31  C24 UNL     1      21.388  25.715  15.510  1.00  0.00     0.000 C 
HETATM   32  C25 UNL     1      20.555  25.083  14.438  1.00  0.00     0.001 C 
HETATM   33  C26 UNL     1      19.559  24.144  15.172  1.00  0.00     0.013 C 
ENDBRANCH  26  27
ENDBRANCH  25  26
BRANCH  25  34
HETATM   34  N7  UNL     1      15.777  22.769  15.611  1.00  0.00    -0.383 N 
HETATM   35  C27 UNL     1      14.553  23.338  15.276  1.00  0.00     0.123 C 
HETATM   36  C28 UNL     1      13.699  22.160  14.717  1.00  0.00     0.021 C 
HETATM   37  C29 UNL     1      14.729  21.395  13.948  1.00  0.00     0.021 C 
HETATM   38  C30 UNL     1      16.031  21.882  14.529  1.00  0.00     0.123 C 
ENDBRANCH  25  34
ENDBRANCH  16  25
BRANCH  16  39
HETATM   39  C31 UNL     1      17.520  21.439  18.251  1.00  0.00    -0.024 C 
HETATM   40  C32 UNL     1      18.926  21.675  17.642  1.00  0.00     0.016 C 
HETATM   41  C33 UNL     1      17.156  20.070  17.858  1.00  0.00     0.016 C 
HETATM   42  C34 UNL     1      17.958  21.272  19.735  1.00  0.00     0.016 C 
ENDBRANCH  16  39
ENDBRANCH  15  16
BRANCH  15  43
HETATM   43  O3  UNL     1      14.556  23.324  18.780  1.00  0.00    -0.348 OA
ATOM     44  H3  UNL     1      14.299  24.007  18.172  1.00  0.00     0.219 HD
ENDBRANCH  15  43
ENDBRANCH  12  15
ENDBRANCH  10  11
BRANCH  10  45
HETATM   45  C8  UNL     1      12.712  18.666  20.405  1.00  0.00     0.039 C 
BRANCH  45  46
HETATM   46  C9  UNL     1      13.299  17.534  21.155  1.00  0.00    -0.020 C 
HETATM   47  C10 UNL     1      12.200  16.650  21.775  1.00  0.00     0.009 C 
HETATM   48  C11 UNL     1      14.016  18.127  22.388  1.00  0.00     0.009 C 
ENDBRANCH  45  46
ENDBRANCH  10  45
ENDBRANCH   1  10
BRANCH   8  49
HETATM   49  C14 UNL     1      10.384  16.483  17.992  1.00  0.00     0.036 C 
HETATM   50  C15 UNL     1      11.783  15.886  17.978  1.00  0.00     0.038 C 
HETATM   51  C16 UNL     1       9.760  16.253  16.660  1.00  0.00     0.038 C 
HETATM   52  C17 UNL     1       9.607  15.696  19.030  1.00  0.00     0.038 C 
ENDBRANCH   8  49
TORSDOF 16
ENDMDL
MODEL 3
REMARK VINA RESULT: -8.066714824      6.548     11.214
REMARK  16 active torsions:
REMARK  status: ('A' for Active; 'I' for Inactive)
REMARK       I    between atoms: N1_2  and  C2_4 
REMARK    1  A    between atoms: C2_4  and  C3_6 
REMARK    2  A    between atoms: C3_6  and  O2_7 
REMARK    3  A    between atoms: C3_6  and  C4_9 
REMARK    4  A    between atoms: C4_9  and  C5_10 
REMARK    5  A    between atoms: C4_9  and  C18_35 
REMARK    6  A    between atoms: C4_9  and  C31_49 
REMARK    7  A    between atoms: C5_10  and  O3_11 
REMARK    8  A    between atoms: C5_10  and  N2_13 
REMARK       I    between atoms: N2_13  and  C6_15 
REMARK    9  A    between atoms: C6_15  and  C7_17 
REMARK   10  A    between atoms: C7_17  and  C8_18 
REMARK   11  A    between atoms: C7_17  and  N3_22 
REMARK   12  A    between atoms: C8_18  and  C9_19 
REMARK       I    between atoms: C12_24  and  N4_25 
REMARK       I    between atoms: C12_24  and  N6_29 
REMARK   13  A    between atoms: N6_29  and  C14_31 
REMARK   14  A    between atoms: C18_35  and  C19_36 
REMARK   15  A    between atoms: C18_35  and  N7_44 
REMARK   16  A    between atoms: C19_36  and  C20_37 
ROOT
HETATM    1  N3  UNL     1      12.870  19.293  16.975  1.00  0.00    -0.212 N 
ATOM      2  H3  UNL     1      12.718  18.297  17.132  1.00  0.00     0.178 HD
HETATM    3  C12 UNL     1      13.359  19.766  17.975  1.00  0.00     0.684 C 
HETATM    4  N4  UNL     1      13.601  18.877  19.095  1.00  0.00    -0.126 N 
ATOM      5  H4  UNL     1      13.221  19.137  20.005  1.00  0.00     0.197 HD
HETATM    6  C13 UNL     1      14.311  17.704  19.002  1.00  0.00     0.196 C 
HETATM    7  N5  UNL     1      14.921  16.720  18.914  1.00  0.00    -0.171 NA
HETATM    8  N6  UNL     1      13.732  21.100  18.207  1.00  0.00    -0.218 N 
ATOM      9  H6  UNL     1      12.996  21.763  18.450  1.00  0.00     0.178 HD
ENDROOT
BRANCH   1  10
HETATM   10  C7  UNL     1      12.432  19.610  15.667  1.00  0.00     0.192 C 
BRANCH  10  11
HETATM   11  C6  UNL     1      11.362  18.693  15.216  1.00  0.00     0.246 C 
HETATM   12  N2  UNL     1      11.580  17.497  14.512  1.00  0.00    -0.308 N 
ATOM     13  H2  UNL     1      12.543  17.224  14.314  1.00  0.00     0.170 HD
HETATM   14  O4  UNL     1      10.175  19.062  15.518  1.00  0.00    -0.271 OA
BRANCH  12  15
HETATM   15  C5  UNL     1      10.546  16.654  14.063  1.00  0.00     0.140 C 
BRANCH  15  16
HETATM   16  C4  UNL     1      10.214  16.063  12.765  1.00  0.00     0.127 C 
BRANCH  16  17
HETATM   17  C3  UNL     1       9.299  17.015  12.106  1.00  0.00     0.134 C 
BRANCH  17  18
HETATM   18  C2  UNL     1       8.624  17.178  10.897  1.00  0.00     0.271 C 
HETATM   19  N1  UNL     1       9.063  16.657   9.613  1.00  0.00    -0.360 N 
HETATM   20  C1  UNL     1       8.338  16.849   8.392  1.00  0.00     0.149 C 
ATOM     21  H1  UNL     1       9.934  16.127   9.580  1.00  0.00     0.162 HD
HETATM   22  O1  UNL     1       7.550  17.796  10.768  1.00  0.00    -0.266 OA
ENDBRANCH  17  18
BRANCH  17  23
HETATM   23  O2  UNL     1       9.034  18.032  12.907  1.00  0.00    -0.358 OA
ATOM     24  H2  UNL     1       9.698  18.090  13.584  1.00  0.00     0.217 HD
ENDBRANCH  17  23
ENDBRANCH  16  17
BRANCH  16  25
HETATM   25  C18 UNL     1       9.298  14.841  13.114  1.00  0.00     0.028 C 
BRANCH  25  26
HETATM   26  C19 UNL     1      10.055  13.708  13.680  1.00  0.00     0.009 C 
BRANCH  26  27
HETATM   27  C20 UNL     1       9.763  12.911  14.864  1.00  0.00    -0.024 C 
HETATM   28  C21 UNL     1       9.989  11.411  14.459  1.00  0.00     0.019 C 
HETATM   29  C22 UNL     1      10.935  13.042  15.908  1.00  0.00     0.013 C 
HETATM   30  C23 UNL     1      10.475  13.785  17.135  1.00  0.00     0.001 C 
HETATM   31  C24 UNL     1       9.581  12.817  17.916  1.00  0.00     0.000 C 
HETATM   32  C25 UNL     1       8.827  11.999  16.912  1.00  0.00     0.001 C 
HETATM   33  C26 UNL     1       8.592  12.933  15.694  1.00  0.00     0.013 C 
ENDBRANCH  26  27
ENDBRANCH  25  26
BRANCH  25  34
HETATM   34  N7  UNL     1       8.099  14.617  12.499  1.00  0.00    -0.383 N 
HETATM   35  C27 UNL     1       7.798  13.743  11.460  1.00  0.00     0.123 C 
HETATM   36  C28 UNL     1       6.570  14.378  10.739  1.00  0.00     0.021 C 
HETATM   37  C29 UNL     1       5.793  14.906  11.903  1.00  0.00     0.021 C 
HETATM   38  C30 UNL     1       6.819  14.974  13.005  1.00  0.00     0.123 C 
ENDBRANCH  25  34
ENDBRANCH  16  25
BRANCH  16  39
HETATM   39  C31 UNL     1      11.428  15.740  11.999  1.00  0.00    -0.024 C 
HETATM   40  C32 UNL     1      12.004  17.036  11.373  1.00  0.00     0.016 C 
HETATM   41  C33 UNL     1      11.497  14.734  10.929  1.00  0.00     0.016 C 
HETATM   42  C34 UNL     1      12.648  15.380  12.896  1.00  0.00     0.016 C 
ENDBRANCH  16  39
ENDBRANCH  15  16
BRANCH  15  43
HETATM   43  O3  UNL     1       9.746  16.388  15.057  1.00  0.00    -0.348 OA
ATOM     44  H3  UNL     1       8.917  16.850  15.080  1.00  0.00     0.219 HD
ENDBRANCH  15  43
ENDBRANCH  12  15
ENDBRANCH  10  11
BRANCH  10  45
HETATM   45  C8  UNL     1      12.093  21.063  15.551  1.00  0.00     0.039 C 
BRANCH  45  46
HETATM   46  C9  UNL     1      12.635  21.830  14.408  1.00  0.00    -0.020 C 
HETATM   47  C10 UNL     1      13.742  21.040  13.685  1.00  0.00     0.009 C 
HETATM   48  C11 UNL     1      13.387  23.046  14.990  1.00  0.00     0.009 C 
ENDBRANCH  45  46
ENDBRANCH  10  45
ENDBRANCH   1  10
BRANCH   8  49
HETATM   49  C14 UNL     1      15.083  21.597  18.124  1.00  0.00     0.036 C 
HETATM   50  C15 UNL     1      15.032  23.117  18.136  1.00  0.00     0.038 C 
HETATM   51  C16 UNL     1      15.802  21.158  16.897  1.00  0.00     0.038 C 
HETATM   52  C17 UNL     1      15.908  21.199  19.333  1.00  0.00     0.038 C 
ENDBRANCH   8  49
TORSDOF 16
ENDMDL
MODEL 4
REMARK VINA RESULT: -7.942978963      2.640      8.900
REMARK  16 active torsions:
REMARK  status: ('A' for Active; 'I' for Inactive)
REMARK       I    between atoms: N1_2  and  C2_4 
REMARK    1  A    between atoms: C2_4  and  C3_6 
REMARK    2  A    between atoms: C3_6  and  O2_7 
REMARK    3  A    between atoms: C3_6  and  C4_9 
REMARK    4  A    between atoms: C4_9  and  C5_10 
REMARK    5  A    between atoms: C4_9  and  C18_35 
REMARK    6  A    between atoms: C4_9  and  C31_49 
REMARK    7  A    between atoms: C5_10  and  O3_11 
REMARK    8  A    between atoms: C5_10  and  N2_13 
REMARK       I    between atoms: N2_13  and  C6_15 
REMARK    9  A    between atoms: C6_15  and  C7_17 
REMARK   10  A    between atoms: C7_17  and  C8_18 
REMARK   11  A    between atoms: C7_17  and  N3_22 
REMARK   12  A    between atoms: C8_18  and  C9_19 
REMARK       I    between atoms: C12_24  and  N4_25 
REMARK       I    between atoms: C12_24  and  N6_29 
REMARK   13  A    between atoms: N6_29  and  C14_31 
REMARK   14  A    between atoms: C18_35  and  C19_36 
REMARK   15  A    between atoms: C18_35  and  N7_44 
REMARK   16  A    between atoms: C19_36  and  C20_37 
ROOT
HETATM    1  N3  UNL     1      17.351  24.802  17.657  1.00  0.00    -0.212 N 
ATOM      2  H3  UNL     1      16.564  25.142  17.106  1.00  0.00     0.178 HD
HETATM    3  C12 UNL     1      16.921  24.115  18.554  1.00  0.00     0.684 C 
HETATM    4  N4  UNL     1      15.483  23.940  18.642  1.00  0.00    -0.126 N 
ATOM      5  H4  UNL     1      15.027  24.151  19.529  1.00  0.00     0.197 HD
HETATM    6  C13 UNL     1      14.700  23.508  17.599  1.00  0.00     0.196 C 
HETATM    7  N5  UNL     1      14.049  23.133  16.712  1.00  0.00    -0.171 NA
HETATM    8  N6  UNL     1      17.644  23.445  19.555  1.00  0.00    -0.218 N 
ATOM      9  H6  UNL     1      17.970  23.993  20.351  1.00  0.00     0.178 HD
ENDROOT
BRANCH   1  10
HETATM   10  C7  UNL     1      18.544  25.310  17.089  1.00  0.00     0.192 C 
BRANCH  10  11
HETATM   11  C6  UNL     1      19.742  24.743  17.747  1.00  0.00     0.246 C 
HETATM   12  N2  UNL     1      20.501  25.402  18.727  1.00  0.00    -0.308 N 
ATOM     13  H2  UNL     1      20.198  26.329  19.029  1.00  0.00     0.170 HD
HETATM   14  O4  UNL     1      20.063  23.566  17.360  1.00  0.00    -0.271 OA
BRANCH  12  15
HETATM   15  C5  UNL     1      21.658  24.859  19.318  1.00  0.00     0.140 C 
BRANCH  15  16
HETATM   16  C4  UNL     1      22.843  25.444  19.947  1.00  0.00     0.127 C 
BRANCH  16  17
HETATM   17  C3  UNL     1      22.378  26.659  20.642  1.00  0.00     0.134 C 
BRANCH  17  18
HETATM   18  C2  UNL     1      21.791  27.035  21.850  1.00  0.00     0.271 C 
HETATM   19  N1  UNL     1      22.242  26.620  23.167  1.00  0.00    -0.360 N 
HETATM   20  C1  UNL     1      21.609  27.029  24.386  1.00  0.00     0.149 C 
ATOM     21  H1  UNL     1      23.053  26.003  23.228  1.00  0.00     0.162 HD
HETATM   22  O1  UNL     1      20.798  27.781  21.949  1.00  0.00    -0.266 OA
ENDBRANCH  17  18
BRANCH  17  23
HETATM   23  O2  UNL     1      22.577  27.728  19.890  1.00  0.00    -0.358 OA
ATOM     24  H2  UNL     1      23.261  28.266  20.271  1.00  0.00     0.217 HD
ENDBRANCH  17  23
ENDBRANCH  16  17
BRANCH  16  25
HETATM   25  C18 UNL     1      23.688  25.997  18.750  1.00  0.00     0.028 C 
BRANCH  25  26
HETATM   26  C19 UNL     1      22.918  26.064  17.493  1.00  0.00     0.009 C 
BRANCH  26  27
HETATM   27  C20 UNL     1      22.828  27.153  16.530  1.00  0.00    -0.024 C 
HETATM   28  C21 UNL     1      21.449  27.860  16.784  1.00  0.00     0.019 C 
HETATM   29  C22 UNL     1      23.772  28.339  16.964  1.00  0.00     0.013 C 
HETATM   30  C23 UNL     1      24.915  28.491  15.995  1.00  0.00     0.001 C 
HETATM   31  C24 UNL     1      24.327  29.118  14.727  1.00  0.00     0.000 C 
HETATM   32  C25 UNL     1      22.948  28.560  14.553  1.00  0.00     0.001 C 
HETATM   33  C26 UNL     1      23.004  27.109  15.107  1.00  0.00     0.013 C 
ENDBRANCH  26  27
ENDBRANCH  25  26
BRANCH  25  34
HETATM   34  N7  UNL     1      25.052  25.912  18.706  1.00  0.00    -0.383 N 
HETATM   35  C27 UNL     1      25.860  25.296  17.757  1.00  0.00     0.123 C 
HETATM   36  C28 UNL     1      27.162  24.910  18.523  1.00  0.00     0.021 C 
HETATM   37  C29 UNL     1      27.336  26.099  19.413  1.00  0.00     0.021 C 
HETATM   38  C30 UNL     1      25.965  26.724  19.434  1.00  0.00     0.123 C 
ENDBRANCH  25  34
ENDBRANCH  16  25
BRANCH  16  39
HETATM   39  C31 UNL     1      23.532  24.466  20.804  1.00  0.00    -0.024 C 
HETATM   40  C32 UNL     1      22.485  23.661  21.614  1.00  0.00     0.016 C 
HETATM   41  C33 UNL     1      24.590  24.801  21.769  1.00  0.00     0.016 C 
HETATM   42  C34 UNL     1      24.147  23.275  20.012  1.00  0.00     0.016 C 
ENDBRANCH  16  39
ENDBRANCH  15  16
BRANCH  15  43
HETATM   43  O3  UNL     1      21.603  23.558  19.253  1.00  0.00    -0.348 OA
ATOM     44  H3  UNL     1      22.065  23.073  19.925  1.00  0.00     0.219 HD
ENDBRANCH  15  43
ENDBRANCH  12  15
ENDBRANCH  10  11
BRANCH  10  45
HETATM   45  C8  UNL     1      18.531  25.171  15.599  1.00  0.00     0.039 C 
BRANCH  45  46
HETATM   46  C9  UNL     1      19.501  25.956  14.804  1.00  0.00    -0.020 C 
HETATM   47  C10 UNL     1      18.836  26.553  13.550  1.00  0.00     0.009 C 
HETATM   48  C11 UNL     1      20.528  24.958  14.223  1.00  0.00     0.009 C 
ENDBRANCH  45  46
ENDBRANCH  10  45
ENDBRANCH   1  10
BRANCH   8  49
HETATM   49  C14 UNL     1      17.959  22.039  19.533  1.00  0.00     0.036 C 
HETATM   50  C15 UNL     1      19.245  21.827  20.316  1.00  0.00     0.038 C 
HETATM   51  C16 UNL     1      18.147  21.494  18.160  1.00  0.00     0.038 C 
HETATM   52  C17 UNL     1      16.901  21.211  20.238  1.00  0.00     0.038 C 
ENDBRANCH   8  49
TORSDOF 16
ENDMDL
MODEL 5
REMARK VINA RESULT: -7.908581957      6.731     11.565
REMARK  16 active torsions:
REMARK  status: ('A' for Active; 'I' for Inactive)
REMARK       I    between atoms: N1_2  and  C2_4 
REMARK    1  A    between atoms: C2_4  and  C3_6 
REMARK    2  A    between atoms: C3_6  and  O2_7 
REMARK    3  A    between atoms: C3_6  and  C4_9 
REMARK    4  A    between atoms: C4_9  and  C5_10 
REMARK    5  A    between atoms: C4_9  and  C18_35 
REMARK    6  A    between atoms: C4_9  and  C31_49 
REMARK    7  A    between atoms: C5_10  and  O3_11 
REMARK    8  A    between atoms: C5_10  and  N2_13 
REMARK       I    between atoms: N2_13  and  C6_15 
REMARK    9  A    between atoms: C6_15  and  C7_17 
REMARK   10  A    between atoms: C7_17  and  C8_18 
REMARK   11  A    between atoms: C7_17  and  N3_22 
REMARK   12  A    between atoms: C8_18  and  C9_19 
REMARK       I    between atoms: C12_24  and  N4_25 
REMARK       I    between atoms: C12_24  and  N6_29 
REMARK   13  A    between atoms: N6_29  and  C14_31 
REMARK   14  A    between atoms: C18_35  and  C19_36 
REMARK   15  A    between atoms: C18_35  and  N7_44 
REMARK   16  A    between atoms: C19_36  and  C20_37 
ROOT
HETATM    1  N3  UNL     1      12.166  19.366  17.011  1.00  0.00    -0.212 N 
ATOM      2  H3  UNL     1      11.459  18.678  17.269  1.00  0.00     0.178 HD
HETATM    3  C12 UNL     1      12.713  19.748  18.019  1.00  0.00     0.684 C 
HETATM    4  N4  UNL     1      12.273  19.185  19.282  1.00  0.00    -0.126 N 
ATOM      5  H4  UNL     1      12.003  19.828  20.026  1.00  0.00     0.197 HD
HETATM    6  C13 UNL     1      12.199  17.836  19.534  1.00  0.00     0.196 C 
HETATM    7  N5  UNL     1      12.150  16.694  19.739  1.00  0.00    -0.171 NA
HETATM    8  N6  UNL     1      13.745  20.693  18.139  1.00  0.00    -0.218 N 
ATOM      9  H6  UNL     1      13.492  21.680  18.099  1.00  0.00     0.178 HD
ENDROOT
BRANCH   1  10
HETATM   10  C7  UNL     1      12.144  19.520  15.604  1.00  0.00     0.192 C 
BRANCH  10  11
HETATM   11  C6  UNL     1      11.158  18.615  14.974  1.00  0.00     0.246 C 
HETATM   12  N2  UNL     1      11.445  17.319  14.514  1.00  0.00    -0.308 N 
ATOM     13  H2  UNL     1      12.392  16.962  14.642  1.00  0.00     0.170 HD
HETATM   14  O4  UNL     1       9.977  19.095  14.868  1.00  0.00    -0.271 OA
BRANCH  12  15
HETATM   15  C5  UNL     1      10.500  16.485  13.888  1.00  0.00     0.140 C 
BRANCH  15  16
HETATM   16  C4  UNL     1      10.371  15.941  12.535  1.00  0.00     0.127 C 
BRANCH  16  17
HETATM   17  C3  UNL     1       9.370  16.782  11.851  1.00  0.00     0.134 C 
BRANCH  17  18
HETATM   18  C2  UNL     1       8.783  16.930  10.596  1.00  0.00     0.271 C 
HETATM   19  N1  UNL     1       7.391  17.270  10.355  1.00  0.00    -0.360 N 
HETATM   20  C1  UNL     1       6.825  17.412   9.045  1.00  0.00     0.149 C 
ATOM     21  H1  UNL     1       6.783  17.417  11.161  1.00  0.00     0.162 HD
HETATM   22  O1  UNL     1       9.386  16.787   9.514  1.00  0.00    -0.266 OA
ENDBRANCH  17  18
BRANCH  17  23
HETATM   23  O2  UNL     1       8.871  17.678  12.687  1.00  0.00    -0.358 OA
ATOM     24  H2  UNL     1       8.717  17.276  13.534  1.00  0.00     0.217 HD
ENDBRANCH  17  23
ENDBRANCH  16  17
BRANCH  16  25
HETATM   25  C18 UNL     1       9.639  14.570  12.732  1.00  0.00     0.028 C 
BRANCH  25  26
HETATM   26  C19 UNL     1      10.409  13.630  13.568  1.00  0.00     0.009 C 
BRANCH  26  27
HETATM   27  C20 UNL     1       9.952  12.807  14.679  1.00  0.00    -0.024 C 
HETATM   28  C21 UNL     1      10.164  11.312  14.244  1.00  0.00     0.019 C 
HETATM   29  C22 UNL     1      11.002  12.851  15.854  1.00  0.00     0.013 C 
HETATM   30  C23 UNL     1      10.435  13.570  17.049  1.00  0.00     0.001 C 
HETATM   31  C24 UNL     1       9.419  12.616  17.685  1.00  0.00     0.000 C 
HETATM   32  C25 UNL     1       8.754  11.866  16.572  1.00  0.00     0.001 C 
HETATM   33  C26 UNL     1       8.696  12.851  15.372  1.00  0.00     0.013 C 
ENDBRANCH  26  27
ENDBRANCH  25  26
BRANCH  25  34
HETATM   34  N7  UNL     1       8.716  14.091  11.845  1.00  0.00    -0.383 N 
HETATM   35  C27 UNL     1       8.914  13.296  10.721  1.00  0.00     0.123 C 
HETATM   36  C28 UNL     1       7.728  13.639   9.769  1.00  0.00     0.021 C 
HETATM   37  C29 UNL     1       6.606  13.787  10.746  1.00  0.00     0.021 C 
HETATM   38  C30 UNL     1       7.312  14.011  12.058  1.00  0.00     0.123 C 
ENDBRANCH  25  34
ENDBRANCH  16  25
BRANCH  16  39
HETATM   39  C31 UNL     1      11.677  15.865  11.862  1.00  0.00    -0.024 C 
HETATM   40  C32 UNL     1      12.165  17.295  11.518  1.00  0.00     0.016 C 
HETATM   41  C33 UNL     1      11.952  15.066  10.658  1.00  0.00     0.016 C 
HETATM   42  C34 UNL     1      12.842  15.468  12.816  1.00  0.00     0.016 C 
ENDBRANCH  16  39
ENDBRANCH  15  16
BRANCH  15  43
HETATM   43  O3  UNL     1       9.568  16.173  14.743  1.00  0.00    -0.348 OA
ATOM     44  H3  UNL     1       9.827  15.651  15.493  1.00  0.00     0.219 HD
ENDBRANCH  15  43
ENDBRANCH  12  15
ENDBRANCH  10  11
BRANCH  10  45
HETATM   45  C8  UNL     1      11.995  20.960  15.224  1.00  0.00     0.039 C 
BRANCH  45  46
HETATM   46  C9  UNL     1      13.035  21.583  14.376  1.00  0.00    -0.020 C 
HETATM   47  C10 UNL     1      14.216  20.620  14.151  1.00  0.00     0.009 C 
HETATM   48  C11 UNL     1      13.663  22.732  15.195  1.00  0.00     0.009 C 
ENDBRANCH  45  46
ENDBRANCH  10  45
ENDBRANCH   1  10
BRANCH   8  49
HETATM   49  C14 UNL     1      15.138  20.364  18.313  1.00  0.00     0.036 C 
HETATM   50  C15 UNL     1      15.567  20.828  19.696  1.00  0.00     0.038 C 
HETATM   51  C16 UNL     1      16.029  21.002  17.304  1.00  0.00     0.038 C 
HETATM   52  C17 UNL     1      15.375  18.867  18.285  1.00  0.00     0.038 C 
ENDBRANCH   8  49
TORSDOF 16
ENDMDL
