MODEL 1
REMARK VINA RESULT: -4.697283190      0.000      0.000
REMARK  13 active torsions:
REMARK  status: ('A' for Active; 'I' for Inactive)
REMARK    1  A    between atoms: C2_2  and  C3_3 
REMARK    2  A    between atoms: C3_3  and  C4_4 
REMARK    3  A    between atoms: C9_15  and  C10_16 
REMARK    4  A    between atoms: C10_16  and  C11_17 
REMARK    5  A    between atoms: C14_20  and  O3_21 
REMARK    6  A    between atoms: C15_23  and  C16_24 
REMARK    7  A    between atoms: C16_24  and  C18_26 
REMARK    8  A    between atoms: C20_29  and  C21_30 
REMARK    9  A    between atoms: N3_33  and  C24_34 
REMARK   10  A    between atoms: C24_34  and  O5_35 
REMARK   11  A    between atoms: C24_34  and  C25_37 
REMARK   12  A    between atoms: C28_40  and  C29_41 
REMARK   13  A    between atoms: C29_41  and  C30_42 
ROOT
HETATM    1  C4  UNL     1       7.408  14.641  10.536  1.00  0.00     0.178 C 
HETATM    2  C5  UNL     1       6.466  13.921  11.418  1.00  0.00     0.241 C 
HETATM    3  O1  UNL     1       5.200  14.123  11.252  1.00  0.00    -0.271 OA
HETATM    4  N1  UNL     1       6.758  13.015  12.448  1.00  0.00    -0.346 N 
ATOM      5  H1  UNL     1       6.132  12.213  12.516  1.00  0.00     0.163 HD
HETATM    6  C6  UNL     1       7.826  13.056  13.428  1.00  0.00     0.172 C 
HETATM    7  C7  UNL     1       9.146  12.715  12.833  1.00  0.00     0.042 C 
HETATM    8  C8  UNL     1       7.746  14.268  14.244  1.00  0.00     0.240 C 
HETATM    9  O2  UNL     1       6.832  15.122  13.918  1.00  0.00    -0.271 OA
HETATM   10  N2  UNL     1       8.508  14.663  15.344  1.00  0.00    -0.352 N 
ATOM     11  H2  UNL     1       7.978  15.129  16.080  1.00  0.00     0.163 HD
HETATM   12  C9  UNL     1       9.911  14.526  15.617  1.00  0.00     0.116 C 
HETATM   13  C14 UNL     1      10.546  15.902  15.696  1.00  0.00     0.170 C 
HETATM   14  C15 UNL     1      10.304  16.841  14.569  1.00  0.00     0.156 C 
HETATM   15  O4  UNL     1      11.243  17.012  13.619  1.00  0.00    -0.376 OA
HETATM   16  C20 UNL     1      11.299  16.291  12.474  1.00  0.00     0.139 C 
HETATM   17  C23 UNL     1      11.484  17.143  11.249  1.00  0.00     0.157 C 
HETATM   18  N3  UNL     1      10.888  16.628  10.039  1.00  0.00    -0.349 N 
HETATM   19  C28 UNL     1       9.550  17.052   9.600  1.00  0.00     0.178 C 
HETATM   20  C33 UNL     1       8.466  16.966  10.599  1.00  0.00     0.243 C 
HETATM   21  O6  UNL     1       8.535  17.785  11.553  1.00  0.00    -0.271 OA
HETATM   22  N4  UNL     1       7.356  16.083  10.620  1.00  0.00    -0.341 N 
HETATM   23  C34 UNL     1       6.015  16.652  10.740  1.00  0.00     0.153 C 
ENDROOT
BRANCH  18  24
HETATM   24  C24 UNL     1      11.582  15.785   9.164  1.00  0.00     0.118 C 
BRANCH  24  25
HETATM   25  O5  UNL     1      11.637  16.227   7.912  1.00  0.00    -0.349 OA
ATOM     26  H5  UNL     1      11.852  15.558   7.272  1.00  0.00     0.219 HD
ENDBRANCH  24  25
BRANCH  24  27
HETATM   27  C25 UNL     1      12.286  14.519   9.262  1.00  0.00     0.060 A 
HETATM   28  C26 UNL     1      12.166  13.252   8.595  1.00  0.00     0.013 A 
HETATM   29  C27 UNL     1      11.350  13.420   9.870  1.00  0.00     0.013 A 
ENDBRANCH  24  27
ENDBRANCH  18  24
BRANCH  19  30
HETATM   30  C29 UNL     1       9.532  18.486   9.139  1.00  0.00     0.039 C 
BRANCH  30  31
HETATM   31  C30 UNL     1       8.434  19.010   8.347  1.00  0.00    -0.020 C 
HETATM   32  C31 UNL     1       8.386  18.268   6.988  1.00  0.00     0.009 C 
HETATM   33  C32 UNL     1       8.524  20.466   7.965  1.00  0.00     0.009 C 
ENDBRANCH  30  31
ENDBRANCH  19  30
BRANCH  16  34
HETATM   34  C21 UNL     1      12.442  15.288  12.698  1.00  0.00     0.029 C 
HETATM   35  C22 UNL     1      13.767  15.841  12.244  1.00  0.00     0.007 C 
ENDBRANCH  16  34
BRANCH  14  36
HETATM   36  C16 UNL     1      10.237  18.235  15.290  1.00  0.00     0.013 C 
HETATM   37  C17 UNL     1      11.229  19.194  14.741  1.00  0.00     0.012 C 
BRANCH  36  38
HETATM   38  C18 UNL     1      10.348  18.136  16.762  1.00  0.00     0.002 C 
HETATM   39  C19 UNL     1      11.375  19.190  17.200  1.00  0.00     0.005 C 
ENDBRANCH  36  38
ENDBRANCH  14  36
BRANCH   1  40
HETATM   40  C3  UNL     1       7.003  14.282   9.096  1.00  0.00     0.035 C 
BRANCH  40  41
HETATM   41  C2  UNL     1       8.284  13.710   8.471  1.00  0.00    -0.002 C 
HETATM   42  C1  UNL     1       8.644  14.419   7.197  1.00  0.00     0.005 C 
ENDBRANCH  40  41
ENDBRANCH   1  40
BRANCH  13  43
HETATM   43  O3  UNL     1      11.871  15.835  16.106  1.00  0.00    -0.391 OA
ATOM     44  H3  UNL     1      12.204  16.687  16.364  1.00  0.00     0.210 HD
ENDBRANCH  13  43
BRANCH  12  45
HETATM   45  C10 UNL     1       9.990  14.009  17.072  1.00  0.00     0.031 C 
BRANCH  45  46
HETATM   46  C11 UNL     1       9.148  14.793  18.023  1.00  0.00    -0.021 C 
HETATM   47  C12 UNL     1       8.072  13.955  18.658  1.00  0.00     0.009 C 
HETATM   48  C13 UNL     1      10.036  15.375  19.136  1.00  0.00     0.009 C 
ENDBRANCH  45  46
ENDBRANCH  12  45
TORSDOF 13
ENDMDL
MODEL 2
REMARK VINA RESULT: -4.513645189      2.091      3.466
REMARK  13 active torsions:
REMARK  status: ('A' for Active; 'I' for Inactive)
REMARK    1  A    between atoms: C2_2  and  C3_3 
REMARK    2  A    between atoms: C3_3  and  C4_4 
REMARK    3  A    between atoms: C9_15  and  C10_16 
REMARK    4  A    between atoms: C10_16  and  C11_17 
REMARK    5  A    between atoms: C14_20  and  O3_21 
REMARK    6  A    between atoms: C15_23  and  C16_24 
REMARK    7  A    between atoms: C16_24  and  C18_26 
REMARK    8  A    between atoms: C20_29  and  C21_30 
REMARK    9  A    between atoms: N3_33  and  C24_34 
REMARK   10  A    between atoms: C24_34  and  O5_35 
REMARK   11  A    between atoms: C24_34  and  C25_37 
REMARK   12  A    between atoms: C28_40  and  C29_41 
REMARK   13  A    between atoms: C29_41  and  C30_42 
ROOT
HETATM    1  C4  UNL     1       8.717  13.433  13.781  1.00  0.00     0.178 C 
HETATM    2  C5  UNL     1       8.415  13.093  15.186  1.00  0.00     0.241 C 
HETATM    3  O1  UNL     1       7.230  12.662  15.468  1.00  0.00    -0.271 OA
HETATM    4  N1  UNL     1       9.262  13.173  16.301  1.00  0.00    -0.346 N 
ATOM      5  H1  UNL     1       9.177  12.409  16.972  1.00  0.00     0.163 HD
HETATM    6  C6  UNL     1      10.242  14.188  16.635  1.00  0.00     0.172 C 
HETATM    7  C7  UNL     1      11.462  14.088  15.790  1.00  0.00     0.042 C 
HETATM    8  C8  UNL     1       9.617  15.504  16.764  1.00  0.00     0.240 C 
HETATM    9  O2  UNL     1       8.357  15.572  16.481  1.00  0.00    -0.271 OA
HETATM   10  N2  UNL     1      10.166  16.726  17.154  1.00  0.00    -0.352 N 
ATOM     11  H2  UNL     1       9.555  17.296  17.739  1.00  0.00     0.163 HD
HETATM   12  C9  UNL     1      11.443  17.319  16.873  1.00  0.00     0.116 C 
HETATM   13  C14 UNL     1      11.244  18.581  16.054  1.00  0.00     0.170 C 
HETATM   14  C15 UNL     1      10.410  18.485  14.827  1.00  0.00     0.156 C 
HETATM   15  O4  UNL     1      10.996  18.394  13.618  1.00  0.00    -0.376 OA
HETATM   16  C20 UNL     1      11.301  17.221  13.014  1.00  0.00     0.139 C 
HETATM   17  C23 UNL     1      10.860  17.166  11.577  1.00  0.00     0.157 C 
HETATM   18  N3  UNL     1      10.502  15.855  11.088  1.00  0.00    -0.349 N 
HETATM   19  C28 UNL     1       9.106  15.392  11.081  1.00  0.00     0.178 C 
HETATM   20  C33 UNL     1       8.360  15.519  12.348  1.00  0.00     0.243 C 
HETATM   21  O6  UNL     1       8.084  16.694  12.706  1.00  0.00    -0.271 OA
HETATM   22  N4  UNL     1       7.908  14.487  13.211  1.00  0.00    -0.341 N 
HETATM   23  C34 UNL     1       6.495  14.458  13.584  1.00  0.00     0.153 C 
ENDROOT
BRANCH  18  24
HETATM   24  C24 UNL     1      11.436  14.996  10.499  1.00  0.00     0.118 C 
BRANCH  24  25
HETATM   25  O5  UNL     1      11.313  13.725  10.863  1.00  0.00    -0.349 OA
ATOM     26  H5  UNL     1      11.073  13.139  10.155  1.00  0.00     0.219 HD
ENDBRANCH  24  25
BRANCH  24  27
HETATM   27  C25 UNL     1      12.537  15.126   9.560  1.00  0.00     0.060 A 
HETATM   28  C26 UNL     1      13.603  14.258   9.141  1.00  0.00     0.013 A 
HETATM   29  C27 UNL     1      13.904  15.169  10.324  1.00  0.00     0.013 A 
ENDBRANCH  24  27
ENDBRANCH  18  24
BRANCH  19  30
HETATM   30  C29 UNL     1       8.269  16.128  10.068  1.00  0.00     0.039 C 
BRANCH  30  31
HETATM   31  C30 UNL     1       8.121  15.636   8.711  1.00  0.00    -0.020 C 
HETATM   32  C31 UNL     1       8.277  14.095   8.707  1.00  0.00     0.009 C 
HETATM   33  C32 UNL     1       9.147  16.110   7.714  1.00  0.00     0.009 C 
ENDBRANCH  30  31
ENDBRANCH  19  30
BRANCH  16  34
HETATM   34  C21 UNL     1      12.821  17.072  13.192  1.00  0.00     0.029 C 
HETATM   35  C22 UNL     1      13.547  18.354  12.881  1.00  0.00     0.007 C 
ENDBRANCH  16  34
BRANCH  14  36
HETATM   36  C16 UNL     1       9.686  19.879  14.792  1.00  0.00     0.013 C 
HETATM   37  C17 UNL     1      10.327  20.815  13.833  1.00  0.00     0.012 C 
BRANCH  36  38
HETATM   38  C18 UNL     1       9.546  20.497  16.129  1.00  0.00     0.002 C 
HETATM   39  C19 UNL     1       9.058  21.936  15.901  1.00  0.00     0.005 C 
ENDBRANCH  36  38
ENDBRANCH  14  36
BRANCH   1  40
HETATM   40  C3  UNL     1       8.409  12.168  12.961  1.00  0.00     0.035 C 
BRANCH  40  41
HETATM   41  C2  UNL     1       9.637  11.269  13.171  1.00  0.00    -0.002 C 
HETATM   42  C1  UNL     1      10.052  10.589  11.897  1.00  0.00     0.005 C 
ENDBRANCH  40  41
ENDBRANCH   1  40
BRANCH  13  43
HETATM   43  O3  UNL     1      12.433  19.276  15.881  1.00  0.00    -0.391 OA
ATOM     44  H3  UNL     1      12.297  20.103  15.433  1.00  0.00     0.210 HD
ENDBRANCH  13  43
BRANCH  12  45
HETATM   45  C10 UNL     1      11.950  17.848  18.234  1.00  0.00     0.031 C 
BRANCH  45  46
HETATM   46  C11 UNL     1      12.634  16.807  19.055  1.00  0.00    -0.021 C 
HETATM   47  C12 UNL     1      14.116  17.044  19.159  1.00  0.00     0.009 C 
HETATM   48  C13 UNL     1      12.040  16.798  20.473  1.00  0.00     0.009 C 
ENDBRANCH  45  46
ENDBRANCH  12  45
TORSDOF 13
ENDMDL
MODEL 3
REMARK VINA RESULT: -4.454686029      0.811      1.013
REMARK  13 active torsions:
REMARK  status: ('A' for Active; 'I' for Inactive)
REMARK    1  A    between atoms: C2_2  and  C3_3 
REMARK    2  A    between atoms: C3_3  and  C4_4 
REMARK    3  A    between atoms: C9_15  and  C10_16 
REMARK    4  A    between atoms: C10_16  and  C11_17 
REMARK    5  A    between atoms: C14_20  and  O3_21 
REMARK    6  A    between atoms: C15_23  and  C16_24 
REMARK    7  A    between atoms: C16_24  and  C18_26 
REMARK    8  A    between atoms: C20_29  and  C21_30 
REMARK    9  A    between atoms: N3_33  and  C24_34 
REMARK   10  A    between atoms: C24_34  and  O5_35 
REMARK   11  A    between atoms: C24_34  and  C25_37 
REMARK   12  A    between atoms: C28_40  and  C29_41 
REMARK   13  A    between atoms: C29_41  and  C30_42 
ROOT
HETATM    1  C4  UNL     1       7.336  14.365  11.034  1.00  0.00     0.178 C 
HETATM    2  C5  UNL     1       6.423  13.717  11.999  1.00  0.00     0.241 C 
HETATM    3  O1  UNL     1       5.153  13.901  11.856  1.00  0.00    -0.271 OA
HETATM    4  N1  UNL     1       6.751  12.897  13.089  1.00  0.00    -0.346 N 
ATOM      5  H1  UNL     1       6.131  12.102  13.242  1.00  0.00     0.163 HD
HETATM    6  C6  UNL     1       7.847  13.021  14.031  1.00  0.00     0.172 C 
HETATM    7  C7  UNL     1       9.151  12.636  13.426  1.00  0.00     0.042 C 
HETATM    8  C8  UNL     1       7.786  14.294  14.748  1.00  0.00     0.240 C 
HETATM    9  O2  UNL     1       6.858  15.116  14.382  1.00  0.00    -0.271 OA
HETATM   10  N2  UNL     1       8.579  14.779  15.789  1.00  0.00    -0.352 N 
ATOM     11  H2  UNL     1       8.068  15.302  16.501  1.00  0.00     0.163 HD
HETATM   12  C9  UNL     1       9.989  14.668  16.030  1.00  0.00     0.116 C 
HETATM   13  C14 UNL     1      10.620  16.047  15.978  1.00  0.00     0.170 C 
HETATM   14  C15 UNL     1      10.339  16.892  14.787  1.00  0.00     0.156 C 
HETATM   15  O4  UNL     1      11.249  16.988  13.799  1.00  0.00    -0.376 OA
HETATM   16  C20 UNL     1      11.274  16.177  12.714  1.00  0.00     0.139 C 
HETATM   17  C23 UNL     1      11.418  16.928  11.420  1.00  0.00     0.157 C 
HETATM   18  N3  UNL     1      10.789  16.315  10.274  1.00  0.00    -0.349 N 
HETATM   19  C28 UNL     1       9.436  16.698   9.842  1.00  0.00     0.178 C 
HETATM   20  C33 UNL     1       8.383  16.690  10.877  1.00  0.00     0.243 C 
HETATM   21  O6  UNL     1       8.476  17.584  11.759  1.00  0.00    -0.271 OA
HETATM   22  N4  UNL     1       7.279  15.809  11.003  1.00  0.00    -0.341 N 
HETATM   23  C34 UNL     1       5.939  16.382  11.117  1.00  0.00     0.153 C 
ENDROOT
BRANCH  18  24
HETATM   24  C24 UNL     1      11.461  15.406   9.449  1.00  0.00     0.118 C 
BRANCH  24  25
HETATM   25  O5  UNL     1      11.436  14.152   9.888  1.00  0.00    -0.349 OA
ATOM     26  H5  UNL     1      11.929  13.542   9.351  1.00  0.00     0.219 HD
ENDBRANCH  24  25
BRANCH  24  27
HETATM   27  C25 UNL     1      12.196  15.466   8.198  1.00  0.00     0.060 A 
HETATM   28  C26 UNL     1      12.418  16.491   7.216  1.00  0.00     0.013 A 
HETATM   29  C27 UNL     1      11.207  15.595   6.990  1.00  0.00     0.013 A 
ENDBRANCH  24  27
ENDBRANCH  18  24
BRANCH  19  30
HETATM   30  C29 UNL     1       9.397  18.090   9.268  1.00  0.00     0.039 C 
BRANCH  30  31
HETATM   31  C30 UNL     1       8.265  18.553   8.487  1.00  0.00    -0.020 C 
HETATM   32  C31 UNL     1       8.371  17.985   7.049  1.00  0.00     0.009 C 
HETATM   33  C32 UNL     1       8.159  20.043   8.284  1.00  0.00     0.009 C 
ENDBRANCH  30  31
ENDBRANCH  19  30
BRANCH  16  34
HETATM   34  C21 UNL     1      12.429  15.198  12.985  1.00  0.00     0.029 C 
HETATM   35  C22 UNL     1      13.681  15.597  12.251  1.00  0.00     0.007 C 
ENDBRANCH  16  34
BRANCH  14  36
HETATM   36  C16 UNL     1      10.287  18.339  15.395  1.00  0.00     0.013 C 
HETATM   37  C17 UNL     1      11.352  19.214  14.843  1.00  0.00     0.012 C 
BRANCH  36  38
HETATM   38  C18 UNL     1      10.299  18.351  16.875  1.00  0.00     0.002 C 
HETATM   39  C19 UNL     1      11.421  19.310  17.299  1.00  0.00     0.005 C 
ENDBRANCH  36  38
ENDBRANCH  14  36
BRANCH   1  40
HETATM   40  C3  UNL     1       6.890  13.889   9.641  1.00  0.00     0.035 C 
BRANCH  40  41
HETATM   41  C2  UNL     1       8.183  13.399   8.973  1.00  0.00    -0.002 C 
HETATM   42  C1  UNL     1       8.176  13.657   7.493  1.00  0.00     0.005 C 
ENDBRANCH  40  41
ENDBRANCH   1  40
BRANCH  13  43
HETATM   43  O3  UNL     1      11.956  16.017  16.352  1.00  0.00    -0.391 OA
ATOM     44  H3  UNL     1      12.502  16.511  15.752  1.00  0.00     0.210 HD
ENDBRANCH  13  43
BRANCH  12  45
HETATM   45  C10 UNL     1      10.114  14.271  17.519  1.00  0.00     0.031 C 
BRANCH  45  46
HETATM   46  C11 UNL     1       9.339  15.160  18.434  1.00  0.00    -0.021 C 
HETATM   47  C12 UNL     1       8.271  14.415  19.186  1.00  0.00     0.009 C 
HETATM   48  C13 UNL     1      10.294  15.805  19.452  1.00  0.00     0.009 C 
ENDBRANCH  45  46
ENDBRANCH  12  45
TORSDOF 13
ENDMDL
MODEL 4
REMARK VINA RESULT: -4.409800820      2.103      3.410
REMARK  13 active torsions:
REMARK  status: ('A' for Active; 'I' for Inactive)
REMARK    1  A    between atoms: C2_2  and  C3_3 
REMARK    2  A    between atoms: C3_3  and  C4_4 
REMARK    3  A    between atoms: C9_15  and  C10_16 
REMARK    4  A    between atoms: C10_16  and  C11_17 
REMARK    5  A    between atoms: C14_20  and  O3_21 
REMARK    6  A    between atoms: C15_23  and  C16_24 
REMARK    7  A    between atoms: C16_24  and  C18_26 
REMARK    8  A    between atoms: C20_29  and  C21_30 
REMARK    9  A    between atoms: N3_33  and  C24_34 
REMARK   10  A    between atoms: C24_34  and  O5_35 
REMARK   11  A    between atoms: C24_34  and  C25_37 
REMARK   12  A    between atoms: C28_40  and  C29_41 
REMARK   13  A    between atoms: C29_41  and  C30_42 
ROOT
HETATM    1  C4  UNL     1       8.966  13.915  13.470  1.00  0.00     0.178 C 
HETATM    2  C5  UNL     1       8.583  13.540  14.847  1.00  0.00     0.241 C 
HETATM    3  O1  UNL     1       7.371  13.143  15.056  1.00  0.00    -0.271 OA
HETATM    4  N1  UNL     1       9.377  13.552  16.004  1.00  0.00    -0.346 N 
ATOM      5  H1  UNL     1       9.232  12.770  16.642  1.00  0.00     0.163 HD
HETATM    6  C6  UNL     1      10.373  14.519  16.420  1.00  0.00     0.172 C 
HETATM    7  C7  UNL     1      11.629  14.403  15.631  1.00  0.00     0.042 C 
HETATM    8  C8  UNL     1       9.788  15.851  16.564  1.00  0.00     0.240 C 
HETATM    9  O2  UNL     1       8.547  15.975  16.224  1.00  0.00    -0.271 OA
HETATM   10  N2  UNL     1      10.359  17.040  17.023  1.00  0.00    -0.352 N 
ATOM     11  H2  UNL     1       9.740  17.611  17.598  1.00  0.00     0.163 HD
HETATM   12  C9  UNL     1      11.667  17.594  16.825  1.00  0.00     0.116 C 
HETATM   13  C14 UNL     1      11.553  18.890  16.043  1.00  0.00     0.170 C 
HETATM   14  C15 UNL     1      10.778  18.866  14.774  1.00  0.00     0.156 C 
HETATM   15  O4  UNL     1      11.419  18.793  13.592  1.00  0.00    -0.376 OA
HETATM   16  C20 UNL     1      11.714  17.631  12.962  1.00  0.00     0.139 C 
HETATM   17  C23 UNL     1      11.342  17.640  11.505  1.00  0.00     0.157 C 
HETATM   18  N3  UNL     1      10.964  16.361  10.954  1.00  0.00    -0.349 N 
HETATM   19  C28 UNL     1       9.555  15.948  10.863  1.00  0.00     0.178 C 
HETATM   20  C33 UNL     1       8.751  16.060  12.096  1.00  0.00     0.243 C 
HETATM   21  O6  UNL     1       8.499  17.232  12.482  1.00  0.00    -0.271 OA
HETATM   22  N4  UNL     1       8.222  15.017  12.900  1.00  0.00    -0.341 N 
HETATM   23  C34 UNL     1       6.792  15.026  13.203  1.00  0.00     0.153 C 
ENDROOT
BRANCH  18  24
HETATM   24  C24 UNL     1      11.896  15.489  10.380  1.00  0.00     0.118 C 
BRANCH  24  25
HETATM   25  O5  UNL     1      12.396  14.595  11.226  1.00  0.00    -0.349 OA
ATOM     26  H5  UNL     1      12.717  13.802  10.810  1.00  0.00     0.219 HD
ENDBRANCH  24  25
BRANCH  24  27
HETATM   27  C25 UNL     1      12.477  15.289   9.064  1.00  0.00     0.060 A 
HETATM   28  C26 UNL     1      12.128  15.723   7.739  1.00  0.00     0.013 A 
HETATM   29  C27 UNL     1      11.542  14.390   8.186  1.00  0.00     0.013 A 
ENDBRANCH  24  27
ENDBRANCH  18  24
BRANCH  19  30
HETATM   30  C29 UNL     1       8.795  16.748   9.838  1.00  0.00     0.039 C 
BRANCH  30  31
HETATM   31  C30 UNL     1       7.972  16.099   8.833  1.00  0.00    -0.020 C 
HETATM   32  C31 UNL     1       8.028  14.565   9.042  1.00  0.00     0.009 C 
HETATM   33  C32 UNL     1       8.398  16.288   7.399  1.00  0.00     0.009 C 
ENDBRANCH  30  31
ENDBRANCH  19  30
BRANCH  16  34
HETATM   34  C21 UNL     1      13.217  17.422  13.209  1.00  0.00     0.029 C 
HETATM   35  C22 UNL     1      13.988  18.708  13.075  1.00  0.00     0.007 C 
ENDBRANCH  16  34
BRANCH  14  36
HETATM   36  C16 UNL     1      10.105  20.285  14.753  1.00  0.00     0.013 C 
HETATM   37  C17 UNL     1       9.408  20.590  16.029  1.00  0.00     0.012 C 
BRANCH  36  38
HETATM   38  C18 UNL     1       9.210  20.489  13.592  1.00  0.00     0.002 C 
HETATM   39  C19 UNL     1       8.735  21.949  13.653  1.00  0.00     0.005 C 
ENDBRANCH  36  38
ENDBRANCH  14  36
BRANCH   1  40
HETATM   40  C3  UNL     1       8.655  12.691  12.593  1.00  0.00     0.035 C 
BRANCH  40  41
HETATM   41  C2  UNL     1      10.035  12.137  12.209  1.00  0.00    -0.002 C 
HETATM   42  C1  UNL     1      10.175  11.976  10.721  1.00  0.00     0.005 C 
ENDBRANCH  40  41
ENDBRANCH   1  40
BRANCH  13  43
HETATM   43  O3  UNL     1      12.773  19.547  15.952  1.00  0.00    -0.391 OA
ATOM     44  H3  UNL     1      12.805  20.311  16.516  1.00  0.00     0.210 HD
ENDBRANCH  13  43
BRANCH  12  45
HETATM   45  C10 UNL     1      12.125  18.060  18.227  1.00  0.00     0.031 C 
BRANCH  45  46
HETATM   46  C11 UNL     1      12.797  16.986  19.015  1.00  0.00    -0.021 C 
HETATM   47  C12 UNL     1      14.288  17.170  19.077  1.00  0.00     0.009 C 
HETATM   48  C13 UNL     1      12.245  16.980  20.450  1.00  0.00     0.009 C 
ENDBRANCH  45  46
ENDBRANCH  12  45
TORSDOF 13
ENDMDL
MODEL 5
REMARK VINA RESULT: -4.156527962      2.072      7.295
REMARK  13 active torsions:
REMARK  status: ('A' for Active; 'I' for Inactive)
REMARK    1  A    between atoms: C2_2  and  C3_3 
REMARK    2  A    between atoms: C3_3  and  C4_4 
REMARK    3  A    between atoms: C9_15  and  C10_16 
REMARK    4  A    between atoms: C10_16  and  C11_17 
REMARK    5  A    between atoms: C14_20  and  O3_21 
REMARK    6  A    between atoms: C15_23  and  C16_24 
REMARK    7  A    between atoms: C16_24  and  C18_26 
REMARK    8  A    between atoms: C20_29  and  C21_30 
REMARK    9  A    between atoms: N3_33  and  C24_34 
REMARK   10  A    between atoms: C24_34  and  O5_35 
REMARK   11  A    between atoms: C24_34  and  C25_37 
REMARK   12  A    between atoms: C28_40  and  C29_41 
REMARK   13  A    between atoms: C29_41  and  C30_42 
ROOT
HETATM    1  C4  UNL     1       6.871  12.841  13.167  1.00  0.00     0.178 C 
HETATM    2  C5  UNL     1       5.968  12.694  12.007  1.00  0.00     0.241 C 
HETATM    3  O1  UNL     1       5.558  11.508  11.700  1.00  0.00    -0.271 OA
HETATM    4  N1  UNL     1       5.472  13.696  11.160  1.00  0.00    -0.346 N 
ATOM      5  H1  UNL     1       4.500  13.585  10.872  1.00  0.00     0.163 HD
HETATM    6  C6  UNL     1       6.146  14.867  10.635  1.00  0.00     0.172 C 
HETATM    7  C7  UNL     1       6.331  15.918  11.671  1.00  0.00     0.042 C 
HETATM    8  C8  UNL     1       7.315  14.491   9.839  1.00  0.00     0.240 C 
HETATM    9  O2  UNL     1       7.607  13.232   9.805  1.00  0.00    -0.271 OA
HETATM   10  N2  UNL     1       8.185  15.284   9.089  1.00  0.00    -0.352 N 
ATOM     11  H2  UNL     1       8.484  14.866   8.208  1.00  0.00     0.163 HD
HETATM   12  C9  UNL     1       8.732  16.586   9.346  1.00  0.00     0.116 C 
HETATM   13  C14 UNL     1      10.238  16.480   9.496  1.00  0.00     0.170 C 
HETATM   14  C15 UNL     1      10.769  15.473  10.452  1.00  0.00     0.156 C 
HETATM   15  O4  UNL     1      11.176  15.854  11.678  1.00  0.00    -0.376 OA
HETATM   16  C20 UNL     1      10.374  15.872  12.769  1.00  0.00     0.139 C 
HETATM   17  C23 UNL     1      11.001  15.224  13.972  1.00  0.00     0.157 C 
HETATM   18  N3  UNL     1      10.080  14.589  14.885  1.00  0.00    -0.349 N 
HETATM   19  C28 UNL     1       9.787  13.150  14.805  1.00  0.00     0.178 C 
HETATM   20  C33 UNL     1       9.399  12.626  13.481  1.00  0.00     0.243 C 
HETATM   21  O6  UNL     1      10.310  12.602  12.612  1.00  0.00    -0.271 OA
HETATM   22  N4  UNL     1       8.133  12.141  13.062  1.00  0.00    -0.341 N 
HETATM   23  C34 UNL     1       8.059  10.812  12.459  1.00  0.00     0.153 C 
ENDROOT
BRANCH  18  24
HETATM   24  C24 UNL     1       9.499  15.274  15.957  1.00  0.00     0.118 C 
BRANCH  24  25
HETATM   25  O5  UNL     1       8.177  15.160  16.024  1.00  0.00    -0.349 OA
ATOM     26  H5  UNL     1       7.732  15.305  15.197  1.00  0.00     0.219 HD
ENDBRANCH  24  25
BRANCH  24  27
HETATM   27  C25 UNL     1       9.969  16.099  17.057  1.00  0.00     0.060 A 
HETATM   28  C26 UNL     1      11.249  16.634  17.430  1.00  0.00     0.013 A 
HETATM   29  C27 UNL     1      10.900  15.266  18.003  1.00  0.00     0.013 A 
ENDBRANCH  24  27
ENDBRANCH  18  24
BRANCH  19  30
HETATM   30  C29 UNL     1      10.964  12.307  15.220  1.00  0.00     0.039 C 
BRANCH  30  31
HETATM   31  C30 UNL     1      10.784  11.062  15.942  1.00  0.00    -0.020 C 
HETATM   32  C31 UNL     1      11.129   9.875  15.007  1.00  0.00     0.009 C 
HETATM   33  C32 UNL     1       9.384  10.760  16.413  1.00  0.00     0.009 C 
ENDBRANCH  30  31
ENDBRANCH  19  30
BRANCH  16  34
HETATM   34  C21 UNL     1      10.035  17.356  12.981  1.00  0.00     0.029 C 
HETATM   35  C22 UNL     1      11.090  18.059  13.795  1.00  0.00     0.007 C 
ENDBRANCH  16  34
BRANCH  14  36
HETATM   36  C16 UNL     1      12.088  14.990   9.748  1.00  0.00     0.013 C 
HETATM   37  C17 UNL     1      12.012  13.564   9.341  1.00  0.00     0.012 C 
BRANCH  36  38
HETATM   38  C18 UNL     1      13.305  15.254  10.548  1.00  0.00     0.002 C 
HETATM   39  C19 UNL     1      14.504  14.907   9.652  1.00  0.00     0.005 C 
ENDBRANCH  36  38
ENDBRANCH  14  36
BRANCH   1  40
HETATM   40  C3  UNL     1       6.134  12.214  14.363  1.00  0.00     0.035 C 
BRANCH  40  41
HETATM   41  C2  UNL     1       5.057  13.246  14.731  1.00  0.00    -0.002 C 
HETATM   42  C1  UNL     1       5.052  13.542  16.204  1.00  0.00     0.005 C 
ENDBRANCH  40  41
ENDBRANCH   1  40
BRANCH  13  43
HETATM   43  O3  UNL     1      10.835  17.729   9.596  1.00  0.00    -0.391 OA
ATOM     44  H3  UNL     1      11.478  17.869   8.910  1.00  0.00     0.210 HD
ENDBRANCH  13  43
BRANCH  12  45
HETATM   45  C10 UNL     1       8.556  17.365   8.022  1.00  0.00     0.031 C 
BRANCH  45  46
HETATM   46  C11 UNL     1       7.701  18.581   8.162  1.00  0.00    -0.021 C 
HETATM   47  C12 UNL     1       8.495  19.853   8.050  1.00  0.00     0.009 C 
HETATM   48  C13 UNL     1       6.623  18.579   7.065  1.00  0.00     0.009 C 
ENDBRANCH  45  46
ENDBRANCH  12  45
TORSDOF 13
ENDMDL
