MODEL 1
REMARK VINA RESULT: -6.434613792      0.000      0.000
REMARK  13 active torsions:
REMARK  status: ('A' for Active; 'I' for Inactive)
REMARK    1  A    between atoms: C2_2  and  S1_4 
REMARK    2  A    between atoms: S1_4  and  C3_5 
REMARK    3  A    between atoms: C3_5  and  C4_6 
REMARK    4  A    between atoms: C4_6  and  C6_8 
REMARK    5  A    between atoms: C6_8  and  C7_9 
REMARK    6  A    between atoms: C7_9  and  C8_10 
REMARK    7  A    between atoms: C8_10  and  C9_11 
REMARK    8  A    between atoms: C9_11  and  C10_12 
REMARK    9  A    between atoms: C10_12  and  C11_13 
REMARK   10  A    between atoms: C12_16  and  O2_17 
REMARK   11  A    between atoms: C18_24  and  O3_25 
REMARK   12  A    between atoms: C19_29  and  C20_30 
REMARK   13  A    between atoms: C20_30  and  C21_31 
ROOT
HETATM    1  C11 UNL     1      11.605  18.497  13.914  1.00  0.00     0.079 C 
HETATM    2  N1  UNL     1      10.733  18.517  15.008  1.00  0.00    -0.338 N 
ATOM      3  H1  UNL     1       9.810  18.798  14.675  1.00  0.00     0.167 HD
HETATM    4  C12 UNL     1      10.656  18.301  16.360  1.00  0.00     0.133 C 
HETATM    5  C13 UNL     1      11.355  17.603  17.441  1.00  0.00     0.089 C 
HETATM    6  C14 UNL     1      12.810  17.440  17.405  1.00  0.00     0.026 C 
HETATM    7  C15 UNL     1      13.174  17.178  18.881  1.00  0.00     0.002 C 
HETATM    8  C16 UNL     1      12.198  17.992  19.667  1.00  0.00     0.002 C 
HETATM    9  C17 UNL     1      11.428  18.724  18.588  1.00  0.00     0.026 C 
HETATM   10  C18 UNL     1      10.560  16.495  18.068  1.00  0.00     0.130 C 
HETATM   11  N2  UNL     1      10.713  15.179  18.389  1.00  0.00    -0.352 N 
ATOM     12  H2  UNL     1      11.129  15.095  19.317  1.00  0.00     0.163 HD
HETATM   13  C19 UNL     1      10.479  13.877  17.843  1.00  0.00     0.188 C 
HETATM   14  N3  UNL     1      10.468  13.707  16.436  1.00  0.00    -0.330 N 
HETATM   15  C24 UNL     1      10.111  12.311  15.996  1.00  0.00     0.128 C 
HETATM   16  C25 UNL     1      10.508  12.244  14.528  1.00  0.00     0.021 C 
HETATM   17  C26 UNL     1       9.875  13.264  13.599  1.00  0.00     0.023 C 
HETATM   18  C27 UNL     1       9.550  14.546  14.395  1.00  0.00     0.066 C 
HETATM   19  C28 UNL     1       8.164  14.509  14.888  1.00  0.00     0.041 C 
HETATM   20  C29 UNL     1       7.109  13.547  14.321  1.00  0.00     0.120 C 
HETATM   21  N4  UNL     1       6.670  14.190  12.878  1.00  0.00    -0.399 N 
ATOM     22  H4  UNL     1       5.831  13.989  12.334  1.00  0.00     0.158 HD
HETATM   23  C30 UNL     1       7.640  15.019  12.581  1.00  0.00     0.080 C 
HETATM   24  C31 UNL     1       8.493  15.491  12.740  1.00  0.00     0.016 C 
HETATM   25  C32 UNL     1       9.646  15.835  13.444  1.00  0.00     0.127 C 
HETATM   26  N5  UNL     1      10.819  16.180  12.903  1.00  0.00    -0.347 N 
ATOM     27  H5  UNL     1      11.287  15.431  12.395  1.00  0.00     0.163 HD
HETATM   28  C33 UNL     1      11.529  17.422  12.915  1.00  0.00     0.264 C 
HETATM   29  O4  UNL     1      12.249  17.677  11.864  1.00  0.00    -0.266 OA
HETATM   30  C34 UNL     1      10.708  14.495  15.313  1.00  0.00     0.232 C 
HETATM   31  O5  UNL     1      11.698  15.153  14.919  1.00  0.00    -0.272 OA
ENDROOT
BRANCH   1  32
HETATM   32  C10 UNL     1      13.067  18.793  14.106  1.00  0.00     0.063 C 
BRANCH  32  33
HETATM   33  C9  UNL     1      13.382  20.265  13.939  1.00  0.00     0.006 C 
BRANCH  33  34
HETATM   34  C8  UNL     1      14.353  20.738  15.005  1.00  0.00     0.000 C 
BRANCH  34  35
HETATM   35  C7  UNL     1      13.726  20.900  16.349  1.00  0.00     0.000 C 
BRANCH  35  36
HETATM   36  C6  UNL     1      14.573  20.388  17.473  1.00  0.00     0.005 C 
BRANCH  36  37
HETATM   37  C4  UNL     1      14.498  21.268  18.700  1.00  0.00    -0.009 C 
HETATM   38  C5  UNL     1      15.265  20.724  19.866  1.00  0.00     0.011 C 
BRANCH  37  39
HETATM   39  C3  UNL     1      14.953  22.678  18.403  1.00  0.00     0.086 C 
BRANCH  39  40
HETATM   40  S1  UNL     1      16.752  22.795  18.311  1.00  0.00    -0.093 SA
BRANCH  40  41
HETATM   41  C2  UNL     1      17.390  22.354  16.717  1.00  0.00     0.182 C 
HETATM   42  C1  UNL     1      17.205  23.145  15.480  1.00  0.00     0.104 C 
HETATM   43  O1  UNL     1      18.033  21.317  16.629  1.00  0.00    -0.286 OA
ENDBRANCH  40  41
ENDBRANCH  39  40
ENDBRANCH  37  39
ENDBRANCH  36  37
ENDBRANCH  35  36
ENDBRANCH  34  35
ENDBRANCH  33  34
ENDBRANCH  32  33
ENDBRANCH   1  32
BRANCH   4  44
HETATM   44  O2  UNL     1       9.606  18.917  16.896  1.00  0.00    -0.348 OA
ATOM     45  H2  UNL     1       9.700  19.015  17.837  1.00  0.00     0.219 HD
ENDBRANCH   4  44
BRANCH  10  46
HETATM   46  O3  UNL     1       9.409  17.024  18.368  1.00  0.00    -0.349 OA
ATOM     47  H3  UNL     1       9.585  17.617  19.089  1.00  0.00     0.219 HD
ENDBRANCH  10  46
BRANCH  13  48
HETATM   48  C20 UNL     1       9.326  13.163  18.492  1.00  0.00     0.050 C 
BRANCH  48  49
HETATM   49  C21 UNL     1       7.936  13.564  18.198  1.00  0.00    -0.019 C 
HETATM   50  C22 UNL     1       6.932  12.484  17.978  1.00  0.00     0.009 C 
HETATM   51  C23 UNL     1       7.425  14.374  19.413  1.00  0.00     0.009 C 
ENDBRANCH  48  49
ENDBRANCH  13  48
TORSDOF 13
ENDMDL
MODEL 2
REMARK VINA RESULT: -6.322601883     13.645     18.035
REMARK  13 active torsions:
REMARK  status: ('A' for Active; 'I' for Inactive)
REMARK    1  A    between atoms: C2_2  and  S1_4 
REMARK    2  A    between atoms: S1_4  and  C3_5 
REMARK    3  A    between atoms: C3_5  and  C4_6 
REMARK    4  A    between atoms: C4_6  and  C6_8 
REMARK    5  A    between atoms: C6_8  and  C7_9 
REMARK    6  A    between atoms: C7_9  and  C8_10 
REMARK    7  A    between atoms: C8_10  and  C9_11 
REMARK    8  A    between atoms: C9_11  and  C10_12 
REMARK    9  A    between atoms: C10_12  and  C11_13 
REMARK   10  A    between atoms: C12_16  and  O2_17 
REMARK   11  A    between atoms: C18_24  and  O3_25 
REMARK   12  A    between atoms: C19_29  and  C20_30 
REMARK   13  A    between atoms: C20_30  and  C21_31 
ROOT
HETATM    1  C11 UNL     1      26.677  24.620  21.899  1.00  0.00     0.079 C 
HETATM    2  N1  UNL     1      25.651  25.572  21.902  1.00  0.00    -0.338 N 
ATOM      3  H1  UNL     1      26.017  26.435  22.304  1.00  0.00     0.167 HD
HETATM    4  C12 UNL     1      24.337  25.777  21.564  1.00  0.00     0.133 C 
HETATM    5  C13 UNL     1      23.288  25.235  20.699  1.00  0.00     0.089 C 
HETATM    6  C14 UNL     1      23.238  23.804  20.396  1.00  0.00     0.026 C 
HETATM    7  C15 UNL     1      21.774  23.586  19.958  1.00  0.00     0.002 C 
HETATM    8  C16 UNL     1      20.980  24.542  20.786  1.00  0.00     0.002 C 
HETATM    9  C17 UNL     1      22.028  25.152  21.692  1.00  0.00     0.026 C 
HETATM   10  C18 UNL     1      22.837  26.177  19.621  1.00  0.00     0.130 C 
HETATM   11  N2  UNL     1      22.644  26.173  18.272  1.00  0.00    -0.352 N 
ATOM     12  H2  UNL     1      21.703  25.843  18.058  1.00  0.00     0.163 HD
HETATM   13  C19 UNL     1      23.337  26.483  17.059  1.00  0.00     0.188 C 
HETATM   14  N3  UNL     1      24.752  26.396  17.028  1.00  0.00    -0.330 N 
HETATM   15  C24 UNL     1      25.359  26.844  15.723  1.00  0.00     0.128 C 
HETATM   16  C25 UNL     1      26.793  26.339  15.758  1.00  0.00     0.021 C 
HETATM   17  C26 UNL     1      27.654  26.797  16.921  1.00  0.00     0.023 C 
HETATM   18  C27 UNL     1      26.755  27.065  18.147  1.00  0.00     0.066 C 
HETATM   19  C28 UNL     1      26.367  28.484  18.202  1.00  0.00     0.041 C 
HETATM   20  C29 UNL     1      27.104  29.574  17.409  1.00  0.00     0.120 C 
HETATM   21  N4  UNL     1      28.500  29.834  18.229  1.00  0.00    -0.399 N 
ATOM     22  H4  UNL     1      29.120  30.641  18.167  1.00  0.00     0.158 HD
HETATM   23  C30 UNL     1      28.640  28.771  18.981  1.00  0.00     0.080 C 
HETATM   24  C31 UNL     1      28.374  27.893  19.348  1.00  0.00     0.016 C 
HETATM   25  C32 UNL     1      27.558  26.774  19.505  1.00  0.00     0.127 C 
HETATM   26  N5  UNL     1      27.975  25.534  19.782  1.00  0.00    -0.347 N 
ATOM     27  H5  UNL     1      28.524  25.098  19.041  1.00  0.00     0.163 HD
HETATM   28  C33 UNL     1      27.784  24.715  20.939  1.00  0.00     0.264 C 
HETATM   29  O4  UNL     1      28.749  23.893  21.220  1.00  0.00    -0.266 OA
HETATM   30  C34 UNL     1      25.767  25.994  17.892  1.00  0.00     0.232 C 
HETATM   31  O5  UNL     1      26.020  24.920  18.482  1.00  0.00    -0.272 OA
ENDROOT
BRANCH   1  32
HETATM   32  C10 UNL     1      26.352  23.158  22.027  1.00  0.00     0.063 C 
BRANCH  32  33
HETATM   33  C9  UNL     1      26.554  22.408  20.727  1.00  0.00     0.006 C 
BRANCH  33  34
HETATM   34  C8  UNL     1      27.259  21.085  20.966  1.00  0.00     0.000 C 
BRANCH  34  35
HETATM   35  C7  UNL     1      27.033  20.088  19.879  1.00  0.00     0.000 C 
BRANCH  35  36
HETATM   36  C6  UNL     1      28.047  18.986  19.856  1.00  0.00     0.005 C 
BRANCH  36  37
HETATM   37  C4  UNL     1      27.416  17.619  19.998  1.00  0.00    -0.009 C 
HETATM   38  C5  UNL     1      26.449  17.530  21.138  1.00  0.00     0.011 C 
BRANCH  37  39
HETATM   39  C3  UNL     1      26.738  17.183  18.719  1.00  0.00     0.086 C 
BRANCH  39  40
HETATM   40  S1  UNL     1      26.437  15.404  18.694  1.00  0.00    -0.093 SA
BRANCH  40  41
HETATM   41  C2  UNL     1      24.769  14.981  19.122  1.00  0.00     0.182 C 
HETATM   42  C1  UNL     1      24.297  13.619  19.455  1.00  0.00     0.104 C 
HETATM   43  O1  UNL     1      23.943  15.883  19.145  1.00  0.00    -0.286 OA
ENDBRANCH  40  41
ENDBRANCH  39  40
ENDBRANCH  37  39
ENDBRANCH  36  37
ENDBRANCH  35  36
ENDBRANCH  34  35
ENDBRANCH  33  34
ENDBRANCH  32  33
ENDBRANCH   1  32
BRANCH   4  44
HETATM   44  O2  UNL     1      23.816  26.805  22.228  1.00  0.00    -0.348 OA
ATOM     45  H2  UNL     1      23.746  26.622  23.158  1.00  0.00     0.219 HD
ENDBRANCH   4  44
BRANCH  10  46
HETATM   46  O3  UNL     1      22.566  27.295  20.232  1.00  0.00    -0.349 OA
ATOM     47  H3  UNL     1      21.619  27.318  20.307  1.00  0.00     0.219 HD
ENDBRANCH  10  46
BRANCH  13  48
HETATM   48  C20 UNL     1      22.849  27.745  16.405  1.00  0.00     0.050 C 
BRANCH  48  49
HETATM   49  C21 UNL     1      21.792  27.695  15.376  1.00  0.00    -0.019 C 
HETATM   50  C22 UNL     1      21.991  28.494  14.133  1.00  0.00     0.009 C 
HETATM   51  C23 UNL     1      21.668  26.222  14.916  1.00  0.00     0.009 C 
ENDBRANCH  48  49
ENDBRANCH  13  48
TORSDOF 13
ENDMDL
MODEL 3
REMARK VINA RESULT: -6.321490883      2.273      5.546
REMARK  13 active torsions:
REMARK  status: ('A' for Active; 'I' for Inactive)
REMARK    1  A    between atoms: C2_2  and  S1_4 
REMARK    2  A    between atoms: S1_4  and  C3_5 
REMARK    3  A    between atoms: C3_5  and  C4_6 
REMARK    4  A    between atoms: C4_6  and  C6_8 
REMARK    5  A    between atoms: C6_8  and  C7_9 
REMARK    6  A    between atoms: C7_9  and  C8_10 
REMARK    7  A    between atoms: C8_10  and  C9_11 
REMARK    8  A    between atoms: C9_11  and  C10_12 
REMARK    9  A    between atoms: C10_12  and  C11_13 
REMARK   10  A    between atoms: C12_16  and  O2_17 
REMARK   11  A    between atoms: C18_24  and  O3_25 
REMARK   12  A    between atoms: C19_29  and  C20_30 
REMARK   13  A    between atoms: C20_30  and  C21_31 
ROOT
HETATM    1  C11 UNL     1      11.377  17.245  14.827  1.00  0.00     0.079 C 
HETATM    2  N1  UNL     1      11.765  16.570  13.665  1.00  0.00    -0.338 N 
ATOM      3  H1  UNL     1      12.572  15.987  13.888  1.00  0.00     0.167 HD
HETATM    4  C12 UNL     1      11.463  16.399  12.337  1.00  0.00     0.133 C 
HETATM    5  C13 UNL     1      10.357  16.565  11.392  1.00  0.00     0.089 C 
HETATM    6  C14 UNL     1       9.380  17.641  11.570  1.00  0.00     0.026 C 
HETATM    7  C15 UNL     1       8.769  17.801  10.162  1.00  0.00     0.002 C 
HETATM    8  C16 UNL     1       9.892  17.506   9.222  1.00  0.00     0.002 C 
HETATM    9  C17 UNL     1      11.066  17.303  10.155  1.00  0.00     0.026 C 
HETATM   10  C18 UNL     1       9.855  15.278  10.806  1.00  0.00     0.130 C 
HETATM   11  N2  UNL     1       8.671  14.627  10.626  1.00  0.00    -0.352 N 
ATOM     12  H2  UNL     1       8.242  14.926   9.750  1.00  0.00     0.163 HD
HETATM   13  C19 UNL     1       7.836  13.661  11.270  1.00  0.00     0.188 C 
HETATM   14  N3  UNL     1       7.886  13.531  12.681  1.00  0.00    -0.330 N 
HETATM   15  C24 UNL     1       7.033  12.411  13.219  1.00  0.00     0.128 C 
HETATM   16  C25 UNL     1       6.934  12.671  14.715  1.00  0.00     0.021 C 
HETATM   17  C26 UNL     1       8.240  12.751  15.485  1.00  0.00     0.023 C 
HETATM   18  C27 UNL     1       9.355  13.259  14.546  1.00  0.00     0.066 C 
HETATM   19  C28 UNL     1      10.074  12.126  13.940  1.00  0.00     0.041 C 
HETATM   20  C29 UNL     1       9.993  10.699  14.501  1.00  0.00     0.120 C 
HETATM   21  N4  UNL     1      10.949  10.704  15.833  1.00  0.00    -0.399 N 
ATOM     22  H4  UNL     1      11.349   9.902  16.319  1.00  0.00     0.158 HD
HETATM   23  C30 UNL     1      11.083  11.972  16.133  1.00  0.00     0.080 C 
HETATM   24  C31 UNL     1      10.942  12.941  16.006  1.00  0.00     0.016 C 
HETATM   25  C32 UNL     1      10.453  14.084  15.375  1.00  0.00     0.127 C 
HETATM   26  N5  UNL     1      10.112  15.227  15.981  1.00  0.00    -0.347 N 
ATOM     27  H5  UNL     1       9.303  15.153  16.596  1.00  0.00     0.163 HD
HETATM   28  C33 UNL     1      10.690  16.534  15.913  1.00  0.00     0.264 C 
HETATM   29  O4  UNL     1      10.607  17.250  16.993  1.00  0.00    -0.266 OA
HETATM   30  C34 UNL     1       8.520  14.175  13.740  1.00  0.00     0.232 C 
HETATM   31  O5  UNL     1       8.518  15.356  14.155  1.00  0.00    -0.272 OA
ENDROOT
BRANCH   1  32
HETATM   32  C10 UNL     1      10.735  18.601  14.736  1.00  0.00     0.063 C 
BRANCH  32  33
HETATM   33  C9  UNL     1      11.628  19.616  14.053  1.00  0.00     0.006 C 
BRANCH  33  34
HETATM   34  C8  UNL     1      11.667  20.918  14.831  1.00  0.00     0.000 C 
BRANCH  34  35
HETATM   35  C7  UNL     1      12.684  21.883  14.322  1.00  0.00     0.000 C 
BRANCH  35  36
HETATM   36  C6  UNL     1      13.838  22.087  15.256  1.00  0.00     0.005 C 
BRANCH  36  37
HETATM   37  C4  UNL     1      15.084  21.363  14.800  1.00  0.00    -0.009 C 
HETATM   38  C5  UNL     1      15.062  21.006  13.346  1.00  0.00     0.011 C 
BRANCH  37  39
HETATM   39  C3  UNL     1      16.334  22.154  15.112  1.00  0.00     0.086 C 
BRANCH  39  40
HETATM   40  S1  UNL     1      16.510  22.456  16.883  1.00  0.00    -0.093 SA
BRANCH  40  41
HETATM   41  C2  UNL     1      17.670  21.361  17.656  1.00  0.00     0.182 C 
HETATM   42  C1  UNL     1      17.769  21.119  19.113  1.00  0.00     0.104 C 
HETATM   43  O1  UNL     1      18.450  20.757  16.933  1.00  0.00    -0.286 OA
ENDBRANCH  40  41
ENDBRANCH  39  40
ENDBRANCH  37  39
ENDBRANCH  36  37
ENDBRANCH  35  36
ENDBRANCH  34  35
ENDBRANCH  33  34
ENDBRANCH  32  33
ENDBRANCH   1  32
BRANCH   4  44
HETATM   44  O2  UNL     1      12.503  15.925  11.656  1.00  0.00    -0.348 OA
ATOM     45  H2  UNL     1      12.295  15.809  10.736  1.00  0.00     0.219 HD
ENDBRANCH   4  44
BRANCH  10  46
HETATM   46  O3  UNL     1      10.915  14.667  10.358  1.00  0.00    -0.349 OA
ATOM     47  H3  UNL     1      10.607  14.121   9.644  1.00  0.00     0.219 HD
ENDBRANCH  10  46
BRANCH  13  48
HETATM   48  C20 UNL     1       7.855  12.318  10.595  1.00  0.00     0.050 C 
BRANCH  48  49
HETATM   49  C21 UNL     1       9.133  11.614  10.366  1.00  0.00    -0.019 C 
HETATM   50  C22 UNL     1       9.241  10.200  10.830  1.00  0.00     0.009 C 
HETATM   51  C23 UNL     1       9.369  11.575   8.837  1.00  0.00     0.009 C 
ENDBRANCH  48  49
ENDBRANCH  13  48
TORSDOF 13
ENDMDL
MODEL 4
REMARK VINA RESULT: -6.258968287      1.036      1.187
REMARK  13 active torsions:
REMARK  status: ('A' for Active; 'I' for Inactive)
REMARK    1  A    between atoms: C2_2  and  S1_4 
REMARK    2  A    between atoms: S1_4  and  C3_5 
REMARK    3  A    between atoms: C3_5  and  C4_6 
REMARK    4  A    between atoms: C4_6  and  C6_8 
REMARK    5  A    between atoms: C6_8  and  C7_9 
REMARK    6  A    between atoms: C7_9  and  C8_10 
REMARK    7  A    between atoms: C8_10  and  C9_11 
REMARK    8  A    between atoms: C9_11  and  C10_12 
REMARK    9  A    between atoms: C10_12  and  C11_13 
REMARK   10  A    between atoms: C12_16  and  O2_17 
REMARK   11  A    between atoms: C18_24  and  O3_25 
REMARK   12  A    between atoms: C19_29  and  C20_30 
REMARK   13  A    between atoms: C20_30  and  C21_31 
ROOT
HETATM    1  C11 UNL     1      11.645  18.588  14.009  1.00  0.00     0.079 C 
HETATM    2  N1  UNL     1      10.758  18.577  15.090  1.00  0.00    -0.338 N 
ATOM      3  H1  UNL     1       9.837  18.855  14.751  1.00  0.00     0.167 HD
HETATM    4  C12 UNL     1      10.664  18.331  16.437  1.00  0.00     0.133 C 
HETATM    5  C13 UNL     1      11.356  17.618  17.513  1.00  0.00     0.089 C 
HETATM    6  C14 UNL     1      12.813  17.471  17.494  1.00  0.00     0.026 C 
HETATM    7  C15 UNL     1      13.159  17.183  18.969  1.00  0.00     0.002 C 
HETATM    8  C16 UNL     1      12.163  17.970  19.758  1.00  0.00     0.002 C 
HETATM    9  C17 UNL     1      11.401  18.716  18.684  1.00  0.00     0.026 C 
HETATM   10  C18 UNL     1      10.564  16.490  18.106  1.00  0.00     0.130 C 
HETATM   11  N2  UNL     1      10.726  15.169  18.401  1.00  0.00    -0.352 N 
ATOM     12  H2  UNL     1      11.130  15.070  19.333  1.00  0.00     0.163 HD
HETATM   13  C19 UNL     1      10.513  13.877  17.826  1.00  0.00     0.188 C 
HETATM   14  N3  UNL     1      10.523  13.736  16.415  1.00  0.00    -0.330 N 
HETATM   15  C24 UNL     1      10.187  12.345  15.941  1.00  0.00     0.128 C 
HETATM   16  C25 UNL     1      10.605  12.313  14.479  1.00  0.00     0.021 C 
HETATM   17  C26 UNL     1       9.975  13.345  13.561  1.00  0.00     0.023 C 
HETATM   18  C27 UNL     1       9.625  14.608  14.379  1.00  0.00     0.066 C 
HETATM   19  C28 UNL     1       8.232  14.546  14.852  1.00  0.00     0.041 C 
HETATM   20  C29 UNL     1       7.196  13.585  14.251  1.00  0.00     0.120 C 
HETATM   21  N4  UNL     1       6.770  14.253  12.815  1.00  0.00    -0.399 N 
ATOM     22  H4  UNL     1       5.941  14.056  12.255  1.00  0.00     0.158 HD
HETATM   23  C30 UNL     1       7.736  15.098  12.549  1.00  0.00     0.080 C 
HETATM   24  C31 UNL     1       8.581  15.575  12.729  1.00  0.00     0.016 C 
HETATM   25  C32 UNL     1       9.720  15.917  13.456  1.00  0.00     0.127 C 
HETATM   26  N5  UNL     1      10.897  16.285  12.939  1.00  0.00    -0.347 N 
ATOM     27  H5  UNL     1      11.380  15.551  12.422  1.00  0.00     0.163 HD
HETATM   28  C33 UNL     1      11.594  17.534  12.987  1.00  0.00     0.264 C 
HETATM   29  O4  UNL     1      12.325  17.818  11.952  1.00  0.00    -0.266 OA
HETATM   30  C34 UNL     1      10.771  14.550  15.313  1.00  0.00     0.232 C 
HETATM   31  O5  UNL     1      11.758  15.226  14.946  1.00  0.00    -0.272 OA
ENDROOT
BRANCH   1  32
HETATM   32  C10 UNL     1      13.101  18.895  14.227  1.00  0.00     0.063 C 
BRANCH  32  33
HETATM   33  C9  UNL     1      13.376  20.384  14.257  1.00  0.00     0.006 C 
BRANCH  33  34
HETATM   34  C8  UNL     1      13.193  20.944  15.656  1.00  0.00     0.000 C 
BRANCH  34  35
HETATM   35  C7  UNL     1      14.347  20.667  16.560  1.00  0.00     0.000 C 
BRANCH  35  36
HETATM   36  C6  UNL     1      14.081  21.010  17.994  1.00  0.00     0.005 C 
BRANCH  36  37
HETATM   37  C4  UNL     1      15.341  21.016  18.829  1.00  0.00    -0.009 C 
HETATM   38  C5  UNL     1      15.162  20.382  20.174  1.00  0.00     0.011 C 
BRANCH  37  39
HETATM   39  C3  UNL     1      16.494  20.359  18.104  1.00  0.00     0.086 C 
BRANCH  39  40
HETATM   40  S1  UNL     1      17.916  21.461  17.970  1.00  0.00    -0.093 SA
BRANCH  40  41
HETATM   41  C2  UNL     1      18.588  21.913  19.548  1.00  0.00     0.182 C 
HETATM   42  C1  UNL     1      18.246  23.144  20.295  1.00  0.00     0.104 C 
HETATM   43  O1  UNL     1      19.395  21.151  20.061  1.00  0.00    -0.286 OA
ENDBRANCH  40  41
ENDBRANCH  39  40
ENDBRANCH  37  39
ENDBRANCH  36  37
ENDBRANCH  35  36
ENDBRANCH  34  35
ENDBRANCH  33  34
ENDBRANCH  32  33
ENDBRANCH   1  32
BRANCH   4  44
HETATM   44  O2  UNL     1       9.601  18.926  16.971  1.00  0.00    -0.348 OA
ATOM     45  H2  UNL     1       9.360  18.532  17.802  1.00  0.00     0.219 HD
ENDBRANCH   4  44
BRANCH  10  46
HETATM   46  O3  UNL     1       9.403  17.001  18.400  1.00  0.00    -0.349 OA
ATOM     47  H3  UNL     1       8.891  16.279  18.745  1.00  0.00     0.219 HD
ENDBRANCH  10  46
BRANCH  13  48
HETATM   48  C20 UNL     1       9.359  13.138  18.443  1.00  0.00     0.050 C 
BRANCH  48  49
HETATM   49  C21 UNL     1       7.969  13.543  18.153  1.00  0.00    -0.019 C 
HETATM   50  C22 UNL     1       6.968  12.466  17.901  1.00  0.00     0.009 C 
HETATM   51  C23 UNL     1       7.451  14.321  19.386  1.00  0.00     0.009 C 
ENDBRANCH  48  49
ENDBRANCH  13  48
TORSDOF 13
ENDMDL
MODEL 5
REMARK VINA RESULT: -6.206992226      9.071     16.590
REMARK  13 active torsions:
REMARK  status: ('A' for Active; 'I' for Inactive)
REMARK    1  A    between atoms: C2_2  and  S1_4 
REMARK    2  A    between atoms: S1_4  and  C3_5 
REMARK    3  A    between atoms: C3_5  and  C4_6 
REMARK    4  A    between atoms: C4_6  and  C6_8 
REMARK    5  A    between atoms: C6_8  and  C7_9 
REMARK    6  A    between atoms: C7_9  and  C8_10 
REMARK    7  A    between atoms: C8_10  and  C9_11 
REMARK    8  A    between atoms: C9_11  and  C10_12 
REMARK    9  A    between atoms: C10_12  and  C11_13 
REMARK   10  A    between atoms: C12_16  and  O2_17 
REMARK   11  A    between atoms: C18_24  and  O3_25 
REMARK   12  A    between atoms: C19_29  and  C20_30 
REMARK   13  A    between atoms: C20_30  and  C21_31 
ROOT
HETATM    1  C11 UNL     1      21.080  24.741  20.649  1.00  0.00     0.079 C 
HETATM    2  N1  UNL     1      21.447  25.984  20.122  1.00  0.00    -0.338 N 
ATOM      3  H1  UNL     1      21.570  26.636  20.897  1.00  0.00     0.167 HD
HETATM    4  C12 UNL     1      21.702  26.653  18.952  1.00  0.00     0.133 C 
HETATM    5  C13 UNL     1      22.065  26.404  17.556  1.00  0.00     0.089 C 
HETATM    6  C14 UNL     1      21.604  25.194  16.871  1.00  0.00     0.026 C 
HETATM    7  C15 UNL     1      21.719  25.567  15.378  1.00  0.00     0.002 C 
HETATM    8  C16 UNL     1      21.402  27.026  15.322  1.00  0.00     0.002 C 
HETATM    9  C17 UNL     1      21.038  27.345  16.757  1.00  0.00     0.026 C 
HETATM   10  C18 UNL     1      23.415  26.933  17.171  1.00  0.00     0.130 C 
HETATM   11  N2  UNL     1      24.553  26.493  16.563  1.00  0.00    -0.352 N 
ATOM     12  H2  UNL     1      24.474  26.612  15.553  1.00  0.00     0.163 HD
HETATM   13  C19 UNL     1      25.823  25.918  16.885  1.00  0.00     0.188 C 
HETATM   14  N3  UNL     1      25.954  25.147  18.067  1.00  0.00    -0.330 N 
HETATM   15  C24 UNL     1      27.364  24.686  18.338  1.00  0.00     0.128 C 
HETATM   16  C25 UNL     1      27.230  23.605  19.400  1.00  0.00     0.021 C 
HETATM   17  C26 UNL     1      26.550  23.998  20.699  1.00  0.00     0.023 C 
HETATM   18  C27 UNL     1      25.536  25.129  20.420  1.00  0.00     0.066 C 
HETATM   19  C28 UNL     1      26.158  26.445  20.640  1.00  0.00     0.041 C 
HETATM   20  C29 UNL     1      27.462  26.622  21.433  1.00  0.00     0.120 C 
HETATM   21  N4  UNL     1      27.033  26.464  23.008  1.00  0.00    -0.399 N 
ATOM     22  H4  UNL     1      27.555  26.766  23.831  1.00  0.00     0.158 HD
HETATM   23  C30 UNL     1      25.870  25.864  22.971  1.00  0.00     0.080 C 
HETATM   24  C31 UNL     1      25.088  25.456  22.528  1.00  0.00     0.016 C 
HETATM   25  C32 UNL     1      24.307  25.045  21.448  1.00  0.00     0.127 C 
HETATM   26  N5  UNL     1      23.493  23.984  21.430  1.00  0.00    -0.347 N 
ATOM     27  H5  UNL     1      23.969  23.085  21.499  1.00  0.00     0.163 HD
HETATM   28  C33 UNL     1      22.069  23.896  21.332  1.00  0.00     0.264 C 
HETATM   29  O4  UNL     1      21.516  22.894  21.948  1.00  0.00    -0.266 OA
HETATM   30  C34 UNL     1      25.117  24.678  19.076  1.00  0.00     0.232 C 
HETATM   31  O5  UNL     1      24.098  23.950  19.080  1.00  0.00    -0.272 OA
ENDROOT
BRANCH   1  32
HETATM   32  C10 UNL     1      20.204  23.811  19.855  1.00  0.00     0.063 C 
BRANCH  32  33
HETATM   33  C9  UNL     1      18.784  23.772  20.380  1.00  0.00     0.006 C 
BRANCH  33  34
HETATM   34  C8  UNL     1      17.793  24.155  19.296  1.00  0.00     0.000 C 
BRANCH  34  35
HETATM   35  C7  UNL     1      18.411  24.274  17.943  1.00  0.00     0.000 C 
BRANCH  35  36
HETATM   36  C6  UNL     1      17.682  25.211  17.030  1.00  0.00     0.005 C 
BRANCH  36  37
HETATM   37  C4  UNL     1      17.446  24.616  15.660  1.00  0.00    -0.009 C 
HETATM   38  C5  UNL     1      18.216  25.306  14.577  1.00  0.00     0.011 C 
BRANCH  37  39
HETATM   39  C3  UNL     1      17.747  23.135  15.637  1.00  0.00     0.086 C 
BRANCH  39  40
HETATM   40  S1  UNL     1      16.240  22.145  15.714  1.00  0.00    -0.093 SA
BRANCH  40  41
HETATM   41  C2  UNL     1      16.196  21.066  17.121  1.00  0.00     0.182 C 
HETATM   42  C1  UNL     1      17.367  20.708  17.952  1.00  0.00     0.104 C 
HETATM   43  O1  UNL     1      15.118  20.580  17.431  1.00  0.00    -0.286 OA
ENDBRANCH  40  41
ENDBRANCH  39  40
ENDBRANCH  37  39
ENDBRANCH  36  37
ENDBRANCH  35  36
ENDBRANCH  34  35
ENDBRANCH  33  34
ENDBRANCH  32  33
ENDBRANCH   1  32
BRANCH   4  44
HETATM   44  O2  UNL     1      21.591  27.970  19.106  1.00  0.00    -0.348 OA
ATOM     45  H2  UNL     1      21.193  28.379  18.346  1.00  0.00     0.219 HD
ENDBRANCH   4  44
BRANCH  10  46
HETATM   46  O3  UNL     1      23.421  28.177  17.559  1.00  0.00    -0.349 OA
ATOM     47  H3  UNL     1      24.328  28.372  17.763  1.00  0.00     0.219 HD
ENDBRANCH  10  46
BRANCH  13  48
HETATM   48  C20 UNL     1      26.965  26.882  16.728  1.00  0.00     0.050 C 
BRANCH  48  49
HETATM   49  C21 UNL     1      26.960  28.173  17.444  1.00  0.00    -0.019 C 
HETATM   50  C22 UNL     1      28.171  28.534  18.237  1.00  0.00     0.009 C 
HETATM   51  C23 UNL     1      26.803  29.287  16.382  1.00  0.00     0.009 C 
ENDBRANCH  48  49
ENDBRANCH  13  48
TORSDOF 13
ENDMDL
