MODEL 1
REMARK VINA RESULT: -9.236435076      0.000      0.000
REMARK  16 active torsions:
REMARK  status: ('A' for Active; 'I' for Inactive)
REMARK    1  A    between atoms: O1_1  and  C1_3 
REMARK    2  A    between atoms: C1_3  and  C2_4 
REMARK    3  A    between atoms: C1_3  and  N4_22 
REMARK    4  A    between atoms: C2_4  and  N1_5 
REMARK    5  A    between atoms: N1_5  and  C3_7 
REMARK    6  A    between atoms: C3_7  and  C4_8 
REMARK    7  A    between atoms: C4_8  and  C5_9 
REMARK    8  A    between atoms: C5_9  and  N2_10 
REMARK    9  A    between atoms: C8_14  and  N3_15 
REMARK   10  A    between atoms: N4_22  and  N5_24 
REMARK   11  A    between atoms: N5_24  and  C15_26 
REMARK   12  A    between atoms: C15_26  and  N6_28 
REMARK   13  A    between atoms: N6_28  and  N7_30 
REMARK   14  A    between atoms: N7_30  and  C16_31 
REMARK   15  A    between atoms: C16_31  and  C17_32 
REMARK   16  A    between atoms: C22_38  and  N8_39 
ROOT
HETATM    1  N4  UNL     1      13.817  23.411  16.787  1.00  0.00    -0.277 N 
ATOM      2  H4  UNL     1      13.234  24.208  16.532  1.00  0.00     0.189 HD
ENDROOT
BRANCH   1   3
HETATM    3  C1  UNL     1      14.452  23.264  18.039  1.00  0.00     0.170 C 
BRANCH   3   4
HETATM    4  O1  UNL     1      15.160  24.305  18.428  1.00  0.00    -0.344 OA
ATOM      5  H1  UNL     1      15.830  24.595  17.820  1.00  0.00     0.219 HD
ENDBRANCH   3   4
BRANCH   3   6
HETATM    6  C2  UNL     1      14.429  22.164  18.945  1.00  0.00     0.140 C 
BRANCH   6   7
HETATM    7  N1  UNL     1      15.603  21.456  19.212  1.00  0.00    -0.395 N 
ATOM      8  H1  UNL     1      16.184  21.694  20.016  1.00  0.00     0.159 HD
BRANCH   7   9
HETATM    9  C3  UNL     1      15.976  20.385  18.330  1.00  0.00     0.120 C 
BRANCH   9  10
HETATM   10  C4  UNL     1      17.249  20.870  17.595  1.00  0.00     0.040 C 
BRANCH  10  11
HETATM   11  C5  UNL     1      17.911  21.808  18.557  1.00  0.00     0.129 C 
BRANCH  11  12
HETATM   12  N2  UNL     1      18.605  22.922  17.962  1.00  0.00    -0.363 N 
HETATM   13  C6  UNL     1      19.380  23.851  18.588  1.00  0.00     0.112 A 
HETATM   14  C7  UNL     1      19.820  24.746  17.628  1.00  0.00     0.054 A 
HETATM   15 BR1  UNL     1      20.963  26.227  18.064  1.00  0.00    -0.047 Br
HETATM   16  C8  UNL     1      19.315  24.371  16.394  1.00  0.00     0.065 A 
HETATM   17  C14 UNL     1      18.571  23.229  16.681  1.00  0.00     0.121 A 
BRANCH  16  18
HETATM   18  N3  UNL     1      19.522  25.045  15.173  1.00  0.00    -0.379 N 
HETATM   19  C9  UNL     1      18.352  25.647  14.540  1.00  0.00     0.123 C 
HETATM   20  C10 UNL     1      18.713  26.648  13.493  1.00  0.00     0.020 C 
HETATM   21  C11 UNL     1      19.907  27.430  13.958  1.00  0.00     0.003 C 
HETATM   22  C12 UNL     1      21.119  26.607  14.249  1.00  0.00     0.020 C 
HETATM   23  C13 UNL     1      20.780  25.174  14.488  1.00  0.00     0.123 C 
ENDBRANCH  16  18
ENDBRANCH  11  12
ENDBRANCH  10  11
ENDBRANCH   9  10
ENDBRANCH   7   9
ENDBRANCH   6   7
ENDBRANCH   3   6
ENDBRANCH   1   3
BRANCH   1  24
HETATM   24  N5  UNL     1      14.087  22.312  15.923  1.00  0.00    -0.272 N 
ATOM     25  H5  UNL     1      15.050  22.194  15.609  1.00  0.00     0.189 HD
BRANCH  24  26
HETATM   26  C15 UNL     1      13.175  21.405  15.479  1.00  0.00     0.216 C 
HETATM   27  S1  UNL     1      12.113  21.861  14.304  1.00  0.00    -0.037 SA
BRANCH  26  28
HETATM   28  N6  UNL     1      13.091  20.047  15.986  1.00  0.00    -0.208 N 
ATOM     29  H6  UNL     1      13.936  19.479  15.941  1.00  0.00     0.204 HD
BRANCH  28  30
HETATM   30  N7  UNL     1      12.027  19.494  16.494  1.00  0.00    -0.335 NA
BRANCH  30  31
HETATM   31  C16 UNL     1      11.067  19.002  16.929  1.00  0.00     0.222 C 
BRANCH  31  32
HETATM   32  C17 UNL     1      10.776  17.553  16.811  1.00  0.00     0.022 A 
HETATM   33  C18 UNL     1      10.117  17.178  15.630  1.00  0.00     0.035 A 
HETATM   34  C19 UNL     1       9.796  15.867  15.457  1.00  0.00     0.011 A 
HETATM   35 BR2  UNL     1       8.904  15.281  13.887  1.00  0.00    -0.051 Br
HETATM   36  C20 UNL     1      10.116  14.910  16.438  1.00  0.00     0.021 A 
HETATM   37  C21 UNL     1      10.760  15.314  17.580  1.00  0.00     0.031 A 
HETATM   38  C22 UNL     1      11.097  16.698  17.758  1.00  0.00     0.043 A 
BRANCH  38  39
HETATM   39  N8  UNL     1      11.788  17.026  18.951  1.00  0.00    -0.380 N 
HETATM   40  C23 UNL     1      11.069  17.268  20.159  1.00  0.00     0.123 C 
HETATM   41  C24 UNL     1      12.043  17.258  21.349  1.00  0.00     0.020 C 
HETATM   42  C25 UNL     1      13.066  18.343  20.973  1.00  0.00     0.003 C 
HETATM   43  C26 UNL     1      13.967  17.725  19.951  1.00  0.00     0.020 C 
HETATM   44  C27 UNL     1      13.243  17.146  18.806  1.00  0.00     0.123 C 
ENDBRANCH  38  39
ENDBRANCH  31  32
ENDBRANCH  30  31
ENDBRANCH  28  30
ENDBRANCH  26  28
ENDBRANCH  24  26
ENDBRANCH   1  24
TORSDOF 16
ENDMDL
MODEL 2
REMARK VINA RESULT: -8.911494958      2.263      9.273
REMARK  16 active torsions:
REMARK  status: ('A' for Active; 'I' for Inactive)
REMARK    1  A    between atoms: O1_1  and  C1_3 
REMARK    2  A    between atoms: C1_3  and  C2_4 
REMARK    3  A    between atoms: C1_3  and  N4_22 
REMARK    4  A    between atoms: C2_4  and  N1_5 
REMARK    5  A    between atoms: N1_5  and  C3_7 
REMARK    6  A    between atoms: C3_7  and  C4_8 
REMARK    7  A    between atoms: C4_8  and  C5_9 
REMARK    8  A    between atoms: C5_9  and  N2_10 
REMARK    9  A    between atoms: C8_14  and  N3_15 
REMARK   10  A    between atoms: N4_22  and  N5_24 
REMARK   11  A    between atoms: N5_24  and  C15_26 
REMARK   12  A    between atoms: C15_26  and  N6_28 
REMARK   13  A    between atoms: N6_28  and  N7_30 
REMARK   14  A    between atoms: N7_30  and  C16_31 
REMARK   15  A    between atoms: C16_31  and  C17_32 
REMARK   16  A    between atoms: C22_38  and  N8_39 
ROOT
HETATM    1  N4  UNL     1      14.012  19.775  17.225  1.00  0.00    -0.277 N 
ATOM      2  H4  UNL     1      14.130  19.338  16.312  1.00  0.00     0.189 HD
ENDROOT
BRANCH   1   3
HETATM    3  C1  UNL     1      14.222  19.110  18.454  1.00  0.00     0.170 C 
BRANCH   3   4
HETATM    4  O1  UNL     1      14.848  17.955  18.359  1.00  0.00    -0.344 OA
ATOM      5  H1  UNL     1      14.438  17.312  17.793  1.00  0.00     0.219 HD
ENDBRANCH   3   4
BRANCH   3   6
HETATM    6  C2  UNL     1      13.868  19.510  19.775  1.00  0.00     0.140 C 
BRANCH   6   7
HETATM    7  N1  UNL     1      13.740  18.552  20.783  1.00  0.00    -0.395 N 
ATOM      8  H1  UNL     1      14.564  18.103  21.182  1.00  0.00     0.159 HD
BRANCH   7   9
HETATM    9  C3  UNL     1      12.423  18.211  21.246  1.00  0.00     0.120 C 
BRANCH   9  10
HETATM   10  C4  UNL     1      12.021  16.936  20.467  1.00  0.00     0.040 C 
BRANCH  10  11
HETATM   11  C5  UNL     1      10.680  17.253  19.882  1.00  0.00     0.129 C 
BRANCH  11  12
HETATM   12  N2  UNL     1      10.635  17.350  18.444  1.00  0.00    -0.363 N 
HETATM   13  C6  UNL     1      10.595  16.332  17.541  1.00  0.00     0.112 A 
HETATM   14  C7  UNL     1      10.588  16.893  16.275  1.00  0.00     0.054 A 
HETATM   15 BR1  UNL     1      10.522  15.817  14.685  1.00  0.00    -0.047 Br
HETATM   16  C8  UNL     1      10.624  18.272  16.392  1.00  0.00     0.065 A 
HETATM   17  C14 UNL     1      10.650  18.482  17.769  1.00  0.00     0.121 A 
BRANCH  16  18
HETATM   18  N3  UNL     1      10.650  19.195  15.325  1.00  0.00    -0.379 N 
HETATM   19  C9  UNL     1       9.639  20.249  15.335  1.00  0.00     0.123 C 
HETATM   20  C10 UNL     1       9.974  21.378  14.418  1.00  0.00     0.020 C 
HETATM   21  C11 UNL     1      11.452  21.636  14.482  1.00  0.00     0.003 C 
HETATM   22  C12 UNL     1      12.307  20.468  14.112  1.00  0.00     0.020 C 
HETATM   23  C13 UNL     1      11.571  19.176  14.221  1.00  0.00     0.123 C 
ENDBRANCH  16  18
ENDBRANCH  11  12
ENDBRANCH  10  11
ENDBRANCH   9  10
ENDBRANCH   7   9
ENDBRANCH   6   7
ENDBRANCH   3   6
ENDBRANCH   1   3
BRANCH   1  24
HETATM   24  N5  UNL     1      13.617  21.130  17.417  1.00  0.00    -0.272 N 
ATOM     25  H5  UNL     1      12.674  21.293  17.770  1.00  0.00     0.189 HD
BRANCH  24  26
HETATM   26  C15 UNL     1      14.386  22.225  17.173  1.00  0.00     0.216 C 
HETATM   27  S1  UNL     1      15.222  22.304  15.755  1.00  0.00    -0.037 SA
BRANCH  26  28
HETATM   28  N6  UNL     1      14.505  23.337  18.099  1.00  0.00    -0.208 N 
ATOM     29  H6  UNL     1      13.732  23.491  18.746  1.00  0.00     0.204 HD
BRANCH  28  30
HETATM   30  N7  UNL     1      15.516  24.154  18.174  1.00  0.00    -0.335 NA
BRANCH  30  31
HETATM   31  C16 UNL     1      16.433  24.869  18.235  1.00  0.00     0.222 C 
BRANCH  31  32
HETATM   32  C17 UNL     1      17.601  24.766  17.329  1.00  0.00     0.022 A 
HETATM   33  C18 UNL     1      17.458  25.436  16.104  1.00  0.00     0.035 A 
HETATM   34  C19 UNL     1      18.480  25.371  15.208  1.00  0.00     0.011 A 
HETATM   35 BR2  UNL     1      18.362  26.249  13.529  1.00  0.00    -0.051 Br
HETATM   36  C20 UNL     1      19.652  24.648  15.501  1.00  0.00     0.021 A 
HETATM   37  C21 UNL     1      19.756  24.006  16.709  1.00  0.00     0.031 A 
HETATM   38  C22 UNL     1      18.675  24.078  17.652  1.00  0.00     0.043 A 
BRANCH  38  39
HETATM   39  N8  UNL     1      18.876  23.412  18.886  1.00  0.00    -0.380 N 
HETATM   40  C23 UNL     1      18.443  22.065  19.059  1.00  0.00     0.123 C 
HETATM   41  C24 UNL     1      19.074  21.480  20.333  1.00  0.00     0.020 C 
HETATM   42  C25 UNL     1      18.617  22.455  21.431  1.00  0.00     0.003 C 
HETATM   43  C26 UNL     1      19.485  23.666  21.295  1.00  0.00     0.020 C 
HETATM   44  C27 UNL     1      19.488  24.235  19.936  1.00  0.00     0.123 C 
ENDBRANCH  38  39
ENDBRANCH  31  32
ENDBRANCH  30  31
ENDBRANCH  28  30
ENDBRANCH  26  28
ENDBRANCH  24  26
ENDBRANCH   1  24
TORSDOF 16
ENDMDL
MODEL 3
REMARK VINA RESULT: -8.822571072      3.236      5.975
REMARK  16 active torsions:
REMARK  status: ('A' for Active; 'I' for Inactive)
REMARK    1  A    between atoms: O1_1  and  C1_3 
REMARK    2  A    between atoms: C1_3  and  C2_4 
REMARK    3  A    between atoms: C1_3  and  N4_22 
REMARK    4  A    between atoms: C2_4  and  N1_5 
REMARK    5  A    between atoms: N1_5  and  C3_7 
REMARK    6  A    between atoms: C3_7  and  C4_8 
REMARK    7  A    between atoms: C4_8  and  C5_9 
REMARK    8  A    between atoms: C5_9  and  N2_10 
REMARK    9  A    between atoms: C8_14  and  N3_15 
REMARK   10  A    between atoms: N4_22  and  N5_24 
REMARK   11  A    between atoms: N5_24  and  C15_26 
REMARK   12  A    between atoms: C15_26  and  N6_28 
REMARK   13  A    between atoms: N6_28  and  N7_30 
REMARK   14  A    between atoms: N7_30  and  C16_31 
REMARK   15  A    between atoms: C16_31  and  C17_32 
REMARK   16  A    between atoms: C22_38  and  N8_39 
ROOT
HETATM    1  N4  UNL     1      17.392  24.622  19.533  1.00  0.00    -0.277 N 
ATOM      2  H4  UNL     1      17.305  25.353  20.239  1.00  0.00     0.189 HD
ENDROOT
BRANCH   1   3
HETATM    3  C1  UNL     1      16.610  24.559  18.359  1.00  0.00     0.170 C 
BRANCH   3   4
HETATM    4  O1  UNL     1      15.314  24.705  18.547  1.00  0.00    -0.344 OA
ATOM      5  H1  UNL     1      14.761  24.422  17.828  1.00  0.00     0.219 HD
ENDBRANCH   3   4
BRANCH   3   6
HETATM    6  C2  UNL     1      17.017  24.376  17.006  1.00  0.00     0.140 C 
BRANCH   6   7
HETATM    7  N1  UNL     1      16.854  25.412  16.082  1.00  0.00    -0.395 N 
ATOM      8  H1  UNL     1      16.211  26.181  16.271  1.00  0.00     0.159 HD
BRANCH   7   9
HETATM    9  C3  UNL     1      17.610  25.370  14.862  1.00  0.00     0.120 C 
BRANCH   9  10
HETATM   10  C4  UNL     1      19.046  24.963  15.272  1.00  0.00     0.040 C 
BRANCH  10  11
HETATM   11  C5  UNL     1      19.765  26.260  15.483  1.00  0.00     0.129 C 
BRANCH  11  12
HETATM   12  N2  UNL     1      20.677  26.292  16.599  1.00  0.00    -0.363 N 
HETATM   13  C6  UNL     1      21.916  26.852  16.646  1.00  0.00     0.112 A 
HETATM   14  C7  UNL     1      22.435  26.619  17.909  1.00  0.00     0.054 A 
HETATM   15 BR1  UNL     1      24.174  27.250  18.428  1.00  0.00    -0.047 Br
HETATM   16  C8  UNL     1      21.510  25.907  18.653  1.00  0.00     0.065 A 
HETATM   17  C14 UNL     1      20.442  25.742  17.774  1.00  0.00     0.121 A 
BRANCH  16  18
HETATM   18  N3  UNL     1      21.679  25.461  19.981  1.00  0.00    -0.379 N 
HETATM   19  C9  UNL     1      22.308  24.156  20.167  1.00  0.00     0.123 C 
HETATM   20  C10 UNL     1      22.795  23.945  21.562  1.00  0.00     0.020 C 
HETATM   21  C11 UNL     1      23.371  25.232  22.078  1.00  0.00     0.003 C 
HETATM   22  C12 UNL     1      22.419  26.384  22.088  1.00  0.00     0.020 C 
HETATM   23  C13 UNL     1      21.269  26.170  21.163  1.00  0.00     0.123 C 
ENDBRANCH  16  18
ENDBRANCH  11  12
ENDBRANCH  10  11
ENDBRANCH   9  10
ENDBRANCH   7   9
ENDBRANCH   6   7
ENDBRANCH   3   6
ENDBRANCH   1   3
BRANCH   1  24
HETATM   24  N5  UNL     1      18.316  23.542  19.613  1.00  0.00    -0.272 N 
ATOM     25  H5  UNL     1      19.224  23.675  19.170  1.00  0.00     0.189 HD
BRANCH  24  26
HETATM   26  C15 UNL     1      18.094  22.348  20.228  1.00  0.00     0.216 C 
HETATM   27  S1  UNL     1      19.346  21.616  21.009  1.00  0.00    -0.037 SA
BRANCH  26  28
HETATM   28  N6  UNL     1      16.802  21.685  20.235  1.00  0.00    -0.208 N 
ATOM     29  H6  UNL     1      16.306  21.639  21.124  1.00  0.00     0.204 HD
BRANCH  28  30
HETATM   30  N7  UNL     1      16.225  21.143  19.201  1.00  0.00    -0.335 NA
BRANCH  30  31
HETATM   31  C16 UNL     1      15.692  20.671  18.280  1.00  0.00     0.222 C 
BRANCH  31  32
HETATM   32  C17 UNL     1      14.345  20.058  18.352  1.00  0.00     0.022 A 
HETATM   33  C18 UNL     1      14.101  19.302  19.509  1.00  0.00     0.035 A 
HETATM   34  C19 UNL     1      12.894  18.689  19.639  1.00  0.00     0.011 A 
HETATM   35 BR2  UNL     1      12.489  17.648  21.175  1.00  0.00    -0.051 Br
HETATM   36  C20 UNL     1      11.911  18.809  18.638  1.00  0.00     0.021 A 
HETATM   37  C21 UNL     1      12.185  19.556  17.520  1.00  0.00     0.031 A 
HETATM   38  C22 UNL     1      13.461  20.202  17.388  1.00  0.00     0.043 A 
BRANCH  38  39
HETATM   39  N8  UNL     1      13.651  20.978  16.218  1.00  0.00    -0.380 N 
HETATM   40  C23 UNL     1      13.707  22.401  16.297  1.00  0.00     0.123 C 
HETATM   41  C24 UNL     1      14.254  22.969  14.977  1.00  0.00     0.020 C 
HETATM   42  C25 UNL     1      13.278  22.415  13.926  1.00  0.00     0.003 C 
HETATM   43  C26 UNL     1      13.661  20.983  13.720  1.00  0.00     0.020 C 
HETATM   44  C27 UNL     1      13.715  20.207  14.971  1.00  0.00     0.123 C 
ENDBRANCH  38  39
ENDBRANCH  31  32
ENDBRANCH  30  31
ENDBRANCH  28  30
ENDBRANCH  26  28
ENDBRANCH  24  26
ENDBRANCH   1  24
TORSDOF 16
ENDMDL
MODEL 4
REMARK VINA RESULT: -8.742920680      2.911     11.729
REMARK  16 active torsions:
REMARK  status: ('A' for Active; 'I' for Inactive)
REMARK    1  A    between atoms: O1_1  and  C1_3 
REMARK    2  A    between atoms: C1_3  and  C2_4 
REMARK    3  A    between atoms: C1_3  and  N4_22 
REMARK    4  A    between atoms: C2_4  and  N1_5 
REMARK    5  A    between atoms: N1_5  and  C3_7 
REMARK    6  A    between atoms: C3_7  and  C4_8 
REMARK    7  A    between atoms: C4_8  and  C5_9 
REMARK    8  A    between atoms: C5_9  and  N2_10 
REMARK    9  A    between atoms: C8_14  and  N3_15 
REMARK   10  A    between atoms: N4_22  and  N5_24 
REMARK   11  A    between atoms: N5_24  and  C15_26 
REMARK   12  A    between atoms: C15_26  and  N6_28 
REMARK   13  A    between atoms: N6_28  and  N7_30 
REMARK   14  A    between atoms: N7_30  and  C16_31 
REMARK   15  A    between atoms: C16_31  and  C17_32 
REMARK   16  A    between atoms: C22_38  and  N8_39 
ROOT
HETATM    1  N4  UNL     1      17.842  24.910  18.689  1.00  0.00    -0.277 N 
ATOM      2  H4  UNL     1      18.156  25.694  18.117  1.00  0.00     0.189 HD
ENDROOT
BRANCH   1   3
HETATM    3  C1  UNL     1      16.694  24.137  18.409  1.00  0.00     0.170 C 
BRANCH   3   4
HETATM    4  O1  UNL     1      15.547  24.760  18.591  1.00  0.00    -0.344 OA
ATOM      5  H1  UNL     1      15.033  24.462  19.332  1.00  0.00     0.219 HD
ENDBRANCH   3   4
BRANCH   3   6
HETATM    6  C2  UNL     1      16.596  22.792  17.948  1.00  0.00     0.140 C 
BRANCH   6   7
HETATM    7  N1  UNL     1      17.000  22.469  16.649  1.00  0.00    -0.395 N 
ATOM      8  H1  UNL     1      17.802  21.859  16.491  1.00  0.00     0.159 HD
BRANCH   7   9
HETATM    9  C3  UNL     1      16.264  23.015  15.543  1.00  0.00     0.120 C 
BRANCH   9  10
HETATM   10  C4  UNL     1      15.474  21.829  14.939  1.00  0.00     0.040 C 
BRANCH  10  11
HETATM   11  C5  UNL     1      14.047  22.095  15.305  1.00  0.00     0.129 C 
BRANCH  11  12
HETATM   12  N2  UNL     1      13.378  21.033  16.014  1.00  0.00    -0.363 N 
HETATM   13  C6  UNL     1      12.162  20.485  15.740  1.00  0.00     0.112 A 
HETATM   14  C7  UNL     1      11.913  19.516  16.697  1.00  0.00     0.054 A 
HETATM   15 BR1  UNL     1      10.302  18.468  16.690  1.00  0.00    -0.047 Br
HETATM   16  C8  UNL     1      12.982  19.462  17.575  1.00  0.00     0.065 A 
HETATM   17  C14 UNL     1      13.854  20.431  17.086  1.00  0.00     0.121 A 
BRANCH  16  18
HETATM   18  N3  UNL     1      13.092  18.614  18.697  1.00  0.00    -0.379 N 
HETATM   19  C9  UNL     1      13.778  19.152  19.869  1.00  0.00     0.123 C 
HETATM   20  C10 UNL     1      13.509  18.363  21.107  1.00  0.00     0.020 C 
HETATM   21  C11 UNL     1      12.072  17.929  21.106  1.00  0.00     0.003 C 
HETATM   22  C12 UNL     1      11.670  17.099  19.931  1.00  0.00     0.020 C 
HETATM   23  C13 UNL     1      12.605  17.264  18.781  1.00  0.00     0.123 C 
ENDBRANCH  16  18
ENDBRANCH  11  12
ENDBRANCH  10  11
ENDBRANCH   9  10
ENDBRANCH   7   9
ENDBRANCH   6   7
ENDBRANCH   3   6
ENDBRANCH   1   3
BRANCH   1  24
HETATM   24  N5  UNL     1      18.508  24.463  19.865  1.00  0.00    -0.272 N 
ATOM     25  H5  UNL     1      18.051  24.650  20.757  1.00  0.00     0.189 HD
BRANCH  24  26
HETATM   26  C15 UNL     1      19.700  23.808  19.904  1.00  0.00     0.216 C 
HETATM   27  S1  UNL     1      19.762  22.319  20.607  1.00  0.00    -0.037 SA
BRANCH  26  28
HETATM   28  N6  UNL     1      20.927  24.354  19.352  1.00  0.00    -0.208 N 
ATOM     29  H6  UNL     1      21.763  23.774  19.410  1.00  0.00     0.204 HD
BRANCH  28  30
HETATM   30  N7  UNL     1      21.048  25.521  18.788  1.00  0.00    -0.335 NA
BRANCH  30  31
HETATM   31  C16 UNL     1      21.177  26.563  18.285  1.00  0.00     0.222 C 
BRANCH  31  32
HETATM   32  C17 UNL     1      22.344  26.914  17.441  1.00  0.00     0.022 A 
HETATM   33  C18 UNL     1      23.541  27.120  18.145  1.00  0.00     0.035 A 
HETATM   34  C19 UNL     1      24.653  27.467  17.442  1.00  0.00     0.011 A 
HETATM   35 BR2  UNL     1      26.309  27.764  18.322  1.00  0.00    -0.051 Br
HETATM   36  C20 UNL     1      24.606  27.616  16.043  1.00  0.00     0.021 A 
HETATM   37  C21 UNL     1      23.418  27.405  15.389  1.00  0.00     0.031 A 
HETATM   38  C22 UNL     1      22.248  27.039  16.135  1.00  0.00     0.043 A 
BRANCH  38  39
HETATM   39  N8  UNL     1      21.071  26.811  15.379  1.00  0.00    -0.380 N 
HETATM   40  C23 UNL     1      20.479  25.515  15.337  1.00  0.00     0.123 C 
HETATM   41  C24 UNL     1      19.061  25.614  14.751  1.00  0.00     0.020 C 
HETATM   42  C25 UNL     1      19.294  26.266  13.378  1.00  0.00     0.003 C 
HETATM   43  C26 UNL     1      19.520  27.721  13.645  1.00  0.00     0.020 C 
HETATM   44  C27 UNL     1      20.586  27.977  14.630  1.00  0.00     0.123 C 
ENDBRANCH  38  39
ENDBRANCH  31  32
ENDBRANCH  30  31
ENDBRANCH  28  30
ENDBRANCH  26  28
ENDBRANCH  24  26
ENDBRANCH   1  24
TORSDOF 16
ENDMDL
MODEL 5
REMARK VINA RESULT: -8.670143434      2.234      9.823
REMARK  16 active torsions:
REMARK  status: ('A' for Active; 'I' for Inactive)
REMARK    1  A    between atoms: O1_1  and  C1_3 
REMARK    2  A    between atoms: C1_3  and  C2_4 
REMARK    3  A    between atoms: C1_3  and  N4_22 
REMARK    4  A    between atoms: C2_4  and  N1_5 
REMARK    5  A    between atoms: N1_5  and  C3_7 
REMARK    6  A    between atoms: C3_7  and  C4_8 
REMARK    7  A    between atoms: C4_8  and  C5_9 
REMARK    8  A    between atoms: C5_9  and  N2_10 
REMARK    9  A    between atoms: C8_14  and  N3_15 
REMARK   10  A    between atoms: N4_22  and  N5_24 
REMARK   11  A    between atoms: N5_24  and  C15_26 
REMARK   12  A    between atoms: C15_26  and  N6_28 
REMARK   13  A    between atoms: N6_28  and  N7_30 
REMARK   14  A    between atoms: N7_30  and  C16_31 
REMARK   15  A    between atoms: C16_31  and  C17_32 
REMARK   16  A    between atoms: C22_38  and  N8_39 
ROOT
HETATM    1  N4  UNL     1      14.324  20.528  16.355  1.00  0.00    -0.277 N 
ATOM      2  H4  UNL     1      14.575  19.597  16.686  1.00  0.00     0.189 HD
ENDROOT
BRANCH   1   3
HETATM    3  C1  UNL     1      14.488  20.965  15.022  1.00  0.00     0.170 C 
BRANCH   3   4
HETATM    4  O1  UNL     1      15.673  21.472  14.747  1.00  0.00    -0.344 OA
ATOM      5  H1  UNL     1      16.343  21.327  15.405  1.00  0.00     0.219 HD
ENDBRANCH   3   4
BRANCH   3   6
HETATM    6  C2  UNL     1      13.569  20.926  13.934  1.00  0.00     0.140 C 
BRANCH   6   7
HETATM    7  N1  UNL     1      12.592  21.918  13.811  1.00  0.00    -0.395 N 
ATOM      8  H1  UNL     1      12.765  22.752  13.250  1.00  0.00     0.159 HD
BRANCH   7   9
HETATM    9  C3  UNL     1      11.339  21.738  14.491  1.00  0.00     0.120 C 
BRANCH   9  10
HETATM   10  C4  UNL     1      10.912  20.279  14.202  1.00  0.00     0.040 C 
BRANCH  10  11
HETATM   11  C5  UNL     1       9.937  19.945  15.290  1.00  0.00     0.129 C 
BRANCH  11  12
HETATM   12  N2  UNL     1      10.317  18.854  16.153  1.00  0.00    -0.363 N 
HETATM   13  C6  UNL     1       9.892  17.562  16.099  1.00  0.00     0.112 A 
HETATM   14  C7  UNL     1      10.498  16.877  17.137  1.00  0.00     0.054 A 
HETATM   15 BR1  UNL     1      10.194  15.003  17.437  1.00  0.00    -0.047 Br
HETATM   16  C8  UNL     1      11.308  17.750  17.843  1.00  0.00     0.065 A 
HETATM   17  C14 UNL     1      11.146  18.959  17.172  1.00  0.00     0.121 A 
BRANCH  16  18
HETATM   18  N3  UNL     1      12.076  17.432  18.983  1.00  0.00    -0.379 N 
HETATM   19  C9  UNL     1      13.528  17.471  18.837  1.00  0.00     0.123 C 
HETATM   20  C10 UNL     1      14.239  17.510  20.148  1.00  0.00     0.020 C 
HETATM   21  C11 UNL     1      13.471  18.389  21.093  1.00  0.00     0.003 C 
HETATM   22  C12 UNL     1      12.063  17.957  21.342  1.00  0.00     0.020 C 
HETATM   23  C13 UNL     1      11.553  17.055  20.269  1.00  0.00     0.123 C 
ENDBRANCH  16  18
ENDBRANCH  11  12
ENDBRANCH  10  11
ENDBRANCH   9  10
ENDBRANCH   7   9
ENDBRANCH   6   7
ENDBRANCH   3   6
ENDBRANCH   1   3
BRANCH   1  24
HETATM   24  N5  UNL     1      13.765  21.544  17.181  1.00  0.00    -0.272 N 
ATOM     25  H5  UNL     1      12.790  21.792  17.016  1.00  0.00     0.189 HD
BRANCH  24  26
HETATM   26  C15 UNL     1      14.417  22.213  18.171  1.00  0.00     0.216 C 
HETATM   27  S1  UNL     1      15.092  21.348  19.399  1.00  0.00    -0.037 SA
BRANCH  26  28
HETATM   28  N6  UNL     1      14.553  23.658  18.198  1.00  0.00    -0.208 N 
ATOM     29  H6  UNL     1      13.700  24.210  18.110  1.00  0.00     0.204 HD
BRANCH  28  30
HETATM   30  N7  UNL     1      15.673  24.310  18.324  1.00  0.00    -0.335 NA
BRANCH  30  31
HETATM   31  C16 UNL     1      16.667  24.908  18.428  1.00  0.00     0.222 C 
BRANCH  31  32
HETATM   32  C17 UNL     1      17.766  24.827  17.438  1.00  0.00     0.022 A 
HETATM   33  C18 UNL     1      17.499  25.448  16.207  1.00  0.00     0.035 A 
HETATM   34  C19 UNL     1      18.452  25.399  15.237  1.00  0.00     0.011 A 
HETATM   35 BR2  UNL     1      18.166  26.213  13.546  1.00  0.00    -0.051 Br
HETATM   36  C20 UNL     1      19.677  24.741  15.461  1.00  0.00     0.021 A 
HETATM   37  C21 UNL     1      19.902  24.146  16.677  1.00  0.00     0.031 A 
HETATM   38  C22 UNL     1      18.894  24.201  17.697  1.00  0.00     0.043 A 
BRANCH  38  39
HETATM   39  N8  UNL     1      19.219  23.587  18.932  1.00  0.00    -0.380 N 
HETATM   40  C23 UNL     1      20.104  24.230  19.847  1.00  0.00     0.123 C 
HETATM   41  C24 UNL     1      20.018  23.540  21.219  1.00  0.00     0.020 C 
HETATM   42  C25 UNL     1      20.366  22.077  20.898  1.00  0.00     0.003 C 
HETATM   43  C26 UNL     1      19.138  21.486  20.281  1.00  0.00     0.020 C 
HETATM   44  C27 UNL     1      18.630  22.259  19.133  1.00  0.00     0.123 C 
ENDBRANCH  38  39
ENDBRANCH  31  32
ENDBRANCH  30  31
ENDBRANCH  28  30
ENDBRANCH  26  28
ENDBRANCH  24  26
ENDBRANCH   1  24
TORSDOF 16
ENDMDL
