MODEL 1
REMARK VINA RESULT: -8.287348958      0.000      0.000
REMARK  11 active torsions:
REMARK  status: ('A' for Active; 'I' for Inactive)
REMARK    1  A    between atoms: C2_2  and  C4_4 
REMARK    2  A    between atoms: C4_4  and  C5_5 
REMARK    3  A    between atoms: C7_10  and  C8_11 
REMARK    4  A    between atoms: C8_11  and  C9_12 
REMARK    5  A    between atoms: C8_11  and  C16_21 
REMARK    6  A    between atoms: C9_12  and  C10_13 
REMARK    7  A    between atoms: C10_13  and  C11_14 
REMARK       I    between atoms: C16_21  and  N3_23 
REMARK    8  A    between atoms: N3_23  and  C17_25 
REMARK    9  A    between atoms: C17_25  and  C18_26 
REMARK   10  A    between atoms: C24_35  and  C25_36 
REMARK   11  A    between atoms: C25_36  and  C26_37 
ROOT
HETATM    1  C5  UNL     1      18.867  24.222  19.174  1.00  0.00     0.177 C 
HETATM    2  N1  UNL     1      20.033  23.386  19.138  1.00  0.00    -0.343 N 
ATOM      3  H1  UNL     1      19.949  22.549  18.562  1.00  0.00     0.163 HD
HETATM    4  C6  UNL     1      21.267  23.549  19.777  1.00  0.00     0.265 C 
HETATM    5  O1  UNL     1      21.627  22.562  20.502  1.00  0.00    -0.266 OA
HETATM    6  C7  UNL     1      22.192  24.690  19.726  1.00  0.00     0.093 C 
HETATM    7  N4  UNL     1      21.595  25.988  19.682  1.00  0.00    -0.325 N 
ATOM      8  H4  UNL     1      21.093  26.287  20.518  1.00  0.00     0.168 HD
HETATM    9  C22 UNL     1      21.625  26.904  18.599  1.00  0.00     0.224 C 
HETATM   10  O3  UNL     1      20.944  27.993  18.684  1.00  0.00    -0.273 OA
HETATM   11  C23 UNL     1      22.357  26.777  17.341  1.00  0.00     0.135 C 
HETATM   12  C24 UNL     1      21.478  27.249  16.188  1.00  0.00     0.141 C 
HETATM   13  O4  UNL     1      21.293  26.281  15.218  1.00  0.00    -0.314 OA
HETATM   14  C27 UNL     1      20.308  25.370  15.029  1.00  0.00     0.277 C 
HETATM   15  O5  UNL     1      19.479  25.323  14.079  1.00  0.00    -0.263 OA
HETATM   16  C28 UNL     1      20.150  24.276  16.041  1.00  0.00     0.233 C 
HETATM   17  N5  UNL     1      18.822  24.263  16.582  1.00  0.00    -0.350 N 
ATOM     18  H5  UNL     1      18.101  23.932  15.940  1.00  0.00     0.163 HD
HETATM   19  C29 UNL     1      18.361  24.627  17.839  1.00  0.00     0.240 C 
HETATM   20  O6  UNL     1      17.355  25.429  17.889  1.00  0.00    -0.271 OA
ENDROOT
BRANCH   6  21
HETATM   21  C8  UNL     1      23.416  24.595  20.574  1.00  0.00     0.133 C 
BRANCH  21  22
HETATM   22  C9  UNL     1      24.716  24.408  19.937  1.00  0.00     0.021 C 
BRANCH  22  23
HETATM   23  C10 UNL     1      25.151  23.019  19.577  1.00  0.00     0.006 C 
BRANCH  23  24
HETATM   24  C11 UNL     1      26.613  22.744  19.724  1.00  0.00    -0.012 C 
HETATM   25  C12 UNL     1      26.858  21.232  19.856  1.00  0.00     0.020 C 
HETATM   26  C13 UNL     1      28.182  21.043  20.546  1.00  0.00     0.103 C 
HETATM   27  N2  UNL     1      28.017  21.363  21.957  1.00  0.00    -0.250 NA
HETATM   28 BR1  UNL     1      27.470  19.822  22.894  1.00  0.00     0.012 Br
HETATM   29  C14 UNL     1      27.048  22.418  22.168  1.00  0.00     0.103 C 
HETATM   30  C15 UNL     1      27.081  23.401  21.015  1.00  0.00     0.020 C 
ENDBRANCH  23  24
ENDBRANCH  22  23
ENDBRANCH  21  22
BRANCH  21  31
HETATM   31  C16 UNL     1      23.472  25.758  21.529  1.00  0.00     0.227 C 
HETATM   32  O2  UNL     1      23.916  26.843  21.080  1.00  0.00    -0.273 OA
HETATM   33  N3  UNL     1      23.059  25.678  22.860  1.00  0.00    -0.360 N 
ATOM     34  H3  UNL     1      22.718  24.757  23.139  1.00  0.00     0.162 HD
BRANCH  33  35
HETATM   35  C17 UNL     1      23.028  26.645  23.892  1.00  0.00     0.131 C 
BRANCH  35  36
HETATM   36  C18 UNL     1      24.185  26.775  24.811  1.00  0.00    -0.035 C 
HETATM   37  C19 UNL     1      23.778  27.156  26.220  1.00  0.00     0.016 C 
HETATM   38  C20 UNL     1      25.373  27.505  24.321  1.00  0.00     0.016 C 
HETATM   39  C21 UNL     1      24.711  25.299  25.010  1.00  0.00     0.016 C 
ENDBRANCH  35  36
ENDBRANCH  33  35
ENDBRANCH  21  31
ENDBRANCH   6  21
BRANCH   1  40
HETATM   40  C4  UNL     1      17.790  23.740  20.087  1.00  0.00     0.038 C 
BRANCH  40  41
HETATM   41  C2  UNL     1      17.617  22.316  20.346  1.00  0.00    -0.020 C 
HETATM   42  C1  UNL     1      18.522  21.671  21.334  1.00  0.00     0.009 C 
HETATM   43  C3  UNL     1      17.582  21.437  19.109  1.00  0.00     0.009 C 
ENDBRANCH  40  41
ENDBRANCH   1  40
BRANCH  12  44
HETATM   44  C25 UNL     1      22.260  28.389  15.513  1.00  0.00     0.048 C 
BRANCH  44  45
HETATM   45  C26 UNL     1      23.712  27.999  15.334  1.00  0.00     0.117 C 
HETATM   46 CL1  UNL     1      24.708  29.279  16.089  1.00  0.00    -0.130 Cl
ENDBRANCH  44  45
ENDBRANCH  12  44
TORSDOF 11
ENDMDL
MODEL 2
REMARK VINA RESULT: -8.264972896      2.647      3.279
REMARK  11 active torsions:
REMARK  status: ('A' for Active; 'I' for Inactive)
REMARK    1  A    between atoms: C2_2  and  C4_4 
REMARK    2  A    between atoms: C4_4  and  C5_5 
REMARK    3  A    between atoms: C7_10  and  C8_11 
REMARK    4  A    between atoms: C8_11  and  C9_12 
REMARK    5  A    between atoms: C8_11  and  C16_21 
REMARK    6  A    between atoms: C9_12  and  C10_13 
REMARK    7  A    between atoms: C10_13  and  C11_14 
REMARK       I    between atoms: C16_21  and  N3_23 
REMARK    8  A    between atoms: N3_23  and  C17_25 
REMARK    9  A    between atoms: C17_25  and  C18_26 
REMARK   10  A    between atoms: C24_35  and  C25_36 
REMARK   11  A    between atoms: C25_36  and  C26_37 
ROOT
HETATM    1  C5  UNL     1      18.923  24.179  19.338  1.00  0.00     0.177 C 
HETATM    2  N1  UNL     1      20.117  23.382  19.310  1.00  0.00    -0.343 N 
ATOM      3  H1  UNL     1      20.055  22.527  18.759  1.00  0.00     0.163 HD
HETATM    4  C6  UNL     1      21.352  23.606  19.928  1.00  0.00     0.265 C 
HETATM    5  O1  UNL     1      21.754  22.653  20.676  1.00  0.00    -0.266 OA
HETATM    6  C7  UNL     1      22.236  24.777  19.833  1.00  0.00     0.093 C 
HETATM    7  N4  UNL     1      21.593  26.051  19.761  1.00  0.00    -0.325 N 
ATOM      8  H4  UNL     1      21.092  26.357  20.594  1.00  0.00     0.168 HD
HETATM    9  C22 UNL     1      21.579  26.936  18.651  1.00  0.00     0.224 C 
HETATM   10  O3  UNL     1      20.862  28.003  18.715  1.00  0.00    -0.273 OA
HETATM   11  C23 UNL     1      22.299  26.798  17.388  1.00  0.00     0.135 C 
HETATM   12  C24 UNL     1      21.391  27.207  16.234  1.00  0.00     0.141 C 
HETATM   13  O4  UNL     1      21.228  26.206  15.294  1.00  0.00    -0.314 OA
HETATM   14  C27 UNL     1      20.273  25.256  15.143  1.00  0.00     0.277 C 
HETATM   15  O5  UNL     1      19.435  25.154  14.206  1.00  0.00    -0.263 OA
HETATM   16  C28 UNL     1      20.165  24.186  16.188  1.00  0.00     0.233 C 
HETATM   17  N5  UNL     1      18.845  24.143  16.747  1.00  0.00    -0.350 N 
ATOM     18  H5  UNL     1      18.128  23.770  16.124  1.00  0.00     0.163 HD
HETATM   19  C29 UNL     1      18.387  24.528  17.999  1.00  0.00     0.240 C 
HETATM   20  O6  UNL     1      17.355  25.295  18.039  1.00  0.00    -0.271 OA
ENDROOT
BRANCH   6  21
HETATM   21  C8  UNL     1      23.472  24.748  20.668  1.00  0.00     0.133 C 
BRANCH  21  22
HETATM   22  C9  UNL     1      24.775  24.661  20.015  1.00  0.00     0.021 C 
BRANCH  22  23
HETATM   23  C10 UNL     1      24.950  25.289  18.665  1.00  0.00     0.006 C 
BRANCH  23  24
HETATM   24  C11 UNL     1      26.202  26.087  18.483  1.00  0.00    -0.012 C 
HETATM   25  C12 UNL     1      25.859  27.573  18.287  1.00  0.00     0.020 C 
HETATM   26  C13 UNL     1      27.014  28.216  17.568  1.00  0.00     0.103 C 
HETATM   27  N2  UNL     1      26.980  27.797  16.173  1.00  0.00    -0.250 NA
HETATM   28 BR1  UNL     1      25.893  28.978  15.186  1.00  0.00     0.012 Br
HETATM   29  C14 UNL     1      26.480  26.447  16.021  1.00  0.00     0.103 C 
HETATM   30  C15 UNL     1      26.881  25.600  17.211  1.00  0.00     0.020 C 
ENDBRANCH  23  24
ENDBRANCH  22  23
ENDBRANCH  21  22
BRANCH  21  31
HETATM   31  C16 UNL     1      23.460  25.894  21.645  1.00  0.00     0.227 C 
HETATM   32  O2  UNL     1      23.786  27.023  21.202  1.00  0.00    -0.273 OA
HETATM   33  N3  UNL     1      23.110  25.752  22.989  1.00  0.00    -0.360 N 
ATOM     34  H3  UNL     1      22.866  24.799  23.260  1.00  0.00     0.162 HD
BRANCH  33  35
HETATM   35  C17 UNL     1      23.032  26.694  24.042  1.00  0.00     0.131 C 
BRANCH  35  36
HETATM   36  C18 UNL     1      24.168  26.834  24.985  1.00  0.00    -0.035 C 
HETATM   37  C19 UNL     1      23.724  27.166  26.395  1.00  0.00     0.016 C 
HETATM   38  C20 UNL     1      25.342  27.612  24.537  1.00  0.00     0.016 C 
HETATM   39  C21 UNL     1      24.735  25.370  25.157  1.00  0.00     0.016 C 
ENDBRANCH  35  36
ENDBRANCH  33  35
ENDBRANCH  21  31
ENDBRANCH   6  21
BRANCH   1  40
HETATM   40  C4  UNL     1      17.874  23.686  20.278  1.00  0.00     0.038 C 
BRANCH  40  41
HETATM   41  C2  UNL     1      17.701  22.258  20.516  1.00  0.00    -0.020 C 
HETATM   42  C1  UNL     1      18.659  21.581  21.429  1.00  0.00     0.009 C 
HETATM   43  C3  UNL     1      17.575  21.409  19.265  1.00  0.00     0.009 C 
ENDBRANCH  40  41
ENDBRANCH   1  40
BRANCH  12  44
HETATM   44  C25 UNL     1      22.125  28.353  15.517  1.00  0.00     0.048 C 
BRANCH  44  45
HETATM   45  C26 UNL     1      22.034  28.180  14.016  1.00  0.00     0.117 C 
HETATM   46 CL1  UNL     1      20.321  28.409  13.552  1.00  0.00    -0.130 Cl
ENDBRANCH  44  45
ENDBRANCH  12  44
TORSDOF 11
ENDMDL
MODEL 3
REMARK VINA RESULT: -8.162957558      4.315      9.156
REMARK  11 active torsions:
REMARK  status: ('A' for Active; 'I' for Inactive)
REMARK    1  A    between atoms: C2_2  and  C4_4 
REMARK    2  A    between atoms: C4_4  and  C5_5 
REMARK    3  A    between atoms: C7_10  and  C8_11 
REMARK    4  A    between atoms: C8_11  and  C9_12 
REMARK    5  A    between atoms: C8_11  and  C16_21 
REMARK    6  A    between atoms: C9_12  and  C10_13 
REMARK    7  A    between atoms: C10_13  and  C11_14 
REMARK       I    between atoms: C16_21  and  N3_23 
REMARK    8  A    between atoms: N3_23  and  C17_25 
REMARK    9  A    between atoms: C17_25  and  C18_26 
REMARK   10  A    between atoms: C24_35  and  C25_36 
REMARK   11  A    between atoms: C25_36  and  C26_37 
ROOT
HETATM    1  C5  UNL     1      21.277  24.599  19.866  1.00  0.00     0.177 C 
HETATM    2  N1  UNL     1      19.994  25.166  20.172  1.00  0.00    -0.343 N 
ATOM      3  H1  UNL     1      20.019  26.075  20.633  1.00  0.00     0.163 HD
HETATM    4  C6  UNL     1      18.714  24.653  19.932  1.00  0.00     0.265 C 
HETATM    5  O1  UNL     1      17.972  24.566  20.968  1.00  0.00    -0.266 OA
HETATM    6  C7  UNL     1      18.117  24.209  18.665  1.00  0.00     0.093 C 
HETATM    7  N4  UNL     1      18.990  23.532  17.757  1.00  0.00    -0.325 N 
ATOM      8  H4  UNL     1      19.330  22.616  18.049  1.00  0.00     0.168 HD
HETATM    9  C22 UNL     1      19.434  24.001  16.493  1.00  0.00     0.224 C 
HETATM   10  O3  UNL     1      20.306  23.312  15.845  1.00  0.00    -0.273 OA
HETATM   11  C23 UNL     1      19.019  25.214  15.793  1.00  0.00     0.135 C 
HETATM   12  C24 UNL     1      20.234  25.879  15.158  1.00  0.00     0.141 C 
HETATM   13  O4  UNL     1      20.420  27.183  15.580  1.00  0.00    -0.314 OA
HETATM   14  C27 UNL     1      21.185  27.711  16.567  1.00  0.00     0.277 C 
HETATM   15  O5  UNL     1      22.185  28.469  16.438  1.00  0.00    -0.263 OA
HETATM   16  C28 UNL     1      20.837  27.381  17.987  1.00  0.00     0.233 C 
HETATM   17  N5  UNL     1      21.955  26.796  18.669  1.00  0.00    -0.350 N 
ATOM     18  H5  UNL     1      22.714  27.445  18.882  1.00  0.00     0.163 HD
HETATM   19  C29 UNL     1      22.170  25.490  19.084  1.00  0.00     0.240 C 
HETATM   20  O6  UNL     1      23.291  24.946  18.762  1.00  0.00    -0.271 OA
ENDROOT
BRANCH   6  21
HETATM   21  C8  UNL     1      16.737  23.648  18.739  1.00  0.00     0.133 C 
BRANCH  21  22
HETATM   22  C9  UNL     1      15.846  23.784  17.590  1.00  0.00     0.021 C 
BRANCH  22  23
HETATM   23  C10 UNL     1      15.811  22.686  16.570  1.00  0.00     0.006 C 
BRANCH  23  24
HETATM   24  C11 UNL     1      14.991  22.966  15.351  1.00  0.00    -0.012 C 
HETATM   25  C12 UNL     1      13.494  22.915  15.695  1.00  0.00     0.020 C 
HETATM   26  C13 UNL     1      12.743  22.634  14.421  1.00  0.00     0.103 C 
HETATM   27  N2  UNL     1      12.935  21.233  14.071  1.00  0.00    -0.250 NA
HETATM   28 BR1  UNL     1      11.616  20.184  14.913  1.00  0.00     0.012 Br
HETATM   29  C14 UNL     1      14.245  20.750  14.454  1.00  0.00     0.103 C 
HETATM   30  C15 UNL     1      15.270  21.860  14.341  1.00  0.00     0.020 C 
ENDBRANCH  23  24
ENDBRANCH  22  23
ENDBRANCH  21  22
BRANCH  21  31
HETATM   31  C16 UNL     1      16.789  22.210  19.184  1.00  0.00     0.227 C 
HETATM   32  O2  UNL     1      17.925  21.723  19.406  1.00  0.00    -0.273 OA
HETATM   33  N3  UNL     1      15.653  21.418  19.355  1.00  0.00    -0.360 N 
ATOM     34  H3  UNL     1      14.775  21.894  19.147  1.00  0.00     0.162 HD
BRANCH  33  35
HETATM   35  C17 UNL     1      15.500  20.073  19.767  1.00  0.00     0.131 C 
BRANCH  35  36
HETATM   36  C18 UNL     1      14.276  19.325  19.391  1.00  0.00    -0.035 C 
HETATM   37  C19 UNL     1      13.430  20.056  18.368  1.00  0.00     0.016 C 
HETATM   38  C20 UNL     1      13.487  18.707  20.477  1.00  0.00     0.016 C 
HETATM   39  C21 UNL     1      14.797  18.087  18.559  1.00  0.00     0.016 C 
ENDBRANCH  35  36
ENDBRANCH  33  35
ENDBRANCH  21  31
ENDBRANCH   6  21
BRANCH   1  40
HETATM   40  C4  UNL     1      21.961  23.957  21.026  1.00  0.00     0.038 C 
BRANCH  40  41
HETATM   41  C2  UNL     1      23.033  24.649  21.733  1.00  0.00    -0.020 C 
HETATM   42  C1  UNL     1      23.966  23.836  22.555  1.00  0.00     0.009 C 
HETATM   43  C3  UNL     1      22.589  25.833  22.572  1.00  0.00     0.009 C 
ENDBRANCH  40  41
ENDBRANCH   1  40
BRANCH  12  44
HETATM   44  C25 UNL     1      19.923  25.956  13.653  1.00  0.00     0.048 C 
BRANCH  44  45
HETATM   45  C26 UNL     1      19.081  27.178  13.351  1.00  0.00     0.117 C 
HETATM   46 CL1  UNL     1      20.065  28.265  12.325  1.00  0.00    -0.130 Cl
ENDBRANCH  44  45
ENDBRANCH  12  44
TORSDOF 11
ENDMDL
MODEL 4
REMARK VINA RESULT: -8.139405145      1.915      2.316
REMARK  11 active torsions:
REMARK  status: ('A' for Active; 'I' for Inactive)
REMARK    1  A    between atoms: C2_2  and  C4_4 
REMARK    2  A    between atoms: C4_4  and  C5_5 
REMARK    3  A    between atoms: C7_10  and  C8_11 
REMARK    4  A    between atoms: C8_11  and  C9_12 
REMARK    5  A    between atoms: C8_11  and  C16_21 
REMARK    6  A    between atoms: C9_12  and  C10_13 
REMARK    7  A    between atoms: C10_13  and  C11_14 
REMARK       I    between atoms: C16_21  and  N3_23 
REMARK    8  A    between atoms: N3_23  and  C17_25 
REMARK    9  A    between atoms: C17_25  and  C18_26 
REMARK   10  A    between atoms: C24_35  and  C25_36 
REMARK   11  A    between atoms: C25_36  and  C26_37 
ROOT
HETATM    1  C5  UNL     1      18.417  24.392  18.486  1.00  0.00     0.177 C 
HETATM    2  N1  UNL     1      19.491  23.463  18.696  1.00  0.00    -0.343 N 
ATOM      3  H1  UNL     1      19.463  22.629  18.111  1.00  0.00     0.163 HD
HETATM    4  C6  UNL     1      20.569  23.534  19.585  1.00  0.00     0.265 C 
HETATM    5  O1  UNL     1      20.683  22.529  20.365  1.00  0.00    -0.266 OA
HETATM    6  C7  UNL     1      21.574  24.595  19.739  1.00  0.00     0.093 C 
HETATM    7  N4  UNL     1      21.109  25.936  19.575  1.00  0.00    -0.325 N 
ATOM      8  H4  UNL     1      20.467  26.286  20.286  1.00  0.00     0.168 HD
HETATM    9  C22 UNL     1      21.445  26.833  18.527  1.00  0.00     0.224 C 
HETATM   10  O3  UNL     1      20.853  27.974  18.471  1.00  0.00    -0.273 OA
HETATM   11  C23 UNL     1      22.415  26.631  17.454  1.00  0.00     0.135 C 
HETATM   12  C24 UNL     1      21.845  27.158  16.143  1.00  0.00     0.141 C 
HETATM   13  O4  UNL     1      21.792  26.197  15.150  1.00  0.00    -0.314 OA
HETATM   14  C27 UNL     1      20.798  25.367  14.751  1.00  0.00     0.277 C 
HETATM   15  O5  UNL     1      20.190  25.376  13.645  1.00  0.00    -0.263 OA
HETATM   16  C28 UNL     1      20.338  24.301  15.700  1.00  0.00     0.233 C 
HETATM   17  N5  UNL     1      18.929  24.403  15.945  1.00  0.00    -0.350 N 
ATOM     18  H5  UNL     1      18.337  24.125  15.162  1.00  0.00     0.163 HD
HETATM   19  C29 UNL     1      18.242  24.820  17.076  1.00  0.00     0.240 C 
HETATM   20  O6  UNL     1      17.318  25.701  16.914  1.00  0.00    -0.271 OA
ENDROOT
BRANCH   6  21
HETATM   21  C8  UNL     1      22.577  24.411  20.828  1.00  0.00     0.133 C 
BRANCH  21  22
HETATM   22  C9  UNL     1      24.000  24.434  20.503  1.00  0.00     0.021 C 
BRANCH  22  23
HETATM   23  C10 UNL     1      24.588  23.279  19.751  1.00  0.00     0.006 C 
BRANCH  23  24
HETATM   24  C11 UNL     1      26.034  23.412  19.393  1.00  0.00    -0.012 C 
HETATM   25  C12 UNL     1      26.813  24.041  20.559  1.00  0.00     0.020 C 
HETATM   26  C13 UNL     1      28.060  24.664  19.992  1.00  0.00     0.103 C 
HETATM   27  N2  UNL     1      27.689  25.886  19.291  1.00  0.00    -0.250 NA
HETATM   28 BR1  UNL     1      27.689  27.331  20.500  1.00  0.00     0.012 Br
HETATM   29  C14 UNL     1      26.385  25.783  18.670  1.00  0.00     0.103 C 
HETATM   30  C15 UNL     1      26.132  24.363  18.208  1.00  0.00     0.020 C 
ENDBRANCH  23  24
ENDBRANCH  22  23
ENDBRANCH  21  22
BRANCH  21  31
HETATM   31  C16 UNL     1      22.290  25.364  21.958  1.00  0.00     0.227 C 
HETATM   32  O2  UNL     1      21.093  25.705  22.125  1.00  0.00    -0.273 OA
HETATM   33  N3  UNL     1      23.277  25.870  22.805  1.00  0.00    -0.360 N 
ATOM     34  H3  UNL     1      24.220  25.543  22.591  1.00  0.00     0.162 HD
BRANCH  33  35
HETATM   35  C17 UNL     1      23.204  26.753  23.907  1.00  0.00     0.131 C 
BRANCH  35  36
HETATM   36  C18 UNL     1      24.182  26.626  25.015  1.00  0.00    -0.035 C 
HETATM   37  C19 UNL     1      24.850  25.267  25.057  1.00  0.00     0.016 C 
HETATM   38  C20 UNL     1      23.783  27.130  26.346  1.00  0.00     0.016 C 
HETATM   39  C21 UNL     1      25.383  27.568  24.606  1.00  0.00     0.016 C 
ENDBRANCH  35  36
ENDBRANCH  33  35
ENDBRANCH  21  31
ENDBRANCH   6  21
BRANCH   1  40
HETATM   40  C4  UNL     1      17.134  24.011  19.145  1.00  0.00     0.038 C 
BRANCH  40  41
HETATM   41  C2  UNL     1      16.345  22.891  18.644  1.00  0.00    -0.020 C 
HETATM   42  C1  UNL     1      14.930  23.147  18.267  1.00  0.00     0.009 C 
HETATM   43  C3  UNL     1      16.376  21.646  19.510  1.00  0.00     0.009 C 
ENDBRANCH  40  41
ENDBRANCH   1  40
BRANCH  12  44
HETATM   44  C25 UNL     1      22.844  28.223  15.657  1.00  0.00     0.048 C 
BRANCH  44  45
HETATM   45  C26 UNL     1      24.134  28.133  16.443  1.00  0.00     0.117 C 
HETATM   46 CL1  UNL     1      25.320  27.256  15.428  1.00  0.00    -0.130 Cl
ENDBRANCH  44  45
ENDBRANCH  12  44
TORSDOF 11
ENDMDL
MODEL 5
REMARK VINA RESULT: -7.949167573     11.557     15.801
REMARK  11 active torsions:
REMARK  status: ('A' for Active; 'I' for Inactive)
REMARK    1  A    between atoms: C2_2  and  C4_4 
REMARK    2  A    between atoms: C4_4  and  C5_5 
REMARK    3  A    between atoms: C7_10  and  C8_11 
REMARK    4  A    between atoms: C8_11  and  C9_12 
REMARK    5  A    between atoms: C8_11  and  C16_21 
REMARK    6  A    between atoms: C9_12  and  C10_13 
REMARK    7  A    between atoms: C10_13  and  C11_14 
REMARK       I    between atoms: C16_21  and  N3_23 
REMARK    8  A    between atoms: N3_23  and  C17_25 
REMARK    9  A    between atoms: C17_25  and  C18_26 
REMARK   10  A    between atoms: C24_35  and  C25_36 
REMARK   11  A    between atoms: C25_36  and  C26_37 
ROOT
HETATM    1  C5  UNL     1      10.373  14.893  12.613  1.00  0.00     0.177 C 
HETATM    2  N1  UNL     1       9.881  16.242  12.584  1.00  0.00    -0.343 N 
ATOM      3  H1  UNL     1       9.059  16.392  11.999  1.00  0.00     0.163 HD
HETATM    4  C6  UNL     1      10.364  17.380  13.238  1.00  0.00     0.265 C 
HETATM    5  O1  UNL     1      10.629  18.365  12.469  1.00  0.00    -0.266 OA
HETATM    6  C7  UNL     1      10.603  17.593  14.673  1.00  0.00     0.093 C 
HETATM    7  N4  UNL     1      11.110  16.473  15.402  1.00  0.00    -0.325 N 
ATOM      8  H4  UNL     1      12.057  16.171  15.174  1.00  0.00     0.168 HD
HETATM    9  C22 UNL     1      10.435  15.737  16.410  1.00  0.00     0.224 C 
HETATM   10  O3  UNL     1      10.997  14.686  16.895  1.00  0.00    -0.273 OA
HETATM   11  C23 UNL     1       9.130  16.019  17.001  1.00  0.00     0.135 C 
HETATM   12  C24 UNL     1       8.354  14.718  17.172  1.00  0.00     0.141 C 
HETATM   13  O4  UNL     1       7.134  14.726  16.520  1.00  0.00    -0.314 OA
HETATM   14  C27 UNL     1       6.765  14.283  15.294  1.00  0.00     0.277 C 
HETATM   15  O5  UNL     1       5.982  13.329  15.027  1.00  0.00    -0.263 OA
HETATM   16  C28 UNL     1       7.327  14.976  14.089  1.00  0.00     0.233 C 
HETATM   17  N5  UNL     1       8.000  14.048  13.229  1.00  0.00    -0.350 N 
ATOM     18  H5  UNL     1       7.386  13.412  12.720  1.00  0.00     0.163 HD
HETATM   19  C29 UNL     1       9.354  13.877  12.976  1.00  0.00     0.240 C 
HETATM   20  O6  UNL     1       9.824  12.682  13.062  1.00  0.00    -0.271 OA
ENDROOT
BRANCH   6  21
HETATM   21  C8  UNL     1      11.187  18.909  15.064  1.00  0.00     0.133 C 
BRANCH  21  22
HETATM   22  C9  UNL     1      10.698  20.127  14.426  1.00  0.00     0.021 C 
BRANCH  22  23
HETATM   23  C10 UNL     1      11.340  21.435  14.781  1.00  0.00     0.006 C 
BRANCH  23  24
HETATM   24  C11 UNL     1      12.582  21.771  14.019  1.00  0.00    -0.012 C 
HETATM   25  C12 UNL     1      13.695  20.764  14.350  1.00  0.00     0.020 C 
HETATM   26  C13 UNL     1      15.013  21.425  14.048  1.00  0.00     0.103 C 
HETATM   27  N2  UNL     1      15.287  22.406  15.089  1.00  0.00    -0.250 NA
HETATM   28 BR1  UNL     1      16.195  21.574  16.516  1.00  0.00     0.012 Br
HETATM   29  C14 UNL     1      14.077  23.024  15.589  1.00  0.00     0.103 C 
HETATM   30  C15 UNL     1      13.051  23.144  14.480  1.00  0.00     0.020 C 
ENDBRANCH  23  24
ENDBRANCH  22  23
ENDBRANCH  21  22
BRANCH  21  31
HETATM   31  C16 UNL     1      11.153  19.061  16.562  1.00  0.00     0.227 C 
HETATM   32  O2  UNL     1      10.023  19.173  17.097  1.00  0.00    -0.273 OA
HETATM   33  N3  UNL     1      12.300  19.083  17.357  1.00  0.00    -0.360 N 
ATOM     34  H3  UNL     1      13.173  18.993  16.836  1.00  0.00     0.162 HD
BRANCH  33  35
HETATM   35  C17 UNL     1      12.469  19.208  18.756  1.00  0.00     0.131 C 
BRANCH  35  36
HETATM   36  C18 UNL     1      12.722  17.998  19.575  1.00  0.00    -0.035 C 
HETATM   37  C19 UNL     1      11.527  17.069  19.637  1.00  0.00     0.016 C 
HETATM   38  C20 UNL     1      13.399  18.178  20.877  1.00  0.00     0.016 C 
HETATM   39  C21 UNL     1      13.754  17.148  18.734  1.00  0.00     0.016 C 
ENDBRANCH  35  36
ENDBRANCH  33  35
ENDBRANCH  21  31
ENDBRANCH   6  21
BRANCH   1  40
HETATM   40  C4  UNL     1      11.187  14.507  11.424  1.00  0.00     0.038 C 
BRANCH  40  41
HETATM   41  C2  UNL     1      12.202  15.409  10.894  1.00  0.00    -0.020 C 
HETATM   42  C1  UNL     1      12.838  15.060   9.597  1.00  0.00     0.009 C 
HETATM   43  C3  UNL     1      13.307  15.777  11.867  1.00  0.00     0.009 C 
ENDBRANCH  40  41
ENDBRANCH   1  40
BRANCH  12  44
HETATM   44  C25 UNL     1       8.035  14.622  18.675  1.00  0.00     0.048 C 
BRANCH  44  45
HETATM   45  C26 UNL     1       6.613  14.146  18.883  1.00  0.00     0.117 C 
HETATM   46 CL1  UNL     1       5.836  15.271  20.039  1.00  0.00    -0.130 Cl
ENDBRANCH  44  45
ENDBRANCH  12  44
TORSDOF 11
ENDMDL
