MODEL 1
REMARK VINA RESULT: -9.568813620      0.000      0.000
REMARK  2 active torsions:
REMARK  status: ('A' for Active; 'I' for Inactive)
REMARK    1  A    between atoms: C10_11  and  C11_12 
REMARK    2  A    between atoms: C12_13  and  C13_14 
ROOT
HETATM    1  N1  UNL     1       3.731   3.652  22.999  1.00  0.00    -0.102 NA
HETATM    2  C1  UNL     1       3.154   3.326  21.732  1.00  0.00     0.047 A 
HETATM    3  C2  UNL     1       3.751   3.738  20.557  1.00  0.00     0.029 A 
HETATM    4  C3  UNL     1       3.218   3.439  19.325  1.00  0.00     0.039 A 
HETATM    5  C4  UNL     1       2.038   2.698  19.219  1.00  0.00     0.080 A 
HETATM    6  C5  UNL     1       1.432   2.279  20.393  1.00  0.00     0.010 A 
HETATM    7  C6  UNL     1       1.990   2.595  21.615  1.00  0.00     0.041 A 
HETATM    8  C7  UNL     1       0.203   1.507  20.266  1.00  0.00    -0.015 A 
HETATM    9  C8  UNL     1      -0.458   1.057  21.378  1.00  0.00     0.014 A 
HETATM   10  C9  UNL     1      -1.641   0.315  21.234  1.00  0.00     0.021 A 
HETATM   11  C10 UNL     1      -2.167   0.020  20.001  1.00  0.00     0.018 A 
HETATM   12  C19 UNL     1      -1.498   0.475  18.891  1.00  0.00     0.030 A 
HETATM   13  C20 UNL     1      -0.316   1.218  19.007  1.00  0.00    -0.021 A 
HETATM   14  C21 UNL     1       0.320   1.657  17.767  1.00  0.00     0.215 A 
HETATM   15  O1  UNL     1       1.480   2.381  18.013  1.00  0.00    -0.346 OA
ENDROOT
BRANCH  11  16
HETATM   16  C11 UNL     1      -3.378  -0.742  19.906  1.00  0.00    -0.061 C 
HETATM   17  C12 UNL     1      -4.389  -1.397  19.833  1.00  0.00    -0.061 C 
BRANCH  17  18
HETATM   18  C13 UNL     1      -5.587  -2.175  19.737  1.00  0.00     0.018 A 
HETATM   19  C14 UNL     1      -6.421  -2.154  18.610  1.00  0.00     0.020 A 
HETATM   20  C15 UNL     1      -7.564  -2.921  18.569  1.00  0.00     0.001 A 
HETATM   21  C16 UNL     1      -7.914  -3.722  19.619  1.00  0.00     0.000 A 
HETATM   22  C17 UNL     1      -7.124  -3.770  20.737  1.00  0.00     0.001 A 
HETATM   23  C18 UNL     1      -5.959  -2.989  20.784  1.00  0.00     0.020 A 
ENDBRANCH  17  18
ENDBRANCH  11  16
TORSDOF 2
ENDMDL
MODEL 2
REMARK VINA RESULT: -9.208841238      2.178      2.888
REMARK  2 active torsions:
REMARK  status: ('A' for Active; 'I' for Inactive)
REMARK    1  A    between atoms: C10_11  and  C11_12 
REMARK    2  A    between atoms: C12_13  and  C13_14 
ROOT
HETATM    1  N1  UNL     1       3.699   4.373  22.156  1.00  0.00    -0.102 NA
HETATM    2  C1  UNL     1       3.396   3.046  21.717  1.00  0.00     0.047 A 
HETATM    3  C2  UNL     1       4.319   2.028  21.854  1.00  0.00     0.029 A 
HETATM    4  C3  UNL     1       4.055   0.744  21.441  1.00  0.00     0.039 A 
HETATM    5  C4  UNL     1       2.825   0.421  20.859  1.00  0.00     0.080 A 
HETATM    6  C5  UNL     1       1.893   1.436  20.717  1.00  0.00     0.010 A 
HETATM    7  C6  UNL     1       2.187   2.715  21.141  1.00  0.00     0.041 A 
HETATM    8  C7  UNL     1       0.616   1.083  20.109  1.00  0.00    -0.015 A 
HETATM    9  C8  UNL     1      -0.359   2.028  19.932  1.00  0.00     0.014 A 
HETATM   10  C9  UNL     1      -1.582   1.668  19.345  1.00  0.00     0.021 A 
HETATM   11  C10 UNL     1      -1.840   0.384  18.934  1.00  0.00     0.018 A 
HETATM   12  C19 UNL     1      -0.856  -0.558  19.115  1.00  0.00     0.030 A 
HETATM   13  C20 UNL     1       0.373  -0.225  19.699  1.00  0.00    -0.021 A 
HETATM   14  C21 UNL     1       1.354  -1.298  19.847  1.00  0.00     0.215 A 
HETATM   15  O1  UNL     1       2.527  -0.844  20.437  1.00  0.00    -0.346 OA
ENDROOT
BRANCH  11  16
HETATM   16  C11 UNL     1      -3.104   0.066  18.339  1.00  0.00    -0.061 C 
HETATM   17  C12 UNL     1      -4.161  -0.200  17.821  1.00  0.00    -0.061 C 
BRANCH  17  18
HETATM   18  C13 UNL     1      -5.420  -0.507  17.209  1.00  0.00     0.018 A 
HETATM   19  C14 UNL     1      -6.477  -1.110  17.904  1.00  0.00     0.020 A 
HETATM   20  C15 UNL     1      -7.667  -1.384  17.268  1.00  0.00     0.001 A 
HETATM   21  C16 UNL     1      -7.850  -1.077  15.949  1.00  0.00     0.000 A 
HETATM   22  C17 UNL     1      -6.839  -0.488  15.237  1.00  0.00     0.001 A 
HETATM   23  C18 UNL     1      -5.624  -0.206  15.881  1.00  0.00     0.020 A 
ENDBRANCH  17  18
ENDBRANCH  11  16
TORSDOF 2
ENDMDL
MODEL 3
REMARK VINA RESULT: -9.088313479      3.553      9.189
REMARK  2 active torsions:
REMARK  status: ('A' for Active; 'I' for Inactive)
REMARK    1  A    between atoms: C10_11  and  C11_12 
REMARK    2  A    between atoms: C12_13  and  C13_14 
ROOT
HETATM    1  N1  UNL     1      -7.756  -4.528  21.036  1.00  0.00    -0.102 NA
HETATM    2  C1  UNL     1      -7.296  -3.598  20.053  1.00  0.00     0.047 A 
HETATM    3  C2  UNL     1      -8.006  -3.394  18.886  1.00  0.00     0.029 A 
HETATM    4  C3  UNL     1      -7.587  -2.507  17.923  1.00  0.00     0.039 A 
HETATM    5  C4  UNL     1      -6.412  -1.769  18.095  1.00  0.00     0.080 A 
HETATM    6  C5  UNL     1      -5.693  -1.966  19.263  1.00  0.00     0.010 A 
HETATM    7  C6  UNL     1      -6.138  -2.865  20.211  1.00  0.00     0.041 A 
HETATM    8  C7  UNL     1      -4.470  -1.191  19.428  1.00  0.00    -0.015 A 
HETATM    9  C8  UNL     1      -3.702  -1.328  20.554  1.00  0.00     0.014 A 
HETATM   10  C9  UNL     1      -2.528  -0.571  20.693  1.00  0.00     0.021 A 
HETATM   11  C10 UNL     1      -2.115   0.314  19.728  1.00  0.00     0.018 A 
HETATM   12  C19 UNL     1      -2.892   0.445  18.602  1.00  0.00     0.030 A 
HETATM   13  C20 UNL     1      -4.068  -0.298  18.438  1.00  0.00    -0.021 A 
HETATM   14  C21 UNL     1      -4.824  -0.088  17.205  1.00  0.00     0.215 A 
HETATM   15  O1  UNL     1      -5.965  -0.879  17.161  1.00  0.00    -0.346 OA
ENDROOT
BRANCH  11  16
HETATM   16  C11 UNL     1      -0.908   1.064  19.917  1.00  0.00    -0.061 C 
HETATM   17  C12 UNL     1       0.113   1.684  20.090  1.00  0.00    -0.061 C 
BRANCH  17  18
HETATM   18  C13 UNL     1       1.319   2.427  20.298  1.00  0.00     0.018 A 
HETATM   19  C14 UNL     1       2.285   2.607  19.300  1.00  0.00     0.020 A 
HETATM   20  C15 UNL     1       3.429   3.332  19.553  1.00  0.00     0.001 A 
HETATM   21  C16 UNL     1       3.651   3.893  20.778  1.00  0.00     0.000 A 
HETATM   22  C17 UNL     1       2.729   3.739  21.780  1.00  0.00     0.001 A 
HETATM   23  C18 UNL     1       1.563   3.001  21.527  1.00  0.00     0.020 A 
ENDBRANCH  17  18
ENDBRANCH  11  16
TORSDOF 2
ENDMDL
MODEL 4
REMARK VINA RESULT: -9.015103400      3.772      9.413
REMARK  2 active torsions:
REMARK  status: ('A' for Active; 'I' for Inactive)
REMARK    1  A    between atoms: C10_11  and  C11_12 
REMARK    2  A    between atoms: C12_13  and  C13_14 
ROOT
HETATM    1  N1  UNL     1      -8.477  -1.922  16.284  1.00  0.00    -0.102 NA
HETATM    2  C1  UNL     1      -7.658  -2.191  17.425  1.00  0.00     0.047 A 
HETATM    3  C2  UNL     1      -8.006  -3.177  18.327  1.00  0.00     0.029 A 
HETATM    4  C3  UNL     1      -7.238  -3.458  19.432  1.00  0.00     0.039 A 
HETATM    5  C4  UNL     1      -6.063  -2.744  19.684  1.00  0.00     0.080 A 
HETATM    6  C5  UNL     1      -5.705  -1.752  18.784  1.00  0.00     0.010 A 
HETATM    7  C6  UNL     1      -6.497  -1.493  17.684  1.00  0.00     0.041 A 
HETATM    8  C7  UNL     1      -4.478  -1.017  19.060  1.00  0.00    -0.015 A 
HETATM    9  C8  UNL     1      -4.056  -0.021  18.220  1.00  0.00     0.014 A 
HETATM   10  C9  UNL     1      -2.870   0.675  18.504  1.00  0.00     0.021 A 
HETATM   11  C10 UNL     1      -2.108   0.391  19.609  1.00  0.00     0.018 A 
HETATM   12  C19 UNL     1      -2.539  -0.610  20.447  1.00  0.00     0.030 A 
HETATM   13  C20 UNL     1      -3.718  -1.320  20.187  1.00  0.00    -0.021 A 
HETATM   14  C21 UNL     1      -4.091  -2.365  21.138  1.00  0.00     0.215 A 
HETATM   15  O1  UNL     1      -5.274  -2.995  20.771  1.00  0.00    -0.346 OA
ENDROOT
BRANCH  11  16
HETATM   16  C11 UNL     1      -0.905   1.130  19.856  1.00  0.00    -0.061 C 
HETATM   17  C12 UNL     1       0.116   1.743  20.051  1.00  0.00    -0.061 C 
BRANCH  17  18
HETATM   18  C13 UNL     1       1.329   2.466  20.291  1.00  0.00     0.018 A 
HETATM   19  C14 UNL     1       2.323   2.632  19.316  1.00  0.00     0.020 A 
HETATM   20  C15 UNL     1       3.472   3.336  19.599  1.00  0.00     0.001 A 
HETATM   21  C16 UNL     1       3.673   3.891  20.831  1.00  0.00     0.000 A 
HETATM   22  C17 UNL     1       2.725   3.751  21.809  1.00  0.00     0.001 A 
HETATM   23  C18 UNL     1       1.552   3.033  21.526  1.00  0.00     0.020 A 
ENDBRANCH  17  18
ENDBRANCH  11  16
TORSDOF 2
ENDMDL
MODEL 5
REMARK VINA RESULT: -8.926765439      1.665      2.710
REMARK  2 active torsions:
REMARK  status: ('A' for Active; 'I' for Inactive)
REMARK    1  A    between atoms: C10_11  and  C11_12 
REMARK    2  A    between atoms: C12_13  and  C13_14 
ROOT
HETATM    1  N1  UNL     1       4.463   3.668  18.865  1.00  0.00    -0.102 NA
HETATM    2  C1  UNL     1       3.485   3.227  19.810  1.00  0.00     0.047 A 
HETATM    3  C2  UNL     1       3.687   3.395  21.166  1.00  0.00     0.029 A 
HETATM    4  C3  UNL     1       2.764   2.981  22.097  1.00  0.00     0.039 A 
HETATM    5  C4  UNL     1       1.573   2.368  21.698  1.00  0.00     0.080 A 
HETATM    6  C5  UNL     1       1.361   2.196  20.339  1.00  0.00     0.010 A 
HETATM    7  C6  UNL     1       2.306   2.621  19.428  1.00  0.00     0.041 A 
HETATM    8  C7  UNL     1       0.115   1.556  19.938  1.00  0.00    -0.015 A 
HETATM    9  C8  UNL     1      -0.170   1.348  18.614  1.00  0.00     0.014 A 
HETATM   10  C9  UNL     1      -1.376   0.730  18.249  1.00  0.00     0.021 A 
HETATM   11  C10 UNL     1      -2.293   0.319  19.184  1.00  0.00     0.018 A 
HETATM   12  C19 UNL     1      -1.999   0.531  20.510  1.00  0.00     0.030 A 
HETATM   13  C20 UNL     1      -0.803   1.145  20.901  1.00  0.00    -0.021 A 
HETATM   14  C21 UNL     1      -0.584   1.325  22.334  1.00  0.00     0.215 A 
HETATM   15  O1  UNL     1       0.633   1.944  22.594  1.00  0.00    -0.346 OA
ENDROOT
BRANCH  11  16
HETATM   16  C11 UNL     1      -3.511  -0.309  18.761  1.00  0.00    -0.061 C 
HETATM   17  C12 UNL     1      -4.544  -0.820  18.403  1.00  0.00    -0.061 C 
BRANCH  17  18
HETATM   18  C13 UNL     1      -5.771  -1.430  17.987  1.00  0.00     0.018 A 
HETATM   19  C14 UNL     1      -6.469  -2.354  18.777  1.00  0.00     0.020 A 
HETATM   20  C15 UNL     1      -7.645  -2.912  18.328  1.00  0.00     0.001 A 
HETATM   21  C16 UNL     1      -8.163  -2.582  17.108  1.00  0.00     0.000 A 
HETATM   22  C17 UNL     1      -7.510  -1.682  16.308  1.00  0.00     0.001 A 
HETATM   23  C18 UNL     1      -6.310  -1.111  16.760  1.00  0.00     0.020 A 
ENDBRANCH  17  18
ENDBRANCH  11  16
TORSDOF 2
ENDMDL
