MODEL 1
REMARK VINA RESULT: -7.492895240      0.000      0.000
REMARK  0 active torsions:
REMARK  status: ('A' for Active; 'I' for Inactive)
ROOT
HETATM    1  O1  UNL     1      -5.297  -1.377  22.824  1.00  0.00    -0.200 OA
HETATM    2  S1  UNL     1      -5.304  -1.484  21.309  1.00  0.00     0.264 S 
HETATM    3  O2  UNL     1      -6.166  -2.700  21.004  1.00  0.00    -0.200 OA
HETATM    4  N1  UNL     1      -3.696  -1.713  20.809  1.00  0.00    -0.280 N 
ATOM      5  H1  UNL     1      -3.261  -2.491  21.304  1.00  0.00     0.179 HD
HETATM    6  C1  UNL     1      -2.802  -1.122  19.901  1.00  0.00     0.053 A 
HETATM    7  C2  UNL     1      -1.524  -1.347  20.372  1.00  0.00     0.031 A 
HETATM    8  C3  UNL     1      -0.435  -0.848  19.687  1.00  0.00     0.002 A 
HETATM    9  C4  UNL     1      -0.608  -0.105  18.506  1.00  0.00     0.001 A 
HETATM   10  C5  UNL     1      -1.869   0.132  18.018  1.00  0.00     0.014 A 
HETATM   11  C6  UNL     1      -2.915  -0.386  18.732  1.00  0.00     0.002 A 
HETATM   12  C7  UNL     1      -4.072   0.009  17.948  1.00  0.00    -0.013 A 
HETATM   13  C8  UNL     1      -3.675  -0.104  16.651  1.00  0.00     0.013 A 
HETATM   14  C9  UNL     1      -4.564   0.209  15.654  1.00  0.00     0.001 A 
HETATM   15  C10 UNL     1      -5.862   0.633  15.954  1.00  0.00     0.001 A 
HETATM   16  C11 UNL     1      -6.292   0.752  17.261  1.00  0.00     0.013 A 
HETATM   17  C12 UNL     1      -5.387   0.439  18.231  1.00  0.00    -0.013 A 
HETATM   18  C13 UNL     1      -6.090   0.628  19.481  1.00  0.00    -0.002 A 
HETATM   19  C14 UNL     1      -6.839   1.750  19.256  1.00  0.00     0.014 A 
HETATM   20  C15 UNL     1      -7.650   2.146  20.309  1.00  0.00     0.001 A 
HETATM   21  C16 UNL     1      -7.706   1.468  21.508  1.00  0.00     0.002 A 
HETATM   22  C17 UNL     1      -6.926   0.343  21.685  1.00  0.00     0.026 A 
HETATM   23  C18 UNL     1      -6.103  -0.103  20.684  1.00  0.00     0.090 A 
ENDROOT
TORSDOF 0
ENDMDL
MODEL 2
REMARK VINA RESULT: -7.422537994      2.015      4.383
REMARK  0 active torsions:
REMARK  status: ('A' for Active; 'I' for Inactive)
ROOT
HETATM    1  O1  UNL     1      -8.177  -0.092  20.964  1.00  0.00    -0.200 OA
HETATM    2  S1  UNL     1      -6.731   0.285  20.691  1.00  0.00     0.264 S 
HETATM    3  O2  UNL     1      -6.407   1.368  21.710  1.00  0.00    -0.200 OA
HETATM    4  N1  UNL     1      -6.653   0.874  19.100  1.00  0.00    -0.280 N 
ATOM      5  H1  UNL     1      -7.337   1.614  18.944  1.00  0.00     0.179 HD
HETATM    6  C1  UNL     1      -5.902   0.621  17.939  1.00  0.00     0.053 A 
HETATM    7  C2  UNL     1      -6.682   0.975  16.857  1.00  0.00     0.031 A 
HETATM    8  C3  UNL     1      -6.205   0.804  15.573  1.00  0.00     0.002 A 
HETATM    9  C4  UNL     1      -4.924   0.269  15.349  1.00  0.00     0.001 A 
HETATM   10  C5  UNL     1      -4.130  -0.091  16.409  1.00  0.00     0.014 A 
HETATM   11  C6  UNL     1      -4.648   0.101  17.661  1.00  0.00     0.002 A 
HETATM   12  C7  UNL     1      -3.572  -0.339  18.531  1.00  0.00    -0.013 A 
HETATM   13  C8  UNL     1      -2.430   0.073  17.915  1.00  0.00     0.013 A 
HETATM   14  C9  UNL     1      -1.221  -0.203  18.502  1.00  0.00     0.001 A 
HETATM   15  C10 UNL     1      -1.151  -0.893  19.717  1.00  0.00     0.001 A 
HETATM   16  C11 UNL     1      -2.294  -1.318  20.364  1.00  0.00     0.013 A 
HETATM   17  C12 UNL     1      -3.481  -1.034  19.757  1.00  0.00    -0.013 A 
HETATM   18  C13 UNL     1      -4.496  -1.565  20.639  1.00  0.00    -0.002 A 
HETATM   19  C14 UNL     1      -3.950  -2.741  21.078  1.00  0.00     0.014 A 
HETATM   20  C15 UNL     1      -4.722  -3.454  21.982  1.00  0.00     0.001 A 
HETATM   21  C16 UNL     1      -5.959  -3.025  22.416  1.00  0.00     0.002 A 
HETATM   22  C17 UNL     1      -6.465  -1.833  21.939  1.00  0.00     0.026 A 
HETATM   23  C18 UNL     1      -5.753  -1.078  21.044  1.00  0.00     0.090 A 
ENDROOT
TORSDOF 0
ENDMDL
MODEL 3
REMARK VINA RESULT: -7.013437866      1.301      1.464
REMARK  0 active torsions:
REMARK  status: ('A' for Active; 'I' for Inactive)
ROOT
HETATM    1  O1  UNL     1      -7.264  -0.967  21.881  1.00  0.00    -0.200 OA
HETATM    2  S1  UNL     1      -6.925  -1.117  20.407  1.00  0.00     0.264 S 
HETATM    3  O2  UNL     1      -7.842  -2.222  19.903  1.00  0.00    -0.200 OA
HETATM    4  N1  UNL     1      -5.289  -1.563  20.306  1.00  0.00    -0.280 N 
ATOM      5  H1  UNL     1      -5.089  -2.376  20.889  1.00  0.00     0.179 HD
HETATM    6  C1  UNL     1      -4.135  -1.118  19.639  1.00  0.00     0.053 A 
HETATM    7  C2  UNL     1      -3.046  -1.490  20.401  1.00  0.00     0.031 A 
HETATM    8  C3  UNL     1      -1.770  -1.154  19.998  1.00  0.00     0.002 A 
HETATM    9  C4  UNL     1      -1.560  -0.430  18.811  1.00  0.00     0.001 A 
HETATM   10  C5  UNL     1      -2.627  -0.049  18.036  1.00  0.00     0.014 A 
HETATM   11  C6  UNL     1      -3.870  -0.409  18.478  1.00  0.00     0.002 A 
HETATM   12  C7  UNL     1      -4.747   0.107  17.442  1.00  0.00    -0.013 A 
HETATM   13  C8  UNL     1      -4.072  -0.093  16.277  1.00  0.00     0.013 A 
HETATM   14  C9  UNL     1      -4.650   0.301  15.096  1.00  0.00     0.001 A 
HETATM   15  C10 UNL     1      -5.915   0.896  15.079  1.00  0.00     0.001 A 
HETATM   16  C11 UNL     1      -6.623   1.106  16.245  1.00  0.00     0.013 A 
HETATM   17  C12 UNL     1      -6.024   0.709  17.403  1.00  0.00    -0.013 A 
HETATM   18  C13 UNL     1      -6.972   1.023  18.449  1.00  0.00    -0.002 A 
HETATM   19  C14 UNL     1      -7.493   2.225  18.053  1.00  0.00     0.014 A 
HETATM   20  C15 UNL     1      -8.472   2.751  18.883  1.00  0.00     0.001 A 
HETATM   21  C16 UNL     1      -8.898   2.121  20.032  1.00  0.00     0.002 A 
HETATM   22  C17 UNL     1      -8.337   0.912  20.388  1.00  0.00     0.026 A 
HETATM   23  C18 UNL     1      -7.366   0.336  19.612  1.00  0.00     0.090 A 
ENDROOT
TORSDOF 0
ENDMDL
MODEL 4
REMARK VINA RESULT: -6.847624147      2.254      4.587
REMARK  0 active torsions:
REMARK  status: ('A' for Active; 'I' for Inactive)
ROOT
HETATM    1  O1  UNL     1      -7.830   0.227  23.161  1.00  0.00    -0.200 OA
HETATM    2  S1  UNL     1      -6.476   0.453  22.509  1.00  0.00     0.264 S 
HETATM    3  O2  UNL     1      -5.671   1.237  23.535  1.00  0.00    -0.200 OA
HETATM    4  N1  UNL     1      -6.740   1.356  21.094  1.00  0.00    -0.280 N 
ATOM      5  H1  UNL     1      -7.282   2.197  21.287  1.00  0.00     0.179 HD
HETATM    6  C1  UNL     1      -6.415   1.259  19.730  1.00  0.00     0.053 A 
HETATM    7  C2  UNL     1      -7.385   1.941  19.024  1.00  0.00     0.031 A 
HETATM    8  C3  UNL     1      -7.336   1.988  17.646  1.00  0.00     0.002 A 
HETATM    9  C4  UNL     1      -6.302   1.344  16.943  1.00  0.00     0.001 A 
HETATM   10  C5  UNL     1      -5.325   0.659  17.623  1.00  0.00     0.014 A 
HETATM   11  C6  UNL     1      -5.419   0.646  18.988  1.00  0.00     0.002 A 
HETATM   12  C7  UNL     1      -4.247  -0.115  19.387  1.00  0.00    -0.013 A 
HETATM   13  C8  UNL     1      -3.269   0.261  18.518  1.00  0.00     0.013 A 
HETATM   14  C9  UNL     1      -2.022  -0.297  18.637  1.00  0.00     0.001 A 
HETATM   15  C10 UNL     1      -1.746  -1.235  19.637  1.00  0.00     0.001 A 
HETATM   16  C11 UNL     1      -2.718  -1.630  20.534  1.00  0.00     0.013 A 
HETATM   17  C12 UNL     1      -3.949  -1.063  20.390  1.00  0.00    -0.013 A 
HETATM   18  C13 UNL     1      -4.755  -1.629  21.449  1.00  0.00    -0.002 A 
HETATM   19  C14 UNL     1      -4.348  -2.934  21.494  1.00  0.00     0.014 A 
HETATM   20  C15 UNL     1      -4.955  -3.714  22.466  1.00  0.00     0.001 A 
HETATM   21  C16 UNL     1      -5.908  -3.224  23.333  1.00  0.00     0.002 A 
HETATM   22  C17 UNL     1      -6.286  -1.900  23.244  1.00  0.00     0.026 A 
HETATM   23  C18 UNL     1      -5.724  -1.074  22.306  1.00  0.00     0.090 A 
ENDROOT
TORSDOF 0
ENDMDL
MODEL 5
REMARK VINA RESULT: -6.584493603      1.338      1.684
REMARK  0 active torsions:
REMARK  status: ('A' for Active; 'I' for Inactive)
ROOT
HETATM    1  O1  UNL     1      -4.544  -3.489  23.215  1.00  0.00    -0.200 OA
HETATM    2  S1  UNL     1      -4.697  -3.154  21.741  1.00  0.00     0.264 S 
HETATM    3  O2  UNL     1      -5.369  -4.374  21.127  1.00  0.00    -0.200 OA
HETATM    4  N1  UNL     1      -3.138  -2.913  21.112  1.00  0.00    -0.280 N 
ATOM      5  H1  UNL     1      -2.526  -3.701  21.323  1.00  0.00     0.179 HD
HETATM    6  C1  UNL     1      -2.460  -1.923  20.380  1.00  0.00     0.053 A 
HETATM    7  C2  UNL     1      -1.119  -2.022  20.692  1.00  0.00     0.031 A 
HETATM    8  C3  UNL     1      -0.210  -1.146  20.135  1.00  0.00     0.002 A 
HETATM    9  C4  UNL     1      -0.634  -0.142  19.246  1.00  0.00     0.001 A 
HETATM   10  C5  UNL     1      -1.962  -0.023  18.919  1.00  0.00     0.014 A 
HETATM   11  C6  UNL     1      -2.821  -0.918  19.496  1.00  0.00     0.002 A 
HETATM   12  C7  UNL     1      -4.107  -0.547  18.932  1.00  0.00    -0.013 A 
HETATM   13  C8  UNL     1      -3.839  -0.202  17.642  1.00  0.00     0.013 A 
HETATM   14  C9  UNL     1      -4.870   0.207  16.835  1.00  0.00     0.001 A 
HETATM   15  C10 UNL     1      -6.182   0.267  17.318  1.00  0.00     0.001 A 
HETATM   16  C11 UNL     1      -6.481  -0.082  18.620  1.00  0.00     0.013 A 
HETATM   17  C12 UNL     1      -5.437  -0.480  19.400  1.00  0.00    -0.013 A 
HETATM   18  C13 UNL     1      -6.022  -0.799  20.684  1.00  0.00    -0.002 A 
HETATM   19  C14 UNL     1      -6.971   0.173  20.849  1.00  0.00     0.014 A 
HETATM   20  C15 UNL     1      -7.718   0.083  22.014  1.00  0.00     0.001 A 
HETATM   21  C16 UNL     1      -7.528  -0.909  22.952  1.00  0.00     0.002 A 
HETATM   22  C17 UNL     1      -6.555  -1.864  22.738  1.00  0.00     0.026 A 
HETATM   23  C18 UNL     1      -5.782  -1.834  21.607  1.00  0.00     0.090 A 
ENDROOT
TORSDOF 0
ENDMDL
