MODEL 1
REMARK VINA RESULT: -9.468626745      0.000      0.000
REMARK  1 active torsions:
REMARK  status: ('A' for Active; 'I' for Inactive)
REMARK    1  A    between atoms: N2_18  and  O1_19 
ROOT
HETATM    1  N1  UNL     1      -0.430  -3.060  21.276  1.00  0.00    -0.397 N 
ATOM      2  H11 UNL     1      -1.181  -3.741  21.389  1.00  0.00     0.156 HD
ATOM      3  H12 UNL     1       0.496  -3.385  21.555  1.00  0.00     0.156 HD
HETATM    4  C1  UNL     1      -0.567  -1.885  20.829  1.00  0.00     0.057 A 
HETATM    5  C2  UNL     1       0.512  -0.907  20.666  1.00  0.00     0.044 A 
HETATM    6  C3  UNL     1       0.277   0.299  20.192  1.00  0.00    -0.012 A 
HETATM    7  C4  UNL     1      -0.998   0.744  19.808  1.00  0.00    -0.011 A 
HETATM    8  C5  UNL     1      -1.167   2.010  19.323  1.00  0.00     0.014 A 
HETATM    9  C6  UNL     1      -0.055   2.852  19.215  1.00  0.00     0.013 A 
HETATM   10  C7  UNL     1       1.177   2.408  19.591  1.00  0.00    -0.025 A 
HETATM   11  C8  UNL     1       2.277   3.240  19.485  1.00  0.00     0.012 A 
HETATM   12  C9  UNL     1       3.549   2.851  19.848  1.00  0.00     0.001 A 
HETATM   13  C10 UNL     1       3.754   1.580  20.341  1.00  0.00     0.001 A 
HETATM   14  C11 UNL     1       2.664   0.743  20.451  1.00  0.00     0.013 A 
HETATM   15  C12 UNL     1       1.388   1.132  20.087  1.00  0.00    -0.015 A 
HETATM   16  C13 UNL     1      -2.051  -0.059  19.912  1.00  0.00     0.019 A 
HETATM   17  C14 UNL     1      -1.896  -1.418  20.429  1.00  0.00     0.101 A 
HETATM   18  N2  UNL     1      -3.044  -1.980  20.429  1.00  0.00    -0.221 N 
HETATM   19  C15 UNL     1      -4.046  -1.116  19.942  1.00  0.00     0.074 A 
HETATM   20  C16 UNL     1      -5.415  -1.306  19.770  1.00  0.00     0.033 A 
HETATM   21  C17 UNL     1      -6.167  -0.269  19.266  1.00  0.00     0.002 A 
HETATM   22  C18 UNL     1      -5.619   0.937  18.928  1.00  0.00     0.001 A 
HETATM   23  C19 UNL     1      -4.265   1.121  19.099  1.00  0.00     0.015 A 
HETATM   24  C20 UNL     1      -3.472   0.115  19.601  1.00  0.00     0.007 A 
ENDROOT
BRANCH  18  25
HETATM   25  O1  UNL     1      -3.220  -3.296  20.872  1.00  0.00    -0.282 OA
ATOM     26  H1  UNL     1      -4.081  -3.649  21.060  1.00  0.00     0.245 HD
ENDBRANCH  18  25
TORSDOF 1
ENDMDL
MODEL 2
REMARK VINA RESULT: -9.349042927      0.887      1.048
REMARK  1 active torsions:
REMARK  status: ('A' for Active; 'I' for Inactive)
REMARK    1  A    between atoms: N2_18  and  O1_19 
ROOT
HETATM    1  N1  UNL     1      -1.887  -3.241  21.047  1.00  0.00    -0.397 N 
ATOM      2  H11 UNL     1      -2.746  -3.789  21.105  1.00  0.00     0.156 HD
ATOM      3  H12 UNL     1      -1.044  -3.724  21.359  1.00  0.00     0.156 HD
HETATM    4  C1  UNL     1      -1.803  -2.050  20.632  1.00  0.00     0.057 A 
HETATM    5  C2  UNL     1      -0.569  -1.264  20.549  1.00  0.00     0.044 A 
HETATM    6  C3  UNL     1      -0.575  -0.025  20.102  1.00  0.00    -0.012 A 
HETATM    7  C4  UNL     1      -1.736   0.636  19.673  1.00  0.00    -0.011 A 
HETATM    8  C5  UNL     1      -1.667   1.923  19.220  1.00  0.00     0.014 A 
HETATM    9  C6  UNL     1      -0.425   2.569  19.190  1.00  0.00     0.013 A 
HETATM   10  C7  UNL     1       0.694   1.915  19.609  1.00  0.00    -0.025 A 
HETATM   11  C8  UNL     1       1.921   2.552  19.579  1.00  0.00     0.012 A 
HETATM   12  C9  UNL     1       3.091   1.946  19.989  1.00  0.00     0.001 A 
HETATM   13  C10 UNL     1       3.055   0.649  20.451  1.00  0.00     0.001 A 
HETATM   14  C11 UNL     1       1.836   0.004  20.485  1.00  0.00     0.013 A 
HETATM   15  C12 UNL     1       0.663   0.611  20.075  1.00  0.00    -0.015 A 
HETATM   16  C13 UNL     1      -2.912   0.019  19.703  1.00  0.00     0.019 A 
HETATM   17  C14 UNL     1      -3.013  -1.358  20.185  1.00  0.00     0.101 A 
HETATM   18  N2  UNL     1      -4.237  -1.718  20.114  1.00  0.00    -0.221 N 
HETATM   19  C15 UNL     1      -5.055  -0.687  19.609  1.00  0.00     0.074 A 
HETATM   20  C16 UNL     1      -6.426  -0.640  19.368  1.00  0.00     0.033 A 
HETATM   21  C17 UNL     1      -6.968   0.520  18.861  1.00  0.00     0.002 A 
HETATM   22  C18 UNL     1      -6.210   1.623  18.587  1.00  0.00     0.001 A 
HETATM   23  C19 UNL     1      -4.854   1.573  18.826  1.00  0.00     0.015 A 
HETATM   24  C20 UNL     1      -4.267   0.437  19.332  1.00  0.00     0.007 A 
ENDROOT
BRANCH  18  25
HETATM   25  O1  UNL     1      -4.653  -2.995  20.508  1.00  0.00    -0.282 OA
ATOM     26  H1  UNL     1      -5.475  -3.367  20.211  1.00  0.00     0.245 HD
ENDBRANCH  18  25
TORSDOF 1
ENDMDL
MODEL 3
REMARK VINA RESULT: -9.127641194      2.266      2.905
REMARK  1 active torsions:
REMARK  status: ('A' for Active; 'I' for Inactive)
REMARK    1  A    between atoms: N2_18  and  O1_19 
ROOT
HETATM    1  N1  UNL     1      -0.480   0.988  16.439  1.00  0.00    -0.397 N 
ATOM      2  H11 UNL     1      -1.212   0.544  15.885  1.00  0.00     0.156 HD
ATOM      3  H12 UNL     1       0.296   1.377  15.902  1.00  0.00     0.156 HD
HETATM    4  C1  UNL     1      -0.470   1.083  17.700  1.00  0.00     0.057 A 
HETATM    5  C2  UNL     1       0.582   1.720  18.497  1.00  0.00     0.044 A 
HETATM    6  C3  UNL     1       0.509   1.774  19.811  1.00  0.00    -0.012 A 
HETATM    7  C4  UNL     1      -0.559   1.238  20.548  1.00  0.00    -0.011 A 
HETATM    8  C5  UNL     1      -0.568   1.330  21.910  1.00  0.00     0.014 A 
HETATM    9  C6  UNL     1       0.499   1.965  22.557  1.00  0.00     0.013 A 
HETATM   10  C7  UNL     1       1.529   2.481  21.829  1.00  0.00    -0.025 A 
HETATM   11  C8  UNL     1       2.583   3.108  22.468  1.00  0.00     0.012 A 
HETATM   12  C9  UNL     1       3.654   3.651  21.790  1.00  0.00     0.001 A 
HETATM   13  C10 UNL     1       3.694   3.574  20.415  1.00  0.00     0.001 A 
HETATM   14  C11 UNL     1       2.648   2.950  19.768  1.00  0.00     0.013 A 
HETATM   15  C12 UNL     1       1.573   2.406  20.448  1.00  0.00    -0.015 A 
HETATM   16  C13 UNL     1      -1.569   0.637  19.929  1.00  0.00     0.019 A 
HETATM   17  C14 UNL     1      -1.582   0.524  18.471  1.00  0.00     0.101 A 
HETATM   18  N2  UNL     1      -2.649  -0.089  18.126  1.00  0.00    -0.221 N 
HETATM   19  C15 UNL     1      -3.432  -0.440  19.246  1.00  0.00     0.074 A 
HETATM   20  C16 UNL     1      -4.652  -1.107  19.337  1.00  0.00     0.033 A 
HETATM   21  C17 UNL     1      -5.196  -1.318  20.584  1.00  0.00     0.002 A 
HETATM   22  C18 UNL     1      -4.584  -0.898  21.731  1.00  0.00     0.001 A 
HETATM   23  C19 UNL     1      -3.378  -0.240  21.636  1.00  0.00     0.015 A 
HETATM   24  C20 UNL     1      -2.794  -0.006  20.413  1.00  0.00     0.007 A 
ENDROOT
BRANCH  18  25
HETATM   25  O1  UNL     1      -2.948  -0.350  16.784  1.00  0.00    -0.282 OA
ATOM     26  H1  UNL     1      -2.426  -0.948  16.263  1.00  0.00     0.245 HD
ENDBRANCH  18  25
TORSDOF 1
ENDMDL
MODEL 4
REMARK VINA RESULT: -9.015397718      2.344      3.203
REMARK  1 active torsions:
REMARK  status: ('A' for Active; 'I' for Inactive)
REMARK    1  A    between atoms: N2_18  and  O1_19 
ROOT
HETATM    1  N1  UNL     1      -5.000  -0.799  21.751  1.00  0.00    -0.397 N 
ATOM      2  H11 UNL     1      -5.988  -1.003  21.602  1.00  0.00     0.156 HD
ATOM      3  H12 UNL     1      -4.691  -0.833  22.723  1.00  0.00     0.156 HD
HETATM    4  C1  UNL     1      -4.165  -0.518  20.844  1.00  0.00     0.057 A 
HETATM    5  C2  UNL     1      -2.745  -0.226  21.057  1.00  0.00     0.044 A 
HETATM    6  C3  UNL     1      -1.945   0.057  20.049  1.00  0.00    -0.012 A 
HETATM    7  C4  UNL     1      -2.372   0.103  18.713  1.00  0.00    -0.011 A 
HETATM    8  C5  UNL     1      -1.486   0.404  17.718  1.00  0.00     0.014 A 
HETATM    9  C6  UNL     1      -0.151   0.665  18.051  1.00  0.00     0.013 A 
HETATM   10  C7  UNL     1       0.250   0.617  19.352  1.00  0.00    -0.025 A 
HETATM   11  C8  UNL     1       1.568   0.875  19.681  1.00  0.00     0.012 A 
HETATM   12  C9  UNL     1       2.037   0.842  20.978  1.00  0.00     0.001 A 
HETATM   13  C10 UNL     1       1.169   0.541  22.004  1.00  0.00     0.001 A 
HETATM   14  C11 UNL     1      -0.149   0.283  21.687  1.00  0.00     0.013 A 
HETATM   15  C12 UNL     1      -0.619   0.316  20.387  1.00  0.00    -0.015 A 
HETATM   16  C13 UNL     1      -3.640  -0.145  18.402  1.00  0.00     0.019 A 
HETATM   17  C14 UNL     1      -4.608  -0.469  19.449  1.00  0.00     0.101 A 
HETATM   18  N2  UNL     1      -5.744  -0.663  18.898  1.00  0.00    -0.221 N 
HETATM   19  C15 UNL     1      -5.678  -0.501  17.498  1.00  0.00     0.074 A 
HETATM   20  C16 UNL     1      -6.658  -0.616  16.516  1.00  0.00     0.033 A 
HETATM   21  C17 UNL     1      -6.305  -0.399  15.203  1.00  0.00     0.002 A 
HETATM   22  C18 UNL     1      -5.030  -0.077  14.831  1.00  0.00     0.001 A 
HETATM   23  C19 UNL     1      -4.063   0.034  15.805  1.00  0.00     0.015 A 
HETATM   24  C20 UNL     1      -4.368  -0.172  17.131  1.00  0.00     0.007 A 
ENDROOT
BRANCH  18  25
HETATM   25  O1  UNL     1      -6.880  -0.994  19.646  1.00  0.00    -0.282 OA
ATOM     26  H1  UNL     1      -6.945  -0.789  20.572  1.00  0.00     0.245 HD
ENDBRANCH  18  25
TORSDOF 1
ENDMDL
MODEL 5
REMARK VINA RESULT: -8.074093410      2.973      6.951
REMARK  1 active torsions:
REMARK  status: ('A' for Active; 'I' for Inactive)
REMARK    1  A    between atoms: N2_18  and  O1_19 
ROOT
HETATM    1  N1  UNL     1       0.346   3.157  17.350  1.00  0.00    -0.397 N 
ATOM      2  H11 UNL     1       1.198   3.710  17.255  1.00  0.00     0.156 HD
ATOM      3  H12 UNL     1      -0.399   3.395  16.695  1.00  0.00     0.156 HD
HETATM    4  C1  UNL     1       0.161   2.233  18.193  1.00  0.00     0.057 A 
HETATM    5  C2  UNL     1      -1.062   1.439  18.328  1.00  0.00     0.044 A 
HETATM    6  C3  UNL     1      -1.167   0.492  19.238  1.00  0.00    -0.012 A 
HETATM    7  C4  UNL     1      -0.140   0.167  20.137  1.00  0.00    -0.011 A 
HETATM    8  C5  UNL     1      -0.319  -0.828  21.056  1.00  0.00     0.014 A 
HETATM    9  C6  UNL     1      -1.538  -1.516  21.085  1.00  0.00     0.013 A 
HETATM   10  C7  UNL     1      -2.527  -1.190  20.207  1.00  0.00    -0.025 A 
HETATM   11  C8  UNL     1      -3.732  -1.869  20.236  1.00  0.00     0.012 A 
HETATM   12  C9  UNL     1      -4.771  -1.588  19.374  1.00  0.00     0.001 A 
HETATM   13  C10 UNL     1      -4.623  -0.590  18.436  1.00  0.00     0.001 A 
HETATM   14  C11 UNL     1      -3.425   0.093  18.399  1.00  0.00     0.013 A 
HETATM   15  C12 UNL     1      -2.382  -0.188  19.262  1.00  0.00    -0.015 A 
HETATM   16  C13 UNL     1       1.015   0.822  20.105  1.00  0.00     0.019 A 
HETATM   17  C14 UNL     1       1.231   1.893  19.132  1.00  0.00     0.101 A 
HETATM   18  N2  UNL     1       2.409   2.359  19.305  1.00  0.00    -0.221 N 
HETATM   19  C15 UNL     1       3.082   1.697  20.353  1.00  0.00     0.074 A 
HETATM   20  C16 UNL     1       4.360   1.876  20.876  1.00  0.00     0.033 A 
HETATM   21  C17 UNL     1       4.764   1.073  21.920  1.00  0.00     0.002 A 
HETATM   22  C18 UNL     1       3.956   0.110  22.458  1.00  0.00     0.001 A 
HETATM   23  C19 UNL     1       2.693  -0.063  21.937  1.00  0.00     0.015 A 
HETATM   24  C20 UNL     1       2.245   0.715  20.895  1.00  0.00     0.007 A 
ENDROOT
BRANCH  18  25
HETATM   25  O1  UNL     1       2.911   3.401  18.518  1.00  0.00    -0.282 OA
ATOM     26  H1  UNL     1       3.824   3.436  18.257  1.00  0.00     0.245 HD
ENDBRANCH  18  25
TORSDOF 1
ENDMDL
