MODEL 1
REMARK VINA RESULT: -8.759905926      0.000      0.000
REMARK  9 active torsions:
REMARK  status: ('A' for Active; 'I' for Inactive)
REMARK    1  A    between atoms: C2_2  and  N1_3 
REMARK    2  A    between atoms: N1_3  and  C3_5 
REMARK    3  A    between atoms: C4_6  and  N2_7 
REMARK    4  A    between atoms: N2_7  and  C5_9 
REMARK    5  A    between atoms: C11_18  and  N4_19 
REMARK    6  A    between atoms: N4_19  and  C13_21 
REMARK    7  A    between atoms: C13_21  and  C14_22 
REMARK    8  A    between atoms: C14_22  and  C15_23 
REMARK    9  A    between atoms: C15_23  and  N5_24 
ROOT
HETATM    1  C3  UNL     1      42.700  22.776  20.491  1.00  0.00     0.090 C 
HETATM    2  C4  UNL     1      43.642  22.838  19.475  1.00  0.00     0.149 C 
HETATM    3  N3  UNL     1      44.559  23.829  19.255  1.00  0.00    -0.174 N 
ATOM      4  H3  UNL     1      45.054  23.792  18.364  1.00  0.00     0.186 HD
HETATM    5  C11 UNL     1      44.890  24.852  20.076  1.00  0.00     0.682 C 
HETATM    6  N6  UNL     1      44.787  24.774  21.428  1.00  0.00    -0.184 N 
ATOM      7  H6  UNL     1      45.507  25.271  21.952  1.00  0.00     0.185 HD
HETATM    8  C18 UNL     1      43.846  24.120  22.186  1.00  0.00     0.104 A 
HETATM    9  S1  UNL     1      43.649  24.302  23.871  1.00  0.00    -0.075 SA
HETATM   10  C19 UNL     1      42.360  23.221  24.107  1.00  0.00    -0.012 A 
HETATM   11  C20 UNL     1      41.648  22.872  25.401  1.00  0.00     0.057 C 
HETATM   12  C21 UNL     1      42.104  22.734  22.855  1.00  0.00    -0.034 A 
HETATM   13  C22 UNL     1      40.996  21.705  22.649  1.00  0.00     0.050 C 
HETATM   14  C23 UNL     1      42.884  23.204  21.840  1.00  0.00     0.036 A 
ENDROOT
BRANCH   2  15
HETATM   15  N2  UNL     1      43.682  21.887  18.649  1.00  0.00    -0.340 N 
ATOM     16  H2  UNL     1      43.032  21.885  17.864  1.00  0.00     0.167 HD
BRANCH  15  17
HETATM   17  C5  UNL     1      44.606  20.823  18.781  1.00  0.00     0.035 A 
HETATM   18  C6  UNL     1      45.636  20.830  19.688  1.00  0.00     0.029 A 
HETATM   19  C7  UNL     1      46.484  19.752  19.752  1.00  0.00     0.004 A 
HETATM   20  C8  UNL     1      46.353  18.647  18.938  1.00  0.00     0.024 A 
HETATM   21  C9  UNL     1      45.309  18.641  18.019  1.00  0.00     0.036 A 
HETATM   22 CL1  UNL     1      45.145  17.232  16.986  1.00  0.00    -0.084 Cl
HETATM   23  C10 UNL     1      44.456  19.714  17.949  1.00  0.00     0.053 A 
ENDBRANCH  15  17
ENDBRANCH   2  15
BRANCH   1  24
HETATM   24  N1  UNL     1      41.593  22.316  20.185  1.00  0.00    -0.366 N 
ATOM     25  H1  UNL     1      40.885  22.614  20.855  1.00  0.00     0.165 HD
BRANCH  24  26
HETATM   26  C2  UNL     1      41.022  21.512  19.198  1.00  0.00     0.057 C 
HETATM   27  C1  UNL     1      40.952  20.024  19.516  1.00  0.00     0.054 C 
ENDBRANCH  24  26
ENDBRANCH   1  24
BRANCH   5  28
HETATM   28  N4  UNL     1      45.362  26.064  19.532  1.00  0.00    -0.222 N 
HETATM   29  C12 UNL     1      45.279  27.264  20.343  1.00  0.00     0.168 C 
BRANCH  28  30
HETATM   30  C13 UNL     1      45.903  26.166  18.229  1.00  0.00     0.142 C 
BRANCH  30  31
HETATM   31  C14 UNL     1      47.393  26.364  18.164  1.00  0.00     0.050 C 
BRANCH  31  32
HETATM   32  C15 UNL     1      47.878  27.161  17.002  1.00  0.00     0.273 C 
BRANCH  32  33
HETATM   33  N5  UNL     1      48.642  28.290  17.498  1.00  0.00     0.080 N 
HETATM   34  C16 UNL     1      49.365  28.933  16.423  1.00  0.00     0.309 C 
HETATM   35  C17 UNL     1      47.843  29.222  18.254  1.00  0.00     0.309 C 
ENDBRANCH  32  33
ENDBRANCH  31  32
ENDBRANCH  30  31
ENDBRANCH  28  30
ENDBRANCH   5  28
TORSDOF 9
ENDMDL
MODEL 2
REMARK VINA RESULT: -8.316095554      0.840      1.180
REMARK  9 active torsions:
REMARK  status: ('A' for Active; 'I' for Inactive)
REMARK    1  A    between atoms: C2_2  and  N1_3 
REMARK    2  A    between atoms: N1_3  and  C3_5 
REMARK    3  A    between atoms: C4_6  and  N2_7 
REMARK    4  A    between atoms: N2_7  and  C5_9 
REMARK    5  A    between atoms: C11_18  and  N4_19 
REMARK    6  A    between atoms: N4_19  and  C13_21 
REMARK    7  A    between atoms: C13_21  and  C14_22 
REMARK    8  A    between atoms: C14_22  and  C15_23 
REMARK    9  A    between atoms: C15_23  and  N5_24 
ROOT
HETATM    1  C3  UNL     1      42.853  22.295  19.948  1.00  0.00     0.090 C 
HETATM    2  C4  UNL     1      43.983  22.439  19.157  1.00  0.00     0.149 C 
HETATM    3  N3  UNL     1      44.877  23.475  19.170  1.00  0.00    -0.174 N 
ATOM      4  H3  UNL     1      45.548  23.497  18.402  1.00  0.00     0.186 HD
HETATM    5  C11 UNL     1      44.978  24.474  20.077  1.00  0.00     0.682 C 
HETATM    6  N6  UNL     1      44.598  24.333  21.373  1.00  0.00    -0.184 N 
ATOM      7  H6  UNL     1      45.168  24.835  22.054  1.00  0.00     0.185 HD
HETATM    8  C18 UNL     1      43.553  23.608  21.892  1.00  0.00     0.104 A 
HETATM    9  S1  UNL     1      42.998  23.708  23.503  1.00  0.00    -0.075 SA
HETATM   10  C19 UNL     1      41.743  22.567  23.424  1.00  0.00    -0.012 A 
HETATM   11  C20 UNL     1      40.794  22.132  24.526  1.00  0.00     0.057 C 
HETATM   12  C21 UNL     1      41.779  22.125  22.130  1.00  0.00    -0.034 A 
HETATM   13  C22 UNL     1      40.790  21.062  21.660  1.00  0.00     0.050 C 
HETATM   14  C23 UNL     1      42.730  22.670  21.319  1.00  0.00     0.036 A 
ENDROOT
BRANCH   2  15
HETATM   15  N2  UNL     1      44.242  21.528  18.326  1.00  0.00    -0.340 N 
ATOM     16  H2  UNL     1      43.912  21.625  17.365  1.00  0.00     0.167 HD
BRANCH  15  17
HETATM   17  C5  UNL     1      44.978  20.375  18.688  1.00  0.00     0.035 A 
HETATM   18  C6  UNL     1      45.981  20.387  19.625  1.00  0.00     0.029 A 
HETATM   19  C7  UNL     1      46.642  19.220  19.919  1.00  0.00     0.004 A 
HETATM   20  C8  UNL     1      46.345  18.018  19.312  1.00  0.00     0.024 A 
HETATM   21  C9  UNL     1      45.328  18.006  18.363  1.00  0.00     0.036 A 
HETATM   22 CL1  UNL     1      44.954  16.475  17.593  1.00  0.00    -0.084 Cl
HETATM   23  C10 UNL     1      44.663  19.169  18.063  1.00  0.00     0.053 A 
ENDBRANCH  15  17
ENDBRANCH   2  15
BRANCH   1  24
HETATM   24  N1  UNL     1      41.859  21.804  19.399  1.00  0.00    -0.366 N 
ATOM     25  H1  UNL     1      41.651  20.887  19.793  1.00  0.00     0.165 HD
BRANCH  24  26
HETATM   26  C2  UNL     1      40.937  22.128  18.404  1.00  0.00     0.057 C 
HETATM   27  C1  UNL     1      41.159  23.463  17.706  1.00  0.00     0.054 C 
ENDBRANCH  24  26
ENDBRANCH   1  24
BRANCH   5  28
HETATM   28  N4  UNL     1      45.494  25.727  19.686  1.00  0.00    -0.222 N 
HETATM   29  C12 UNL     1      45.407  26.832  20.624  1.00  0.00     0.168 C 
BRANCH  28  30
HETATM   30  C13 UNL     1      46.082  25.959  18.421  1.00  0.00     0.142 C 
BRANCH  30  31
HETATM   31  C14 UNL     1      47.282  26.868  18.426  1.00  0.00     0.050 C 
BRANCH  31  32
HETATM   32  C15 UNL     1      47.851  27.174  17.083  1.00  0.00     0.273 C 
BRANCH  32  33
HETATM   33  N5  UNL     1      48.214  28.578  17.041  1.00  0.00     0.080 N 
HETATM   34  C16 UNL     1      47.901  29.228  18.294  1.00  0.00     0.309 C 
HETATM   35  C17 UNL     1      49.582  28.794  16.639  1.00  0.00     0.309 C 
ENDBRANCH  32  33
ENDBRANCH  31  32
ENDBRANCH  30  31
ENDBRANCH  28  30
ENDBRANCH   5  28
TORSDOF 9
ENDMDL
MODEL 3
REMARK VINA RESULT: -7.597429632      1.092      1.380
REMARK  9 active torsions:
REMARK  status: ('A' for Active; 'I' for Inactive)
REMARK    1  A    between atoms: C2_2  and  N1_3 
REMARK    2  A    between atoms: N1_3  and  C3_5 
REMARK    3  A    between atoms: C4_6  and  N2_7 
REMARK    4  A    between atoms: N2_7  and  C5_9 
REMARK    5  A    between atoms: C11_18  and  N4_19 
REMARK    6  A    between atoms: N4_19  and  C13_21 
REMARK    7  A    between atoms: C13_21  and  C14_22 
REMARK    8  A    between atoms: C14_22  and  C15_23 
REMARK    9  A    between atoms: C15_23  and  N5_24 
ROOT
HETATM    1  C3  UNL     1      42.019  22.532  21.379  1.00  0.00     0.090 C 
HETATM    2  C4  UNL     1      42.992  22.718  20.409  1.00  0.00     0.149 C 
HETATM    3  N3  UNL     1      43.912  23.728  20.341  1.00  0.00    -0.174 N 
ATOM      4  H3  UNL     1      44.434  23.801  19.467  1.00  0.00     0.186 HD
HETATM    5  C11 UNL     1      44.213  24.643  21.291  1.00  0.00     0.682 C 
HETATM    6  N6  UNL     1      44.069  24.400  22.619  1.00  0.00    -0.184 N 
ATOM      7  H6  UNL     1      44.771  24.828  23.223  1.00  0.00     0.185 HD
HETATM    8  C18 UNL     1      43.107  23.657  23.261  1.00  0.00     0.104 A 
HETATM    9  S1  UNL     1      42.857  23.630  24.949  1.00  0.00    -0.075 SA
HETATM   10  C19 UNL     1      41.566  22.529  25.009  1.00  0.00    -0.012 A 
HETATM   11  C20 UNL     1      40.815  22.024  26.228  1.00  0.00     0.057 C 
HETATM   12  C21 UNL     1      41.351  22.200  23.700  1.00  0.00    -0.034 A 
HETATM   13  C22 UNL     1      40.253  21.204  23.335  1.00  0.00     0.050 C 
HETATM   14  C23 UNL     1      42.160  22.791  22.775  1.00  0.00     0.036 A 
ENDROOT
BRANCH   2  15
HETATM   15  N2  UNL     1      43.062  21.876  19.473  1.00  0.00    -0.340 N 
ATOM     16  H2  UNL     1      42.259  21.754  18.856  1.00  0.00     0.167 HD
BRANCH  15  17
HETATM   17  C5  UNL     1      44.222  21.097  19.256  1.00  0.00     0.035 A 
HETATM   18  C6  UNL     1      45.275  21.054  20.137  1.00  0.00     0.029 A 
HETATM   19  C7  UNL     1      46.362  20.267  19.849  1.00  0.00     0.004 A 
HETATM   20  C8  UNL     1      46.453  19.505  18.703  1.00  0.00     0.024 A 
HETATM   21  C9  UNL     1      45.386  19.548  17.812  1.00  0.00     0.036 A 
HETATM   22 CL1  UNL     1      45.506  18.577  16.356  1.00  0.00    -0.084 Cl
HETATM   23  C10 UNL     1      44.296  20.333  18.092  1.00  0.00     0.053 A 
ENDBRANCH  15  17
ENDBRANCH   2  15
BRANCH   1  24
HETATM   24  N1  UNL     1      40.924  22.113  20.984  1.00  0.00    -0.366 N 
ATOM     25  H1  UNL     1      40.224  22.197  21.720  1.00  0.00     0.165 HD
BRANCH  24  26
HETATM   26  C2  UNL     1      40.359  21.561  19.834  1.00  0.00     0.057 C 
HETATM   27  C1  UNL     1      40.016  20.079  19.913  1.00  0.00     0.054 C 
ENDBRANCH  24  26
ENDBRANCH   1  24
BRANCH   5  28
HETATM   28  N4  UNL     1      44.698  25.913  20.914  1.00  0.00    -0.222 N 
HETATM   29  C12 UNL     1      44.805  26.940  21.934  1.00  0.00     0.168 C 
BRANCH  28  30
HETATM   30  C13 UNL     1      45.073  26.234  19.589  1.00  0.00     0.142 C 
BRANCH  30  31
HETATM   31  C14 UNL     1      45.971  27.434  19.448  1.00  0.00     0.050 C 
BRANCH  31  32
HETATM   32  C15 UNL     1      47.315  27.156  18.867  1.00  0.00     0.273 C 
BRANCH  32  33
HETATM   33  N5  UNL     1      47.507  28.009  17.710  1.00  0.00     0.080 N 
HETATM   34  C16 UNL     1      48.091  29.275  18.096  1.00  0.00     0.309 C 
HETATM   35  C17 UNL     1      48.247  27.365  16.652  1.00  0.00     0.309 C 
ENDBRANCH  32  33
ENDBRANCH  31  32
ENDBRANCH  30  31
ENDBRANCH  28  30
ENDBRANCH   5  28
TORSDOF 9
ENDMDL
MODEL 4
REMARK VINA RESULT: -7.334295984      3.229      6.659
REMARK  9 active torsions:
REMARK  status: ('A' for Active; 'I' for Inactive)
REMARK    1  A    between atoms: C2_2  and  N1_3 
REMARK    2  A    between atoms: N1_3  and  C3_5 
REMARK    3  A    between atoms: C4_6  and  N2_7 
REMARK    4  A    between atoms: N2_7  and  C5_9 
REMARK    5  A    between atoms: C11_18  and  N4_19 
REMARK    6  A    between atoms: N4_19  and  C13_21 
REMARK    7  A    between atoms: C13_21  and  C14_22 
REMARK    8  A    between atoms: C14_22  and  C15_23 
REMARK    9  A    between atoms: C15_23  and  N5_24 
ROOT
HETATM    1  C3  UNL     1      42.287  22.379  20.216  1.00  0.00     0.090 C 
HETATM    2  C4  UNL     1      43.298  22.710  19.325  1.00  0.00     0.149 C 
HETATM    3  N3  UNL     1      44.091  21.850  18.616  1.00  0.00    -0.174 N 
ATOM      4  H3  UNL     1      44.894  22.266  18.144  1.00  0.00     0.186 HD
HETATM    5  C11 UNL     1      43.940  20.514  18.464  1.00  0.00     0.682 C 
HETATM    6  N6  UNL     1      42.731  19.899  18.518  1.00  0.00    -0.184 N 
ATOM      7  H6  UNL     1      42.614  19.103  17.891  1.00  0.00     0.185 HD
HETATM    8  C18 UNL     1      41.643  20.202  19.301  1.00  0.00     0.104 A 
HETATM    9  S1  UNL     1      40.267  19.210  19.490  1.00  0.00    -0.075 SA
HETATM   10  C19 UNL     1      39.373  20.193  20.547  1.00  0.00    -0.012 A 
HETATM   11  C20 UNL     1      38.005  19.927  21.150  1.00  0.00     0.057 C 
HETATM   12  C21 UNL     1      40.171  21.287  20.736  1.00  0.00    -0.034 A 
HETATM   13  C22 UNL     1      39.702  22.426  21.637  1.00  0.00     0.050 C 
HETATM   14  C23 UNL     1      41.368  21.296  20.083  1.00  0.00     0.036 A 
ENDROOT
BRANCH   2  15
HETATM   15  N2  UNL     1      43.534  23.932  19.127  1.00  0.00    -0.340 N 
ATOM     16  H2  UNL     1      42.755  24.565  18.950  1.00  0.00     0.167 HD
BRANCH  15  17
HETATM   17  C5  UNL     1      44.851  24.449  19.145  1.00  0.00     0.035 A 
HETATM   18  C6  UNL     1      45.890  23.838  19.802  1.00  0.00     0.029 A 
HETATM   19  C7  UNL     1      47.139  24.407  19.765  1.00  0.00     0.004 A 
HETATM   20  C8  UNL     1      47.407  25.580  19.090  1.00  0.00     0.024 A 
HETATM   21  C9  UNL     1      46.354  26.198  18.424  1.00  0.00     0.036 A 
HETATM   22 CL1  UNL     1      46.700  27.689  17.566  1.00  0.00    -0.084 Cl
HETATM   23  C10 UNL     1      45.103  25.635  18.457  1.00  0.00     0.053 A 
ENDBRANCH  15  17
ENDBRANCH   2  15
BRANCH   1  24
HETATM   24  N1  UNL     1      42.190  23.090  21.223  1.00  0.00    -0.366 N 
ATOM     25  H1  UNL     1      41.386  23.712  21.144  1.00  0.00     0.165 HD
BRANCH  24  26
HETATM   26  C2  UNL     1      42.849  23.297  22.435  1.00  0.00     0.057 C 
HETATM   27  C1  UNL     1      43.551  24.641  22.583  1.00  0.00     0.054 C 
ENDBRANCH  24  26
ENDBRANCH   1  24
BRANCH   5  28
HETATM   28  N4  UNL     1      45.070  19.700  18.239  1.00  0.00    -0.222 N 
HETATM   29  C12 UNL     1      46.184  19.797  19.164  1.00  0.00     0.168 C 
BRANCH  28  30
HETATM   30  C13 UNL     1      45.172  18.805  17.150  1.00  0.00     0.142 C 
BRANCH  30  31
HETATM   31  C14 UNL     1      46.307  19.075  16.199  1.00  0.00     0.050 C 
BRANCH  31  32
HETATM   32  C15 UNL     1      47.271  17.951  16.025  1.00  0.00     0.273 C 
BRANCH  32  33
HETATM   33  N5  UNL     1      46.926  17.226  14.817  1.00  0.00     0.080 N 
HETATM   34  C16 UNL     1      48.115  16.885  14.066  1.00  0.00     0.309 C 
HETATM   35  C17 UNL     1      46.089  16.079  15.068  1.00  0.00     0.309 C 
ENDBRANCH  32  33
ENDBRANCH  31  32
ENDBRANCH  30  31
ENDBRANCH  28  30
ENDBRANCH   5  28
TORSDOF 9
ENDMDL
MODEL 5
REMARK VINA RESULT: -7.313429692      8.039     12.388
REMARK  9 active torsions:
REMARK  status: ('A' for Active; 'I' for Inactive)
REMARK    1  A    between atoms: C2_2  and  N1_3 
REMARK    2  A    between atoms: N1_3  and  C3_5 
REMARK    3  A    between atoms: C4_6  and  N2_7 
REMARK    4  A    between atoms: N2_7  and  C5_9 
REMARK    5  A    between atoms: C11_18  and  N4_19 
REMARK    6  A    between atoms: N4_19  and  C13_21 
REMARK    7  A    between atoms: C13_21  and  C14_22 
REMARK    8  A    between atoms: C14_22  and  C15_23 
REMARK    9  A    between atoms: C15_23  and  N5_24 
ROOT
HETATM    1  C3  UNL     1      48.152  13.842  15.345  1.00  0.00     0.090 C 
HETATM    2  C4  UNL     1      47.045  14.612  15.672  1.00  0.00     0.149 C 
HETATM    3  N3  UNL     1      45.840  14.644  15.027  1.00  0.00    -0.174 N 
ATOM      4  H3  UNL     1      45.204  15.394  15.300  1.00  0.00     0.186 HD
HETATM    5  C11 UNL     1      45.387  13.802  14.070  1.00  0.00     0.682 C 
HETATM    6  N6  UNL     1      45.792  12.510  13.974  1.00  0.00    -0.184 N 
ATOM      7  H6  UNL     1      45.081  11.848  13.663  1.00  0.00     0.185 HD
HETATM    8  C18 UNL     1      47.029  11.971  14.238  1.00  0.00     0.104 A 
HETATM    9  S1  UNL     1      47.512  10.385  13.834  1.00  0.00    -0.075 SA
HETATM   10  C19 UNL     1      49.092  10.422  14.451  1.00  0.00    -0.012 A 
HETATM   11  C20 UNL     1      50.135   9.319  14.439  1.00  0.00     0.057 C 
HETATM   12  C21 UNL     1      49.217  11.683  14.966  1.00  0.00    -0.034 A 
HETATM   13  C22 UNL     1      50.522  12.108  15.634  1.00  0.00     0.050 C 
HETATM   14  C23 UNL     1      48.133  12.503  14.856  1.00  0.00     0.036 A 
ENDROOT
BRANCH   2  15
HETATM   15  N2  UNL     1      47.131  15.376  16.671  1.00  0.00    -0.340 N 
ATOM     16  H2  UNL     1      47.454  14.995  17.560  1.00  0.00     0.167 HD
BRANCH  15  17
HETATM   17  C5  UNL     1      46.792  16.747  16.591  1.00  0.00     0.035 A 
HETATM   18  C6  UNL     1      47.509  17.657  15.855  1.00  0.00     0.029 A 
HETATM   19  C7  UNL     1      47.107  18.970  15.830  1.00  0.00     0.004 A 
HETATM   20  C8  UNL     1      46.003  19.428  16.519  1.00  0.00     0.024 A 
HETATM   21  C9  UNL     1      45.277  18.505  17.264  1.00  0.00     0.036 A 
HETATM   22 CL1  UNL     1      43.873  19.092  18.138  1.00  0.00    -0.084 Cl
HETATM   23  C10 UNL     1      45.673  17.191  17.294  1.00  0.00     0.053 A 
ENDBRANCH  15  17
ENDBRANCH   2  15
BRANCH   1  24
HETATM   24  N1  UNL     1      49.256  14.384  15.485  1.00  0.00    -0.366 N 
ATOM     25  H1  UNL     1      49.666  14.131  16.383  1.00  0.00     0.165 HD
BRANCH  24  26
HETATM   26  C2  UNL     1      50.109  15.235  14.782  1.00  0.00     0.057 C 
HETATM   27  C1  UNL     1      49.807  15.394  13.297  1.00  0.00     0.054 C 
ENDBRANCH  24  26
ENDBRANCH   1  24
BRANCH   5  28
HETATM   28  N4  UNL     1      44.454  14.260  13.115  1.00  0.00    -0.222 N 
HETATM   29  C12 UNL     1      43.318  13.413  12.800  1.00  0.00     0.168 C 
BRANCH  28  30
HETATM   30  C13 UNL     1      44.581  15.498  12.445  1.00  0.00     0.142 C 
BRANCH  30  31
HETATM   31  C14 UNL     1      43.414  15.881  11.575  1.00  0.00     0.050 C 
BRANCH  31  32
HETATM   32  C15 UNL     1      43.732  16.826  10.467  1.00  0.00     0.273 C 
BRANCH  32  33
HETATM   33  N5  UNL     1      42.523  17.068   9.701  1.00  0.00     0.080 N 
HETATM   34  C16 UNL     1      41.482  17.615  10.543  1.00  0.00     0.309 C 
HETATM   35  C17 UNL     1      42.754  17.870   8.525  1.00  0.00     0.309 C 
ENDBRANCH  32  33
ENDBRANCH  31  32
ENDBRANCH  30  31
ENDBRANCH  28  30
ENDBRANCH   5  28
TORSDOF 9
ENDMDL
