MODEL 1
REMARK VINA RESULT: -8.236097542      0.000      0.000
REMARK  9 active torsions:
REMARK  status: ('A' for Active; 'I' for Inactive)
REMARK    1  A    between atoms: C2_2  and  C3_3 
REMARK    2  A    between atoms: C3_3  and  N1_4 
REMARK    3  A    between atoms: C5_7  and  N3_8 
REMARK    4  A    between atoms: N3_8  and  C7_10 
REMARK    5  A    between atoms: C7_10  and  C8_11 
REMARK    6  A    between atoms: C8_11  and  N4_12 
REMARK    7  A    between atoms: N4_12  and  C9_13 
REMARK    8  A    between atoms: N4_12  and  C15_20 
REMARK    9  A    between atoms: C9_13  and  C11_16 
ROOT
HETATM    1  C8  UNL     1      44.462  21.304  19.672  1.00  0.00     0.090 C 
ENDROOT
BRANCH   1   2
HETATM    2  C7  UNL     1      44.806  20.416  18.570  1.00  0.00     0.167 C 
BRANCH   2   3
HETATM    3  N3  UNL     1      45.813  19.419  18.716  1.00  0.00    -0.373 N 
HETATM    4  C6  UNL     1      46.932  19.418  19.603  1.00  0.00     0.150 C 
BRANCH   3   5
HETATM    5  C5  UNL     1      45.722  18.239  17.874  1.00  0.00     0.141 A 
HETATM    6  C4  UNL     1      46.341  18.232  16.648  1.00  0.00     0.154 A 
HETATM    7  N1  UNL     1      46.234  17.118  15.894  1.00  0.00    -0.285 N 
HETATM    8  N2  UNL     1      47.081  19.347  16.153  1.00  0.00    -0.080 NA
HETATM    9  C24 UNL     1      45.534  16.071  16.369  1.00  0.00     0.330 A 
HETATM   10  N5  UNL     1      44.930  16.087  17.574  1.00  0.00    -0.273 N 
HETATM   11  O2  UNL     1      45.427  15.027  15.672  1.00  0.00    -0.246 OA
HETATM   12  C23 UNL     1      45.008  17.184  18.367  1.00  0.00     0.279 A 
ATOM     13  H5  UNL     1      44.410  15.269  17.891  1.00  0.00     0.173 HD
HETATM   14  O1  UNL     1      44.440  17.190  19.493  1.00  0.00    -0.265 OA
BRANCH   7  15
HETATM   15  C3  UNL     1      46.872  17.093  14.604  1.00  0.00     0.135 C 
BRANCH  15  16
HETATM   16  C2  UNL     1      48.252  16.515  14.600  1.00  0.00     0.016 C 
HETATM   17  C1  UNL     1      48.871  16.338  13.256  1.00  0.00     0.006 C 
ENDBRANCH  15  16
ENDBRANCH   7  15
ENDBRANCH   3   5
ENDBRANCH   2   3
ENDBRANCH   1   2
BRANCH   1  18
HETATM   18  N4  UNL     1      43.785  22.514  19.631  1.00  0.00    -0.325 N 
BRANCH  18  19
HETATM   19  C9  UNL     1      42.377  22.389  19.225  1.00  0.00     0.050 C 
HETATM   20  C10 UNL     1      42.050  23.211  18.250  1.00  0.00     0.214 C 
HETATM   21  F1  UNL     1      40.863  23.349  17.656  1.00  0.00    -0.217 F 
BRANCH  19  22
HETATM   22  C11 UNL     1      41.403  21.498  19.799  1.00  0.00    -0.006 C 
HETATM   23  C12 UNL     1      41.831  20.831  21.105  1.00  0.00     0.021 C 
HETATM   24  C13 UNL     1      41.250  20.316  18.803  1.00  0.00     0.021 C 
HETATM   25  C14 UNL     1      40.020  22.004  20.023  1.00  0.00     0.021 C 
ENDBRANCH  19  22
ENDBRANCH  18  19
BRANCH  18  26
HETATM   26  C15 UNL     1      44.173  23.814  19.903  1.00  0.00     0.044 A 
HETATM   27  C16 UNL     1      44.765  24.528  18.833  1.00  0.00     0.031 A 
HETATM   28  C17 UNL     1      45.172  25.830  18.941  1.00  0.00     0.009 A 
HETATM   29  C18 UNL     1      45.016  26.509  20.131  1.00  0.00    -0.061 A 
HETATM   30  C19 UNL     1      45.438  27.919  20.303  1.00  0.00     0.048 C 
HETATM   31  C20 UNL     1      44.448  25.836  21.170  1.00  0.00     0.015 A 
HETATM   32  C21 UNL     1      44.036  24.525  21.067  1.00  0.00    -0.034 A 
HETATM   33  C22 UNL     1      43.423  23.934  22.254  1.00  0.00     0.050 C 
ENDBRANCH  18  26
ENDBRANCH   1  18
TORSDOF 9
ENDMDL
MODEL 2
REMARK VINA RESULT: -8.080892889      1.571      4.118
REMARK  9 active torsions:
REMARK  status: ('A' for Active; 'I' for Inactive)
REMARK    1  A    between atoms: C2_2  and  C3_3 
REMARK    2  A    between atoms: C3_3  and  N1_4 
REMARK    3  A    between atoms: C5_7  and  N3_8 
REMARK    4  A    between atoms: N3_8  and  C7_10 
REMARK    5  A    between atoms: C7_10  and  C8_11 
REMARK    6  A    between atoms: C8_11  and  N4_12 
REMARK    7  A    between atoms: N4_12  and  C9_13 
REMARK    8  A    between atoms: N4_12  and  C15_20 
REMARK    9  A    between atoms: C9_13  and  C11_16 
ROOT
HETATM    1  C8  UNL     1      44.964  21.897  19.488  1.00  0.00     0.090 C 
ENDROOT
BRANCH   1   2
HETATM    2  C7  UNL     1      45.358  20.495  19.492  1.00  0.00     0.167 C 
BRANCH   2   3
HETATM    3  N3  UNL     1      44.677  19.536  18.689  1.00  0.00    -0.373 N 
HETATM    4  C6  UNL     1      43.310  19.544  18.275  1.00  0.00     0.150 C 
BRANCH   3   5
HETATM    5  C5  UNL     1      45.435  18.394  18.212  1.00  0.00     0.141 A 
HETATM    6  C4  UNL     1      46.067  18.460  16.994  1.00  0.00     0.154 A 
HETATM    7  N1  UNL     1      46.761  17.378  16.584  1.00  0.00    -0.285 N 
HETATM    8  N2  UNL     1      46.013  19.618  16.161  1.00  0.00    -0.080 NA
HETATM    9  C24 UNL     1      46.807  16.292  17.376  1.00  0.00     0.330 A 
HETATM   10  N5  UNL     1      46.184  16.235  18.570  1.00  0.00    -0.273 N 
HETATM   11  O2  UNL     1      47.452  15.275  17.001  1.00  0.00    -0.246 OA
HETATM   12  C23 UNL     1      45.473  17.296  19.024  1.00  0.00     0.279 A 
ATOM     13  H5  UNL     1      46.247  15.389  19.135  1.00  0.00     0.173 HD
HETATM   14  O1  UNL     1      44.893  17.234  20.143  1.00  0.00    -0.265 OA
BRANCH   7  15
HETATM   15  C3  UNL     1      47.427  17.428  15.309  1.00  0.00     0.135 C 
BRANCH  15  16
HETATM   16  C2  UNL     1      46.683  16.773  14.189  1.00  0.00     0.016 C 
HETATM   17  C1  UNL     1      47.480  15.835  13.349  1.00  0.00     0.006 C 
ENDBRANCH  15  16
ENDBRANCH   7  15
ENDBRANCH   3   5
ENDBRANCH   2   3
ENDBRANCH   1   2
BRANCH   1  18
HETATM   18  N4  UNL     1      43.868  22.491  20.097  1.00  0.00    -0.325 N 
BRANCH  18  19
HETATM   19  C9  UNL     1      44.175  23.782  20.733  1.00  0.00     0.050 C 
HETATM   20  C10 UNL     1      43.598  23.925  21.907  1.00  0.00     0.214 C 
HETATM   21  F1  UNL     1      43.671  24.968  22.735  1.00  0.00    -0.217 F 
BRANCH  19  22
HETATM   22  C11 UNL     1      44.995  24.828  20.179  1.00  0.00    -0.006 C 
HETATM   23  C12 UNL     1      45.079  26.096  21.026  1.00  0.00     0.021 C 
HETATM   24  C13 UNL     1      44.293  25.291  18.874  1.00  0.00     0.021 C 
HETATM   25  C14 UNL     1      46.392  24.501  19.779  1.00  0.00     0.021 C 
ENDBRANCH  19  22
ENDBRANCH  18  19
BRANCH  18  26
HETATM   26  C15 UNL     1      42.544  22.110  20.221  1.00  0.00     0.044 A 
HETATM   27  C16 UNL     1      42.227  21.298  21.336  1.00  0.00     0.031 A 
HETATM   28  C17 UNL     1      40.956  20.866  21.607  1.00  0.00     0.009 A 
HETATM   29  C18 UNL     1      39.914  21.219  20.777  1.00  0.00    -0.061 A 
HETATM   30  C19 UNL     1      38.518  20.781  21.024  1.00  0.00     0.048 C 
HETATM   31  C20 UNL     1      40.202  22.000  19.700  1.00  0.00     0.015 A 
HETATM   32  C21 UNL     1      41.479  22.438  19.423  1.00  0.00    -0.034 A 
HETATM   33  C22 UNL     1      41.641  23.288  18.245  1.00  0.00     0.050 C 
ENDBRANCH  18  26
ENDBRANCH   1  18
TORSDOF 9
ENDMDL
MODEL 3
REMARK VINA RESULT: -8.041959811      0.734      1.399
REMARK  9 active torsions:
REMARK  status: ('A' for Active; 'I' for Inactive)
REMARK    1  A    between atoms: C2_2  and  C3_3 
REMARK    2  A    between atoms: C3_3  and  N1_4 
REMARK    3  A    between atoms: C5_7  and  N3_8 
REMARK    4  A    between atoms: N3_8  and  C7_10 
REMARK    5  A    between atoms: C7_10  and  C8_11 
REMARK    6  A    between atoms: C8_11  and  N4_12 
REMARK    7  A    between atoms: N4_12  and  C9_13 
REMARK    8  A    between atoms: N4_12  and  C15_20 
REMARK    9  A    between atoms: C9_13  and  C11_16 
ROOT
HETATM    1  C8  UNL     1      44.152  20.961  19.917  1.00  0.00     0.090 C 
ENDROOT
BRANCH   1   2
HETATM    2  C7  UNL     1      44.670  20.374  18.690  1.00  0.00     0.167 C 
BRANCH   2   3
HETATM    3  N3  UNL     1      45.771  19.470  18.715  1.00  0.00    -0.373 N 
HETATM    4  C6  UNL     1      46.981  19.573  19.466  1.00  0.00     0.150 C 
BRANCH   3   5
HETATM    5  C5  UNL     1      45.687  18.280  17.886  1.00  0.00     0.141 A 
HETATM    6  C4  UNL     1      46.227  18.295  16.623  1.00  0.00     0.154 A 
HETATM    7  N1  UNL     1      46.129  17.171  15.883  1.00  0.00    -0.285 N 
HETATM    8  N2  UNL     1      46.876  19.442  16.077  1.00  0.00    -0.080 NA
HETATM    9  C24 UNL     1      45.514  16.094  16.406  1.00  0.00     0.330 A 
HETATM   10  N5  UNL     1      44.988  16.089  17.646  1.00  0.00    -0.273 N 
HETATM   11  O2  UNL     1      45.416  15.040  15.722  1.00  0.00    -0.246 OA
HETATM   12  C23 UNL     1      45.060  17.194  18.428  1.00  0.00     0.279 A 
ATOM     13  H5  UNL     1      44.532  15.248  18.000  1.00  0.00     0.173 HD
HETATM   14  O1  UNL     1      44.565  17.180  19.588  1.00  0.00    -0.265 OA
BRANCH   7  15
HETATM   15  C3  UNL     1      46.684  17.168  14.555  1.00  0.00     0.135 C 
BRANCH  15  16
HETATM   16  C2  UNL     1      48.122  16.763  14.479  1.00  0.00     0.016 C 
HETATM   17  C1  UNL     1      48.453  15.758  13.430  1.00  0.00     0.006 C 
ENDBRANCH  15  16
ENDBRANCH   7  15
ENDBRANCH   3   5
ENDBRANCH   2   3
ENDBRANCH   1   2
BRANCH   1  18
HETATM   18  N4  UNL     1      43.419  22.128  20.078  1.00  0.00    -0.325 N 
BRANCH  18  19
HETATM   19  C9  UNL     1      42.025  22.016  19.625  1.00  0.00     0.050 C 
HETATM   20  C10 UNL     1      41.769  22.754  18.565  1.00  0.00     0.214 C 
HETATM   21  F1  UNL     1      40.613  22.877  17.911  1.00  0.00    -0.217 F 
BRANCH  19  22
HETATM   22  C11 UNL     1      40.994  21.219  20.238  1.00  0.00    -0.006 C 
HETATM   23  C12 UNL     1      41.321  20.712  21.641  1.00  0.00     0.021 C 
HETATM   24  C13 UNL     1      40.876  19.926  19.387  1.00  0.00     0.021 C 
HETATM   25  C14 UNL     1      39.613  21.772  20.306  1.00  0.00     0.021 C 
ENDBRANCH  19  22
ENDBRANCH  18  19
BRANCH  18  26
HETATM   26  C15 UNL     1      43.743  23.375  20.584  1.00  0.00     0.044 A 
HETATM   27  C16 UNL     1      43.345  23.632  21.918  1.00  0.00     0.031 A 
HETATM   28  C17 UNL     1      43.619  24.807  22.565  1.00  0.00     0.009 A 
HETATM   29  C18 UNL     1      44.313  25.807  21.919  1.00  0.00    -0.061 A 
HETATM   30  C19 UNL     1      44.638  27.098  22.571  1.00  0.00     0.048 C 
HETATM   31  C20 UNL     1      44.704  25.576  20.635  1.00  0.00     0.015 A 
HETATM   32  C21 UNL     1      44.430  24.394  19.979  1.00  0.00    -0.034 A 
HETATM   33  C22 UNL     1      44.928  24.273  18.611  1.00  0.00     0.050 C 
ENDBRANCH  18  26
ENDBRANCH   1  18
TORSDOF 9
ENDMDL
MODEL 4
REMARK VINA RESULT: -7.913894000      2.023      3.094
REMARK  9 active torsions:
REMARK  status: ('A' for Active; 'I' for Inactive)
REMARK    1  A    between atoms: C2_2  and  C3_3 
REMARK    2  A    between atoms: C3_3  and  N1_4 
REMARK    3  A    between atoms: C5_7  and  N3_8 
REMARK    4  A    between atoms: N3_8  and  C7_10 
REMARK    5  A    between atoms: C7_10  and  C8_11 
REMARK    6  A    between atoms: C8_11  and  N4_12 
REMARK    7  A    between atoms: N4_12  and  C9_13 
REMARK    8  A    between atoms: N4_12  and  C15_20 
REMARK    9  A    between atoms: C9_13  and  C11_16 
ROOT
HETATM    1  C8  UNL     1      43.510  19.025  18.764  1.00  0.00     0.090 C 
ENDROOT
BRANCH   1   2
HETATM    2  C7  UNL     1      44.409  18.724  17.658  1.00  0.00     0.167 C 
BRANCH   2   3
HETATM    3  N3  UNL     1      45.624  18.012  17.871  1.00  0.00    -0.373 N 
HETATM    4  C6  UNL     1      46.171  17.550  19.107  1.00  0.00     0.150 C 
BRANCH   3   5
HETATM    5  C5  UNL     1      46.434  17.695  16.708  1.00  0.00     0.141 A 
HETATM    6  C4  UNL     1      46.295  16.472  16.098  1.00  0.00     0.154 A 
HETATM    7  N1  UNL     1      47.065  16.215  15.020  1.00  0.00    -0.285 N 
HETATM    8  N2  UNL     1      45.378  15.482  16.559  1.00  0.00    -0.080 NA
HETATM    9  C24 UNL     1      47.927  17.155  14.592  1.00  0.00     0.330 A 
HETATM   10  N5  UNL     1      48.057  18.352  15.197  1.00  0.00    -0.273 N 
HETATM   11  O2  UNL     1      48.652  16.923  13.587  1.00  0.00    -0.246 OA
HETATM   12  C23 UNL     1      47.306  18.657  16.283  1.00  0.00     0.279 A 
ATOM     13  H5  UNL     1      48.725  19.033  14.836  1.00  0.00     0.173 HD
HETATM   14  O1  UNL     1      47.434  19.780  16.844  1.00  0.00    -0.265 OA
BRANCH   7  15
HETATM   15  C3  UNL     1      46.937  14.937  14.369  1.00  0.00     0.135 C 
BRANCH  15  16
HETATM   16  C2  UNL     1      45.971  14.911  13.228  1.00  0.00     0.016 C 
HETATM   17  C1  UNL     1      44.858  13.928  13.349  1.00  0.00     0.006 C 
ENDBRANCH  15  16
ENDBRANCH   7  15
ENDBRANCH   3   5
ENDBRANCH   2   3
ENDBRANCH   1   2
BRANCH   1  18
HETATM   18  N4  UNL     1      43.028  20.258  19.178  1.00  0.00    -0.325 N 
BRANCH  18  19
HETATM   19  C9  UNL     1      41.702  20.191  19.810  1.00  0.00     0.050 C 
HETATM   20  C10 UNL     1      40.866  19.406  19.164  1.00  0.00     0.214 C 
HETATM   21  F1  UNL     1      39.597  19.130  19.470  1.00  0.00    -0.217 F 
BRANCH  19  22
HETATM   22  C11 UNL     1      41.289  20.895  20.996  1.00  0.00    -0.006 C 
HETATM   23  C12 UNL     1      40.951  20.002  22.189  1.00  0.00     0.021 C 
HETATM   24  C13 UNL     1      39.943  21.587  20.649  1.00  0.00     0.021 C 
HETATM   25  C14 UNL     1      42.164  21.979  21.522  1.00  0.00     0.021 C 
ENDBRANCH  19  22
ENDBRANCH  18  19
BRANCH  18  26
HETATM   26  C15 UNL     1      43.552  21.537  19.117  1.00  0.00     0.044 A 
HETATM   27  C16 UNL     1      42.725  22.527  18.534  1.00  0.00     0.031 A 
HETATM   28  C17 UNL     1      43.094  23.841  18.430  1.00  0.00     0.009 A 
HETATM   29  C18 UNL     1      44.320  24.255  18.904  1.00  0.00    -0.061 A 
HETATM   30  C19 UNL     1      44.770  25.666  18.818  1.00  0.00     0.048 C 
HETATM   31  C20 UNL     1      45.129  23.316  19.468  1.00  0.00     0.015 A 
HETATM   32  C21 UNL     1      44.762  21.991  19.575  1.00  0.00    -0.034 A 
HETATM   33  C22 UNL     1      45.718  21.096  20.222  1.00  0.00     0.050 C 
ENDBRANCH  18  26
ENDBRANCH   1  18
TORSDOF 9
ENDMDL
MODEL 5
REMARK VINA RESULT: -7.896297451      5.267      9.167
REMARK  9 active torsions:
REMARK  status: ('A' for Active; 'I' for Inactive)
REMARK    1  A    between atoms: C2_2  and  C3_3 
REMARK    2  A    between atoms: C3_3  and  N1_4 
REMARK    3  A    between atoms: C5_7  and  N3_8 
REMARK    4  A    between atoms: N3_8  and  C7_10 
REMARK    5  A    between atoms: C7_10  and  C8_11 
REMARK    6  A    between atoms: C8_11  and  N4_12 
REMARK    7  A    between atoms: N4_12  and  C9_13 
REMARK    8  A    between atoms: N4_12  and  C15_20 
REMARK    9  A    between atoms: C9_13  and  C11_16 
ROOT
HETATM    1  C8  UNL     1      45.499  15.661  13.703  1.00  0.00     0.090 C 
ENDROOT
BRANCH   1   2
HETATM    2  C7  UNL     1      45.017  16.118  12.407  1.00  0.00     0.167 C 
BRANCH   2   3
HETATM    3  N3  UNL     1      44.344  15.232  11.518  1.00  0.00    -0.373 N 
HETATM    4  C6  UNL     1      44.900  14.169  10.743  1.00  0.00     0.150 C 
BRANCH   3   5
HETATM    5  C5  UNL     1      42.911  15.398  11.355  1.00  0.00     0.141 A 
HETATM    6  C4  UNL     1      42.434  16.318  10.453  1.00  0.00     0.154 A 
HETATM    7  N1  UNL     1      41.096  16.444  10.330  1.00  0.00    -0.285 N 
HETATM    8  N2  UNL     1      43.293  17.132   9.657  1.00  0.00    -0.080 NA
HETATM    9  C24 UNL     1      40.293  15.672  11.086  1.00  0.00     0.330 A 
HETATM   10  N5  UNL     1      40.771  14.772  11.967  1.00  0.00    -0.273 N 
HETATM   11  O2  UNL     1      39.042  15.784  10.979  1.00  0.00    -0.246 OA
HETATM   12  C23 UNL     1      42.107  14.609  12.127  1.00  0.00     0.279 A 
ATOM     13  H5  UNL     1      40.122  14.209  12.518  1.00  0.00     0.173 HD
HETATM   14  O1  UNL     1      42.544  13.764  12.956  1.00  0.00    -0.265 OA
BRANCH   7  15
HETATM   15  C3  UNL     1      40.577  17.406   9.394  1.00  0.00     0.135 C 
BRANCH  15  16
HETATM   16  C2  UNL     1      40.250  18.741   9.984  1.00  0.00     0.016 C 
HETATM   17  C1  UNL     1      38.850  19.209   9.781  1.00  0.00     0.006 C 
ENDBRANCH  15  16
ENDBRANCH   7  15
ENDBRANCH   3   5
ENDBRANCH   2   3
ENDBRANCH   1   2
BRANCH   1  18
HETATM   18  N4  UNL     1      46.515  16.189  14.486  1.00  0.00    -0.325 N 
BRANCH  18  19
HETATM   19  C9  UNL     1      47.862  15.929  13.959  1.00  0.00     0.050 C 
HETATM   20  C10 UNL     1      48.330  16.923  13.234  1.00  0.00     0.214 C 
HETATM   21  F1  UNL     1      49.511  17.004  12.617  1.00  0.00    -0.217 F 
BRANCH  19  22
HETATM   22  C11 UNL     1      48.637  14.731  14.160  1.00  0.00    -0.006 C 
HETATM   23  C12 UNL     1      49.960  14.937  14.894  1.00  0.00     0.021 C 
HETATM   24  C13 UNL     1      49.060  14.242  12.749  1.00  0.00     0.021 C 
HETATM   25  C14 UNL     1      47.981  13.559  14.803  1.00  0.00     0.021 C 
ENDBRANCH  19  22
ENDBRANCH  18  19
BRANCH  18  26
HETATM   26  C15 UNL     1      46.507  16.917  15.663  1.00  0.00     0.044 A 
HETATM   27  C16 UNL     1      46.439  18.325  15.530  1.00  0.00     0.031 A 
HETATM   28  C17 UNL     1      46.395  19.174  16.602  1.00  0.00     0.009 A 
HETATM   29  C18 UNL     1      46.415  18.671  17.885  1.00  0.00    -0.061 A 
HETATM   30  C19 UNL     1      46.367  19.545  19.082  1.00  0.00     0.048 C 
HETATM   31  C20 UNL     1      46.479  17.319  18.031  1.00  0.00     0.015 A 
HETATM   32  C21 UNL     1      46.524  16.459  16.955  1.00  0.00    -0.034 A 
HETATM   33  C22 UNL     1      46.570  15.030  17.258  1.00  0.00     0.050 C 
ENDBRANCH  18  26
ENDBRANCH   1  18
TORSDOF 9
ENDMDL
