MODEL 1
REMARK VINA RESULT: -8.981836705      0.000      0.000
REMARK  6 active torsions:
REMARK  status: ('A' for Active; 'I' for Inactive)
REMARK    1  A    between atoms: C3_3  and  C4_4 
REMARK    2  A    between atoms: C4_4  and  O2_6 
REMARK    3  A    between atoms: O2_6  and  C5_7 
REMARK    4  A    between atoms: C11_15  and  C12_16 
REMARK    5  A    between atoms: C13_17  and  C14_18 
REMARK    6  A    between atoms: C19_25  and  C21_27 
ROOT
HETATM    1  C1  UNL     1      18.294  51.953  26.648  1.00  0.00     0.016 C 
HETATM    2  C2  UNL     1      18.051  52.304  28.094  1.00  0.00     0.030 C 
HETATM    3  C3  UNL     1      16.605  52.795  28.202  1.00  0.00     0.028 C 
HETATM    4  C11 UNL     1      15.698  51.857  28.233  1.00  0.00    -0.046 C 
HETATM    5  C17 UNL     1      16.128  50.396  28.177  1.00  0.00     0.040 C 
HETATM    6  C18 UNL     1      17.195  50.260  29.251  1.00  0.00     0.015 C 
HETATM    7  C19 UNL     1      18.336  51.189  29.040  1.00  0.00    -0.024 C 
HETATM    8  C20 UNL     1      19.547  50.377  28.644  1.00  0.00     0.017 C 
ENDROOT
BRANCH   3   9
HETATM    9  C4  UNL     1      16.357  54.201  28.255  1.00  0.00     0.290 C 
HETATM   10  O1  UNL     1      15.646  54.827  27.466  1.00  0.00    -0.260 OA
BRANCH   9  11
HETATM   11  O2  UNL     1      16.944  54.989  29.268  1.00  0.00    -0.309 OA
BRANCH  11  12
HETATM   12  C5  UNL     1      17.897  55.953  28.898  1.00  0.00     0.174 C 
HETATM   13  C6  UNL     1      19.170  55.306  28.397  1.00  0.00     0.212 C 
HETATM   14  O3  UNL     1      20.215  55.738  29.243  1.00  0.00    -0.318 OA
HETATM   15  C7  UNL     1      19.633  56.138  30.431  1.00  0.00     0.269 C 
HETATM   16  O4  UNL     1      20.145  55.947  31.572  1.00  0.00    -0.264 OA
HETATM   17  C8  UNL     1      18.362  56.794  30.042  1.00  0.00     0.069 C 
HETATM   18  C9  UNL     1      17.380  56.863  31.178  1.00  0.00     0.028 C 
HETATM   19  C10 UNL     1      18.740  58.194  29.549  1.00  0.00     0.028 C 
ENDBRANCH  11  12
ENDBRANCH   9  11
ENDBRANCH   3   9
BRANCH   4  20
HETATM   20  C12 UNL     1      14.294  52.130  28.330  1.00  0.00     0.004 C 
HETATM   21  C13 UNL     1      13.306  51.332  27.988  1.00  0.00    -0.018 C 
BRANCH  21  22
HETATM   22  C14 UNL     1      11.900  51.785  28.161  1.00  0.00     0.050 A 
HETATM   23  C15 UNL     1      11.040  51.990  26.973  1.00  0.00     0.054 A 
HETATM   24  C16 UNL     1      10.800  50.778  27.794  1.00  0.00     0.121 A 
HETATM   25 CL1  UNL     1      11.395  49.202  27.241  1.00  0.00    -0.101 Cl
HETATM   26 CL2  UNL     1       9.341  50.743  28.797  1.00  0.00    -0.101 Cl
ENDBRANCH  21  22
ENDBRANCH   4  20
BRANCH   7  27
HETATM   27  C21 UNL     1      18.680  51.824  30.394  1.00  0.00     0.124 C 
HETATM   28 CL3  UNL     1      20.291  52.556  30.195  1.00  0.00    -0.130 Cl
ENDBRANCH   7  27
TORSDOF 6
ENDMDL
MODEL 2
REMARK VINA RESULT: -8.556676955      1.037      1.545
REMARK  6 active torsions:
REMARK  status: ('A' for Active; 'I' for Inactive)
REMARK    1  A    between atoms: C3_3  and  C4_4 
REMARK    2  A    between atoms: C4_4  and  O2_6 
REMARK    3  A    between atoms: O2_6  and  C5_7 
REMARK    4  A    between atoms: C11_15  and  C12_16 
REMARK    5  A    between atoms: C13_17  and  C14_18 
REMARK    6  A    between atoms: C19_25  and  C21_27 
ROOT
HETATM    1  C1  UNL     1      18.316  52.278  26.612  1.00  0.00     0.016 C 
HETATM    2  C2  UNL     1      18.072  52.504  28.082  1.00  0.00     0.030 C 
HETATM    3  C3  UNL     1      16.603  52.910  28.238  1.00  0.00     0.028 C 
HETATM    4  C11 UNL     1      15.747  51.925  28.204  1.00  0.00    -0.046 C 
HETATM    5  C17 UNL     1      16.252  50.497  28.033  1.00  0.00     0.040 C 
HETATM    6  C18 UNL     1      17.336  50.337  29.086  1.00  0.00     0.015 C 
HETATM    7  C19 UNL     1      18.425  51.338  28.938  1.00  0.00    -0.024 C 
HETATM    8  C20 UNL     1      19.672  50.623  28.473  1.00  0.00     0.017 C 
ENDROOT
BRANCH   3   9
HETATM    9  C4  UNL     1      16.283  54.292  28.400  1.00  0.00     0.290 C 
HETATM   10  O1  UNL     1      15.145  54.747  28.532  1.00  0.00    -0.260 OA
BRANCH   9  11
HETATM   11  O2  UNL     1      17.308  55.262  28.417  1.00  0.00    -0.309 OA
BRANCH  11  12
HETATM   12  C5  UNL     1      18.045  55.436  29.601  1.00  0.00     0.174 C 
HETATM   13  C6  UNL     1      17.168  55.940  30.727  1.00  0.00     0.212 C 
HETATM   14  O3  UNL     1      17.699  57.181  31.142  1.00  0.00    -0.318 OA
HETATM   15  C7  UNL     1      18.449  57.671  30.091  1.00  0.00     0.269 C 
HETATM   16  O4  UNL     1      18.511  58.894  29.771  1.00  0.00    -0.264 OA
HETATM   17  C8  UNL     1      19.104  56.484  29.491  1.00  0.00     0.069 C 
HETATM   18  C9  UNL     1      19.561  56.731  28.080  1.00  0.00     0.028 C 
HETATM   19  C10 UNL     1      20.283  56.141  30.406  1.00  0.00     0.028 C 
ENDBRANCH  11  12
ENDBRANCH   9  11
ENDBRANCH   3   9
BRANCH   4  20
HETATM   20  C12 UNL     1      14.331  52.116  28.332  1.00  0.00     0.004 C 
HETATM   21  C13 UNL     1      13.383  51.293  27.943  1.00  0.00    -0.018 C 
BRANCH  21  22
HETATM   22  C14 UNL     1      11.957  51.657  28.159  1.00  0.00     0.050 A 
HETATM   23  C15 UNL     1      11.059  51.844  26.996  1.00  0.00     0.054 A 
HETATM   24  C16 UNL     1      10.909  50.597  27.786  1.00  0.00     0.121 A 
HETATM   25 CL1  UNL     1      11.582  49.076  27.175  1.00  0.00    -0.101 Cl
HETATM   26 CL2  UNL     1       9.479  50.448  28.819  1.00  0.00    -0.101 Cl
ENDBRANCH  21  22
ENDBRANCH   4  20
BRANCH   7  27
HETATM   27  C21 UNL     1      18.750  51.886  30.334  1.00  0.00     0.124 C 
HETATM   28 CL3  UNL     1      20.280  52.782  30.163  1.00  0.00    -0.130 Cl
ENDBRANCH   7  27
TORSDOF 6
ENDMDL
MODEL 3
REMARK VINA RESULT: -7.755703096      1.089      1.116
REMARK  6 active torsions:
REMARK  status: ('A' for Active; 'I' for Inactive)
REMARK    1  A    between atoms: C3_3  and  C4_4 
REMARK    2  A    between atoms: C4_4  and  O2_6 
REMARK    3  A    between atoms: O2_6  and  C5_7 
REMARK    4  A    between atoms: C11_15  and  C12_16 
REMARK    5  A    between atoms: C13_17  and  C14_18 
REMARK    6  A    between atoms: C19_25  and  C21_27 
ROOT
HETATM    1  C1  UNL     1      18.431  52.917  26.170  1.00  0.00     0.016 C 
HETATM    2  C2  UNL     1      18.246  52.537  27.617  1.00  0.00     0.030 C 
HETATM    3  C3  UNL     1      16.809  52.902  28.000  1.00  0.00     0.028 C 
HETATM    4  C11 UNL     1      15.897  52.051  27.617  1.00  0.00    -0.046 C 
HETATM    5  C17 UNL     1      16.313  50.797  26.857  1.00  0.00     0.040 C 
HETATM    6  C18 UNL     1      17.420  50.179  27.697  1.00  0.00     0.015 C 
HETATM    7  C19 UNL     1      18.559  51.111  27.909  1.00  0.00    -0.024 C 
HETATM    8  C20 UNL     1      19.747  50.597  27.130  1.00  0.00     0.017 C 
ENDROOT
BRANCH   3   9
HETATM    9  C4  UNL     1      16.574  54.111  28.723  1.00  0.00     0.290 C 
HETATM   10  O1  UNL     1      15.581  54.831  28.600  1.00  0.00    -0.260 OA
BRANCH   9  11
HETATM   11  O2  UNL     1      17.518  54.570  29.667  1.00  0.00    -0.309 OA
BRANCH  11  12
HETATM   12  C5  UNL     1      18.598  55.345  29.210  1.00  0.00     0.174 C 
HETATM   13  C6  UNL     1      19.903  54.585  29.309  1.00  0.00     0.212 C 
HETATM   14  O3  UNL     1      20.751  55.324  30.162  1.00  0.00    -0.318 OA
HETATM   15  C7  UNL     1      19.939  56.128  30.939  1.00  0.00     0.269 C 
HETATM   16  O4  UNL     1      20.155  56.389  32.158  1.00  0.00    -0.264 OA
HETATM   17  C8  UNL     1      18.844  56.563  30.040  1.00  0.00     0.069 C 
HETATM   18  C9  UNL     1      17.631  57.032  30.796  1.00  0.00     0.028 C 
HETATM   19  C10 UNL     1      19.426  57.684  29.173  1.00  0.00     0.028 C 
ENDBRANCH  11  12
ENDBRANCH   9  11
ENDBRANCH   3   9
BRANCH   4  20
HETATM   20  C12 UNL     1      14.500  52.230  27.884  1.00  0.00     0.004 C 
HETATM   21  C13 UNL     1      13.570  51.300  27.896  1.00  0.00    -0.018 C 
BRANCH  21  22
HETATM   22  C14 UNL     1      12.162  51.671  28.198  1.00  0.00     0.050 A 
HETATM   23  C15 UNL     1      11.216  51.938  27.091  1.00  0.00     0.054 A 
HETATM   24  C16 UNL     1      11.081  50.649  27.813  1.00  0.00     0.121 A 
HETATM   25 CL1  UNL     1      11.700  49.157  27.084  1.00  0.00    -0.101 Cl
HETATM   26 CL2  UNL     1       9.696  50.460  28.900  1.00  0.00    -0.101 Cl
ENDBRANCH  21  22
ENDBRANCH   4  20
BRANCH   7  27
HETATM   27  C21 UNL     1      18.959  51.031  29.388  1.00  0.00     0.124 C 
HETATM   28 CL3  UNL     1      18.209  49.544  30.018  1.00  0.00    -0.130 Cl
ENDBRANCH   7  27
TORSDOF 6
ENDMDL
MODEL 4
REMARK VINA RESULT: -7.638341822      0.910      1.041
REMARK  6 active torsions:
REMARK  status: ('A' for Active; 'I' for Inactive)
REMARK    1  A    between atoms: C3_3  and  C4_4 
REMARK    2  A    between atoms: C4_4  and  O2_6 
REMARK    3  A    between atoms: O2_6  and  C5_7 
REMARK    4  A    between atoms: C11_15  and  C12_16 
REMARK    5  A    between atoms: C13_17  and  C14_18 
REMARK    6  A    between atoms: C19_25  and  C21_27 
ROOT
HETATM    1  C1  UNL     1      18.992  51.657  26.663  1.00  0.00     0.016 C 
HETATM    2  C2  UNL     1      18.731  52.085  28.085  1.00  0.00     0.030 C 
HETATM    3  C3  UNL     1      17.321  52.680  28.126  1.00  0.00     0.028 C 
HETATM    4  C11 UNL     1      16.349  51.810  28.164  1.00  0.00    -0.046 C 
HETATM    5  C17 UNL     1      16.675  50.321  28.180  1.00  0.00     0.040 C 
HETATM    6  C18 UNL     1      17.697  50.157  29.294  1.00  0.00     0.015 C 
HETATM    7  C19 UNL     1      18.907  50.994  29.083  1.00  0.00    -0.024 C 
HETATM    8  C20 UNL     1      20.068  50.083  28.761  1.00  0.00     0.017 C 
ENDROOT
BRANCH   3   9
HETATM    9  C4  UNL     1      17.171  54.101  28.114  1.00  0.00     0.290 C 
HETATM   10  O1  UNL     1      16.103  54.702  27.986  1.00  0.00    -0.260 OA
BRANCH   9  11
HETATM   11  O2  UNL     1      18.301  54.935  28.256  1.00  0.00    -0.309 OA
BRANCH  11  12
HETATM   12  C5  UNL     1      18.142  56.171  28.905  1.00  0.00     0.174 C 
HETATM   13  C6  UNL     1      19.138  57.192  28.400  1.00  0.00     0.212 C 
HETATM   14  O3  UNL     1      19.914  57.598  29.508  1.00  0.00    -0.318 OA
HETATM   15  C7  UNL     1      19.820  56.597  30.455  1.00  0.00     0.269 C 
HETATM   16  O4  UNL     1      20.776  56.231  31.199  1.00  0.00    -0.264 OA
HETATM   17  C8  UNL     1      18.423  56.109  30.372  1.00  0.00     0.069 C 
HETATM   18  C9  UNL     1      18.257  54.735  30.959  1.00  0.00     0.028 C 
HETATM   19  C10 UNL     1      17.569  57.139  31.117  1.00  0.00     0.028 C 
ENDBRANCH  11  12
ENDBRANCH   9  11
ENDBRANCH   3   9
BRANCH   4  20
HETATM   20  C12 UNL     1      14.965  52.184  28.203  1.00  0.00     0.004 C 
HETATM   21  C13 UNL     1      13.929  51.380  28.299  1.00  0.00    -0.018 C 
BRANCH  21  22
HETATM   22  C14 UNL     1      12.555  51.950  28.327  1.00  0.00     0.050 A 
HETATM   23  C15 UNL     1      11.832  52.195  27.058  1.00  0.00     0.054 A 
HETATM   24  C16 UNL     1      11.415  51.026  27.870  1.00  0.00     0.121 A 
HETATM   25 CL1  UNL     1      11.928  49.395  27.402  1.00  0.00    -0.101 Cl
HETATM   26 CL2  UNL     1       9.870  51.132  28.727  1.00  0.00    -0.101 Cl
ENDBRANCH  21  22
ENDBRANCH   4  20
BRANCH   7  27
HETATM   27  C21 UNL     1      19.254  51.660  30.422  1.00  0.00     0.124 C 
HETATM   28 CL3  UNL     1      20.460  52.915  30.045  1.00  0.00    -0.130 Cl
ENDBRANCH   7  27
TORSDOF 6
ENDMDL
MODEL 5
REMARK VINA RESULT: -7.598664122      1.360      1.945
REMARK  6 active torsions:
REMARK  status: ('A' for Active; 'I' for Inactive)
REMARK    1  A    between atoms: C3_3  and  C4_4 
REMARK    2  A    between atoms: C4_4  and  O2_6 
REMARK    3  A    between atoms: O2_6  and  C5_7 
REMARK    4  A    between atoms: C11_15  and  C12_16 
REMARK    5  A    between atoms: C13_17  and  C14_18 
REMARK    6  A    between atoms: C19_25  and  C21_27 
ROOT
HETATM    1  C1  UNL     1      18.884  53.318  26.730  1.00  0.00     0.016 C 
HETATM    2  C2  UNL     1      18.575  52.472  27.939  1.00  0.00     0.030 C 
HETATM    3  C3  UNL     1      17.130  52.776  28.345  1.00  0.00     0.028 C 
HETATM    4  C11 UNL     1      16.214  52.174  27.636  1.00  0.00    -0.046 C 
HETATM    5  C17 UNL     1      16.632  51.237  26.509  1.00  0.00     0.040 C 
HETATM    6  C18 UNL     1      17.644  50.294  27.140  1.00  0.00     0.015 C 
HETATM    7  C19 UNL     1      18.803  51.016  27.729  1.00  0.00    -0.024 C 
HETATM    8  C20 UNL     1      20.024  50.727  26.887  1.00  0.00     0.017 C 
ENDROOT
BRANCH   3   9
HETATM    9  C4  UNL     1      16.893  53.672  29.432  1.00  0.00     0.290 C 
HETATM   10  O1  UNL     1      16.348  53.370  30.495  1.00  0.00    -0.260 OA
BRANCH   9  11
HETATM   11  O2  UNL     1      17.292  55.023  29.339  1.00  0.00    -0.309 OA
BRANCH  11  12
HETATM   12  C5  UNL     1      18.282  55.489  30.221  1.00  0.00     0.174 C 
HETATM   13  C6  UNL     1      17.673  56.232  31.391  1.00  0.00     0.212 C 
HETATM   14  O3  UNL     1      18.189  57.546  31.362  1.00  0.00    -0.318 OA
HETATM   15  C7  UNL     1      18.614  57.784  30.069  1.00  0.00     0.269 C 
HETATM   16  O4  UNL     1      18.497  58.896  29.476  1.00  0.00    -0.264 OA
HETATM   17  C8  UNL     1      19.193  56.501  29.605  1.00  0.00     0.069 C 
HETATM   18  C9  UNL     1      19.267  56.411  28.106  1.00  0.00     0.028 C 
HETATM   19  C10 UNL     1      20.586  56.410  30.236  1.00  0.00     0.028 C 
ENDBRANCH  11  12
ENDBRANCH   9  11
ENDBRANCH   3   9
BRANCH   4  20
HETATM   20  C12 UNL     1      14.809  52.341  27.871  1.00  0.00     0.004 C 
HETATM   21  C13 UNL     1      13.911  51.391  28.012  1.00  0.00    -0.018 C 
BRANCH  21  22
HETATM   22  C14 UNL     1      12.488  51.753  28.253  1.00  0.00     0.050 A 
HETATM   23  C15 UNL     1      11.585  52.001  27.106  1.00  0.00     0.054 A 
HETATM   24  C16 UNL     1      11.432  50.719  27.835  1.00  0.00     0.121 A 
HETATM   25 CL1  UNL     1      12.093  49.224  27.147  1.00  0.00    -0.101 Cl
HETATM   26 CL2  UNL     1      10.006  50.527  28.867  1.00  0.00    -0.101 Cl
ENDBRANCH  21  22
ENDBRANCH   4  20
BRANCH   7  27
HETATM   27  C21 UNL     1      19.087  50.401  29.106  1.00  0.00     0.124 C 
HETATM   28 CL3  UNL     1      19.840  51.694  30.072  1.00  0.00    -0.130 Cl
ENDBRANCH   7  27
TORSDOF 6
ENDMDL
