MODEL 1
REMARK VINA RESULT: -5.635975617      0.000      0.000
REMARK  2 active torsions:
REMARK  status: ('A' for Active; 'I' for Inactive)
REMARK    1  A    between atoms: C2_2  and  N1_4 
REMARK    2  A    between atoms: N1_4  and  C5_6 
ROOT
HETATM    1  C5  UNL     1     -29.684  88.104 -10.879  1.00  0.00     0.247 C 
HETATM    2  C6  UNL     1     -30.666  88.253  -9.763  1.00  0.00     0.157 C 
HETATM    3  N2  UNL     1     -31.857  88.848 -10.303  1.00  0.00    -0.378 N 
ATOM      4  H2  UNL     1     -32.788  88.798  -9.890  1.00  0.00     0.160 HD
HETATM    5  C7  UNL     1     -31.520  89.514 -11.501  1.00  0.00     0.072 C 
HETATM    6  N3  UNL     1     -32.216  90.394 -12.117  1.00  0.00    -0.389 N 
ATOM      7  H31 UNL     1     -31.974  90.875 -12.983  1.00  0.00     0.157 HD
ATOM      8  H32 UNL     1     -33.129  90.736 -11.815  1.00  0.00     0.157 HD
HETATM    9  C8  UNL     1     -30.204  89.020 -11.938  1.00  0.00     0.113 C 
ENDROOT
BRANCH   1  10
HETATM   10  N1  UNL     1     -29.508  86.766 -11.330  1.00  0.00     0.094 N 
HETATM   11  C4  UNL     1     -28.870  85.883 -10.406  1.00  0.00     0.310 C 
BRANCH  10  12
HETATM   12  C2  UNL     1     -28.948  86.601 -12.621  1.00  0.00     0.215 C 
HETATM   13  C1  UNL     1     -27.477  86.843 -12.733  1.00  0.00     0.042 C 
HETATM   14  C3  UNL     1     -29.242  85.256 -13.246  1.00  0.00     0.042 C 
ENDBRANCH  10  12
ENDBRANCH   1  10
TORSDOF 2
ENDMDL
MODEL 2
REMARK VINA RESULT: -4.968482815      1.119      1.373
REMARK  2 active torsions:
REMARK  status: ('A' for Active; 'I' for Inactive)
REMARK    1  A    between atoms: C2_2  and  N1_4 
REMARK    2  A    between atoms: N1_4  and  C5_6 
ROOT
HETATM    1  C5  UNL     1     -28.910  87.925 -11.426  1.00  0.00     0.247 C 
HETATM    2  C6  UNL     1     -29.185  88.024  -9.961  1.00  0.00     0.157 C 
HETATM    3  N2  UNL     1     -30.532  88.498  -9.799  1.00  0.00    -0.378 N 
ATOM      4  H2  UNL     1     -31.109  88.381  -8.966  1.00  0.00     0.160 HD
HETATM    5  C7  UNL     1     -30.922  89.152 -10.988  1.00  0.00     0.072 C 
HETATM    6  N3  UNL     1     -31.912  89.950 -11.142  1.00  0.00    -0.389 N 
ATOM      7  H31 UNL     1     -32.194  90.423 -12.000  1.00  0.00     0.157 HD
ATOM      8  H32 UNL     1     -32.564  90.222 -10.406  1.00  0.00     0.157 HD
HETATM    9  C8  UNL     1     -29.981  88.759 -12.049  1.00  0.00     0.113 C 
ENDROOT
BRANCH   1  10
HETATM   10  N1  UNL     1     -28.873  86.594 -11.927  1.00  0.00     0.094 N 
HETATM   11  C4  UNL     1     -29.062  85.564 -10.954  1.00  0.00     0.310 C 
BRANCH  10  12
HETATM   12  C2  UNL     1     -27.785  86.264 -12.772  1.00  0.00     0.215 C 
HETATM   13  C1  UNL     1     -27.407  87.294 -13.786  1.00  0.00     0.042 C 
HETATM   14  C3  UNL     1     -26.530  85.870 -12.025  1.00  0.00     0.042 C 
ENDBRANCH  10  12
ENDBRANCH   1  10
TORSDOF 2
ENDMDL
MODEL 3
REMARK VINA RESULT: -4.886828770      1.470      2.153
REMARK  2 active torsions:
REMARK  status: ('A' for Active; 'I' for Inactive)
REMARK    1  A    between atoms: C2_2  and  N1_4 
REMARK    2  A    between atoms: N1_4  and  C5_6 
ROOT
HETATM    1  C5  UNL     1     -29.031  88.092 -11.627  1.00  0.00     0.247 C 
HETATM    2  C6  UNL     1     -28.634  87.366 -10.383  1.00  0.00     0.157 C 
HETATM    3  N2  UNL     1     -29.809  87.210  -9.571  1.00  0.00    -0.378 N 
ATOM      4  H2  UNL     1     -29.937  86.514  -8.836  1.00  0.00     0.160 HD
HETATM    5  C7  UNL     1     -30.755  88.182  -9.962  1.00  0.00     0.072 C 
HETATM    6  N3  UNL     1     -31.788  88.561  -9.308  1.00  0.00    -0.389 N 
ATOM      7  H31 UNL     1     -32.472  89.263  -9.590  1.00  0.00     0.157 HD
ATOM      8  H32 UNL     1     -32.069  88.200  -8.396  1.00  0.00     0.157 HD
HETATM    9  C8  UNL     1     -30.350  88.702 -11.278  1.00  0.00     0.113 C 
ENDROOT
BRANCH   1  10
HETATM   10  N1  UNL     1     -29.080  87.277 -12.791  1.00  0.00     0.094 N 
HETATM   11  C4  UNL     1     -29.269  85.880 -12.558  1.00  0.00     0.310 C 
BRANCH  10  12
HETATM   12  C2  UNL     1     -28.051  87.472 -13.745  1.00  0.00     0.215 C 
HETATM   13  C1  UNL     1     -26.885  86.541 -13.651  1.00  0.00     0.042 C 
HETATM   14  C3  UNL     1     -28.537  87.459 -15.178  1.00  0.00     0.042 C 
ENDBRANCH  10  12
ENDBRANCH   1  10
TORSDOF 2
ENDMDL
MODEL 4
REMARK VINA RESULT: -4.849864152      1.466      2.160
REMARK  2 active torsions:
REMARK  status: ('A' for Active; 'I' for Inactive)
REMARK    1  A    between atoms: C2_2  and  N1_4 
REMARK    2  A    between atoms: N1_4  and  C5_6 
ROOT
HETATM    1  C5  UNL     1     -28.596  87.724 -11.171  1.00  0.00     0.247 C 
HETATM    2  C6  UNL     1     -28.898  87.564  -9.717  1.00  0.00     0.157 C 
HETATM    3  N2  UNL     1     -30.313  87.740  -9.541  1.00  0.00    -0.378 N 
ATOM      4  H2  UNL     1     -30.863  87.399  -8.752  1.00  0.00     0.160 HD
HETATM    5  C7  UNL     1     -30.814  88.465 -10.643  1.00  0.00     0.072 C 
HETATM    6  N3  UNL     1     -31.940  89.069 -10.723  1.00  0.00    -0.389 N 
ATOM      7  H31 UNL     1     -32.302  89.594 -11.520  1.00  0.00     0.157 HD
ATOM      8  H32 UNL     1     -32.640  89.105  -9.982  1.00  0.00     0.157 HD
HETATM    9  C8  UNL     1     -29.805  88.414 -11.713  1.00  0.00     0.113 C 
ENDROOT
BRANCH   1  10
HETATM   10  N1  UNL     1     -28.294  86.508 -11.845  1.00  0.00     0.094 N 
HETATM   11  C4  UNL     1     -29.364  85.942 -12.604  1.00  0.00     0.310 C 
BRANCH  10  12
HETATM   12  C2  UNL     1     -27.659  85.499 -11.079  1.00  0.00     0.215 C 
HETATM   13  C1  UNL     1     -28.286  84.144 -11.132  1.00  0.00     0.042 C 
HETATM   14  C3  UNL     1     -26.186  85.338 -11.384  1.00  0.00     0.042 C 
ENDBRANCH  10  12
ENDBRANCH   1  10
TORSDOF 2
ENDMDL
MODEL 5
REMARK VINA RESULT: -4.848638396      1.591      2.698
REMARK  2 active torsions:
REMARK  status: ('A' for Active; 'I' for Inactive)
REMARK    1  A    between atoms: C2_2  and  N1_4 
REMARK    2  A    between atoms: N1_4  and  C5_6 
ROOT
HETATM    1  C5  UNL     1     -29.204  86.709 -11.778  1.00  0.00     0.247 C 
HETATM    2  C6  UNL     1     -29.760  87.359 -13.002  1.00  0.00     0.157 C 
HETATM    3  N2  UNL     1     -30.237  88.662 -12.629  1.00  0.00    -0.378 N 
ATOM      4  H2  UNL     1     -30.382  89.448 -13.263  1.00  0.00     0.160 HD
HETATM    5  C7  UNL     1     -30.473  88.670 -11.237  1.00  0.00     0.072 C 
HETATM    6  N3  UNL     1     -31.163  89.521 -10.575  1.00  0.00    -0.389 N 
ATOM      7  H31 UNL     1     -31.333  89.527  -9.570  1.00  0.00     0.157 HD
ATOM      8  H32 UNL     1     -31.644  90.325 -10.979  1.00  0.00     0.157 HD
HETATM    9  C8  UNL     1     -29.779  87.510 -10.655  1.00  0.00     0.113 C 
ENDROOT
BRANCH   1  10
HETATM   10  N1  UNL     1     -27.784  86.636 -11.745  1.00  0.00     0.094 N 
HETATM   11  C4  UNL     1     -27.137  86.654 -13.020  1.00  0.00     0.310 C 
BRANCH  10  12
HETATM   12  C2  UNL     1     -27.218  85.623 -10.932  1.00  0.00     0.215 C 
HETATM   13  C1  UNL     1     -27.899  84.293 -10.974  1.00  0.00     0.042 C 
HETATM   14  C3  UNL     1     -25.744  85.394 -11.181  1.00  0.00     0.042 C 
ENDBRANCH  10  12
ENDBRANCH   1  10
TORSDOF 2
ENDMDL
