MODEL 1
REMARK VINA RESULT: -5.009160986      0.000      0.000
REMARK  2 active torsions:
REMARK  status: ('A' for Active; 'I' for Inactive)
REMARK    1  A    between atoms: C2_2  and  C3_3 
REMARK    2  A    between atoms: C3_3  and  N1_4 
ROOT
HETATM    1  N1  UNL     1     -29.140  86.527 -11.467  1.00  0.00     0.089 N 
HETATM    2  C4  UNL     1     -29.986  87.395 -12.231  1.00  0.00     0.279 C 
HETATM    3  C5  UNL     1     -29.859  88.780 -11.655  1.00  0.00     0.047 C 
HETATM    4  C6  UNL     1     -31.234  89.390 -11.551  1.00  0.00     0.239 C 
HETATM    5  N2  UNL     1     -31.843  88.839 -10.377  1.00  0.00    -0.074 N 
ATOM      6  H21 UNL     1     -32.628  88.224 -10.593  1.00  0.00     0.277 HD
ATOM      7  H22 UNL     1     -32.357  89.535  -9.837  1.00  0.00     0.277 HD
HETATM    8  C7  UNL     1     -30.823  88.184  -9.609  1.00  0.00     0.239 C 
HETATM    9  C8  UNL     1     -29.499  88.503 -10.234  1.00  0.00     0.047 C 
HETATM   10  C9  UNL     1     -28.661  87.249 -10.326  1.00  0.00     0.279 C 
ENDROOT
BRANCH   1  11
HETATM   11  C3  UNL     1     -28.114  85.929 -12.262  1.00  0.00     0.272 C 
BRANCH  11  12
HETATM   12  C2  UNL     1     -26.760  86.163 -11.623  1.00  0.00     0.026 C 
HETATM   13  C1  UNL     1     -25.948  84.899 -11.827  1.00  0.00     0.007 C 
ENDBRANCH  11  12
ENDBRANCH   1  11
TORSDOF 2
ENDMDL
MODEL 2
REMARK VINA RESULT: -4.926994441      0.921      1.312
REMARK  2 active torsions:
REMARK  status: ('A' for Active; 'I' for Inactive)
REMARK    1  A    between atoms: C2_2  and  C3_3 
REMARK    2  A    between atoms: C3_3  and  N1_4 
ROOT
HETATM    1  N1  UNL     1     -29.095  86.623 -11.497  1.00  0.00     0.089 N 
HETATM    2  C4  UNL     1     -29.991  87.468 -12.229  1.00  0.00     0.279 C 
HETATM    3  C5  UNL     1     -29.915  88.846 -11.627  1.00  0.00     0.047 C 
HETATM    4  C6  UNL     1     -31.314  89.391 -11.488  1.00  0.00     0.239 C 
HETATM    5  N2  UNL     1     -31.879  88.791 -10.317  1.00  0.00    -0.074 N 
ATOM      6  H21 UNL     1     -32.639  88.147 -10.533  1.00  0.00     0.277 HD
ATOM      7  H22 UNL     1     -32.413  89.453  -9.755  1.00  0.00     0.277 HD
HETATM    8  C7  UNL     1     -30.818  88.167  -9.579  1.00  0.00     0.239 C 
HETATM    9  C8  UNL     1     -29.519  88.557 -10.217  1.00  0.00     0.047 C 
HETATM   10  C9  UNL     1     -28.629  87.342 -10.349  1.00  0.00     0.279 C 
ENDROOT
BRANCH   1  11
HETATM   11  C3  UNL     1     -28.057  86.087 -12.320  1.00  0.00     0.272 C 
BRANCH  11  12
HETATM   12  C2  UNL     1     -28.283  86.489 -13.764  1.00  0.00     0.026 C 
HETATM   13  C1  UNL     1     -26.986  87.097 -14.263  1.00  0.00     0.007 C 
ENDBRANCH  11  12
ENDBRANCH   1  11
TORSDOF 2
ENDMDL
MODEL 3
REMARK VINA RESULT: -4.794869396      1.093      2.010
REMARK  2 active torsions:
REMARK  status: ('A' for Active; 'I' for Inactive)
REMARK    1  A    between atoms: C2_2  and  C3_3 
REMARK    2  A    between atoms: C3_3  and  N1_4 
ROOT
HETATM    1  N1  UNL     1     -27.651  87.062 -12.099  1.00  0.00     0.089 N 
HETATM    2  C4  UNL     1     -28.103  87.131 -10.741  1.00  0.00     0.279 C 
HETATM    3  C5  UNL     1     -29.598  86.959 -10.748  1.00  0.00     0.047 C 
HETATM    4  C6  UNL     1     -30.207  87.974  -9.814  1.00  0.00     0.239 C 
HETATM    5  N2  UNL     1     -30.236  89.221 -10.519  1.00  0.00    -0.074 N 
ATOM      6  H21 UNL     1     -29.598  89.911 -10.124  1.00  0.00     0.277 HD
ATOM      7  H22 UNL     1     -31.105  89.735 -10.373  1.00  0.00     0.277 HD
HETATM    8  C7  UNL     1     -29.976  88.957 -11.905  1.00  0.00     0.239 C 
HETATM    9  C8  UNL     1     -29.972  87.470 -12.100  1.00  0.00     0.047 C 
HETATM   10  C9  UNL     1     -28.796  87.070 -12.960  1.00  0.00     0.279 C 
ENDROOT
BRANCH   1  11
HETATM   11  C3  UNL     1     -26.752  85.973 -12.319  1.00  0.00     0.272 C 
BRANCH  11  12
HETATM   12  C2  UNL     1     -26.061  85.602 -11.022  1.00  0.00     0.026 C 
HETATM   13  C1  UNL     1     -25.910  84.093 -11.016  1.00  0.00     0.007 C 
ENDBRANCH  11  12
ENDBRANCH   1  11
TORSDOF 2
ENDMDL
MODEL 4
REMARK VINA RESULT: -4.632978977      1.292      4.616
REMARK  2 active torsions:
REMARK  status: ('A' for Active; 'I' for Inactive)
REMARK    1  A    between atoms: C2_2  and  C3_3 
REMARK    2  A    between atoms: C3_3  and  N1_4 
ROOT
HETATM    1  N1  UNL     1     -29.338  87.292 -10.573  1.00  0.00     0.089 N 
HETATM    2  C4  UNL     1     -27.944  87.190 -10.257  1.00  0.00     0.279 C 
HETATM    3  C5  UNL     1     -27.246  86.600 -11.453  1.00  0.00     0.047 C 
HETATM    4  C6  UNL     1     -26.273  85.550 -10.977  1.00  0.00     0.239 C 
HETATM    5  N2  UNL     1     -27.038  84.370 -10.703  1.00  0.00    -0.074 N 
ATOM      6  H21 UNL     1     -27.068  84.143  -9.710  1.00  0.00     0.277 HD
ATOM      7  H22 UNL     1     -26.578  83.520 -11.027  1.00  0.00     0.277 HD
HETATM    8  C7  UNL     1     -28.345  84.543 -11.272  1.00  0.00     0.239 C 
HETATM    9  C8  UNL     1     -28.330  85.797 -12.092  1.00  0.00     0.047 C 
HETATM   10  C9  UNL     1     -29.574  86.608 -11.809  1.00  0.00     0.279 C 
ENDROOT
BRANCH   1  11
HETATM   11  C3  UNL     1     -29.805  88.642 -10.545  1.00  0.00     0.272 C 
BRANCH  11  12
HETATM   12  C2  UNL     1     -30.572  88.951 -11.816  1.00  0.00     0.026 C 
HETATM   13  C1  UNL     1     -31.915  89.518 -11.398  1.00  0.00     0.007 C 
ENDBRANCH  11  12
ENDBRANCH   1  11
TORSDOF 2
ENDMDL
MODEL 5
REMARK VINA RESULT: -4.598412691      1.933      2.605
REMARK  2 active torsions:
REMARK  status: ('A' for Active; 'I' for Inactive)
REMARK    1  A    between atoms: C2_2  and  C3_3 
REMARK    2  A    between atoms: C3_3  and  N1_4 
ROOT
HETATM    1  N1  UNL     1     -27.817  87.441 -12.703  1.00  0.00     0.089 N 
HETATM    2  C4  UNL     1     -27.994  87.104 -11.322  1.00  0.00     0.279 C 
HETATM    3  C5  UNL     1     -29.460  86.841 -11.101  1.00  0.00     0.047 C 
HETATM    4  C6  UNL     1     -29.886  87.518  -9.823  1.00  0.00     0.239 C 
HETATM    5  N2  UNL     1     -30.069  88.905 -10.130  1.00  0.00    -0.074 N 
ATOM      6  H21 UNL     1     -29.375  89.503  -9.681  1.00  0.00     0.277 HD
ATOM      7  H22 UNL     1     -30.899  89.300  -9.687  1.00  0.00     0.277 HD
HETATM    8  C7  UNL     1     -30.082  89.049 -11.558  1.00  0.00     0.239 C 
HETATM    9  C8  UNL     1     -30.098  87.677 -12.160  1.00  0.00     0.047 C 
HETATM   10  C9  UNL     1     -29.108  87.607 -13.300  1.00  0.00     0.279 C 
ENDROOT
BRANCH   1  11
HETATM   11  C3  UNL     1     -26.964  86.517 -13.383  1.00  0.00     0.272 C 
BRANCH  11  12
HETATM   12  C2  UNL     1     -27.214  86.586 -14.877  1.00  0.00     0.026 C 
HETATM   13  C1  UNL     1     -25.857  86.663 -15.551  1.00  0.00     0.007 C 
ENDBRANCH  11  12
ENDBRANCH   1  11
TORSDOF 2
ENDMDL
