MODEL 1
REMARK VINA RESULT: -4.667666601      0.000      0.000
REMARK  2 active torsions:
REMARK  status: ('A' for Active; 'I' for Inactive)
REMARK    1  A    between atoms: N1_2  and  C2_3 
REMARK    2  A    between atoms: C2_3  and  C3_4 
ROOT
HETATM    1  C1  UNL     1     -29.303  86.853 -10.109  1.00  0.00     0.272 C 
HETATM    2  N1  UNL     1     -29.117  86.775 -11.570  1.00  0.00    -0.069 N 
HETATM    3  C5  UNL     1     -27.707  87.030 -11.785  1.00  0.00     0.237 C 
HETATM    4  C6  UNL     1     -27.043  85.802 -11.191  1.00  0.00     0.029 C 
HETATM    5  C7  UNL     1     -28.139  84.760 -11.129  1.00  0.00     0.029 C 
HETATM    6  C8  UNL     1     -29.289  85.403 -11.921  1.00  0.00     0.237 C 
ENDROOT
BRANCH   2   7
HETATM    7  C2  UNL     1     -29.999  87.709 -12.174  1.00  0.00     0.271 C 
BRANCH   7   8
HETATM    8  C3  UNL     1     -30.511  88.810 -11.316  1.00  0.00     0.237 A 
HETATM    9  C4  UNL     1     -31.874  89.247 -11.194  1.00  0.00     0.267 A 
HETATM   10  N2  UNL     1     -30.944  90.005 -12.136  1.00  0.00    -0.066 N 
ATOM     11  H22 UNL     1     -30.640  90.969 -12.270  1.00  0.00     0.277 HD
ATOM     12  H21 UNL     1     -30.938  90.279 -13.119  1.00  0.00     0.277 HD
ENDBRANCH   7   8
ENDBRANCH   2   7
TORSDOF 2
ENDMDL
MODEL 2
REMARK VINA RESULT: -4.642149800      0.886      1.486
REMARK  2 active torsions:
REMARK  status: ('A' for Active; 'I' for Inactive)
REMARK    1  A    between atoms: N1_2  and  C2_3 
REMARK    2  A    between atoms: C2_3  and  C3_4 
ROOT
HETATM    1  C1  UNL     1     -29.234  85.555 -12.413  1.00  0.00     0.272 C 
HETATM    2  N1  UNL     1     -28.803  86.961 -12.295  1.00  0.00    -0.069 N 
HETATM    3  C5  UNL     1     -28.254  87.076 -10.959  1.00  0.00     0.237 C 
HETATM    4  C6  UNL     1     -26.994  86.234 -11.032  1.00  0.00     0.029 C 
HETATM    5  C7  UNL     1     -26.693  86.115 -12.511  1.00  0.00     0.029 C 
HETATM    6  C8  UNL     1     -27.676  87.105 -13.157  1.00  0.00     0.237 C 
ENDROOT
BRANCH   2   7
HETATM    7  C2  UNL     1     -29.926  87.787 -12.560  1.00  0.00     0.271 C 
BRANCH   7   8
HETATM    8  C3  UNL     1     -30.287  88.793 -11.527  1.00  0.00     0.237 A 
HETATM    9  C4  UNL     1     -31.605  89.106 -11.049  1.00  0.00     0.267 A 
HETATM   10  N2  UNL     1     -30.989  89.989 -12.129  1.00  0.00    -0.066 N 
ATOM     11  H22 UNL     1     -30.795  90.982 -12.262  1.00  0.00     0.277 HD
ATOM     12  H21 UNL     1     -31.243  90.315 -13.062  1.00  0.00     0.277 HD
ENDBRANCH   7   8
ENDBRANCH   2   7
TORSDOF 2
ENDMDL
MODEL 3
REMARK VINA RESULT: -4.547466714      1.348      1.721
REMARK  2 active torsions:
REMARK  status: ('A' for Active; 'I' for Inactive)
REMARK    1  A    between atoms: N1_2  and  C2_3 
REMARK    2  A    between atoms: C2_3  and  C3_4 
ROOT
HETATM    1  C1  UNL     1     -29.480  86.262 -11.889  1.00  0.00     0.272 C 
HETATM    2  N1  UNL     1     -28.605  87.423 -11.636  1.00  0.00    -0.069 N 
HETATM    3  C5  UNL     1     -27.546  86.918 -10.786  1.00  0.00     0.237 C 
HETATM    4  C6  UNL     1     -26.783  85.984 -11.707  1.00  0.00     0.029 C 
HETATM    5  C7  UNL     1     -27.182  86.407 -13.104  1.00  0.00     0.029 C 
HETATM    6  C8  UNL     1     -27.960  87.713 -12.874  1.00  0.00     0.237 C 
ENDROOT
BRANCH   2   7
HETATM    7  C2  UNL     1     -29.398  88.453 -11.066  1.00  0.00     0.271 C 
BRANCH   7   8
HETATM    8  C3  UNL     1     -30.846  88.457 -11.402  1.00  0.00     0.237 A 
HETATM    9  C4  UNL     1     -31.709  89.603 -11.490  1.00  0.00     0.267 A 
HETATM   10  N2  UNL     1     -31.700  88.790 -10.199  1.00  0.00    -0.066 N 
ATOM     11  H22 UNL     1     -32.384  88.311  -9.613  1.00  0.00     0.277 HD
ATOM     12  H21 UNL     1     -31.555  88.967  -9.205  1.00  0.00     0.277 HD
ENDBRANCH   7   8
ENDBRANCH   2   7
TORSDOF 2
ENDMDL
MODEL 4
REMARK VINA RESULT: -4.506775797      0.733      1.647
REMARK  2 active torsions:
REMARK  status: ('A' for Active; 'I' for Inactive)
REMARK    1  A    between atoms: N1_2  and  C2_3 
REMARK    2  A    between atoms: C2_3  and  C3_4 
ROOT
HETATM    1  C1  UNL     1     -27.846  87.411 -13.235  1.00  0.00     0.272 C 
HETATM    2  N1  UNL     1     -28.865  87.073 -12.224  1.00  0.00    -0.069 N 
HETATM    3  C5  UNL     1     -29.039  85.638 -12.328  1.00  0.00     0.237 C 
HETATM    4  C6  UNL     1     -27.716  85.096 -11.818  1.00  0.00     0.029 C 
HETATM    5  C7  UNL     1     -27.107  86.236 -11.033  1.00  0.00     0.029 C 
HETATM    6  C8  UNL     1     -28.245  87.266 -10.954  1.00  0.00     0.237 C 
ENDROOT
BRANCH   2   7
HETATM    7  C2  UNL     1     -30.026  87.844 -12.497  1.00  0.00     0.271 C 
BRANCH   7   8
HETATM    8  C3  UNL     1     -30.415  88.864 -11.489  1.00  0.00     0.237 A 
HETATM    9  C4  UNL     1     -31.746  89.184 -11.054  1.00  0.00     0.267 A 
HETATM   10  N2  UNL     1     -31.099  90.052 -12.128  1.00  0.00    -0.066 N 
ATOM     11  H22 UNL     1     -30.899  91.042 -12.269  1.00  0.00     0.277 HD
ATOM     12  H21 UNL     1     -31.326  90.365 -13.072  1.00  0.00     0.277 HD
ENDBRANCH   7   8
ENDBRANCH   2   7
TORSDOF 2
ENDMDL
MODEL 5
REMARK VINA RESULT: -4.459554123      1.212      1.855
REMARK  2 active torsions:
REMARK  status: ('A' for Active; 'I' for Inactive)
REMARK    1  A    between atoms: N1_2  and  C2_3 
REMARK    2  A    between atoms: C2_3  and  C3_4 
ROOT
HETATM    1  C1  UNL     1     -28.183  87.725 -12.804  1.00  0.00     0.272 C 
HETATM    2  N1  UNL     1     -28.656  87.290 -11.476  1.00  0.00    -0.069 N 
HETATM    3  C5  UNL     1     -29.365  86.050 -11.717  1.00  0.00     0.237 C 
HETATM    4  C6  UNL     1     -28.258  85.095 -12.125  1.00  0.00     0.029 C 
HETATM    5  C7  UNL     1     -26.985  85.740 -11.620  1.00  0.00     0.029 C 
HETATM    6  C8  UNL     1     -27.493  86.900 -10.749  1.00  0.00     0.237 C 
ENDROOT
BRANCH   2   7
HETATM    7  C2  UNL     1     -29.439  88.338 -10.926  1.00  0.00     0.271 C 
BRANCH   7   8
HETATM    8  C3  UNL     1     -30.873  88.389 -11.317  1.00  0.00     0.237 A 
HETATM    9  C4  UNL     1     -31.676  89.566 -11.502  1.00  0.00     0.267 A 
HETATM   10  N2  UNL     1     -31.752  88.829 -10.168  1.00  0.00    -0.066 N 
ATOM     11  H22 UNL     1     -32.479  88.417  -9.583  1.00  0.00     0.277 HD
ATOM     12  H21 UNL     1     -31.634  89.057  -9.181  1.00  0.00     0.277 HD
ENDBRANCH   7   8
ENDBRANCH   2   7
TORSDOF 2
ENDMDL
