MODEL 1
REMARK VINA RESULT: -4.906411502      0.000      0.000
REMARK  3 active torsions:
REMARK  status: ('A' for Active; 'I' for Inactive)
REMARK    1  A    between atoms: C2_2  and  N1_3 
REMARK    2  A    between atoms: C3_5  and  N2_6 
REMARK    3  A    between atoms: N2_6  and  C4_8 
ROOT
HETATM    1  C4  UNL     1     -29.574  87.978 -12.663  1.00  0.00     0.284 C 
HETATM    2  C5  UNL     1     -29.450  86.767 -11.785  1.00  0.00     0.054 C 
HETATM    3  C6  UNL     1     -29.475  87.078 -10.318  1.00  0.00     0.005 C 
HETATM    4  C7  UNL     1     -29.730  88.564 -10.168  1.00  0.00     0.028 C 
HETATM    5  C8  UNL     1     -31.019  88.839 -10.940  1.00  0.00     0.235 C 
HETATM    6  N3  UNL     1     -30.673  88.836 -12.335  1.00  0.00    -0.054 N 
ATOM      7  H31 UNL     1     -31.488  88.607 -12.904  1.00  0.00     0.279 HD
ATOM      8  H32 UNL     1     -30.495  89.786 -12.661  1.00  0.00     0.279 HD
ENDROOT
BRANCH   1   9
HETATM    9  N2  UNL     1     -29.765  87.527 -14.030  1.00  0.00    -0.359 N 
ATOM     10  H2  UNL     1     -30.707  87.448 -14.414  1.00  0.00     0.162 HD
BRANCH   9  11
HETATM   11  C3  UNL     1     -28.638  87.195 -14.832  1.00  0.00     0.172 C 
HETATM   12  N1  UNL     1     -27.541  87.815 -14.639  1.00  0.00    -0.387 N 
ATOM     13  H1  UNL     1     -27.474  88.536 -13.921  1.00  0.00     0.160 HD
BRANCH  12  14
HETATM   14  C2  UNL     1     -26.397  87.484 -15.449  1.00  0.00     0.116 C 
HETATM   15  C1  UNL     1     -25.870  88.734 -16.125  1.00  0.00     0.026 C 
ENDBRANCH  12  14
ENDBRANCH   9  11
ENDBRANCH   1   9
TORSDOF 3
ENDMDL
MODEL 2
REMARK VINA RESULT: -4.896407686      2.624      3.805
REMARK  3 active torsions:
REMARK  status: ('A' for Active; 'I' for Inactive)
REMARK    1  A    between atoms: C2_2  and  N1_3 
REMARK    2  A    between atoms: C3_5  and  N2_6 
REMARK    3  A    between atoms: N2_6  and  C4_8 
ROOT
HETATM    1  C4  UNL     1     -29.292  87.167 -12.462  1.00  0.00     0.284 C 
HETATM    2  C5  UNL     1     -29.398  86.454 -11.147  1.00  0.00     0.054 C 
HETATM    3  C6  UNL     1     -29.625  87.368  -9.980  1.00  0.00     0.005 C 
HETATM    4  C7  UNL     1     -29.785  88.774 -10.521  1.00  0.00     0.028 C 
HETATM    5  C8  UNL     1     -30.915  88.692 -11.546  1.00  0.00     0.235 C 
HETATM    6  N3  UNL     1     -30.360  88.086 -12.725  1.00  0.00    -0.054 N 
ATOM      7  H31 UNL     1     -31.093  87.635 -13.274  1.00  0.00     0.279 HD
ATOM      8  H32 UNL     1     -30.062  88.802 -13.388  1.00  0.00     0.279 HD
ENDROOT
BRANCH   1   9
HETATM    9  N2  UNL     1     -29.304  86.171 -13.519  1.00  0.00    -0.359 N 
ATOM     10  H2  UNL     1     -29.250  86.462 -14.495  1.00  0.00     0.162 HD
BRANCH   9  11
HETATM   11  C3  UNL     1     -29.391  84.790 -13.191  1.00  0.00     0.172 C 
HETATM   12  N1  UNL     1     -30.197  84.050 -13.846  1.00  0.00    -0.387 N 
ATOM     13  H1  UNL     1     -30.769  84.445 -14.592  1.00  0.00     0.160 HD
BRANCH  12  14
HETATM   14  C2  UNL     1     -30.289  82.651 -13.518  1.00  0.00     0.116 C 
HETATM   15  C1  UNL     1     -31.566  82.074 -14.095  1.00  0.00     0.026 C 
ENDBRANCH  12  14
ENDBRANCH   9  11
ENDBRANCH   1   9
TORSDOF 3
ENDMDL
MODEL 3
REMARK VINA RESULT: -4.884312544      2.926      5.017
REMARK  3 active torsions:
REMARK  status: ('A' for Active; 'I' for Inactive)
REMARK    1  A    between atoms: C2_2  and  N1_3 
REMARK    2  A    between atoms: C3_5  and  N2_6 
REMARK    3  A    between atoms: N2_6  and  C4_8 
ROOT
HETATM    1  C4  UNL     1     -27.937  86.843 -10.477  1.00  0.00     0.284 C 
HETATM    2  C5  UNL     1     -27.787  87.010 -11.961  1.00  0.00     0.054 C 
HETATM    3  C6  UNL     1     -27.251  85.795 -12.655  1.00  0.00     0.005 C 
HETATM    4  C7  UNL     1     -27.117  84.696 -11.621  1.00  0.00     0.028 C 
HETATM    5  C8  UNL     1     -28.500  84.558 -10.987  1.00  0.00     0.235 C 
HETATM    6  N3  UNL     1     -28.653  85.665 -10.084  1.00  0.00    -0.054 N 
ATOM      7  H31 UNL     1     -29.640  85.877  -9.942  1.00  0.00     0.279 HD
ATOM      8  H32 UNL     1     -28.396  85.390  -9.136  1.00  0.00     0.279 HD
ENDROOT
BRANCH   1   9
HETATM    9  N2  UNL     1     -28.668  87.988  -9.965  1.00  0.00    -0.359 N 
ATOM     10  H2  UNL     1     -28.173  88.730  -9.469  1.00  0.00     0.162 HD
BRANCH   9  11
HETATM   11  C3  UNL     1     -30.075  88.076 -10.156  1.00  0.00     0.172 C 
HETATM   12  N1  UNL     1     -30.568  89.159 -10.613  1.00  0.00    -0.387 N 
ATOM     13  H1  UNL     1     -29.962  89.948 -10.837  1.00  0.00     0.160 HD
BRANCH  12  14
HETATM   14  C2  UNL     1     -31.992  89.255 -10.808  1.00  0.00     0.116 C 
HETATM   15  C1  UNL     1     -32.286  90.076 -12.046  1.00  0.00     0.026 C 
ENDBRANCH  12  14
ENDBRANCH   9  11
ENDBRANCH   1   9
TORSDOF 3
ENDMDL
MODEL 4
REMARK VINA RESULT: -4.823032840      2.896      4.199
REMARK  3 active torsions:
REMARK  status: ('A' for Active; 'I' for Inactive)
REMARK    1  A    between atoms: C2_2  and  N1_3 
REMARK    2  A    between atoms: C3_5  and  N2_6 
REMARK    3  A    between atoms: N2_6  and  C4_8 
ROOT
HETATM    1  C4  UNL     1     -28.381  87.450 -10.543  1.00  0.00     0.284 C 
HETATM    2  C5  UNL     1     -29.544  87.240  -9.619  1.00  0.00     0.054 C 
HETATM    3  C6  UNL     1     -30.690  88.174  -9.867  1.00  0.00     0.005 C 
HETATM    4  C7  UNL     1     -30.349  89.007 -11.086  1.00  0.00     0.028 C 
HETATM    5  C8  UNL     1     -30.042  88.002 -12.196  1.00  0.00     0.235 C 
HETATM    6  N3  UNL     1     -28.728  87.485 -11.933  1.00  0.00    -0.054 N 
ATOM      7  H31 UNL     1     -28.617  86.562 -12.353  1.00  0.00     0.279 HD
ATOM      8  H32 UNL     1     -28.028  88.003 -12.464  1.00  0.00     0.279 HD
ENDROOT
BRANCH   1   9
HETATM    9  N2  UNL     1     -27.449  86.353 -10.354  1.00  0.00    -0.359 N 
ATOM     10  H2  UNL     1     -26.668  86.452  -9.705  1.00  0.00     0.162 HD
BRANCH   9  11
HETATM   11  C3  UNL     1     -27.627  85.138 -11.072  1.00  0.00     0.172 C 
HETATM   12  N1  UNL     1     -28.196  84.156 -10.491  1.00  0.00    -0.387 N 
ATOM     13  H1  UNL     1     -28.516  84.242  -9.527  1.00  0.00     0.160 HD
BRANCH  12  14
HETATM   14  C2  UNL     1     -28.378  82.923 -11.214  1.00  0.00     0.116 C 
HETATM   15  C1  UNL     1     -29.257  83.165 -12.424  1.00  0.00     0.026 C 
ENDBRANCH  12  14
ENDBRANCH   9  11
ENDBRANCH   1   9
TORSDOF 3
ENDMDL
MODEL 5
REMARK VINA RESULT: -4.744032425      3.574      4.158
REMARK  3 active torsions:
REMARK  status: ('A' for Active; 'I' for Inactive)
REMARK    1  A    between atoms: C2_2  and  N1_3 
REMARK    2  A    between atoms: C3_5  and  N2_6 
REMARK    3  A    between atoms: N2_6  and  C4_8 
ROOT
HETATM    1  C4  UNL     1     -29.356  86.089 -10.443  1.00  0.00     0.284 C 
HETATM    2  C5  UNL     1     -29.272  86.594 -11.853  1.00  0.00     0.054 C 
HETATM    3  C6  UNL     1     -29.986  87.894 -12.073  1.00  0.00     0.005 C 
HETATM    4  C7  UNL     1     -30.506  88.367 -10.730  1.00  0.00     0.028 C 
HETATM    5  C8  UNL     1     -29.285  88.412  -9.812  1.00  0.00     0.235 C 
HETATM    6  N3  UNL     1     -28.993  87.054  -9.446  1.00  0.00    -0.054 N 
ATOM      7  H31 UNL     1     -28.010  86.955  -9.194  1.00  0.00     0.279 HD
ATOM      8  H32 UNL     1     -29.426  86.823  -8.551  1.00  0.00     0.279 HD
ENDROOT
BRANCH   1   9
HETATM    9  N2  UNL     1     -28.447  84.964 -10.311  1.00  0.00    -0.359 N 
ATOM     10  H2  UNL     1     -28.695  84.175  -9.713  1.00  0.00     0.162 HD
BRANCH   9  11
HETATM   11  C3  UNL     1     -27.212  84.962 -11.017  1.00  0.00     0.172 C 
HETATM   12  N1  UNL     1     -26.131  84.783 -10.366  1.00  0.00    -0.387 N 
ATOM     13  H1  UNL     1     -26.154  84.643  -9.356  1.00  0.00     0.160 HD
BRANCH  12  14
HETATM   14  C2  UNL     1     -24.877  84.781 -11.074  1.00  0.00     0.116 C 
HETATM   15  C1  UNL     1     -23.732  84.874 -10.088  1.00  0.00     0.026 C 
ENDBRANCH  12  14
ENDBRANCH   9  11
ENDBRANCH   1   9
TORSDOF 3
ENDMDL
