MODEL 1
REMARK VINA RESULT: -4.591055015      0.000      0.000
REMARK  4 active torsions:
REMARK  status: ('A' for Active; 'I' for Inactive)
REMARK    1  A    between atoms: C2_2  and  N1_3 
REMARK    2  A    between atoms: C2_2  and  C3_7 
REMARK    3  A    between atoms: C3_7  and  N2_8 
REMARK    4  A    between atoms: C8_13  and  N3_14 
ROOT
HETATM    1  N2  UNL     1     -28.091  86.453 -11.601  1.00  0.00    -0.040 N 
HETATM    2  C4  UNL     1     -26.847  86.466 -10.812  1.00  0.00     0.275 C 
HETATM    3  C5  UNL     1     -27.607  86.130 -12.960  1.00  0.00     0.239 C 
HETATM    4  C6  UNL     1     -28.846  85.543 -13.588  1.00  0.00     0.032 C 
HETATM    5  C7  UNL     1     -29.275  84.593 -12.494  1.00  0.00     0.064 C 
HETATM    6  C8  UNL     1     -28.947  85.385 -11.243  1.00  0.00     0.384 C 
ENDROOT
BRANCH   1   7
HETATM    7  C3  UNL     1     -28.660  87.741 -11.687  1.00  0.00     0.271 C 
BRANCH   7   8
HETATM    8  C2  UNL     1     -29.789  88.067 -10.784  1.00  0.00     0.205 C 
HETATM    9  C1  UNL     1     -30.788  88.890 -11.616  1.00  0.00     0.041 C 
BRANCH   8  10
HETATM   10  N1  UNL     1     -29.440  88.930  -9.677  1.00  0.00    -0.074 N 
ATOM     11  H13 UNL     1     -29.107  89.853  -9.958  1.00  0.00     0.274 HD
ATOM     12  H12 UNL     1     -30.240  89.258  -9.137  1.00  0.00     0.274 HD
ATOM     13  H11 UNL     1     -28.764  88.392  -9.135  1.00  0.00     0.274 HD
ENDBRANCH   8  10
ENDBRANCH   7   8
ENDBRANCH   1   7
BRANCH   6  14
HETATM   14  N3  UNL     1     -28.275  84.435 -10.339  1.00  0.00    -0.050 N 
ATOM     15  H33 UNL     1     -27.323  84.237 -10.646  1.00  0.00     0.276 HD
ATOM     16  H32 UNL     1     -28.064  84.864  -9.438  1.00  0.00     0.276 HD
ATOM     17  H31 UNL     1     -28.818  83.578 -10.227  1.00  0.00     0.276 HD
ENDBRANCH   6  14
TORSDOF 4
ENDMDL
MODEL 2
REMARK VINA RESULT: -4.372118868      1.091      1.146
REMARK  4 active torsions:
REMARK  status: ('A' for Active; 'I' for Inactive)
REMARK    1  A    between atoms: C2_2  and  N1_3 
REMARK    2  A    between atoms: C2_2  and  C3_7 
REMARK    3  A    between atoms: C3_7  and  N2_8 
REMARK    4  A    between atoms: C8_13  and  N3_14 
ROOT
HETATM    1  N2  UNL     1     -28.746  86.347 -11.803  1.00  0.00    -0.040 N 
HETATM    2  C4  UNL     1     -27.673  86.973 -11.012  1.00  0.00     0.275 C 
HETATM    3  C5  UNL     1     -28.074  86.059 -13.087  1.00  0.00     0.239 C 
HETATM    4  C6  UNL     1     -28.926  84.938 -13.627  1.00  0.00     0.032 C 
HETATM    5  C7  UNL     1     -29.020  84.061 -12.401  1.00  0.00     0.064 C 
HETATM    6  C8  UNL     1     -29.129  85.085 -11.288  1.00  0.00     0.384 C 
ENDROOT
BRANCH   1   7
HETATM    7  C3  UNL     1     -29.773  87.267 -12.099  1.00  0.00     0.271 C 
BRANCH   7   8
HETATM    8  C2  UNL     1     -29.823  88.530 -11.325  1.00  0.00     0.205 C 
HETATM    9  C1  UNL     1     -30.709  88.253 -10.097  1.00  0.00     0.041 C 
BRANCH   8  10
HETATM   10  N1  UNL     1     -30.479  89.624 -12.007  1.00  0.00    -0.074 N 
ATOM     11  H13 UNL     1     -31.487  89.504 -12.112  1.00  0.00     0.274 HD
ATOM     12  H12 UNL     1     -30.524  90.486 -11.463  1.00  0.00     0.274 HD
ATOM     13  H11 UNL     1     -29.977  89.714 -12.890  1.00  0.00     0.274 HD
ENDBRANCH   8  10
ENDBRANCH   7   8
ENDBRANCH   1   7
BRANCH   6  14
HETATM   14  N3  UNL     1     -28.204  84.627 -10.237  1.00  0.00    -0.050 N 
ATOM     15  H33 UNL     1     -27.292  85.077 -10.320  1.00  0.00     0.276 HD
ATOM     16  H32 UNL     1     -28.474  84.985  -9.321  1.00  0.00     0.276 HD
ATOM     17  H31 UNL     1     -28.120  83.611 -10.231  1.00  0.00     0.276 HD
ENDBRANCH   6  14
TORSDOF 4
ENDMDL
MODEL 3
REMARK VINA RESULT: -4.329232423      1.488      3.992
REMARK  4 active torsions:
REMARK  status: ('A' for Active; 'I' for Inactive)
REMARK    1  A    between atoms: C2_2  and  N1_3 
REMARK    2  A    between atoms: C2_2  and  C3_7 
REMARK    3  A    between atoms: C3_7  and  N2_8 
REMARK    4  A    between atoms: C8_13  and  N3_14 
ROOT
HETATM    1  N2  UNL     1     -29.188  87.205 -11.840  1.00  0.00    -0.040 N 
HETATM    2  C4  UNL     1     -28.314  87.857 -12.830  1.00  0.00     0.275 C 
HETATM    3  C5  UNL     1     -28.367  87.244 -10.611  1.00  0.00     0.239 C 
HETATM    4  C6  UNL     1     -29.426  87.153  -9.541  1.00  0.00     0.032 C 
HETATM    5  C7  UNL     1     -30.405  88.186 -10.046  1.00  0.00     0.064 C 
HETATM    6  C8  UNL     1     -30.339  87.975 -11.547  1.00  0.00     0.384 C 
ENDROOT
BRANCH   1   7
HETATM    7  C3  UNL     1     -29.377  85.840 -12.139  1.00  0.00     0.271 C 
BRANCH   7   8
HETATM    8  C2  UNL     1     -28.299  84.890 -11.777  1.00  0.00     0.205 C 
HETATM    9  C1  UNL     1     -27.851  84.220 -13.089  1.00  0.00     0.041 C 
BRANCH   8  10
HETATM   10  N1  UNL     1     -28.724  83.794 -10.936  1.00  0.00    -0.074 N 
ATOM     11  H13 UNL     1     -28.210  83.720 -10.057  1.00  0.00     0.274 HD
ATOM     12  H12 UNL     1     -29.646  83.924 -10.518  1.00  0.00     0.274 HD
ATOM     13  H11 UNL     1     -28.649  82.969 -11.531  1.00  0.00     0.274 HD
ENDBRANCH   8  10
ENDBRANCH   7   8
ENDBRANCH   1   7
BRANCH   6  14
HETATM   14  N3  UNL     1     -30.251  89.323 -12.133  1.00  0.00    -0.050 N 
ATOM     15  H33 UNL     1     -31.155  89.635 -12.489  1.00  0.00     0.276 HD
ATOM     16  H32 UNL     1     -30.111  90.033 -11.414  1.00  0.00     0.276 HD
ATOM     17  H31 UNL     1     -29.529  89.372 -12.852  1.00  0.00     0.276 HD
ENDBRANCH   6  14
TORSDOF 4
ENDMDL
MODEL 4
REMARK VINA RESULT: -4.316125058      1.734      3.656
REMARK  4 active torsions:
REMARK  status: ('A' for Active; 'I' for Inactive)
REMARK    1  A    between atoms: C2_2  and  N1_3 
REMARK    2  A    between atoms: C2_2  and  C3_7 
REMARK    3  A    between atoms: C3_7  and  N2_8 
REMARK    4  A    between atoms: C8_13  and  N3_14 
ROOT
HETATM    1  N2  UNL     1     -28.941  87.017 -11.791  1.00  0.00    -0.040 N 
HETATM    2  C4  UNL     1     -29.321  85.623 -12.076  1.00  0.00     0.275 C 
HETATM    3  C5  UNL     1     -30.217  87.742 -11.968  1.00  0.00     0.239 C 
HETATM    4  C6  UNL     1     -29.983  88.972 -11.128  1.00  0.00     0.032 C 
HETATM    5  C7  UNL     1     -29.431  88.337  -9.873  1.00  0.00     0.064 C 
HETATM    6  C8  UNL     1     -28.583  87.213 -10.436  1.00  0.00     0.384 C 
ENDROOT
BRANCH   1   7
HETATM    7  C3  UNL     1     -28.066  87.524 -12.774  1.00  0.00     0.271 C 
BRANCH   7   8
HETATM    8  C2  UNL     1     -28.085  86.897 -14.117  1.00  0.00     0.205 C 
HETATM    9  C1  UNL     1     -26.615  86.757 -14.552  1.00  0.00     0.041 C 
BRANCH   8  10
HETATM   10  N1  UNL     1     -28.694  87.708 -15.147  1.00  0.00    -0.074 N 
ATOM     11  H13 UNL     1     -29.714  87.721 -15.119  1.00  0.00     0.274 HD
ATOM     12  H12 UNL     1     -28.564  88.712 -15.018  1.00  0.00     0.274 HD
ATOM     13  H11 UNL     1     -28.307  87.348 -16.020  1.00  0.00     0.274 HD
ENDBRANCH   8  10
ENDBRANCH   7   8
ENDBRANCH   1   7
BRANCH   6  14
HETATM   14  N3  UNL     1     -28.901  86.030  -9.617  1.00  0.00    -0.050 N 
ATOM     15  H33 UNL     1     -29.415  85.332 -10.154  1.00  0.00     0.276 HD
ATOM     16  H32 UNL     1     -28.064  85.485  -9.410  1.00  0.00     0.276 HD
ATOM     17  H31 UNL     1     -29.399  86.288  -8.765  1.00  0.00     0.276 HD
ENDBRANCH   6  14
TORSDOF 4
ENDMDL
MODEL 5
REMARK VINA RESULT: -4.219528065      1.416      1.643
REMARK  4 active torsions:
REMARK  status: ('A' for Active; 'I' for Inactive)
REMARK    1  A    between atoms: C2_2  and  N1_3 
REMARK    2  A    between atoms: C2_2  and  C3_7 
REMARK    3  A    between atoms: C3_7  and  N2_8 
REMARK    4  A    between atoms: C8_13  and  N3_14 
ROOT
HETATM    1  N2  UNL     1     -28.388  85.721 -11.683  1.00  0.00    -0.040 N 
HETATM    2  C4  UNL     1     -27.149  86.488 -11.898  1.00  0.00     0.275 C 
HETATM    3  C5  UNL     1     -28.675  85.187 -13.031  1.00  0.00     0.239 C 
HETATM    4  C6  UNL     1     -29.523  83.984 -12.703  1.00  0.00     0.032 C 
HETATM    5  C7  UNL     1     -28.691  83.362 -11.606  1.00  0.00     0.064 C 
HETATM    6  C8  UNL     1     -28.184  84.584 -10.864  1.00  0.00     0.384 C 
ENDROOT
BRANCH   1   7
HETATM    7  C3  UNL     1     -29.469  86.567 -11.362  1.00  0.00     0.271 C 
BRANCH   7   8
HETATM    8  C2  UNL     1     -29.345  88.010 -11.678  1.00  0.00     0.205 C 
HETATM    9  C1  UNL     1     -29.794  88.772 -10.418  1.00  0.00     0.041 C 
BRANCH   8  10
HETATM   10  N1  UNL     1     -30.235  88.473 -12.720  1.00  0.00    -0.074 N 
ATOM     11  H13 UNL     1     -31.223  88.299 -12.531  1.00  0.00     0.274 HD
ATOM     12  H12 UNL     1     -30.309  89.488 -12.783  1.00  0.00     0.274 HD
ATOM     13  H11 UNL     1     -29.890  88.027 -13.570  1.00  0.00     0.274 HD
ENDBRANCH   8  10
ENDBRANCH   7   8
ENDBRANCH   1   7
BRANCH   6  14
HETATM   14  N3  UNL     1     -26.751  84.338 -10.630  1.00  0.00    -0.050 N 
ATOM     15  H33 UNL     1     -26.363  83.700 -11.325  1.00  0.00     0.276 HD
ATOM     16  H32 UNL     1     -26.191  85.164 -10.844  1.00  0.00     0.276 HD
ATOM     17  H31 UNL     1     -26.579  84.007  -9.681  1.00  0.00     0.276 HD
ENDBRANCH   6  14
TORSDOF 4
ENDMDL
