MODEL 1
REMARK VINA RESULT: -5.652401364      0.000      0.000
REMARK  7 active torsions:
REMARK  status: ('A' for Active; 'I' for Inactive)
REMARK    1  A    between atoms: C2_2  and  N1_3 
REMARK    2  A    between atoms: C2_2  and  N2_7 
REMARK    3  A    between atoms: N2_7  and  C3_9 
REMARK    4  A    between atoms: C3_9  and  C4_10 
REMARK    5  A    between atoms: C4_10  and  C5_11 
REMARK    6  A    between atoms: C5_11  and  N3_12 
REMARK    7  A    between atoms: C8_15  and  N4_16 
ROOT
HETATM    1  C4  UNL     1       6.187   0.759   5.999  1.00  0.00     0.049 C 
ENDROOT
BRANCH   1   2
HETATM    2  C3  UNL     1       4.834   0.854   5.353  1.00  0.00     0.117 C 
BRANCH   2   3
HETATM    3  N2  UNL     1       4.206  -0.409   5.146  1.00  0.00    -0.396 N 
ATOM      4  H2  UNL     1       4.717  -1.223   4.805  1.00  0.00     0.155 HD
BRANCH   3   5
HETATM    5  C2  UNL     1       2.795  -0.455   5.455  1.00  0.00     0.273 C 
HETATM    6  C1  UNL     1       2.457  -1.777   6.117  1.00  0.00     0.062 C 
BRANCH   5   7
HETATM    7  N1  UNL     1       2.560   0.575   6.452  1.00  0.00    -0.059 N 
ATOM      8  H13 UNL     1       2.171   0.214   7.323  1.00  0.00     0.276 HD
ATOM      9  H12 UNL     1       3.418   0.960   6.846  1.00  0.00     0.276 HD
ATOM     10  H11 UNL     1       1.969   1.278   6.006  1.00  0.00     0.276 HD
ENDBRANCH   5   7
ENDBRANCH   3   5
ENDBRANCH   2   3
ENDBRANCH   1   2
BRANCH   1  11
HETATM   11  C5  UNL     1       6.649  -0.679   6.122  1.00  0.00     0.274 C 
BRANCH  11  12
HETATM   12  N3  UNL     1       8.063  -0.821   6.267  1.00  0.00     0.090 N 
HETATM   13  C6  UNL     1       8.837   0.058   5.473  1.00  0.00     0.274 C 
HETATM   14  C7  UNL     1      10.143   0.196   6.217  1.00  0.00     0.064 C 
HETATM   15  C8  UNL     1       9.699   0.181   7.658  1.00  0.00     0.213 C 
HETATM   16  C9  UNL     1       8.491  -0.737   7.602  1.00  0.00     0.305 C 
BRANCH  15  17
HETATM   17  N4  UNL     1       9.329   1.522   8.038  1.00  0.00    -0.073 N 
ATOM     18  H43 UNL     1      10.078   2.010   8.531  1.00  0.00     0.274 HD
ATOM     19  H42 UNL     1       9.255   2.149   7.237  1.00  0.00     0.274 HD
ATOM     20  H41 UNL     1       8.466   1.479   8.582  1.00  0.00     0.274 HD
ENDBRANCH  15  17
ENDBRANCH  11  12
ENDBRANCH   1  11
TORSDOF 7
ENDMDL
MODEL 2
REMARK VINA RESULT: -5.612282263      1.294      1.712
REMARK  7 active torsions:
REMARK  status: ('A' for Active; 'I' for Inactive)
REMARK    1  A    between atoms: C2_2  and  N1_3 
REMARK    2  A    between atoms: C2_2  and  N2_7 
REMARK    3  A    between atoms: N2_7  and  C3_9 
REMARK    4  A    between atoms: C3_9  and  C4_10 
REMARK    5  A    between atoms: C4_10  and  C5_11 
REMARK    6  A    between atoms: C5_11  and  N3_12 
REMARK    7  A    between atoms: C8_15  and  N4_16 
ROOT
HETATM    1  C4  UNL     1       4.951   0.703   5.813  1.00  0.00     0.049 C 
ENDROOT
BRANCH   1   2
HETATM    2  C3  UNL     1       3.641   0.341   5.174  1.00  0.00     0.117 C 
BRANCH   2   3
HETATM    3  N2  UNL     1       2.564   0.221   6.099  1.00  0.00    -0.396 N 
ATOM      4  H2  UNL     1       2.403   0.902   6.840  1.00  0.00     0.155 HD
BRANCH   3   5
HETATM    5  C2  UNL     1       1.716  -0.935   5.913  1.00  0.00     0.273 C 
HETATM    6  C1  UNL     1       1.958  -1.534   4.541  1.00  0.00     0.062 C 
BRANCH   5   7
HETATM    7  N1  UNL     1       2.159  -1.928   6.877  1.00  0.00    -0.059 N 
ATOM      8  H13 UNL     1       2.307  -2.851   6.469  1.00  0.00     0.276 HD
ATOM      9  H12 UNL     1       3.115  -1.778   7.201  1.00  0.00     0.276 HD
ATOM     10  H11 UNL     1       1.472  -1.924   7.631  1.00  0.00     0.276 HD
ENDBRANCH   5   7
ENDBRANCH   3   5
ENDBRANCH   2   3
ENDBRANCH   1   2
BRANCH   1  11
HETATM   11  C5  UNL     1       6.097   0.633   4.823  1.00  0.00     0.274 C 
BRANCH  11  12
HETATM   12  N3  UNL     1       7.111  -0.308   5.178  1.00  0.00     0.090 N 
HETATM   13  C6  UNL     1       8.426   0.213   5.210  1.00  0.00     0.274 C 
HETATM   14  C7  UNL     1       9.168  -0.679   6.175  1.00  0.00     0.064 C 
HETATM   15  C8  UNL     1       8.119  -0.974   7.217  1.00  0.00     0.213 C 
HETATM   16  C9  UNL     1       6.848  -0.972   6.387  1.00  0.00     0.305 C 
BRANCH  15  17
HETATM   17  N4  UNL     1       8.120   0.094   8.186  1.00  0.00    -0.073 N 
ATOM     18  H43 UNL     1       9.055   0.300   8.539  1.00  0.00     0.274 HD
ATOM     19  H42 UNL     1       7.925   1.003   7.767  1.00  0.00     0.274 HD
ATOM     20  H41 UNL     1       7.464  -0.142   8.931  1.00  0.00     0.274 HD
ENDBRANCH  15  17
ENDBRANCH  11  12
ENDBRANCH   1  11
TORSDOF 7
ENDMDL
MODEL 3
REMARK VINA RESULT: -5.264867051      1.378      1.775
REMARK  7 active torsions:
REMARK  status: ('A' for Active; 'I' for Inactive)
REMARK    1  A    between atoms: C2_2  and  N1_3 
REMARK    2  A    between atoms: C2_2  and  N2_7 
REMARK    3  A    between atoms: N2_7  and  C3_9 
REMARK    4  A    between atoms: C3_9  and  C4_10 
REMARK    5  A    between atoms: C4_10  and  C5_11 
REMARK    6  A    between atoms: C5_11  and  N3_12 
REMARK    7  A    between atoms: C8_15  and  N4_16 
ROOT
HETATM    1  C4  UNL     1       4.869   0.929   5.372  1.00  0.00     0.049 C 
ENDROOT
BRANCH   1   2
HETATM    2  C3  UNL     1       3.994  -0.161   5.923  1.00  0.00     0.117 C 
BRANCH   2   3
HETATM    3  N2  UNL     1       2.623   0.208   6.042  1.00  0.00    -0.396 N 
ATOM      4  H2  UNL     1       2.331   1.155   6.280  1.00  0.00     0.155 HD
BRANCH   3   5
HETATM    5  C2  UNL     1       1.674  -0.856   5.801  1.00  0.00     0.273 C 
HETATM    6  C1  UNL     1       1.950  -1.494   4.452  1.00  0.00     0.062 C 
BRANCH   5   7
HETATM    7  N1  UNL     1       1.941  -1.877   6.799  1.00  0.00    -0.059 N 
ATOM      8  H13 UNL     1       1.705  -1.586   7.748  1.00  0.00     0.276 HD
ATOM      9  H12 UNL     1       1.301  -2.670   6.747  1.00  0.00     0.276 HD
ATOM     10  H11 UNL     1       2.920  -2.139   6.689  1.00  0.00     0.276 HD
ENDBRANCH   5   7
ENDBRANCH   3   5
ENDBRANCH   2   3
ENDBRANCH   1   2
BRANCH   1  11
HETATM   11  C5  UNL     1       6.310   0.479   5.242  1.00  0.00     0.274 C 
BRANCH  11  12
HETATM   12  N3  UNL     1       6.880   0.002   6.462  1.00  0.00     0.090 N 
HETATM   13  C6  UNL     1       7.614  -1.202   6.348  1.00  0.00     0.274 C 
HETATM   14  C7  UNL     1       8.598  -1.159   7.491  1.00  0.00     0.064 C 
HETATM   15  C8  UNL     1       8.962   0.303   7.551  1.00  0.00     0.213 C 
HETATM   16  C9  UNL     1       7.668   0.964   7.115  1.00  0.00     0.305 C 
BRANCH  15  17
HETATM   17  N4  UNL     1      10.027   0.550   6.610  1.00  0.00    -0.073 N 
ATOM     18  H43 UNL     1      10.798  -0.110   6.710  1.00  0.00     0.274 HD
ATOM     19  H42 UNL     1       9.765   0.316   5.653  1.00  0.00     0.274 HD
ATOM     20  H41 UNL     1      10.328   1.520   6.708  1.00  0.00     0.274 HD
ENDBRANCH  15  17
ENDBRANCH  11  12
ENDBRANCH   1  11
TORSDOF 7
ENDMDL
MODEL 4
REMARK VINA RESULT: -5.234322176      1.460      2.023
REMARK  7 active torsions:
REMARK  status: ('A' for Active; 'I' for Inactive)
REMARK    1  A    between atoms: C2_2  and  N1_3 
REMARK    2  A    between atoms: C2_2  and  N2_7 
REMARK    3  A    between atoms: N2_7  and  C3_9 
REMARK    4  A    between atoms: C3_9  and  C4_10 
REMARK    5  A    between atoms: C4_10  and  C5_11 
REMARK    6  A    between atoms: C5_11  and  N3_12 
REMARK    7  A    between atoms: C8_15  and  N4_16 
ROOT
HETATM    1  C4  UNL     1       6.898  -1.193   6.630  1.00  0.00     0.049 C 
ENDROOT
BRANCH   1   2
HETATM    2  C3  UNL     1       5.857  -0.322   5.986  1.00  0.00     0.117 C 
BRANCH   2   3
HETATM    3  N2  UNL     1       4.518  -0.735   6.251  1.00  0.00    -0.396 N 
ATOM      4  H2  UNL     1       4.300  -1.504   6.884  1.00  0.00     0.155 HD
BRANCH   3   5
HETATM    5  C2  UNL     1       3.493   0.012   5.559  1.00  0.00     0.273 C 
HETATM    6  C1  UNL     1       2.479  -0.943   4.958  1.00  0.00     0.062 C 
BRANCH   5   7
HETATM    7  N1  UNL     1       2.786   0.774   6.573  1.00  0.00    -0.059 N 
ATOM      8  H13 UNL     1       2.979   0.459   7.524  1.00  0.00     0.276 HD
ATOM      9  H12 UNL     1       3.138   1.726   6.682  1.00  0.00     0.276 HD
ATOM     10  H11 UNL     1       1.797   0.734   6.327  1.00  0.00     0.276 HD
ENDBRANCH   5   7
ENDBRANCH   3   5
ENDBRANCH   2   3
ENDBRANCH   1   2
BRANCH   1  11
HETATM   11  C5  UNL     1       8.250  -1.037   5.964  1.00  0.00     0.274 C 
BRANCH  11  12
HETATM   12  N3  UNL     1       8.877   0.222   6.217  1.00  0.00     0.090 N 
HETATM   13  C6  UNL     1       9.560   0.312   7.453  1.00  0.00     0.274 C 
HETATM   14  C7  UNL     1      10.615   1.368   7.231  1.00  0.00     0.064 C 
HETATM   15  C8  UNL     1      11.032   1.116   5.805  1.00  0.00     0.213 C 
HETATM   16  C9  UNL     1       9.737   0.626   5.183  1.00  0.00     0.305 C 
BRANCH  15  17
HETATM   17  N4  UNL     1      12.045   0.089   5.797  1.00  0.00    -0.073 N 
ATOM     18  H43 UNL     1      11.773  -0.732   6.337  1.00  0.00     0.274 HD
ATOM     19  H42 UNL     1      12.135  -0.365   4.888  1.00  0.00     0.274 HD
ATOM     20  H41 UNL     1      12.923   0.496   6.119  1.00  0.00     0.274 HD
ENDBRANCH  15  17
ENDBRANCH  11  12
ENDBRANCH   1  11
TORSDOF 7
ENDMDL
MODEL 5
REMARK VINA RESULT: -5.119317252      2.466      6.900
REMARK  7 active torsions:
REMARK  status: ('A' for Active; 'I' for Inactive)
REMARK    1  A    between atoms: C2_2  and  N1_3 
REMARK    2  A    between atoms: C2_2  and  N2_7 
REMARK    3  A    between atoms: N2_7  and  C3_9 
REMARK    4  A    between atoms: C3_9  and  C4_10 
REMARK    5  A    between atoms: C4_10  and  C5_11 
REMARK    6  A    between atoms: C5_11  and  N3_12 
REMARK    7  A    between atoms: C8_15  and  N4_16 
ROOT
HETATM    1  C4  UNL     1       2.851   0.099   5.730  1.00  0.00     0.049 C 
ENDROOT
BRANCH   1   2
HETATM    2  C3  UNL     1       4.302   0.487   5.745  1.00  0.00     0.117 C 
BRANCH   2   3
HETATM    3  N2  UNL     1       5.171  -0.558   6.174  1.00  0.00    -0.396 N 
ATOM      4  H2  UNL     1       4.823  -1.462   6.490  1.00  0.00     0.155 HD
BRANCH   3   5
HETATM    5  C2  UNL     1       6.582  -0.245   6.130  1.00  0.00     0.273 C 
HETATM    6  C1  UNL     1       7.381  -1.395   6.713  1.00  0.00     0.062 C 
BRANCH   5   7
HETATM    7  N1  UNL     1       6.940  -0.168   4.724  1.00  0.00    -0.059 N 
ATOM      8  H13 UNL     1       6.353  -0.747   4.124  1.00  0.00     0.276 HD
ATOM      9  H12 UNL     1       6.711   0.730   4.298  1.00  0.00     0.276 HD
ATOM     10  H11 UNL     1       7.931  -0.402   4.667  1.00  0.00     0.276 HD
ENDBRANCH   5   7
ENDBRANCH   3   5
ENDBRANCH   2   3
ENDBRANCH   1   2
BRANCH   1  11
HETATM   11  C5  UNL     1       2.670  -1.401   5.845  1.00  0.00     0.274 C 
BRANCH  11  12
HETATM   12  N3  UNL     1       1.638  -1.926   5.009  1.00  0.00     0.090 N 
HETATM   13  C6  UNL     1       1.917  -3.188   4.434  1.00  0.00     0.274 C 
HETATM   14  C7  UNL     1       0.562  -3.800   4.179  1.00  0.00     0.064 C 
HETATM   15  C8  UNL     1      -0.237  -3.330   5.368  1.00  0.00     0.213 C 
HETATM   16  C9  UNL     1       0.386  -1.974   5.644  1.00  0.00     0.305 C 
BRANCH  15  17
HETATM   17  N4  UNL     1      -0.017  -4.246   6.460  1.00  0.00    -0.073 N 
ATOM     18  H43 UNL     1       0.178  -3.767   7.339  1.00  0.00     0.274 HD
ATOM     19  H42 UNL     1      -0.871  -4.725   6.746  1.00  0.00     0.274 HD
ATOM     20  H41 UNL     1       0.724  -4.895   6.195  1.00  0.00     0.274 HD
ENDBRANCH  15  17
ENDBRANCH  11  12
ENDBRANCH   1  11
TORSDOF 7
ENDMDL
