MODEL 1
REMARK VINA RESULT: -6.564976030      0.000      0.000
REMARK  7 active torsions:
REMARK  status: ('A' for Active; 'I' for Inactive)
REMARK    1  A    between atoms: N1_1  and  C1_5 
REMARK    2  A    between atoms: C1_5  and  C2_6 
REMARK    3  A    between atoms: C2_6  and  N2_7 
REMARK    4  A    between atoms: C2_6  and  C3_11 
REMARK    5  A    between atoms: N2_7  and  N3_8 
REMARK    6  A    between atoms: C6_14  and  N4_15 
REMARK    7  A    between atoms: N4_15  and  C7_17 
ROOT
HETATM    1  C3  UNL     1       9.712   0.312   6.571  1.00  0.00    -0.020 A 
HETATM    2  C4  UNL     1       9.158   0.200   5.375  1.00  0.00     0.014 A 
HETATM    3  C5  UNL     1       7.740  -0.200   5.253  1.00  0.00     0.049 A 
HETATM    4  C6  UNL     1       7.024  -0.445   6.324  1.00  0.00     0.106 A 
HETATM    5  N5  UNL     1       7.624  -0.323   7.601  1.00  0.00    -0.352 N 
ATOM      6  H5  UNL     1       7.068  -0.514   8.435  1.00  0.00     0.166 HD
HETATM    7  C8  UNL     1       8.878   0.029   7.732  1.00  0.00     0.098 A 
ENDROOT
BRANCH   1   8
HETATM    8  C2  UNL     1      11.103   0.705   6.681  1.00  0.00     0.158 C 
BRANCH   8   9
HETATM    9  C1  UNL     1      11.341   2.171   6.868  1.00  0.00     0.257 C 
BRANCH   9  10
HETATM   10  N1  UNL     1      10.976   2.512   8.236  1.00  0.00    -0.077 N 
ATOM     11  H13 UNL     1      10.393   3.346   8.294  1.00  0.00     0.274 HD
ATOM     12  H12 UNL     1      10.312   1.854   8.644  1.00  0.00     0.274 HD
ATOM     13  H11 UNL     1      11.836   2.592   8.778  1.00  0.00     0.274 HD
ENDBRANCH   9  10
ENDBRANCH   8   9
BRANCH   8  14
HETATM   14  N2  UNL     1      11.846   0.309   5.475  1.00  0.00    -0.137 NA
BRANCH  14  15
HETATM   15  N3  UNL     1      13.210   0.384   5.661  1.00  0.00    -0.348 N 
ATOM     16  H32 UNL     1      13.739   1.251   5.567  1.00  0.00     0.172 HD
ATOM     17  H31 UNL     1      13.613  -0.521   5.901  1.00  0.00     0.172 HD
ENDBRANCH  14  15
ENDBRANCH   8  14
ENDBRANCH   1   8
BRANCH   4  18
HETATM   18  N4  UNL     1       5.656  -0.832   6.226  1.00  0.00    -0.320 N 
ATOM     19  H4  UNL     1       5.378  -1.782   6.472  1.00  0.00     0.169 HD
BRANCH  18  20
HETATM   20  C7  UNL     1       4.688   0.090   5.792  1.00  0.00     0.354 C 
HETATM   21  O1  UNL     1       4.688   1.303   6.123  1.00  0.00    -0.283 OA
ENDBRANCH  18  20
ENDBRANCH   4  18
TORSDOF 7
ENDMDL
MODEL 2
REMARK VINA RESULT: -6.501627009      0.762      1.254
REMARK  7 active torsions:
REMARK  status: ('A' for Active; 'I' for Inactive)
REMARK    1  A    between atoms: N1_1  and  C1_5 
REMARK    2  A    between atoms: C1_5  and  C2_6 
REMARK    3  A    between atoms: C2_6  and  N2_7 
REMARK    4  A    between atoms: C2_6  and  C3_11 
REMARK    5  A    between atoms: N2_7  and  N3_8 
REMARK    6  A    between atoms: C6_14  and  N4_15 
REMARK    7  A    between atoms: N4_15  and  C7_17 
ROOT
HETATM    1  C3  UNL     1       9.767   0.274   6.513  1.00  0.00    -0.020 A 
HETATM    2  C4  UNL     1       9.166  -0.310   7.536  1.00  0.00     0.014 A 
HETATM    3  C5  UNL     1       7.748  -0.716   7.425  1.00  0.00     0.049 A 
HETATM    4  C6  UNL     1       7.080  -0.502   6.317  1.00  0.00     0.106 A 
HETATM    5  N5  UNL     1       7.731   0.124   5.226  1.00  0.00    -0.352 N 
ATOM      6  H5  UNL     1       7.212   0.292   4.364  1.00  0.00     0.166 HD
HETATM    7  C8  UNL     1       8.985   0.492   5.303  1.00  0.00     0.098 A 
ENDROOT
BRANCH   1   8
HETATM    8  C2  UNL     1      11.157   0.669   6.631  1.00  0.00     0.158 C 
BRANCH   8   9
HETATM    9  C1  UNL     1      11.390   2.131   6.856  1.00  0.00     0.257 C 
BRANCH   9  10
HETATM   10  N1  UNL     1      10.897   2.461   8.187  1.00  0.00    -0.077 N 
ATOM     11  H13 UNL     1      10.747   1.637   8.769  1.00  0.00     0.274 HD
ATOM     12  H12 UNL     1      11.602   2.912   8.769  1.00  0.00     0.274 HD
ATOM     13  H11 UNL     1      10.056   3.027   8.076  1.00  0.00     0.274 HD
ENDBRANCH   9  10
ENDBRANCH   8   9
BRANCH   8  14
HETATM   14  N2  UNL     1      11.899   0.308   5.413  1.00  0.00    -0.137 NA
BRANCH  14  15
HETATM   15  N3  UNL     1      13.263   0.365   5.605  1.00  0.00    -0.348 N 
ATOM     16  H32 UNL     1      13.810   1.216   5.473  1.00  0.00     0.172 HD
ATOM     17  H31 UNL     1      13.647  -0.536   5.890  1.00  0.00     0.172 HD
ENDBRANCH  14  15
ENDBRANCH   8  14
ENDBRANCH   1   8
BRANCH   4  18
HETATM   18  N4  UNL     1       5.714  -0.886   6.192  1.00  0.00    -0.320 N 
ATOM     19  H4  UNL     1       5.441  -1.854   6.363  1.00  0.00     0.169 HD
BRANCH  18  20
HETATM   20  C7  UNL     1       4.740   0.063   5.834  1.00  0.00     0.354 C 
HETATM   21  O1  UNL     1       4.887   1.301   5.996  1.00  0.00    -0.283 OA
ENDBRANCH  18  20
ENDBRANCH   4  18
TORSDOF 7
ENDMDL
MODEL 3
REMARK VINA RESULT: -6.101716601      1.884      2.745
REMARK  7 active torsions:
REMARK  status: ('A' for Active; 'I' for Inactive)
REMARK    1  A    between atoms: N1_1  and  C1_5 
REMARK    2  A    between atoms: C1_5  and  C2_6 
REMARK    3  A    between atoms: C2_6  and  N2_7 
REMARK    4  A    between atoms: C2_6  and  C3_11 
REMARK    5  A    between atoms: N2_7  and  N3_8 
REMARK    6  A    between atoms: C6_14  and  N4_15 
REMARK    7  A    between atoms: N4_15  and  C7_17 
ROOT
HETATM    1  C3  UNL     1       7.436  -0.093   5.677  1.00  0.00    -0.020 A 
HETATM    2  C4  UNL     1       6.777   0.901   5.104  1.00  0.00     0.014 A 
HETATM    3  C5  UNL     1       5.303   0.965   5.209  1.00  0.00     0.049 A 
HETATM    4  C6  UNL     1       4.642   0.043   5.867  1.00  0.00     0.106 A 
HETATM    5  N5  UNL     1       5.355  -1.017   6.477  1.00  0.00    -0.352 N 
ATOM      6  H5  UNL     1       4.842  -1.735   6.989  1.00  0.00     0.166 HD
HETATM    7  C8  UNL     1       6.660  -1.094   6.397  1.00  0.00     0.098 A 
ENDROOT
BRANCH   1   8
HETATM    8  C2  UNL     1       8.881  -0.148   5.570  1.00  0.00     0.158 C 
BRANCH   8   9
HETATM    9  C1  UNL     1       9.618  -0.191   6.872  1.00  0.00     0.257 C 
BRANCH   9  10
HETATM   10  N1  UNL     1       9.107   0.885   7.710  1.00  0.00    -0.077 N 
ATOM     11  H13 UNL     1       9.812   1.591   7.923  1.00  0.00     0.274 HD
ATOM     12  H12 UNL     1       8.452   1.493   7.218  1.00  0.00     0.274 HD
ATOM     13  H11 UNL     1       8.703   0.465   8.547  1.00  0.00     0.274 HD
ENDBRANCH   9  10
ENDBRANCH   8   9
BRANCH   8  14
HETATM   14  N2  UNL     1       9.387   1.024   4.839  1.00  0.00    -0.137 NA
BRANCH  14  15
HETATM   15  N3  UNL     1      10.765   1.055   4.806  1.00  0.00    -0.348 N 
ATOM     16  H32 UNL     1      11.296   1.440   4.025  1.00  0.00     0.172 HD
ATOM     17  H31 UNL     1      11.176   0.652   5.648  1.00  0.00     0.172 HD
ENDBRANCH  14  15
ENDBRANCH   8  14
ENDBRANCH   1   8
BRANCH   4  18
HETATM   18  N4  UNL     1       3.223   0.089   5.978  1.00  0.00    -0.320 N 
ATOM     19  H4  UNL     1       2.756   0.979   6.153  1.00  0.00     0.169 HD
BRANCH  18  20
HETATM   20  C7  UNL     1       2.463  -1.087   5.847  1.00  0.00     0.354 C 
HETATM   21  O1  UNL     1       2.897  -2.135   5.306  1.00  0.00    -0.283 OA
ENDBRANCH  18  20
ENDBRANCH   4  18
TORSDOF 7
ENDMDL
MODEL 4
REMARK VINA RESULT: -5.956486576      0.660      1.752
REMARK  7 active torsions:
REMARK  status: ('A' for Active; 'I' for Inactive)
REMARK    1  A    between atoms: N1_1  and  C1_5 
REMARK    2  A    between atoms: C1_5  and  C2_6 
REMARK    3  A    between atoms: C2_6  and  N2_7 
REMARK    4  A    between atoms: C2_6  and  C3_11 
REMARK    5  A    between atoms: N2_7  and  N3_8 
REMARK    6  A    between atoms: C6_14  and  N4_15 
REMARK    7  A    between atoms: N4_15  and  C7_17 
ROOT
HETATM    1  C3  UNL     1       9.590   0.540   6.237  1.00  0.00    -0.020 A 
HETATM    2  C4  UNL     1       8.993   0.176   5.114  1.00  0.00     0.014 A 
HETATM    3  C5  UNL     1       7.579  -0.257   5.138  1.00  0.00     0.049 A 
HETATM    4  C6  UNL     1       6.911  -0.283   6.266  1.00  0.00     0.106 A 
HETATM    5  N5  UNL     1       7.557   0.109   7.463  1.00  0.00    -0.352 N 
ATOM      6  H5  UNL     1       7.038   0.089   8.341  1.00  0.00     0.166 HD
HETATM    7  C8  UNL     1       8.808   0.496   7.465  1.00  0.00     0.098 A 
ENDROOT
BRANCH   1   8
HETATM    8  C2  UNL     1      10.977   0.963   6.204  1.00  0.00     0.158 C 
BRANCH   8   9
HETATM    9  C1  UNL     1      11.959  -0.095   5.807  1.00  0.00     0.257 C 
BRANCH   9  10
HETATM   10  N1  UNL     1      13.229   0.560   5.520  1.00  0.00    -0.077 N 
ATOM     11  H13 UNL     1      13.299   0.881   4.555  1.00  0.00     0.274 HD
ATOM     12  H12 UNL     1      13.316   1.470   5.973  1.00  0.00     0.274 HD
ATOM     13  H11 UNL     1      13.977  -0.083   5.779  1.00  0.00     0.274 HD
ENDBRANCH   9  10
ENDBRANCH   8   9
BRANCH   8  14
HETATM   14  N2  UNL     1      11.397   1.451   7.526  1.00  0.00    -0.137 NA
BRANCH  14  15
HETATM   15  N3  UNL     1      11.395   2.828   7.592  1.00  0.00    -0.348 N 
ATOM     16  H32 UNL     1      10.738   3.411   7.074  1.00  0.00     0.172 HD
ATOM     17  H31 UNL     1      12.123   3.181   8.213  1.00  0.00     0.172 HD
ENDBRANCH  14  15
ENDBRANCH   8  14
ENDBRANCH   1   8
BRANCH   4  18
HETATM   18  N4  UNL     1       5.548  -0.697   6.308  1.00  0.00    -0.320 N 
ATOM     19  H4  UNL     1       5.304  -1.600   6.713  1.00  0.00     0.169 HD
BRANCH  18  20
HETATM   20  C7  UNL     1       4.538   0.135   5.793  1.00  0.00     0.354 C 
HETATM   21  O1  UNL     1       4.599   1.390   5.810  1.00  0.00    -0.283 OA
ENDBRANCH  18  20
ENDBRANCH   4  18
TORSDOF 7
ENDMDL
MODEL 5
REMARK VINA RESULT: -5.913952980      1.019      2.174
REMARK  7 active torsions:
REMARK  status: ('A' for Active; 'I' for Inactive)
REMARK    1  A    between atoms: N1_1  and  C1_5 
REMARK    2  A    between atoms: C1_5  and  C2_6 
REMARK    3  A    between atoms: C2_6  and  N2_7 
REMARK    4  A    between atoms: C2_6  and  C3_11 
REMARK    5  A    between atoms: N2_7  and  N3_8 
REMARK    6  A    between atoms: C6_14  and  N4_15 
REMARK    7  A    between atoms: N4_15  and  C7_17 
ROOT
HETATM    1  C3  UNL     1       9.804   0.448   6.162  1.00  0.00    -0.020 A 
HETATM    2  C4  UNL     1       9.313   0.027   7.316  1.00  0.00     0.014 A 
HETATM    3  C5  UNL     1       7.913  -0.443   7.394  1.00  0.00     0.049 A 
HETATM    4  C6  UNL     1       7.152  -0.446   6.326  1.00  0.00     0.106 A 
HETATM    5  N5  UNL     1       7.685   0.006   5.094  1.00  0.00    -0.352 N 
ATOM      6  H5  UNL     1       7.094   0.005   4.263  1.00  0.00     0.166 HD
HETATM    7  C8  UNL     1       8.922   0.427   5.003  1.00  0.00     0.098 A 
ENDROOT
BRANCH   1   8
HETATM    8  C2  UNL     1      11.178   0.907   6.095  1.00  0.00     0.158 C 
BRANCH   8   9
HETATM    9  C1  UNL     1      12.187  -0.143   5.746  1.00  0.00     0.257 C 
BRANCH   9  10
HETATM   10  N1  UNL     1      13.455   0.525   5.487  1.00  0.00    -0.077 N 
ATOM     11  H13 UNL     1      13.337   1.482   5.154  1.00  0.00     0.274 HD
ATOM     12  H12 UNL     1      13.970   0.741   6.340  1.00  0.00     0.274 HD
ATOM     13  H11 UNL     1      13.988  -0.056   4.840  1.00  0.00     0.274 HD
ENDBRANCH   9  10
ENDBRANCH   8   9
BRANCH   8  14
HETATM   14  N2  UNL     1      11.593   1.476   7.386  1.00  0.00    -0.137 NA
BRANCH  14  15
HETATM   15  N3  UNL     1      11.295   2.819   7.478  1.00  0.00    -0.348 N 
ATOM     16  H32 UNL     1      11.364   3.348   8.346  1.00  0.00     0.172 HD
ATOM     17  H31 UNL     1      11.001   3.206   6.581  1.00  0.00     0.172 HD
ENDBRANCH  14  15
ENDBRANCH   8  14
ENDBRANCH   1   8
BRANCH   4  18
HETATM   18  N4  UNL     1       5.801  -0.895   6.382  1.00  0.00    -0.320 N 
ATOM     19  H4  UNL     1       5.591  -1.831   6.730  1.00  0.00     0.169 HD
BRANCH  18  20
HETATM   20  C7  UNL     1       4.756  -0.055   5.960  1.00  0.00     0.354 C 
HETATM   21  O1  UNL     1       4.805   1.200   6.029  1.00  0.00    -0.283 OA
ENDBRANCH  18  20
ENDBRANCH   4  18
TORSDOF 7
ENDMDL
