MODEL 1
REMARK VINA RESULT: -6.480327655      0.000      0.000
REMARK  2 active torsions:
REMARK  status: ('A' for Active; 'I' for Inactive)
REMARK    1  A    between atoms: C3_3  and  C4_4 
REMARK    2  A    between atoms: C12_20  and  O1_21 
ROOT
HETATM    1  C1  UNL     1      20.919  40.824  35.883  1.00  0.00     0.071 C 
HETATM    2  C2  UNL     1      21.770  41.985  36.284  1.00  0.00     0.056 A 
HETATM    3  C3  UNL     1      22.241  42.301  37.561  1.00  0.00     0.056 A 
HETATM    4  N2  UNL     1      23.026  43.365  37.361  1.00  0.00    -0.192 N 
ATOM      5  H2  UNL     1      23.539  43.850  38.098  1.00  0.00     0.184 HD
HETATM    6  C10 UNL     1      23.049  43.712  36.058  1.00  0.00     0.691 A 
HETATM    7  N3  UNL     1      23.591  44.612  35.224  1.00  0.00    -0.197 N 
ATOM      8  H3  UNL     1      24.213  45.374  35.492  1.00  0.00     0.183 HD
HETATM    9  C11 UNL     1      23.178  44.341  33.980  1.00  0.00     0.163 A 
HETATM   10  C12 UNL     1      22.360  43.249  34.097  1.00  0.00     0.179 A 
HETATM   11  N4  UNL     1      22.267  42.845  35.376  1.00  0.00    -0.127 N 
ENDROOT
BRANCH   3  12
HETATM   12  C4  UNL     1      21.764  41.676  38.796  1.00  0.00     0.062 C 
HETATM   13  C5  UNL     1      22.797  40.723  39.354  1.00  0.00     0.092 C 
HETATM   14  S1  UNL     1      22.022  40.467  41.032  1.00  0.00    -0.116 SA
HETATM   15  C6  UNL     1      21.449  42.193  41.170  1.00  0.00     0.049 C 
HETATM   16  N1  UNL     1      20.964  42.796  42.173  1.00  0.00    -0.396 N 
HETATM   17  C7  UNL     1      21.729  42.785  39.851  1.00  0.00     0.011 C 
ATOM     18  H12 UNL     1      20.771  42.385  43.087  1.00  0.00     0.156 HD
ATOM     19  H11 UNL     1      20.644  43.761  42.250  1.00  0.00     0.156 HD
HETATM   20  C8  UNL     1      23.041  43.520  39.967  1.00  0.00     0.023 C 
HETATM   21  C9  UNL     1      20.660  43.760  39.510  1.00  0.00     0.023 C 
ENDBRANCH   3  12
BRANCH  10  22
HETATM   22  O1  UNL     1      21.698  42.605  33.033  1.00  0.00    -0.344 OA
ATOM     23  H1  UNL     1      20.765  42.649  32.856  1.00  0.00     0.219 HD
ENDBRANCH  10  22
TORSDOF 2
ENDMDL
MODEL 2
REMARK VINA RESULT: -6.446651371      1.874      3.039
REMARK  2 active torsions:
REMARK  status: ('A' for Active; 'I' for Inactive)
REMARK    1  A    between atoms: C3_3  and  C4_4 
REMARK    2  A    between atoms: C12_20  and  O1_21 
ROOT
HETATM    1  C1  UNL     1      22.396  44.203  35.890  1.00  0.00     0.071 C 
HETATM    2  C2  UNL     1      21.506  43.070  36.286  1.00  0.00     0.056 A 
HETATM    3  C3  UNL     1      21.015  42.772  37.560  1.00  0.00     0.056 A 
HETATM    4  N2  UNL     1      20.198  41.733  37.357  1.00  0.00    -0.192 N 
ATOM      5  H2  UNL     1      19.664  41.266  38.090  1.00  0.00     0.184 HD
HETATM    6  C10 UNL     1      20.174  41.384  36.054  1.00  0.00     0.691 A 
HETATM    7  N3  UNL     1      19.611  40.499  35.218  1.00  0.00    -0.197 N 
ATOM      8  H3  UNL     1      18.964  39.757  35.483  1.00  0.00     0.183 HD
HETATM    9  C11 UNL     1      20.043  40.753  33.977  1.00  0.00     0.163 A 
HETATM   10  C12 UNL     1      20.893  41.819  34.097  1.00  0.00     0.179 A 
HETATM   11  N4  UNL     1      20.989  42.224  35.376  1.00  0.00    -0.127 N 
ENDROOT
BRANCH   3  12
HETATM   12  C4  UNL     1      21.502  43.385  38.798  1.00  0.00     0.062 C 
HETATM   13  C5  UNL     1      20.474  44.336  39.371  1.00  0.00     0.092 C 
HETATM   14  S1  UNL     1      21.261  44.574  41.046  1.00  0.00    -0.116 SA
HETATM   15  C6  UNL     1      21.831  42.846  41.164  1.00  0.00     0.049 C 
HETATM   16  N1  UNL     1      22.321  42.233  42.159  1.00  0.00    -0.396 N 
HETATM   17  C7  UNL     1      21.541  42.267  39.843  1.00  0.00     0.011 C 
ATOM     18  H12 UNL     1      22.522  42.636  43.075  1.00  0.00     0.156 HD
ATOM     19  H11 UNL     1      22.640  41.267  42.226  1.00  0.00     0.156 HD
HETATM   20  C8  UNL     1      20.228  41.534  39.961  1.00  0.00     0.023 C 
HETATM   21  C9  UNL     1      22.605  41.292  39.486  1.00  0.00     0.023 C 
ENDBRANCH   3  12
BRANCH  10  22
HETATM   22  O1  UNL     1      21.583  42.439  33.037  1.00  0.00    -0.344 OA
ATOM     23  H1  UNL     1      22.027  43.279  33.083  1.00  0.00     0.219 HD
ENDBRANCH  10  22
TORSDOF 2
ENDMDL
MODEL 3
REMARK VINA RESULT: -5.767181678      3.241      5.930
REMARK  2 active torsions:
REMARK  status: ('A' for Active; 'I' for Inactive)
REMARK    1  A    between atoms: C3_3  and  C4_4 
REMARK    2  A    between atoms: C12_20  and  O1_21 
ROOT
HETATM    1  C1  UNL     1      20.414  44.078  39.858  1.00  0.00     0.071 C 
HETATM    2  C2  UNL     1      21.216  42.839  39.624  1.00  0.00     0.056 A 
HETATM    3  C3  UNL     1      21.969  42.507  38.495  1.00  0.00     0.056 A 
HETATM    4  N2  UNL     1      22.561  41.356  38.828  1.00  0.00    -0.192 N 
ATOM      5  H2  UNL     1      23.196  40.836  38.222  1.00  0.00     0.184 HD
HETATM    6  C10 UNL     1      22.206  40.972  40.072  1.00  0.00     0.691 A 
HETATM    7  N3  UNL     1      22.415  39.992  40.965  1.00  0.00    -0.197 N 
ATOM      8  H3  UNL     1      23.004  39.172  40.822  1.00  0.00     0.183 HD
HETATM    9  C11 UNL     1      21.721  40.273  42.073  1.00  0.00     0.163 A 
HETATM   10  C12 UNL     1      21.080  41.454  41.813  1.00  0.00     0.179 A 
HETATM   11  N4  UNL     1      21.366  41.903  40.578  1.00  0.00    -0.127 N 
ENDROOT
BRANCH   3  12
HETATM   12  C4  UNL     1      21.900  43.218  37.216  1.00  0.00     0.062 C 
HETATM   13  C5  UNL     1      23.247  43.793  36.842  1.00  0.00     0.092 C 
HETATM   14  S1  UNL     1      22.850  44.232  35.073  1.00  0.00    -0.116 SA
HETATM   15  C6  UNL     1      21.801  42.763  34.811  1.00  0.00     0.049 C 
HETATM   16  N1  UNL     1      21.311  42.314  33.733  1.00  0.00    -0.396 N 
HETATM   17  C7  UNL     1      21.684  42.147  36.143  1.00  0.00     0.011 C 
ATOM     18  H12 UNL     1      21.393  42.741  32.810  1.00  0.00     0.156 HD
ATOM     19  H11 UNL     1      20.725  41.492  33.586  1.00  0.00     0.156 HD
HETATM   20  C8  UNL     1      22.708  41.042  36.210  1.00  0.00     0.023 C 
HETATM   21  C9  UNL     1      20.328  41.557  36.297  1.00  0.00     0.023 C 
ENDBRANCH   3  12
BRANCH  10  22
HETATM   22  O1  UNL     1      20.232  42.140  42.706  1.00  0.00    -0.344 OA
ATOM     23  H1  UNL     1      19.442  42.610  42.466  1.00  0.00     0.219 HD
ENDBRANCH  10  22
TORSDOF 2
ENDMDL
MODEL 4
REMARK VINA RESULT: -5.761748613      3.195      5.714
REMARK  2 active torsions:
REMARK  status: ('A' for Active; 'I' for Inactive)
REMARK    1  A    between atoms: C3_3  and  C4_4 
REMARK    2  A    between atoms: C12_20  and  O1_21 
ROOT
HETATM    1  C1  UNL     1      22.212  40.619  40.352  1.00  0.00     0.071 C 
HETATM    2  C2  UNL     1      21.829  42.036  40.072  1.00  0.00     0.056 A 
HETATM    3  C3  UNL     1      21.412  42.586  38.856  1.00  0.00     0.056 A 
HETATM    4  N2  UNL     1      21.101  43.850  39.163  1.00  0.00    -0.192 N 
ATOM      5  H2  UNL     1      20.751  44.536  38.495  1.00  0.00     0.184 HD
HETATM    6  C10 UNL     1      21.312  44.095  40.473  1.00  0.00     0.691 A 
HETATM    7  N3  UNL     1      21.214  45.076  41.382  1.00  0.00    -0.197 N 
ATOM      8  H3  UNL     1      20.905  46.030  41.199  1.00  0.00     0.183 HD
HETATM    9  C11 UNL     1      21.593  44.592  42.571  1.00  0.00     0.163 A 
HETATM   10  C12 UNL     1      21.930  43.285  42.343  1.00  0.00     0.179 A 
HETATM   11  N4  UNL     1      21.764  42.959  41.049  1.00  0.00    -0.127 N 
ENDROOT
BRANCH   3  12
HETATM   12  C4  UNL     1      21.521  41.909  37.562  1.00  0.00     0.062 C 
HETATM   13  C5  UNL     1      20.190  41.330  37.140  1.00  0.00     0.092 C 
HETATM   14  S1  UNL     1      20.635  40.941  35.371  1.00  0.00    -0.116 SA
HETATM   15  C6  UNL     1      21.673  42.427  35.173  1.00  0.00     0.049 C 
HETATM   16  N1  UNL     1      22.185  42.909  34.118  1.00  0.00    -0.396 N 
HETATM   17  C7  UNL     1      21.752  43.009  36.522  1.00  0.00     0.011 C 
ATOM     18  H12 UNL     1      22.130  42.505  33.183  1.00  0.00     0.156 HD
ATOM     19  H11 UNL     1      22.765  43.740  34.007  1.00  0.00     0.156 HD
HETATM   20  C8  UNL     1      20.714  44.102  36.592  1.00  0.00     0.023 C 
HETATM   21  C9  UNL     1      23.096  43.610  36.725  1.00  0.00     0.023 C 
ENDBRANCH   3  12
BRANCH  10  22
HETATM   22  O1  UNL     1      22.384  42.375  43.317  1.00  0.00    -0.344 OA
ATOM     23  H1  UNL     1      22.022  41.510  43.476  1.00  0.00     0.219 HD
ENDBRANCH  10  22
TORSDOF 2
ENDMDL
MODEL 5
REMARK VINA RESULT: -5.558018580      2.375      3.348
REMARK  2 active torsions:
REMARK  status: ('A' for Active; 'I' for Inactive)
REMARK    1  A    between atoms: C3_3  and  C4_4 
REMARK    2  A    between atoms: C12_20  and  O1_21 
ROOT
HETATM    1  C1  UNL     1      20.239  44.287  39.041  1.00  0.00     0.071 C 
HETATM    2  C2  UNL     1      21.224  43.190  38.802  1.00  0.00     0.056 A 
HETATM    3  C3  UNL     1      22.107  42.616  39.721  1.00  0.00     0.056 A 
HETATM    4  N2  UNL     1      22.688  41.626  39.037  1.00  0.00    -0.192 N 
ATOM      5  H2  UNL     1      23.391  40.994  39.420  1.00  0.00     0.184 HD
HETATM    6  C10 UNL     1      22.223  41.574  37.772  1.00  0.00     0.691 A 
HETATM    7  N3  UNL     1      22.362  40.879  36.633  1.00  0.00    -0.197 N 
ATOM      8  H3  UNL     1      23.000  40.097  36.486  1.00  0.00     0.183 HD
HETATM    9  C11 UNL     1      21.524  41.386  35.721  1.00  0.00     0.163 A 
HETATM   10  C12 UNL     1      20.880  42.417  36.350  1.00  0.00     0.179 A 
HETATM   11  N4  UNL     1      21.300  42.550  37.621  1.00  0.00    -0.127 N 
ENDROOT
BRANCH   3  12
HETATM   12  C4  UNL     1      22.402  43.174  41.044  1.00  0.00     0.062 C 
HETATM   13  C5  UNL     1      21.790  44.548  41.200  1.00  0.00     0.092 C 
HETATM   14  S1  UNL     1      22.030  44.721  43.042  1.00  0.00    -0.116 SA
HETATM   15  C6  UNL     1      21.693  42.961  43.378  1.00  0.00     0.049 C 
HETATM   16  N1  UNL     1      21.515  42.380  44.490  1.00  0.00    -0.396 N 
HETATM   17  C7  UNL     1      21.604  42.337  42.048  1.00  0.00     0.011 C 
ATOM     18  H12 UNL     1      21.576  42.813  45.412  1.00  0.00     0.156 HD
ATOM     19  H11 UNL     1      21.326  41.396  44.679  1.00  0.00     0.156 HD
HETATM   20  C8  UNL     1      20.140  42.249  41.698  1.00  0.00     0.023 C 
HETATM   21  C9  UNL     1      22.168  40.963  42.107  1.00  0.00     0.023 C 
ENDBRANCH   3  12
BRANCH  10  22
HETATM   22  O1  UNL     1      19.894  43.241  35.771  1.00  0.00    -0.344 OA
ATOM     23  H1  UNL     1      19.765  44.163  35.961  1.00  0.00     0.219 HD
ENDBRANCH  10  22
TORSDOF 2
ENDMDL
