MODEL 1
REMARK VINA RESULT: -4.381183832      0.000      0.000
REMARK  2 active torsions:
REMARK  status: ('A' for Active; 'I' for Inactive)
REMARK    1  A    between atoms: C1_2  and  C2_4 
REMARK    2  A    between atoms: C7_12  and  C8_13 
ROOT
HETATM    1  C2  UNL     1      18.130  39.679  31.277  1.00  0.00     0.247 C 
HETATM    2  N1  UNL     1      17.265  40.288  32.235  1.00  0.00    -0.367 N 
ATOM      3  H1  UNL     1      17.514  40.199  33.220  1.00  0.00     0.161 HD
HETATM    4  C3  UNL     1      16.051  41.027  31.910  1.00  0.00     0.044 A 
HETATM    5  C4  UNL     1      15.704  42.221  32.510  1.00  0.00     0.079 A 
HETATM    6  S1  UNL     1      14.219  42.649  31.770  1.00  0.00    -0.111 SA
HETATM    7  C5  UNL     1      14.074  41.314  30.728  1.00  0.00     0.060 A 
HETATM    8  C6  UNL     1      15.187  40.568  30.983  1.00  0.00    -0.005 A 
HETATM    9  C7  UNL     1      15.525  39.245  30.304  1.00  0.00     0.136 C 
HETATM   10  S3  UNL     1      17.240  39.481  29.716  1.00  0.00    -0.117 SA
ENDROOT
BRANCH   9  11
HETATM   11  C8  UNL     1      14.617  38.938  29.209  1.00  0.00     0.042 A 
HETATM   12  C9  UNL     1      14.655  39.259  27.846  1.00  0.00     0.095 A 
HETATM   13  S2  UNL     1      13.203  38.461  27.515  1.00  0.00    -0.025 SA
HETATM   14  N2  UNL     1      13.445  38.248  29.158  1.00  0.00    -0.328 N 
ATOM     15  H2  UNL     1      12.901  37.767  29.874  1.00  0.00     0.174 HD
ENDBRANCH   9  11
BRANCH   1  16
HETATM   16  C1  UNL     1      19.374  40.444  31.079  1.00  0.00     0.207 C 
HETATM   17  O1  UNL     1      19.512  41.272  30.156  1.00  0.00    -0.646 OA
HETATM   18  O2  UNL     1      20.420  40.210  31.976  1.00  0.00    -0.646 OA
ENDBRANCH   1  16
TORSDOF 2
ENDMDL
MODEL 2
REMARK VINA RESULT: -4.358113041      2.548      3.396
REMARK  2 active torsions:
REMARK  status: ('A' for Active; 'I' for Inactive)
REMARK    1  A    between atoms: C1_2  and  C2_4 
REMARK    2  A    between atoms: C7_12  and  C8_13 
ROOT
HETATM    1  C2  UNL     1      20.591  40.727  29.958  1.00  0.00     0.247 C 
HETATM    2  N1  UNL     1      20.705  40.281  31.308  1.00  0.00    -0.367 N 
ATOM      3  H1  UNL     1      21.555  39.782  31.571  1.00  0.00     0.161 HD
HETATM    4  C3  UNL     1      19.697  40.485  32.341  1.00  0.00     0.044 A 
HETATM    5  C4  UNL     1      19.998  40.876  33.631  1.00  0.00     0.079 A 
HETATM    6  S1  UNL     1      18.474  40.967  34.410  1.00  0.00    -0.111 SA
HETATM    7  C5  UNL     1      17.501  40.511  33.093  1.00  0.00     0.060 A 
HETATM    8  C6  UNL     1      18.389  40.298  32.080  1.00  0.00    -0.005 A 
HETATM    9  C7  UNL     1      18.012  39.853  30.670  1.00  0.00     0.136 C 
HETATM   10  S3  UNL     1      18.853  41.066  29.590  1.00  0.00    -0.117 SA
ENDROOT
BRANCH   9  11
HETATM   11  C8  UNL     1      16.573  39.849  30.458  1.00  0.00     0.042 A 
HETATM   12  C9  UNL     1      15.693  40.841  30.007  1.00  0.00     0.095 A 
HETATM   13  S2  UNL     1      14.338  39.838  30.132  1.00  0.00    -0.025 SA
HETATM   14  N2  UNL     1      15.624  38.888  30.630  1.00  0.00    -0.328 N 
ATOM     15  H2  UNL     1      15.678  37.922  30.951  1.00  0.00     0.174 HD
ENDBRANCH   9  11
BRANCH   1  16
HETATM   16  C1  UNL     1      21.425  41.912  29.687  1.00  0.00     0.207 C 
HETATM   17  O1  UNL     1      21.818  42.207  28.539  1.00  0.00    -0.646 OA
HETATM   18  O2  UNL     1      21.774  42.714  30.777  1.00  0.00    -0.646 OA
ENDBRANCH   1  16
TORSDOF 2
ENDMDL
MODEL 3
REMARK VINA RESULT: -4.357096304      2.484      2.989
REMARK  2 active torsions:
REMARK  status: ('A' for Active; 'I' for Inactive)
REMARK    1  A    between atoms: C1_2  and  C2_4 
REMARK    2  A    between atoms: C7_12  and  C8_13 
ROOT
HETATM    1  C2  UNL     1      19.125  40.503  33.664  1.00  0.00     0.247 C 
HETATM    2  N1  UNL     1      17.742  40.758  33.905  1.00  0.00    -0.367 N 
ATOM      3  H1  UNL     1      17.390  40.601  34.850  1.00  0.00     0.161 HD
HETATM    4  C3  UNL     1      16.793  41.226  32.903  1.00  0.00     0.044 A 
HETATM    5  C4  UNL     1      15.860  42.215  33.143  1.00  0.00     0.079 A 
HETATM    6  S1  UNL     1      15.024  42.375  31.655  1.00  0.00    -0.111 SA
HETATM    7  C5  UNL     1      15.871  41.194  30.773  1.00  0.00     0.060 A 
HETATM    8  C6  UNL     1      16.783  40.705  31.661  1.00  0.00    -0.005 A 
HETATM    9  C7  UNL     1      17.791  39.601  31.356  1.00  0.00     0.136 C 
HETATM   10  S3  UNL     1      19.390  40.310  31.886  1.00  0.00    -0.117 SA
ENDROOT
BRANCH   9  11
HETATM   11  C8  UNL     1      17.802  39.237  29.947  1.00  0.00     0.042 A 
HETATM   12  C9  UNL     1      18.470  39.787  28.846  1.00  0.00     0.095 A 
HETATM   13  S2  UNL     1      17.814  38.669  27.762  1.00  0.00    -0.025 SA
HETATM   14  N2  UNL     1      17.171  38.252  29.251  1.00  0.00    -0.328 N 
ATOM     15  H2  UNL     1      16.527  37.515  29.537  1.00  0.00     0.174 HD
ENDBRANCH   9  11
BRANCH   1  16
HETATM   16  C1  UNL     1      19.994  41.559  34.213  1.00  0.00     0.207 C 
HETATM   17  O1  UNL     1      19.858  42.003  35.372  1.00  0.00    -0.646 OA
HETATM   18  O2  UNL     1      20.997  42.062  33.380  1.00  0.00    -0.646 OA
ENDBRANCH   1  16
TORSDOF 2
ENDMDL
MODEL 4
REMARK VINA RESULT: -4.344865240      7.859     10.558
REMARK  2 active torsions:
REMARK  status: ('A' for Active; 'I' for Inactive)
REMARK    1  A    between atoms: C1_2  and  C2_4 
REMARK    2  A    between atoms: C7_12  and  C8_13 
ROOT
HETATM    1  C2  UNL     1      22.610  44.318  29.945  1.00  0.00     0.247 C 
HETATM    2  N1  UNL     1      22.521  44.767  31.296  1.00  0.00    -0.367 N 
ATOM      3  H1  UNL     1      21.670  45.254  31.577  1.00  0.00     0.161 HD
HETATM    4  C3  UNL     1      23.557  44.584  32.305  1.00  0.00     0.044 A 
HETATM    5  C4  UNL     1      23.293  44.192  33.603  1.00  0.00     0.079 A 
HETATM    6  S1  UNL     1      24.836  44.127  34.345  1.00  0.00    -0.111 SA
HETATM    7  C5  UNL     1      25.770  44.594  33.004  1.00  0.00     0.060 A 
HETATM    8  C6  UNL     1      24.855  44.790  32.011  1.00  0.00    -0.005 A 
HETATM    9  C7  UNL     1      25.191  45.235  30.591  1.00  0.00     0.136 C 
HETATM   10  S3  UNL     1      24.343  44.006  29.536  1.00  0.00    -0.117 SA
ENDROOT
BRANCH   9  11
HETATM   11  C8  UNL     1      26.625  45.261  30.345  1.00  0.00     0.042 A 
HETATM   12  C9  UNL     1      27.511  44.278  29.886  1.00  0.00     0.095 A 
HETATM   13  S2  UNL     1      28.850  45.305  29.966  1.00  0.00    -0.025 SA
HETATM   14  N2  UNL     1      27.560  46.240  30.481  1.00  0.00    -0.328 N 
ATOM     15  H2  UNL     1      27.497  47.210  30.791  1.00  0.00     0.174 HD
ENDBRANCH   9  11
BRANCH   1  16
HETATM   16  C1  UNL     1      21.788  43.120  29.697  1.00  0.00     0.207 C 
HETATM   17  O1  UNL     1      21.342  42.834  28.567  1.00  0.00    -0.646 OA
HETATM   18  O2  UNL     1      21.513  42.294  30.791  1.00  0.00    -0.646 OA
ENDBRANCH   1  16
TORSDOF 2
ENDMDL
MODEL 5
REMARK VINA RESULT: -4.286675526      3.020      3.956
REMARK  2 active torsions:
REMARK  status: ('A' for Active; 'I' for Inactive)
REMARK    1  A    between atoms: C1_2  and  C2_4 
REMARK    2  A    between atoms: C7_12  and  C8_13 
ROOT
HETATM    1  C2  UNL     1      14.272  41.384  31.548  1.00  0.00     0.247 C 
HETATM    2  N1  UNL     1      13.331  41.699  30.523  1.00  0.00    -0.367 N 
ATOM      3  H1  UNL     1      12.487  42.204  30.795  1.00  0.00     0.161 HD
HETATM    4  C3  UNL     1      13.485  41.354  29.115  1.00  0.00     0.044 A 
HETATM    5  C4  UNL     1      13.199  42.225  28.083  1.00  0.00     0.079 A 
HETATM    6  S1  UNL     1      13.554  41.330  26.666  1.00  0.00    -0.111 SA
HETATM    7  C5  UNL     1      14.050  39.885  27.410  1.00  0.00     0.060 A 
HETATM    8  C6  UNL     1      13.926  40.137  28.744  1.00  0.00    -0.005 A 
HETATM    9  C7  UNL     1      14.243  39.138  29.853  1.00  0.00     0.136 C 
HETATM   10  S3  UNL     1      15.359  40.061  30.968  1.00  0.00    -0.117 SA
ENDROOT
BRANCH   9  11
HETATM   11  C8  UNL     1      14.868  37.927  29.344  1.00  0.00     0.042 A 
HETATM   12  C9  UNL     1      14.332  36.698  28.939  1.00  0.00     0.095 A 
HETATM   13  S2  UNL     1      15.844  36.049  28.556  1.00  0.00    -0.025 SA
HETATM   14  N2  UNL     1      16.167  37.600  29.101  1.00  0.00    -0.328 N 
ATOM     15  H2  UNL     1      17.037  38.120  29.213  1.00  0.00     0.174 HD
ENDBRANCH   9  11
BRANCH   1  16
HETATM   16  C1  UNL     1      15.055  42.560  31.970  1.00  0.00     0.207 C 
HETATM   17  O1  UNL     1      14.912  43.093  33.089  1.00  0.00    -0.646 OA
HETATM   18  O2  UNL     1      15.983  43.074  31.060  1.00  0.00    -0.646 OA
ENDBRANCH   1  16
TORSDOF 2
ENDMDL
