MODEL 1
REMARK VINA RESULT: -6.942416401      0.000      0.000
REMARK  2 active torsions:
REMARK  status: ('A' for Active; 'I' for Inactive)
REMARK    1  A    between atoms: N1_1  and  C1_4 
REMARK    2  A    between atoms: C2_7  and  C3_8 
ROOT
HETATM    1  C1  UNL     1      20.318  44.443  38.799  1.00  0.00     0.677 A 
HETATM    2  N2  UNL     1      20.824  43.902  39.889  1.00  0.00    -0.194 N 
ATOM      3  H2  UNL     1      20.602  44.358  40.773  1.00  0.00     0.184 HD
HETATM    4  C2  UNL     1      21.600  42.813  39.949  1.00  0.00     0.046 A 
HETATM    5  C9  UNL     1      21.933  42.153  38.740  1.00  0.00     0.053 A 
HETATM    6  C10 UNL     1      21.409  42.715  37.617  1.00  0.00     0.107 A 
HETATM    7  N3  UNL     1      20.616  43.839  37.637  1.00  0.00    -0.185 N 
ATOM      8  H3  UNL     1      20.252  44.216  36.763  1.00  0.00     0.185 HD
HETATM    9  S1  UNL     1      21.989  41.694  36.369  1.00  0.00    -0.049 SA
HETATM   10  C11 UNL     1      22.878  40.583  37.304  1.00  0.00     0.121 A 
HETATM   11  N4  UNL     1      23.669  39.459  37.314  1.00  0.00    -0.277 N 
ATOM     12  H4  UNL     1      23.965  38.909  36.508  1.00  0.00     0.189 HD
HETATM   13  N5  UNL     1      23.967  39.236  38.577  1.00  0.00    -0.241 N 
ATOM     14  H5  UNL     1      24.547  38.464  38.906  1.00  0.00     0.208 HD
HETATM   15  N6  UNL     1      23.417  40.141  39.355  1.00  0.00    -0.283 N 
ATOM     16  H6  UNL     1      23.502  40.179  40.371  1.00  0.00     0.188 HD
HETATM   17  C12 UNL     1      22.701  41.036  38.574  1.00  0.00     0.099 A 
ENDROOT
BRANCH   4  18
HETATM   18  C3  UNL     1      22.090  42.353  41.265  1.00  0.00     0.037 C 
HETATM   19  C4  UNL     1      20.928  41.741  42.015  1.00  0.00     0.011 C 
HETATM   20  C5  UNL     1      21.303  41.308  43.412  1.00  0.00     0.001 C 
HETATM   21  C6  UNL     1      21.641  42.544  44.201  1.00  0.00     0.000 C 
HETATM   22  C7  UNL     1      21.666  43.759  43.320  1.00  0.00     0.001 C 
HETATM   23  C8  UNL     1      22.584  43.493  42.130  1.00  0.00     0.011 C 
ENDBRANCH   4  18
BRANCH   1  24
HETATM   24  N1  UNL     1      19.584  45.484  38.799  1.00  0.00    -0.234 N 
ATOM     25  H12 UNL     1      19.223  45.848  39.682  1.00  0.00     0.174 HD
ATOM     26  H11 UNL     1      19.320  45.993  37.955  1.00  0.00     0.174 HD
ENDBRANCH   1  24
TORSDOF 2
ENDMDL
MODEL 2
REMARK VINA RESULT: -6.911286264      0.990      4.053
REMARK  2 active torsions:
REMARK  status: ('A' for Active; 'I' for Inactive)
REMARK    1  A    between atoms: N1_1  and  C1_4 
REMARK    2  A    between atoms: C2_7  and  C3_8 
ROOT
HETATM    1  C1  UNL     1      22.990  40.517  38.705  1.00  0.00     0.677 A 
HETATM    2  N2  UNL     1      22.483  41.054  39.796  1.00  0.00    -0.194 N 
ATOM      3  H2  UNL     1      22.694  40.588  40.678  1.00  0.00     0.184 HD
HETATM    4  C2  UNL     1      21.718  42.150  39.861  1.00  0.00     0.046 A 
HETATM    5  C9  UNL     1      21.402  42.825  38.656  1.00  0.00     0.053 A 
HETATM    6  C10 UNL     1      21.928  42.267  37.531  1.00  0.00     0.107 A 
HETATM    7  N3  UNL     1      22.708  41.135  37.547  1.00  0.00    -0.185 N 
ATOM      8  H3  UNL     1      23.074  40.761  36.672  1.00  0.00     0.185 HD
HETATM    9  S1  UNL     1      21.368  43.305  36.288  1.00  0.00    -0.049 SA
HETATM   10  C11 UNL     1      20.485  44.418  37.227  1.00  0.00     0.121 A 
HETATM   11  N4  UNL     1      19.706  45.551  37.241  1.00  0.00    -0.277 N 
ATOM     12  H4  UNL     1      19.422  46.111  36.438  1.00  0.00     0.189 HD
HETATM   13  N5  UNL     1      19.401  45.766  38.504  1.00  0.00    -0.241 N 
ATOM     14  H5  UNL     1      18.827  46.541  38.836  1.00  0.00     0.208 HD
HETATM   15  N6  UNL     1      19.936  44.848  39.278  1.00  0.00    -0.283 N 
ATOM     16  H6  UNL     1      19.842  44.801  40.293  1.00  0.00     0.188 HD
HETATM   17  C12 UNL     1      20.647  43.952  38.493  1.00  0.00     0.099 A 
ENDROOT
BRANCH   4  18
HETATM   18  C3  UNL     1      21.224  42.604  41.177  1.00  0.00     0.037 C 
HETATM   19  C4  UNL     1      22.381  43.221  41.931  1.00  0.00     0.011 C 
HETATM   20  C5  UNL     1      22.002  43.647  43.329  1.00  0.00     0.001 C 
HETATM   21  C6  UNL     1      21.669  42.407  44.114  1.00  0.00     0.000 C 
HETATM   22  C7  UNL     1      21.652  41.194  43.229  1.00  0.00     0.001 C 
HETATM   23  C8  UNL     1      20.735  41.459  42.038  1.00  0.00     0.011 C 
ENDBRANCH   4  18
BRANCH   1  24
HETATM   24  N1  UNL     1      23.714  39.468  38.702  1.00  0.00    -0.234 N 
ATOM     25  H12 UNL     1      23.614  38.787  37.948  1.00  0.00     0.174 HD
ATOM     26  H11 UNL     1      24.405  39.253  39.421  1.00  0.00     0.174 HD
ENDBRANCH   1  24
TORSDOF 2
ENDMDL
MODEL 3
REMARK VINA RESULT: -6.520622919      2.207      6.150
REMARK  2 active torsions:
REMARK  status: ('A' for Active; 'I' for Inactive)
REMARK    1  A    between atoms: N1_1  and  C1_4 
REMARK    2  A    between atoms: C2_7  and  C3_8 
ROOT
HETATM    1  C1  UNL     1      23.488  39.958  38.486  1.00  0.00     0.677 A 
HETATM    2  N2  UNL     1      22.856  40.647  37.558  1.00  0.00    -0.194 N 
ATOM      3  H2  UNL     1      22.953  40.320  36.597  1.00  0.00     0.184 HD
HETATM    4  C2  UNL     1      22.098  41.733  37.752  1.00  0.00     0.046 A 
HETATM    5  C9  UNL     1      21.940  42.219  39.073  1.00  0.00     0.053 A 
HETATM    6  C10 UNL     1      22.596  41.506  40.029  1.00  0.00     0.107 A 
HETATM    7  N3  UNL     1      23.358  40.395  39.750  1.00  0.00    -0.185 N 
ATOM      8  H3  UNL     1      23.827  39.900  40.507  1.00  0.00     0.185 HD
HETATM    9  S1  UNL     1      22.201  42.341  41.473  1.00  0.00    -0.049 SA
HETATM   10  C11 UNL     1      21.215  43.570  40.826  1.00  0.00     0.121 A 
HETATM   11  N4  UNL     1      20.444  44.680  41.077  1.00  0.00    -0.277 N 
ATOM     12  H4  UNL     1      20.264  45.110  41.984  1.00  0.00     0.189 HD
HETATM   13  N5  UNL     1      19.986  45.076  39.908  1.00  0.00    -0.241 N 
ATOM     14  H5  UNL     1      19.379  45.883  39.768  1.00  0.00     0.208 HD
HETATM   15  N6  UNL     1      20.416  44.290  38.946  1.00  0.00    -0.283 N 
ATOM     16  H6  UNL     1      20.197  44.393  37.955  1.00  0.00     0.188 HD
HETATM   17  C12 UNL     1      21.218  43.299  39.493  1.00  0.00     0.099 A 
ENDROOT
BRANCH   4  18
HETATM   18  C3  UNL     1      21.471  42.388  36.586  1.00  0.00     0.037 C 
HETATM   19  C4  UNL     1      21.350  41.367  35.477  1.00  0.00     0.011 C 
HETATM   20  C5  UNL     1      20.792  41.955  34.203  1.00  0.00     0.001 C 
HETATM   21  C6  UNL     1      21.792  42.951  33.680  1.00  0.00     0.000 C 
HETATM   22  C7  UNL     1      22.911  43.159  34.659  1.00  0.00     0.001 C 
HETATM   23  C8  UNL     1      22.322  43.507  36.023  1.00  0.00     0.011 C 
ENDBRANCH   4  18
BRANCH   1  24
HETATM   24  N1  UNL     1      24.199  38.928  38.245  1.00  0.00    -0.234 N 
ATOM     25  H12 UNL     1      25.166  38.894  38.570  1.00  0.00     0.174 HD
ATOM     26  H11 UNL     1      23.861  38.113  37.733  1.00  0.00     0.174 HD
ENDBRANCH   1  24
TORSDOF 2
ENDMDL
MODEL 4
REMARK VINA RESULT: -6.518764970      2.189      5.044
REMARK  2 active torsions:
REMARK  status: ('A' for Active; 'I' for Inactive)
REMARK    1  A    between atoms: N1_1  and  C1_4 
REMARK    2  A    between atoms: C2_7  and  C3_8 
ROOT
HETATM    1  C1  UNL     1      19.770  45.108  38.491  1.00  0.00     0.677 A 
HETATM    2  N2  UNL     1      20.406  44.420  37.564  1.00  0.00    -0.194 N 
ATOM      3  H2  UNL     1      20.310  44.746  36.603  1.00  0.00     0.184 HD
HETATM    4  C2  UNL     1      21.165  43.336  37.761  1.00  0.00     0.046 A 
HETATM    5  C9  UNL     1      21.321  42.851  39.083  1.00  0.00     0.053 A 
HETATM    6  C10 UNL     1      20.663  43.564  40.037  1.00  0.00     0.107 A 
HETATM    7  N3  UNL     1      19.899  44.673  39.755  1.00  0.00    -0.185 N 
ATOM      8  H3  UNL     1      19.427  45.168  40.511  1.00  0.00     0.185 HD
HETATM    9  S1  UNL     1      21.056  42.732  41.482  1.00  0.00    -0.049 SA
HETATM   10  C11 UNL     1      22.045  41.504  40.839  1.00  0.00     0.121 A 
HETATM   11  N4  UNL     1      22.818  40.395  41.092  1.00  0.00    -0.277 N 
ATOM     12  H4  UNL     1      22.997  39.967  42.000  1.00  0.00     0.189 HD
HETATM   13  N5  UNL     1      23.279  39.999  39.925  1.00  0.00    -0.241 N 
ATOM     14  H5  UNL     1      23.888  39.193  39.787  1.00  0.00     0.208 HD
HETATM   15  N6  UNL     1      22.849  40.783  38.961  1.00  0.00    -0.283 N 
ATOM     16  H6  UNL     1      23.071  40.679  37.971  1.00  0.00     0.188 HD
HETATM   17  C12 UNL     1      22.045  41.773  39.506  1.00  0.00     0.099 A 
ENDROOT
BRANCH   4  18
HETATM   18  C3  UNL     1      21.796  42.681  36.597  1.00  0.00     0.037 C 
HETATM   19  C4  UNL     1      21.927  43.704  35.491  1.00  0.00     0.011 C 
HETATM   20  C5  UNL     1      22.489  43.115  34.219  1.00  0.00     0.001 C 
HETATM   21  C6  UNL     1      21.488  42.124  33.689  1.00  0.00     0.000 C 
HETATM   22  C7  UNL     1      20.363  41.918  34.661  1.00  0.00     0.001 C 
HETATM   23  C8  UNL     1      20.944  41.565  36.028  1.00  0.00     0.011 C 
ENDBRANCH   4  18
BRANCH   1  24
HETATM   24  N1  UNL     1      19.058  46.137  38.247  1.00  0.00    -0.234 N 
ATOM     25  H12 UNL     1      19.294  46.740  37.458  1.00  0.00     0.174 HD
ATOM     26  H11 UNL     1      18.246  46.409  38.801  1.00  0.00     0.174 HD
ENDBRANCH   1  24
TORSDOF 2
ENDMDL
MODEL 5
REMARK VINA RESULT: -6.175886234      2.991      4.197
REMARK  2 active torsions:
REMARK  status: ('A' for Active; 'I' for Inactive)
REMARK    1  A    between atoms: N1_1  and  C1_4 
REMARK    2  A    between atoms: C2_7  and  C3_8 
ROOT
HETATM    1  C1  UNL     1      23.588  44.054  35.764  1.00  0.00     0.677 A 
HETATM    2  N2  UNL     1      22.941  43.639  36.835  1.00  0.00    -0.194 N 
ATOM      3  H2  UNL     1      23.288  43.967  37.736  1.00  0.00     0.184 HD
HETATM    4  C2  UNL     1      21.875  42.831  36.857  1.00  0.00     0.046 A 
HETATM    5  C9  UNL     1      21.365  42.352  35.624  1.00  0.00     0.053 A 
HETATM    6  C10 UNL     1      22.036  42.782  34.521  1.00  0.00     0.107 A 
HETATM    7  N3  UNL     1      23.128  43.617  34.581  1.00  0.00    -0.185 N 
ATOM      8  H3  UNL     1      23.591  43.906  33.720  1.00  0.00     0.185 HD
HETATM    9  S1  UNL     1      21.180  42.040  33.235  1.00  0.00    -0.049 SA
HETATM   10  C11 UNL     1      19.995  41.206  34.131  1.00  0.00     0.121 A 
HETATM   11  N4  UNL     1      18.900  40.376  34.100  1.00  0.00    -0.277 N 
ATOM     12  H4  UNL     1      18.454  39.979  33.274  1.00  0.00     0.189 HD
HETATM   13  N5  UNL     1      18.544  40.198  35.355  1.00  0.00    -0.241 N 
ATOM     14  H5  UNL     1      17.757  39.624  35.656  1.00  0.00     0.208 HD
HETATM   15  N6  UNL     1      19.339  40.859  36.166  1.00  0.00    -0.283 N 
ATOM     16  H6  UNL     1      19.265  40.878  37.183  1.00  0.00     0.188 HD
HETATM   17  C12 UNL     1      20.297  41.528  35.417  1.00  0.00     0.099 A 
ENDROOT
BRANCH   4  18
HETATM   18  C3  UNL     1      21.283  42.458  38.158  1.00  0.00     0.037 C 
HETATM   19  C4  UNL     1      20.864  43.725  38.868  1.00  0.00     0.011 C 
HETATM   20  C5  UNL     1      20.317  43.463  40.250  1.00  0.00     0.001 C 
HETATM   21  C6  UNL     1      21.439  42.920  41.094  1.00  0.00     0.000 C 
HETATM   22  C7  UNL     1      22.663  42.659  40.265  1.00  0.00     0.001 C 
HETATM   23  C8  UNL     1      22.280  41.782  39.075  1.00  0.00     0.011 C 
ENDBRANCH   4  18
BRANCH   1  24
HETATM   24  N1  UNL     1      24.601  44.825  35.802  1.00  0.00    -0.234 N 
ATOM     25  H12 UNL     1      25.039  45.129  34.932  1.00  0.00     0.174 HD
ATOM     26  H11 UNL     1      25.020  45.170  36.667  1.00  0.00     0.174 HD
ENDBRANCH   1  24
TORSDOF 2
ENDMDL
