MODEL 1
REMARK VINA RESULT: -5.727473285      0.000      0.000
REMARK  2 active torsions:
REMARK  status: ('A' for Active; 'I' for Inactive)
REMARK    1  A    between atoms: C4_6  and  N2_7 
REMARK    2  A    between atoms: N3_10  and  C5_11 
ROOT
HETATM    1  C1  UNL     1      21.140  42.651  44.373  1.00  0.00     0.089 C 
HETATM    2  C2  UNL     1      21.483  42.294  42.958  1.00  0.00     0.079 A 
HETATM    3  N1  UNL     1      21.132  42.976  41.849  1.00  0.00    -0.340 N 
ATOM      4  H1  UNL     1      20.582  43.834  41.821  1.00  0.00     0.167 HD
HETATM    5  C3  UNL     1      21.636  42.323  40.786  1.00  0.00     0.122 A 
HETATM    6  C4  UNL     1      21.599  42.552  39.406  1.00  0.00     0.135 A 
HETATM    7  N3  UNL     1      22.186  41.748  38.527  1.00  0.00    -0.303 N 
HETATM    8  C11 UNL     1      22.849  40.662  38.997  1.00  0.00     0.181 A 
HETATM    9  S1  UNL     1      23.592  39.633  37.996  1.00  0.00    -0.040 SA
HETATM   10  N4  UNL     1      22.912  40.399  40.327  1.00  0.00    -0.317 N 
ATOM     11  H4  UNL     1      23.416  39.576  40.656  1.00  0.00     0.170 HD
HETATM   12  C12 UNL     1      22.316  41.215  41.216  1.00  0.00     0.140 A 
HETATM   13  N5  UNL     1      22.198  41.232  42.569  1.00  0.00    -0.330 N 
ATOM     14  H5  UNL     1      22.597  40.536  43.199  1.00  0.00     0.168 HD
ENDROOT
BRANCH   7  15
HETATM   15  C5  UNL     1      22.146  41.978  37.147  1.00  0.00     0.094 C 
HETATM   16  C6  UNL     1      22.622  43.253  36.580  1.00  0.00     0.026 C 
HETATM   17  C7  UNL     1      22.915  42.964  35.087  1.00  0.00     0.002 C 
HETATM   18  C8  UNL     1      21.544  42.770  34.457  1.00  0.00     0.000 C 
HETATM   19  C9  UNL     1      20.835  41.610  35.070  1.00  0.00     0.002 C 
HETATM   20  C10 UNL     1      20.736  41.744  36.583  1.00  0.00     0.026 C 
ENDBRANCH   7  15
BRANCH   6  21
HETATM   21  N2  UNL     1      20.974  43.573  38.996  1.00  0.00    -0.383 N 
ATOM     22  H22 UNL     1      20.256  43.993  39.587  1.00  0.00     0.157 HD
ATOM     23  H21 UNL     1      21.218  43.941  38.077  1.00  0.00     0.157 HD
ENDBRANCH   6  21
TORSDOF 2
ENDMDL
MODEL 2
REMARK VINA RESULT: -5.702994612      1.944      2.887
REMARK  2 active torsions:
REMARK  status: ('A' for Active; 'I' for Inactive)
REMARK    1  A    between atoms: C4_6  and  N2_7 
REMARK    2  A    between atoms: N3_10  and  C5_11 
ROOT
HETATM    1  C1  UNL     1      22.089  42.332  44.334  1.00  0.00     0.089 C 
HETATM    2  C2  UNL     1      21.754  42.705  42.920  1.00  0.00     0.079 A 
HETATM    3  N1  UNL     1      22.129  42.047  41.805  1.00  0.00    -0.340 N 
ATOM      4  H1  UNL     1      22.696  41.200  41.770  1.00  0.00     0.167 HD
HETATM    5  C3  UNL     1      21.623  42.706  40.747  1.00  0.00     0.122 A 
HETATM    6  C4  UNL     1      21.679  42.499  39.365  1.00  0.00     0.135 A 
HETATM    7  N3  UNL     1      21.085  43.305  38.491  1.00  0.00    -0.303 N 
HETATM    8  C11 UNL     1      20.397  44.371  38.971  1.00  0.00     0.181 A 
HETATM    9  S1  UNL     1      19.644  45.401  37.978  1.00  0.00    -0.040 SA
HETATM   10  N4  UNL     1      20.315  44.613  40.305  1.00  0.00    -0.317 N 
ATOM     11  H4  UNL     1      19.792  45.421  40.641  1.00  0.00     0.170 HD
HETATM   12  C12 UNL     1      20.918  43.795  41.187  1.00  0.00     0.140 A 
HETATM   13  N5  UNL     1      21.023  43.759  42.541  1.00  0.00    -0.330 N 
ATOM     14  H5  UNL     1      20.604  44.438  43.177  1.00  0.00     0.168 HD
ENDROOT
BRANCH   7  15
HETATM   15  C5  UNL     1      21.144  43.098  37.109  1.00  0.00     0.094 C 
HETATM   16  C6  UNL     1      20.747  41.804  36.522  1.00  0.00     0.026 C 
HETATM   17  C7  UNL     1      20.443  42.096  35.032  1.00  0.00     0.002 C 
HETATM   18  C8  UNL     1      21.802  42.381  34.410  1.00  0.00     0.000 C 
HETATM   19  C9  UNL     1      22.437  43.572  35.042  1.00  0.00     0.002 C 
HETATM   20  C10 UNL     1      22.539  43.424  36.554  1.00  0.00     0.026 C 
ENDBRANCH   7  15
BRANCH   6  21
HETATM   21  N2  UNL     1      22.328  41.497  38.945  1.00  0.00    -0.383 N 
ATOM     22  H22 UNL     1      23.283  41.346  39.270  1.00  0.00     0.157 HD
ATOM     23  H21 UNL     1      21.861  40.870  38.290  1.00  0.00     0.157 HD
ENDBRANCH   6  21
TORSDOF 2
ENDMDL
MODEL 3
REMARK VINA RESULT: -5.408294818      1.869      2.263
REMARK  2 active torsions:
REMARK  status: ('A' for Active; 'I' for Inactive)
REMARK    1  A    between atoms: C4_6  and  N2_7 
REMARK    2  A    between atoms: N3_10  and  C5_11 
ROOT
HETATM    1  C1  UNL     1      21.344  41.684  43.805  1.00  0.00     0.089 C 
HETATM    2  C2  UNL     1      21.410  41.897  42.322  1.00  0.00     0.079 A 
HETATM    3  N1  UNL     1      22.297  42.665  41.658  1.00  0.00    -0.340 N 
ATOM      4  H1  UNL     1      23.051  43.209  42.077  1.00  0.00     0.167 HD
HETATM    5  C3  UNL     1      22.012  42.585  40.346  1.00  0.00     0.122 A 
HETATM    6  C4  UNL     1      22.578  43.152  39.199  1.00  0.00     0.135 A 
HETATM    7  N3  UNL     1      22.112  42.921  37.977  1.00  0.00    -0.303 N 
HETATM    8  C11 UNL     1      21.042  42.097  37.846  1.00  0.00     0.181 A 
HETATM    9  S1  UNL     1      20.414  41.762  36.394  1.00  0.00    -0.040 SA
HETATM   10  N4  UNL     1      20.460  41.523  38.929  1.00  0.00    -0.317 N 
ATOM     11  H4  UNL     1      19.657  40.907  38.805  1.00  0.00     0.170 HD
HETATM   12  C12 UNL     1      20.934  41.760  40.166  1.00  0.00     0.140 A 
HETATM   13  N5  UNL     1      20.589  41.353  41.416  1.00  0.00    -0.330 N 
ATOM     14  H5  UNL     1      19.817  40.723  41.632  1.00  0.00     0.168 HD
ENDROOT
BRANCH   7  15
HETATM   15  C5  UNL     1      22.678  43.492  36.831  1.00  0.00     0.094 C 
HETATM   16  C6  UNL     1      21.863  44.309  35.913  1.00  0.00     0.026 C 
HETATM   17  C7  UNL     1      22.870  45.166  35.108  1.00  0.00     0.002 C 
HETATM   18  C8  UNL     1      23.572  44.175  34.193  1.00  0.00     0.000 C 
HETATM   19  C9  UNL     1      24.301  43.142  34.984  1.00  0.00     0.002 C 
HETATM   20  C10 UNL     1      23.383  42.433  35.970  1.00  0.00     0.026 C 
ENDBRANCH   7  15
BRANCH   6  21
HETATM   21  N2  UNL     1      23.574  43.917  39.352  1.00  0.00    -0.383 N 
ATOM     22  H22 UNL     1      24.517  43.532  39.287  1.00  0.00     0.157 HD
ATOM     23  H21 UNL     1      23.392  44.903  39.535  1.00  0.00     0.157 HD
ENDBRANCH   6  21
TORSDOF 2
ENDMDL
MODEL 4
REMARK VINA RESULT: -5.381085235      1.924      2.401
REMARK  2 active torsions:
REMARK  status: ('A' for Active; 'I' for Inactive)
REMARK    1  A    between atoms: C4_6  and  N2_7 
REMARK    2  A    between atoms: N3_10  and  C5_11 
ROOT
HETATM    1  C1  UNL     1      22.114  43.437  43.759  1.00  0.00     0.089 C 
HETATM    2  C2  UNL     1      22.008  43.214  42.279  1.00  0.00     0.079 A 
HETATM    3  N1  UNL     1      21.094  42.454  41.644  1.00  0.00    -0.340 N 
ATOM      4  H1  UNL     1      20.344  41.924  42.085  1.00  0.00     0.167 HD
HETATM    5  C3  UNL     1      21.348  42.520  40.324  1.00  0.00     0.122 A 
HETATM    6  C4  UNL     1      20.746  41.951  39.197  1.00  0.00     0.135 A 
HETATM    7  N3  UNL     1      21.184  42.167  37.961  1.00  0.00    -0.303 N 
HETATM    8  C11 UNL     1      22.261  42.975  37.797  1.00  0.00     0.181 A 
HETATM    9  S1  UNL     1      22.858  43.290  36.327  1.00  0.00    -0.040 SA
HETATM   10  N4  UNL     1      22.878  43.548  38.861  1.00  0.00    -0.317 N 
ATOM     11  H4  UNL     1      23.687  44.152  38.712  1.00  0.00     0.170 HD
HETATM   12  C12 UNL     1      22.432  43.328  40.111  1.00  0.00     0.140 A 
HETATM   13  N5  UNL     1      22.814  43.740  41.349  1.00  0.00    -0.330 N 
ATOM     14  H5  UNL     1      23.600  44.361  41.541  1.00  0.00     0.168 HD
ENDROOT
BRANCH   7  15
HETATM   15  C5  UNL     1      20.582  41.596  36.835  1.00  0.00     0.094 C 
HETATM   16  C6  UNL     1      21.364  40.766  35.899  1.00  0.00     0.026 C 
HETATM   17  C7  UNL     1      20.328  39.914  35.127  1.00  0.00     0.002 C 
HETATM   18  C8  UNL     1      19.610  40.907  34.225  1.00  0.00     0.000 C 
HETATM   19  C9  UNL     1      18.913  41.950  35.030  1.00  0.00     0.002 C 
HETATM   20  C10 UNL     1      19.864  42.656  35.987  1.00  0.00     0.026 C 
ENDBRANCH   7  15
BRANCH   6  21
HETATM   21  N2  UNL     1      19.743  41.202  39.380  1.00  0.00    -0.383 N 
ATOM     22  H22 UNL     1      18.885  41.375  38.856  1.00  0.00     0.157 HD
ATOM     23  H21 UNL     1      19.835  40.443  40.054  1.00  0.00     0.157 HD
ENDBRANCH   6  21
TORSDOF 2
ENDMDL
MODEL 5
REMARK VINA RESULT: -5.085279201     11.128     13.302
REMARK  2 active torsions:
REMARK  status: ('A' for Active; 'I' for Inactive)
REMARK    1  A    between atoms: C4_6  and  N2_7 
REMARK    2  A    between atoms: N3_10  and  C5_11 
ROOT
HETATM    1  C1  UNL     1      17.935  35.000  26.031  1.00  0.00     0.089 C 
HETATM    2  C2  UNL     1      17.133  35.790  27.023  1.00  0.00     0.079 A 
HETATM    3  N1  UNL     1      17.107  37.132  27.149  1.00  0.00    -0.340 N 
ATOM      4  H1  UNL     1      17.632  37.798  26.583  1.00  0.00     0.167 HD
HETATM    5  C3  UNL     1      16.264  37.436  28.153  1.00  0.00     0.122 A 
HETATM    6  C4  UNL     1      15.844  38.640  28.728  1.00  0.00     0.135 A 
HETATM    7  N3  UNL     1      14.982  38.693  29.738  1.00  0.00    -0.303 N 
HETATM    8  C11 UNL     1      14.493  37.524  30.223  1.00  0.00     0.181 A 
HETATM    9  S1  UNL     1      13.439  37.499  31.449  1.00  0.00    -0.040 SA
HETATM   10  N4  UNL     1      14.872  36.332  29.696  1.00  0.00    -0.317 N 
ATOM     11  H4  UNL     1      14.491  35.466  30.079  1.00  0.00     0.170 HD
HETATM   12  C12 UNL     1      15.746  36.281  28.675  1.00  0.00     0.140 A 
HETATM   13  N5  UNL     1      16.309  35.282  27.946  1.00  0.00    -0.330 N 
ATOM     14  H5  UNL     1      16.129  34.287  28.083  1.00  0.00     0.168 HD
ENDROOT
BRANCH   7  15
HETATM   15  C5  UNL     1      14.564  39.897  30.313  1.00  0.00     0.094 C 
HETATM   16  C6  UNL     1      13.849  40.909  29.513  1.00  0.00     0.026 C 
HETATM   17  C7  UNL     1      13.114  41.810  30.535  1.00  0.00     0.002 C 
HETATM   18  C8  UNL     1      14.221  42.598  31.219  1.00  0.00     0.000 C 
HETATM   19  C9  UNL     1      15.164  41.686  31.929  1.00  0.00     0.002 C 
HETATM   20  C10 UNL     1      15.732  40.623  30.998  1.00  0.00     0.026 C 
ENDBRANCH   7  15
BRANCH   6  21
HETATM   21  N2  UNL     1      16.316  39.715  28.256  1.00  0.00    -0.383 N 
ATOM     22  H22 UNL     1      17.047  39.672  27.545  1.00  0.00     0.157 HD
ATOM     23  H21 UNL     1      15.939  40.594  28.609  1.00  0.00     0.157 HD
ENDBRANCH   6  21
TORSDOF 2
ENDMDL
