MODEL 1
REMARK VINA RESULT: -6.493351378      0.000      0.000
REMARK  1 active torsions:
REMARK  status: ('A' for Active; 'I' for Inactive)
REMARK    1  A    between atoms: C11_16  and  N3_17 
ROOT
HETATM    1  C1  UNL     1      17.583  41.486  33.924  1.00  0.00     0.017 C 
HETATM    2  C2  UNL     1      16.931  40.801  33.166  1.00  0.00    -0.088 C 
HETATM    3  C3  UNL     1      16.185  40.014  32.296  1.00  0.00     0.085 C 
HETATM    4  C4  UNL     1      15.444  40.602  31.332  1.00  0.00     0.043 C 
HETATM    5  S1  UNL     1      15.552  42.408  31.312  1.00  0.00    -0.079 SA
HETATM    6  C5  UNL     1      16.153  42.785  29.652  1.00  0.00     0.061 A 
HETATM    7  C6  UNL     1      15.800  42.533  28.384  1.00  0.00     0.025 A 
HETATM    8  C7  UNL     1      14.707  41.796  27.717  1.00  0.00     0.168 C 
HETATM    9  N1  UNL     1      14.620  40.399  28.028  1.00  0.00    -0.382 N 
ATOM     10  H1  UNL     1      14.747  39.839  27.186  1.00  0.00     0.160 HD
HETATM   11  C8  UNL     1      14.410  39.556  29.157  1.00  0.00     0.080 A 
HETATM   12  C9  UNL     1      13.717  38.464  28.674  1.00  0.00     0.051 A 
HETATM   13  C10 UNL     1      13.412  38.339  27.227  1.00  0.00     0.071 C 
HETATM   14  N2  UNL     1      13.379  37.555  29.606  1.00  0.00    -0.194 N 
ATOM     15  H2  UNL     1      12.868  36.730  29.293  1.00  0.00     0.184 HD
HETATM   16  C11 UNL     1      13.656  37.648  30.902  1.00  0.00     0.676 A 
HETATM   17  N4  UNL     1      14.335  38.721  31.373  1.00  0.00    -0.188 N 
ATOM     18  H4  UNL     1      14.550  38.799  32.368  1.00  0.00     0.184 HD
HETATM   19  C12 UNL     1      14.721  39.681  30.518  1.00  0.00     0.095 A 
HETATM   20  S2  UNL     1      17.304  43.539  28.518  1.00  0.00    -0.083 SA
ENDROOT
BRANCH  16  21
HETATM   21  N3  UNL     1      13.316  36.765  31.761  1.00  0.00    -0.234 N 
ATOM     22  H32 UNL     1      12.552  36.144  31.499  1.00  0.00     0.174 HD
ATOM     23  H31 UNL     1      13.766  36.662  32.672  1.00  0.00     0.174 HD
ENDBRANCH  16  21
TORSDOF 1
ENDMDL
MODEL 2
REMARK VINA RESULT: -5.731296490      2.030      2.089
REMARK  1 active torsions:
REMARK  status: ('A' for Active; 'I' for Inactive)
REMARK    1  A    between atoms: C11_16  and  N3_17 
ROOT
HETATM    1  C1  UNL     1      15.715  42.777  32.815  1.00  0.00     0.017 C 
HETATM    2  C2  UNL     1      15.570  41.679  32.321  1.00  0.00    -0.088 C 
HETATM    3  C3  UNL     1      15.405  40.419  31.756  1.00  0.00     0.085 C 
HETATM    4  C4  UNL     1      15.420  40.283  30.412  1.00  0.00     0.043 C 
HETATM    5  S1  UNL     1      15.677  41.831  29.513  1.00  0.00    -0.079 SA
HETATM    6  C5  UNL     1      17.163  41.520  28.536  1.00  0.00     0.061 A 
HETATM    7  C6  UNL     1      17.595  40.624  27.638  1.00  0.00     0.025 A 
HETATM    8  C7  UNL     1      17.036  39.416  26.995  1.00  0.00     0.168 C 
HETATM    9  N1  UNL     1      16.661  38.357  27.886  1.00  0.00    -0.382 N 
ATOM     10  H1  UNL     1      17.206  37.518  27.688  1.00  0.00     0.160 HD
HETATM   11  C8  UNL     1      15.760  38.120  28.964  1.00  0.00     0.080 A 
HETATM   12  C9  UNL     1      15.386  36.796  28.843  1.00  0.00     0.051 A 
HETATM   13  C10 UNL     1      15.972  35.936  27.785  1.00  0.00     0.071 C 
HETATM   14  N2  UNL     1      14.489  36.380  29.755  1.00  0.00    -0.194 N 
ATOM     15  H2  UNL     1      14.187  35.408  29.706  1.00  0.00     0.184 HD
HETATM   16  C11 UNL     1      13.966  37.136  30.715  1.00  0.00     0.676 A 
HETATM   17  N4  UNL     1      14.334  38.434  30.830  1.00  0.00    -0.188 N 
ATOM     18  H4  UNL     1      13.936  39.020  31.564  1.00  0.00     0.184 HD
HETATM   19  C12 UNL     1      15.229  38.942  29.968  1.00  0.00     0.095 A 
HETATM   20  S2  UNL     1      18.820  41.910  28.006  1.00  0.00    -0.083 SA
ENDROOT
BRANCH  16  21
HETATM   21  N3  UNL     1      13.114  36.706  31.565  1.00  0.00    -0.234 N 
ATOM     22  H32 UNL     1      13.349  35.839  32.048  1.00  0.00     0.174 HD
ATOM     23  H31 UNL     1      12.235  37.182  31.771  1.00  0.00     0.174 HD
ENDBRANCH  16  21
TORSDOF 1
ENDMDL
MODEL 3
REMARK VINA RESULT: -5.127190332      2.745      4.223
REMARK  1 active torsions:
REMARK  status: ('A' for Active; 'I' for Inactive)
REMARK    1  A    between atoms: C11_16  and  N3_17 
ROOT
HETATM    1  C1  UNL     1      17.329  35.196  26.501  1.00  0.00     0.017 C 
HETATM    2  C2  UNL     1      16.636  35.850  27.251  1.00  0.00    -0.088 C 
HETATM    3  C3  UNL     1      15.840  36.600  28.109  1.00  0.00     0.085 C 
HETATM    4  C4  UNL     1      16.327  37.739  28.648  1.00  0.00     0.043 C 
HETATM    5  S1  UNL     1      18.015  38.139  28.134  1.00  0.00    -0.079 SA
HETATM    6  C5  UNL     1      17.860  39.772  27.379  1.00  0.00     0.061 A 
HETATM    7  C6  UNL     1      17.397  40.983  27.714  1.00  0.00     0.025 A 
HETATM    8  C7  UNL     1      16.768  41.583  28.909  1.00  0.00     0.168 C 
HETATM    9  N1  UNL     1      15.533  40.986  29.325  1.00  0.00    -0.382 N 
ATOM     10  H1  UNL     1      14.777  41.670  29.285  1.00  0.00     0.160 HD
HETATM   11  C8  UNL     1      15.040  39.728  29.777  1.00  0.00     0.080 A 
HETATM   12  C9  UNL     1      14.033  40.031  30.673  1.00  0.00     0.051 A 
HETATM   13  C10 UNL     1      13.640  41.440  30.923  1.00  0.00     0.071 C 
HETATM   14  N2  UNL     1      13.459  38.963  31.256  1.00  0.00    -0.194 N 
ATOM     15  H2  UNL     1      12.708  39.139  31.923  1.00  0.00     0.184 HD
HETATM   16  C11 UNL     1      13.793  37.697  31.032  1.00  0.00     0.676 A 
HETATM   17  N4  UNL     1      14.781  37.403  30.154  1.00  0.00    -0.188 N 
ATOM     18  H4  UNL     1      15.043  36.433  29.978  1.00  0.00     0.184 HD
HETATM   19  C12 UNL     1      15.412  38.402  29.517  1.00  0.00     0.095 A 
HETATM   20  S2  UNL     1      18.071  40.918  26.031  1.00  0.00    -0.083 SA
ENDROOT
BRANCH  16  21
HETATM   21  N3  UNL     1      13.226  36.705  31.606  1.00  0.00    -0.234 N 
ATOM     22  H32 UNL     1      13.619  35.784  31.417  1.00  0.00     0.174 HD
ATOM     23  H31 UNL     1      12.419  36.798  32.223  1.00  0.00     0.174 HD
ENDBRANCH  16  21
TORSDOF 1
ENDMDL
MODEL 4
REMARK VINA RESULT: -5.123879569     12.782     14.429
REMARK  1 active torsions:
REMARK  status: ('A' for Active; 'I' for Inactive)
REMARK    1  A    between atoms: C11_16  and  N3_17 
ROOT
HETATM    1  C1  UNL     1      26.239  43.452  33.674  1.00  0.00     0.017 C 
HETATM    2  C2  UNL     1      26.625  44.225  32.824  1.00  0.00    -0.088 C 
HETATM    3  C3  UNL     1      27.067  45.113  31.850  1.00  0.00     0.085 C 
HETATM    4  C4  UNL     1      27.707  44.641  30.757  1.00  0.00     0.043 C 
HETATM    5  S1  UNL     1      27.886  42.841  30.723  1.00  0.00    -0.079 SA
HETATM    6  C5  UNL     1      27.064  42.356  29.190  1.00  0.00     0.061 A 
HETATM    7  C6  UNL     1      27.138  42.649  27.885  1.00  0.00     0.025 A 
HETATM    8  C7  UNL     1      27.961  43.545  27.046  1.00  0.00     0.168 C 
HETATM    9  N1  UNL     1      27.879  44.940  27.364  1.00  0.00    -0.382 N 
ATOM     10  H1  UNL     1      27.516  45.464  26.568  1.00  0.00     0.160 HD
HETATM   11  C8  UNL     1      28.152  45.817  28.453  1.00  0.00     0.080 A 
HETATM   12  C9  UNL     1      28.563  47.002  27.874  1.00  0.00     0.051 A 
HETATM   13  C10 UNL     1      28.579  47.159  26.399  1.00  0.00     0.071 C 
HETATM   14  N2  UNL     1      28.916  47.962  28.748  1.00  0.00    -0.194 N 
ATOM     15  H2  UNL     1      29.223  48.856  28.364  1.00  0.00     0.184 HD
HETATM   16  C11 UNL     1      28.895  47.839  30.070  1.00  0.00     0.676 A 
HETATM   17  N4  UNL     1      28.492  46.676  30.635  1.00  0.00    -0.188 N 
ATOM     18  H4  UNL     1      28.474  46.574  31.650  1.00  0.00     0.184 HD
HETATM   19  C12 UNL     1      28.115  45.658  29.845  1.00  0.00     0.095 A 
HETATM   20  S2  UNL     1      25.862  41.417  28.267  1.00  0.00    -0.083 SA
ENDROOT
BRANCH  16  21
HETATM   21  N3  UNL     1      29.238  48.774  30.872  1.00  0.00    -0.234 N 
ATOM     22  H32 UNL     1      28.603  48.966  31.646  1.00  0.00     0.174 HD
ATOM     23  H31 UNL     1      30.094  49.318  30.768  1.00  0.00     0.174 HD
ENDBRANCH  16  21
TORSDOF 1
ENDMDL
MODEL 5
REMARK VINA RESULT: -5.065856046      2.521      3.001
REMARK  1 active torsions:
REMARK  status: ('A' for Active; 'I' for Inactive)
REMARK    1  A    between atoms: C11_16  and  N3_17 
ROOT
HETATM    1  C1  UNL     1      15.377  43.066  30.906  1.00  0.00     0.017 C 
HETATM    2  C2  UNL     1      15.300  41.861  30.800  1.00  0.00    -0.088 C 
HETATM    3  C3  UNL     1      15.211  40.479  30.679  1.00  0.00     0.085 C 
HETATM    4  C4  UNL     1      15.258  39.911  29.454  1.00  0.00     0.043 C 
HETATM    5  S1  UNL     1      15.451  41.092  28.097  1.00  0.00    -0.079 SA
HETATM    6  C5  UNL     1      16.969  40.561  27.277  1.00  0.00     0.061 A 
HETATM    7  C6  UNL     1      17.464  39.446  26.723  1.00  0.00     0.025 A 
HETATM    8  C7  UNL     1      16.981  38.065  26.511  1.00  0.00     0.168 C 
HETATM    9  N1  UNL     1      16.645  37.337  27.699  1.00  0.00    -0.382 N 
ATOM     10  H1  UNL     1      17.236  36.510  27.787  1.00  0.00     0.160 HD
HETATM   11  C8  UNL     1      15.737  37.416  28.794  1.00  0.00     0.080 A 
HETATM   12  C9  UNL     1      15.435  36.107  29.114  1.00  0.00     0.051 A 
HETATM   13  C10 UNL     1      16.084  34.982  28.397  1.00  0.00     0.071 C 
HETATM   14  N2  UNL     1      14.544  35.964  30.112  1.00  0.00    -0.194 N 
ATOM     15  H2  UNL     1      14.293  35.013  30.384  1.00  0.00     0.184 HD
HETATM   16  C11 UNL     1      13.964  36.962  30.770  1.00  0.00     0.676 A 
HETATM   17  N4  UNL     1      14.262  38.244  30.453  1.00  0.00    -0.188 N 
ATOM     18  H4  UNL     1      13.820  39.015  30.955  1.00  0.00     0.184 HD
HETATM   19  C12 UNL     1      15.145  38.490  29.473  1.00  0.00     0.095 A 
HETATM   20  S2  UNL     1      18.614  40.847  26.650  1.00  0.00    -0.083 SA
ENDROOT
BRANCH  16  21
HETATM   21  N3  UNL     1      13.119  36.788  31.714  1.00  0.00    -0.234 N 
ATOM     22  H32 UNL     1      13.471  36.351  32.565  1.00  0.00     0.174 HD
ATOM     23  H31 UNL     1      12.138  37.058  31.648  1.00  0.00     0.174 HD
ENDBRANCH  16  21
TORSDOF 1
ENDMDL
