MODEL 1
REMARK VINA RESULT: -5.554198454      0.000      0.000
REMARK  2 active torsions:
REMARK  status: ('A' for Active; 'I' for Inactive)
REMARK    1  A    between atoms: N2_5  and  O1_6 
REMARK    2  A    between atoms: C2_8  and  C3_9 
ROOT
HETATM    1  N1  UNL     1      20.159  44.560  40.366  1.00  0.00    -0.233 N 
ATOM      2  H11 UNL     1      20.265  44.541  41.380  1.00  0.00     0.174 HD
ATOM      3  H12 UNL     1      19.450  45.255  40.135  1.00  0.00     0.174 HD
HETATM    4  C1  UNL     1      20.830  43.812  39.524  1.00  0.00     0.697 C 
HETATM    5  N2  UNL     1      20.683  43.838  38.107  1.00  0.00    -0.077 N 
HETATM    6  C2  UNL     1      21.347  42.677  37.606  1.00  0.00     0.215 C 
HETATM    7  C5  UNL     1      22.452  42.454  38.616  1.00  0.00     0.134 C 
HETATM    8  C6  UNL     1      22.875  41.035  38.554  1.00  0.00     0.028 C 
HETATM    9  C7  UNL     1      23.165  40.391  39.863  1.00  0.00     0.004 C 
HETATM   10  C8  UNL     1      22.106  40.737  40.910  1.00  0.00     0.020 C 
HETATM   11  C9  UNL     1      22.238  42.253  41.109  1.00  0.00     0.142 C 
HETATM   12  N5  UNL     1      21.820  42.842  39.845  1.00  0.00    -0.209 N 
ENDROOT
BRANCH   6  13
HETATM   13  C3  UNL     1      21.899  43.002  36.250  1.00  0.00     0.097 A 
HETATM   14  N3  UNL     1      21.524  42.554  35.061  1.00  0.00    -0.294 N 
HETATM   15  N4  UNL     1      22.112  42.942  34.012  1.00  0.00    -0.284 N 
ATOM     16  H3  UNL     1      20.751  41.891  34.992  1.00  0.00     0.187 HD
HETATM   17  C4  UNL     1      23.122  43.814  34.122  1.00  0.00     0.159 A 
ATOM     18  H4  UNL     1      21.823  42.596  33.098  1.00  0.00     0.188 HD
HETATM   19  S1  UNL     1      24.032  44.458  32.908  1.00  0.00    -0.051 SA
HETATM   20  S2  UNL     1      23.187  44.050  35.816  1.00  0.00    -0.042 SA
ENDBRANCH   6  13
BRANCH   5  21
HETATM   21  O1  UNL     1      20.025  44.808  37.409  1.00  0.00    -0.273 OA
ATOM     22  H1  UNL     1      19.204  44.683  36.948  1.00  0.00     0.245 HD
ENDBRANCH   5  21
TORSDOF 2
ENDMDL
MODEL 2
REMARK VINA RESULT: -5.502360532      2.853      3.988
REMARK  2 active torsions:
REMARK  status: ('A' for Active; 'I' for Inactive)
REMARK    1  A    between atoms: N2_5  and  O1_6 
REMARK    2  A    between atoms: C2_8  and  C3_9 
ROOT
HETATM    1  N1  UNL     1      21.758  40.232  43.165  1.00  0.00    -0.233 N 
ATOM      2  H11 UNL     1      21.413  40.432  44.104  1.00  0.00     0.174 HD
ATOM      3  H12 UNL     1      22.013  39.245  43.127  1.00  0.00     0.174 HD
HETATM    4  C1  UNL     1      21.847  41.105  42.192  1.00  0.00     0.697 C 
HETATM    5  N2  UNL     1      22.328  40.825  40.881  1.00  0.00    -0.077 N 
HETATM    6  C2  UNL     1      22.554  42.086  40.250  1.00  0.00     0.215 C 
HETATM    7  C5  UNL     1      21.522  42.982  40.900  1.00  0.00     0.134 C 
HETATM    8  C6  UNL     1      21.962  44.390  40.769  1.00  0.00     0.028 C 
HETATM    9  C7  UNL     1      21.729  45.252  41.958  1.00  0.00     0.004 C 
HETATM   10  C8  UNL     1      22.111  44.541  43.257  1.00  0.00     0.020 C 
HETATM   11  C9  UNL     1      21.137  43.358  43.351  1.00  0.00     0.142 C 
HETATM   12  N5  UNL     1      21.491  42.481  42.245  1.00  0.00    -0.209 N 
ENDROOT
BRANCH   6  13
HETATM   13  C3  UNL     1      22.299  41.928  38.781  1.00  0.00     0.097 A 
HETATM   14  N3  UNL     1      22.836  41.073  37.923  1.00  0.00    -0.294 N 
HETATM   15  N4  UNL     1      22.498  41.085  36.706  1.00  0.00    -0.284 N 
ATOM     16  H3  UNL     1      23.529  40.399  38.248  1.00  0.00     0.187 HD
HETATM   17  C4  UNL     1      21.585  41.976  36.297  1.00  0.00     0.159 A 
ATOM     18  H4  UNL     1      22.912  40.427  36.045  1.00  0.00     0.188 HD
HETATM   19  S1  UNL     1      20.990  42.181  34.774  1.00  0.00    -0.051 SA
HETATM   20  S2  UNL     1      21.237  42.802  37.755  1.00  0.00    -0.042 SA
ENDBRANCH   6  13
BRANCH   5  21
HETATM   21  O1  UNL     1      22.519  39.574  40.370  1.00  0.00    -0.273 OA
ATOM     22  H1  UNL     1      21.827  39.008  40.048  1.00  0.00     0.245 HD
ENDBRANCH   5  21
TORSDOF 2
ENDMDL
MODEL 3
REMARK VINA RESULT: -5.500889061      2.722      3.573
REMARK  2 active torsions:
REMARK  status: ('A' for Active; 'I' for Inactive)
REMARK    1  A    between atoms: N2_5  and  O1_6 
REMARK    2  A    between atoms: C2_8  and  C3_9 
ROOT
HETATM    1  N1  UNL     1      23.264  40.483  40.271  1.00  0.00    -0.233 N 
ATOM      2  H11 UNL     1      23.208  40.489  41.289  1.00  0.00     0.174 HD
ATOM      3  H12 UNL     1      23.978  39.808  39.999  1.00  0.00     0.174 HD
HETATM    4  C1  UNL     1      22.534  41.221  39.471  1.00  0.00     0.697 C 
HETATM    5  N2  UNL     1      22.612  41.212  38.049  1.00  0.00    -0.077 N 
HETATM    6  C2  UNL     1      21.896  42.360  37.592  1.00  0.00     0.215 C 
HETATM    7  C5  UNL     1      20.837  42.547  38.658  1.00  0.00     0.134 C 
HETATM    8  C6  UNL     1      20.377  43.955  38.632  1.00  0.00     0.028 C 
HETATM    9  C7  UNL     1      20.137  44.580  39.959  1.00  0.00     0.004 C 
HETATM   10  C8  UNL     1      21.254  44.251  40.950  1.00  0.00     0.020 C 
HETATM   11  C9  UNL     1      21.169  42.730  41.139  1.00  0.00     0.142 C 
HETATM   12  N5  UNL     1      21.538  42.163  39.851  1.00  0.00    -0.209 N 
ENDROOT
BRANCH   6  13
HETATM   13  C3  UNL     1      21.285  42.034  36.262  1.00  0.00     0.097 A 
HETATM   14  N3  UNL     1      21.678  42.391  35.048  1.00  0.00    -0.294 N 
HETATM   15  N4  UNL     1      21.032  42.019  34.028  1.00  0.00    -0.284 N 
ATOM     16  H3  UNL     1      22.510  42.970  34.936  1.00  0.00     0.187 HD
HETATM   17  C4  UNL     1      19.944  41.257  34.194  1.00  0.00     0.159 A 
ATOM     18  H4  UNL     1      21.334  42.295  33.094  1.00  0.00     0.188 HD
HETATM   19  S1  UNL     1      18.948  40.655  33.026  1.00  0.00    -0.051 SA
HETATM   20  S2  UNL     1      19.892  41.101  35.897  1.00  0.00    -0.042 SA
ENDBRANCH   6  13
BRANCH   5  21
HETATM   21  O1  UNL     1      23.258  40.265  37.309  1.00  0.00    -0.273 OA
ATOM     22  H1  UNL     1      23.823  40.447  36.567  1.00  0.00     0.245 HD
ENDBRANCH   5  21
TORSDOF 2
ENDMDL
MODEL 4
REMARK VINA RESULT: -5.444710768      9.937     11.345
REMARK  2 active torsions:
REMARK  status: ('A' for Active; 'I' for Inactive)
REMARK    1  A    between atoms: N2_5  and  O1_6 
REMARK    2  A    between atoms: C2_8  and  C3_9 
ROOT
HETATM    1  N1  UNL     1      13.128  42.431  29.015  1.00  0.00    -0.233 N 
ATOM      2  H11 UNL     1      13.187  43.430  29.211  1.00  0.00     0.174 HD
ATOM      3  H12 UNL     1      12.384  42.287  28.332  1.00  0.00     0.174 HD
HETATM    4  C1  UNL     1      13.885  41.509  29.558  1.00  0.00     0.697 C 
HETATM    5  N2  UNL     1      13.803  40.114  29.284  1.00  0.00    -0.077 N 
HETATM    6  C2  UNL     1      14.566  39.453  30.294  1.00  0.00     0.215 C 
HETATM    7  C5  UNL     1      15.635  40.469  30.633  1.00  0.00     0.134 C 
HETATM    8  C6  UNL     1      16.154  40.180  31.990  1.00  0.00     0.028 C 
HETATM    9  C7  UNL     1      16.425  41.368  32.843  1.00  0.00     0.004 C 
HETATM   10  C8  UNL     1      15.298  42.397  32.755  1.00  0.00     0.020 C 
HETATM   11  C9  UNL     1      15.320  42.870  31.295  1.00  0.00     0.142 C 
HETATM   12  N5  UNL     1      14.922  41.709  30.511  1.00  0.00    -0.209 N 
ENDROOT
BRANCH   6  13
HETATM   13  C3  UNL     1      15.157  38.211  29.698  1.00  0.00     0.097 A 
HETATM   14  N3  UNL     1      14.715  36.963  29.748  1.00  0.00    -0.294 N 
HETATM   15  N4  UNL     1      15.353  36.031  29.180  1.00  0.00    -0.284 N 
ATOM     16  H3  UNL     1      13.852  36.752  30.249  1.00  0.00     0.187 HD
HETATM   17  C4  UNL     1      16.482  36.326  28.525  1.00  0.00     0.159 A 
ATOM     18  H4  UNL     1      15.012  35.071  29.220  1.00  0.00     0.188 HD
HETATM   19  S1  UNL     1      17.476  35.291  27.715  1.00  0.00    -0.051 SA
HETATM   20  S2  UNL     1      16.587  38.017  28.768  1.00  0.00    -0.042 SA
ENDBRANCH   6  13
BRANCH   5  21
HETATM   21  O1  UNL     1      13.115  39.563  28.243  1.00  0.00    -0.273 OA
ATOM     22  H1  UNL     1      13.331  38.736  27.826  1.00  0.00     0.245 HD
ENDBRANCH   5  21
TORSDOF 2
ENDMDL
MODEL 5
REMARK VINA RESULT: -5.280380138      2.011      2.628
REMARK  2 active torsions:
REMARK  status: ('A' for Active; 'I' for Inactive)
REMARK    1  A    between atoms: N2_5  and  O1_6 
REMARK    2  A    between atoms: C2_8  and  C3_9 
ROOT
HETATM    1  N1  UNL     1      21.256  45.063  42.498  1.00  0.00    -0.233 N 
ATOM      2  H11 UNL     1      21.559  45.025  43.471  1.00  0.00     0.174 HD
ATOM      3  H12 UNL     1      20.936  46.011  42.304  1.00  0.00     0.174 HD
HETATM    4  C1  UNL     1      21.283  44.056  41.659  1.00  0.00     0.697 C 
HETATM    5  N2  UNL     1      20.860  44.109  40.301  1.00  0.00    -0.077 N 
HETATM    6  C2  UNL     1      20.757  42.758  39.850  1.00  0.00     0.215 C 
HETATM    7  C5  UNL     1      21.809  42.044  40.672  1.00  0.00     0.134 C 
HETATM    8  C6  UNL     1      21.475  40.602  40.727  1.00  0.00     0.028 C 
HETATM    9  C7  UNL     1      21.698  39.939  42.039  1.00  0.00     0.004 C 
HETATM   10  C8  UNL     1      21.194  40.796  43.200  1.00  0.00     0.020 C 
HETATM   11  C9  UNL     1      22.078  42.051  43.167  1.00  0.00     0.142 C 
HETATM   12  N5  UNL     1      21.728  42.732  41.929  1.00  0.00    -0.209 N 
ENDROOT
BRANCH   6  13
HETATM   13  C3  UNL     1      21.085  42.725  38.388  1.00  0.00     0.097 A 
HETATM   14  N3  UNL     1      22.046  43.354  37.728  1.00  0.00    -0.294 N 
HETATM   15  N4  UNL     1      22.173  43.206  36.480  1.00  0.00    -0.284 N 
ATOM     16  H3  UNL     1      22.690  43.963  38.233  1.00  0.00     0.187 HD
HETATM   17  C4  UNL     1      21.320  42.402  35.834  1.00  0.00     0.159 A 
ATOM     18  H4  UNL     1      22.913  43.692  35.973  1.00  0.00     0.188 HD
HETATM   19  S1  UNL     1      21.288  42.055  34.223  1.00  0.00    -0.051 SA
HETATM   20  S2  UNL     1      20.319  41.866  37.114  1.00  0.00    -0.042 SA
ENDBRANCH   6  13
BRANCH   5  21
HETATM   21  O1  UNL     1      20.614  45.257  39.604  1.00  0.00    -0.273 OA
ATOM     22  H1  UNL     1      21.084  46.074  39.722  1.00  0.00     0.245 HD
ENDBRANCH   5  21
TORSDOF 2
ENDMDL
