MODEL 1
REMARK VINA RESULT: -6.264759159      0.000      0.000
REMARK  3 active torsions:
REMARK  status: ('A' for Active; 'I' for Inactive)
REMARK    1  A    between atoms: O1_1  and  C1_3 
REMARK    2  A    between atoms: C2_6  and  N2_7 
REMARK    3  A    between atoms: C7_13  and  C8_14 
ROOT
HETATM    1  C1  UNL     1       0.687   1.301  -6.814  1.00  0.00     0.155 A 
HETATM    2  N1  UNL     1       0.400   1.394  -5.556  1.00  0.00    -0.317 N 
ATOM      3  H1  UNL     1       0.883   2.082  -4.978  1.00  0.00     0.170 HD
HETATM    4  C2  UNL     1      -0.508   0.610  -5.015  1.00  0.00     0.149 A 
HETATM    5  S1  UNL     1      -0.998  -0.335  -6.387  1.00  0.00    -0.054 SA
HETATM    6  C7  UNL     1       0.038   0.371  -7.587  1.00  0.00     0.042 A 
ENDROOT
BRANCH   6   7
HETATM    7  C8  UNL     1       0.003   0.155  -9.031  1.00  0.00     0.041 C 
HETATM    8  C9  UNL     1       1.344  -0.137  -9.671  1.00  0.00     0.012 C 
HETATM    9  C10 UNL     1       0.791  -0.412 -11.111  1.00  0.00     0.024 C 
HETATM   10  C11 UNL     1      -0.322  -1.418 -10.793  1.00  0.00     0.109 C 
HETATM   11  N3  UNL     1       0.274  -2.714 -10.911  1.00  0.00    -0.136 NA
HETATM   12  C13 UNL     1      -0.611  -1.264  -9.305  1.00  0.00     0.055 C 
HETATM   13  N4  UNL     1       0.712  -3.137  -9.669  1.00  0.00    -0.318 N 
HETATM   14  C12 UNL     1       0.221  -2.337  -8.747  1.00  0.00     0.083 C 
ATOM     15  H4  UNL     1       1.318  -3.939  -9.495  1.00  0.00     0.181 HD
ENDBRANCH   6   7
BRANCH   1  16
HETATM   16  O1  UNL     1       1.682   2.140  -7.434  1.00  0.00    -0.345 OA
ATOM     17  H1  UNL     1       2.159   1.866  -8.209  1.00  0.00     0.219 HD
ENDBRANCH   1  16
BRANCH   4  18
HETATM   18  N2  UNL     1      -1.014   0.556  -3.677  1.00  0.00    -0.361 N 
HETATM   19  C3  UNL     1      -0.233   0.085  -2.552  1.00  0.00     0.125 C 
HETATM   20  C4  UNL     1      -0.530   1.147  -1.513  1.00  0.00     0.021 C 
HETATM   21  C5  UNL     1      -1.910   1.684  -1.885  1.00  0.00     0.021 C 
HETATM   22  C6  UNL     1      -2.290   0.883  -3.113  1.00  0.00     0.125 C 
ENDBRANCH   4  18
TORSDOF 3
ENDMDL
MODEL 2
REMARK VINA RESULT: -6.260918835      2.711      3.520
REMARK  3 active torsions:
REMARK  status: ('A' for Active; 'I' for Inactive)
REMARK    1  A    between atoms: O1_1  and  C1_3 
REMARK    2  A    between atoms: C2_6  and  N2_7 
REMARK    3  A    between atoms: C7_13  and  C8_14 
ROOT
HETATM    1  C1  UNL     1      -0.701  -1.272  -6.841  1.00  0.00     0.155 A 
HETATM    2  N1  UNL     1      -0.418  -1.364  -5.582  1.00  0.00    -0.317 N 
ATOM      3  H1  UNL     1      -0.909  -2.045  -5.002  1.00  0.00     0.170 HD
HETATM    4  C2  UNL     1       0.496  -0.587  -5.041  1.00  0.00     0.149 A 
HETATM    5  S1  UNL     1       1.000   0.348  -6.415  1.00  0.00    -0.054 SA
HETATM    6  C7  UNL     1      -0.040  -0.352  -7.615  1.00  0.00     0.042 A 
ENDROOT
BRANCH   6   7
HETATM    7  C8  UNL     1       0.001  -0.141  -9.060  1.00  0.00     0.041 C 
HETATM    8  C9  UNL     1      -1.338   0.140  -9.707  1.00  0.00     0.012 C 
HETATM    9  C10 UNL     1      -0.780   0.413 -11.146  1.00  0.00     0.024 C 
HETATM   10  C11 UNL     1       0.324   1.428 -10.826  1.00  0.00     0.109 C 
HETATM   11  N3  UNL     1      -0.281   2.719 -10.952  1.00  0.00    -0.136 NA
HETATM   12  C13 UNL     1       0.607   1.282  -9.336  1.00  0.00     0.055 C 
HETATM   13  N4  UNL     1      -0.728   3.144  -9.713  1.00  0.00    -0.318 N 
HETATM   14  C12 UNL     1      -0.235   2.351  -8.786  1.00  0.00     0.083 C 
ATOM     15  H4  UNL     1      -1.340   3.943  -9.546  1.00  0.00     0.181 HD
ENDBRANCH   6   7
BRANCH   1  16
HETATM   16  O1  UNL     1      -1.702  -2.102  -7.461  1.00  0.00    -0.345 OA
ATOM     17  H1  UNL     1      -2.076  -1.892  -8.309  1.00  0.00     0.219 HD
ENDBRANCH   1  16
BRANCH   4  18
HETATM   18  N2  UNL     1       0.999  -0.534  -3.702  1.00  0.00    -0.361 N 
HETATM   19  C3  UNL     1       0.217  -0.064  -2.578  1.00  0.00     0.125 C 
HETATM   20  C4  UNL     1       0.511  -1.127  -1.539  1.00  0.00     0.021 C 
HETATM   21  C5  UNL     1       1.891  -1.664  -1.908  1.00  0.00     0.021 C 
HETATM   22  C6  UNL     1       2.274  -0.862  -3.135  1.00  0.00     0.125 C 
ENDBRANCH   4  18
TORSDOF 3
ENDMDL
MODEL 3
REMARK VINA RESULT: -6.179025805      1.802      2.320
REMARK  3 active torsions:
REMARK  status: ('A' for Active; 'I' for Inactive)
REMARK    1  A    between atoms: O1_1  and  C1_3 
REMARK    2  A    between atoms: C2_6  and  N2_7 
REMARK    3  A    between atoms: C7_13  and  C8_14 
ROOT
HETATM    1  C1  UNL     1       0.856   1.823  -5.244  1.00  0.00     0.155 A 
HETATM    2  N1  UNL     1       0.168   1.993  -4.162  1.00  0.00    -0.317 N 
ATOM      3  H1  UNL     1       0.364   2.792  -3.560  1.00  0.00     0.170 HD
HETATM    4  C2  UNL     1      -0.782   1.144  -3.831  1.00  0.00     0.149 A 
HETATM    5  S1  UNL     1      -0.701   0.016  -5.149  1.00  0.00    -0.054 SA
HETATM    6  C7  UNL     1       0.591   0.744  -6.050  1.00  0.00     0.042 A 
ENDROOT
BRANCH   6   7
HETATM    7  C8  UNL     1       1.050   0.390  -7.391  1.00  0.00     0.041 C 
HETATM    8  C9  UNL     1       0.458  -0.881  -7.960  1.00  0.00     0.012 C 
HETATM    9  C10 UNL     1       1.116  -0.758  -9.377  1.00  0.00     0.024 C 
HETATM   10  C11 UNL     1       0.734   0.683  -9.735  1.00  0.00     0.109 C 
HETATM   11  N3  UNL     1      -0.501   0.594 -10.456  1.00  0.00    -0.136 NA
HETATM   12  C13 UNL     1       0.361   1.356  -8.421  1.00  0.00     0.055 C 
HETATM   13  N4  UNL     1      -1.560   0.762  -9.582  1.00  0.00    -0.318 N 
HETATM   14  C12 UNL     1      -1.098   1.196  -8.428  1.00  0.00     0.083 C 
ATOM     15  H4  UNL     1      -2.540   0.579  -9.796  1.00  0.00     0.181 HD
ENDBRANCH   6   7
BRANCH   1  16
HETATM   16  O1  UNL     1       1.907   2.730  -5.631  1.00  0.00    -0.345 OA
ATOM     17  H1  UNL     1       1.736   3.508  -6.149  1.00  0.00     0.219 HD
ENDBRANCH   1  16
BRANCH   4  18
HETATM   18  N2  UNL     1      -1.687   1.146  -2.722  1.00  0.00    -0.361 N 
HETATM   19  C3  UNL     1      -1.258   1.297  -1.348  1.00  0.00     0.125 C 
HETATM   20  C4  UNL     1      -2.258   2.310  -0.828  1.00  0.00     0.021 C 
HETATM   21  C5  UNL     1      -3.502   2.109  -1.689  1.00  0.00     0.021 C 
HETATM   22  C6  UNL     1      -3.110   0.994  -2.636  1.00  0.00     0.125 C 
ENDBRANCH   4  18
TORSDOF 3
ENDMDL
MODEL 4
REMARK VINA RESULT: -6.165545992      2.739      3.436
REMARK  3 active torsions:
REMARK  status: ('A' for Active; 'I' for Inactive)
REMARK    1  A    between atoms: O1_1  and  C1_3 
REMARK    2  A    between atoms: C2_6  and  N2_7 
REMARK    3  A    between atoms: C7_13  and  C8_14 
ROOT
HETATM    1  C1  UNL     1      -0.844  -1.749  -5.339  1.00  0.00     0.155 A 
HETATM    2  N1  UNL     1      -0.174  -1.945  -4.251  1.00  0.00    -0.317 N 
ATOM      3  H1  UNL     1      -0.367  -2.769  -3.681  1.00  0.00     0.170 HD
HETATM    4  C2  UNL     1       0.755  -1.093  -3.871  1.00  0.00     0.149 A 
HETATM    5  S1  UNL     1       0.679   0.079  -5.150  1.00  0.00    -0.054 SA
HETATM    6  C7  UNL     1      -0.583  -0.637  -6.101  1.00  0.00     0.042 A 
ENDROOT
BRANCH   6   7
HETATM    7  C8  UNL     1      -1.023  -0.244  -7.437  1.00  0.00     0.041 C 
HETATM    8  C9  UNL     1      -0.347   0.987  -8.001  1.00  0.00     0.012 C 
HETATM    9  C10 UNL     1      -1.018   0.919  -9.415  1.00  0.00     0.024 C 
HETATM   10  C11 UNL     1      -0.738  -0.543  -9.785  1.00  0.00     0.109 C 
HETATM   11  N3  UNL     1       0.496  -0.534 -10.511  1.00  0.00    -0.136 NA
HETATM   12  C13 UNL     1      -0.407  -1.248  -8.477  1.00  0.00     0.055 C 
HETATM   13  N4  UNL     1       1.545  -0.781  -9.643  1.00  0.00    -0.318 N 
HETATM   14  C12 UNL     1       1.059  -1.190  -8.491  1.00  0.00     0.083 C 
ATOM     15  H4  UNL     1       2.534  -0.665  -9.862  1.00  0.00     0.181 HD
ENDBRANCH   6   7
BRANCH   1  16
HETATM   16  O1  UNL     1      -1.872  -2.659  -5.778  1.00  0.00    -0.345 OA
ATOM     17  H1  UNL     1      -1.768  -3.200  -6.552  1.00  0.00     0.219 HD
ENDBRANCH   1  16
BRANCH   4  18
HETATM   18  N2  UNL     1       1.639  -1.120  -2.745  1.00  0.00    -0.361 N 
HETATM   19  C3  UNL     1       1.178  -1.230  -1.377  1.00  0.00     0.125 C 
HETATM   20  C4  UNL     1       2.121  -2.279  -0.824  1.00  0.00     0.021 C 
HETATM   21  C5  UNL     1       3.389  -2.148  -1.665  1.00  0.00     0.021 C 
HETATM   22  C6  UNL     1       3.065  -1.031  -2.635  1.00  0.00     0.125 C 
ENDBRANCH   4  18
TORSDOF 3
ENDMDL
MODEL 5
REMARK VINA RESULT: -6.024425894      1.980      6.951
REMARK  3 active torsions:
REMARK  status: ('A' for Active; 'I' for Inactive)
REMARK    1  A    between atoms: O1_1  and  C1_3 
REMARK    2  A    between atoms: C2_6  and  N2_7 
REMARK    3  A    between atoms: C7_13  and  C8_14 
ROOT
HETATM    1  C1  UNL     1       0.646  -0.520  -5.066  1.00  0.00     0.155 A 
HETATM    2  N1  UNL     1       0.526  -1.098  -6.217  1.00  0.00    -0.317 N 
ATOM      3  H1  UNL     1       1.017  -1.974  -6.396  1.00  0.00     0.170 HD
HETATM    4  C2  UNL     1      -0.222  -0.566  -7.161  1.00  0.00     0.149 A 
HETATM    5  S1  UNL     1      -0.805   0.862  -6.363  1.00  0.00    -0.054 SA
HETATM    6  C7  UNL     1      -0.014   0.660  -4.833  1.00  0.00     0.042 A 
ENDROOT
BRANCH   6   7
HETATM    7  C8  UNL     1      -0.225   1.436  -3.613  1.00  0.00     0.041 C 
HETATM    8  C9  UNL     1      -1.102   2.659  -3.771  1.00  0.00     0.012 C 
HETATM    9  C10 UNL     1      -1.133   3.046  -2.253  1.00  0.00     0.024 C 
HETATM   10  C11 UNL     1      -1.525   1.699  -1.632  1.00  0.00     0.109 C 
HETATM   11  N3  UNL     1      -2.954   1.713  -1.535  1.00  0.00    -0.136 NA
HETATM   12  C13 UNL     1      -1.224   0.647  -2.692  1.00  0.00     0.055 C 
HETATM   13  N4  UNL     1      -3.500   1.109  -2.654  1.00  0.00    -0.318 N 
HETATM   14  C12 UNL     1      -2.542   0.497  -3.319  1.00  0.00     0.083 C 
ATOM     15  H4  UNL     1      -4.484   1.133  -2.920  1.00  0.00     0.181 HD
ENDBRANCH   6   7
BRANCH   1  16
HETATM   16  O1  UNL     1       1.463  -1.073  -4.016  1.00  0.00    -0.345 OA
ATOM     17  H1  UNL     1       1.700  -1.993  -3.993  1.00  0.00     0.219 HD
ENDBRANCH   1  16
BRANCH   4  18
HETATM   18  N2  UNL     1      -0.533  -1.035  -8.477  1.00  0.00    -0.361 N 
HETATM   19  C3  UNL     1      -0.918  -0.157  -9.562  1.00  0.00     0.125 C 
HETATM   20  C4  UNL     1      -0.071  -0.691 -10.699  1.00  0.00     0.021 C 
HETATM   21  C5  UNL     1       0.158  -2.161 -10.359  1.00  0.00     0.021 C 
HETATM   22  C6  UNL     1      -0.579  -2.348  -9.049  1.00  0.00     0.125 C 
ENDBRANCH   4  18
TORSDOF 3
ENDMDL
