MODEL 1
REMARK VINA RESULT: -6.803253270      0.000      0.000
REMARK  3 active torsions:
REMARK  status: ('A' for Active; 'I' for Inactive)
REMARK    1  A    between atoms: C10_12  and  O3_13 
REMARK    2  A    between atoms: O3_13  and  O4_14 
REMARK    3  A    between atoms: C14_19  and  O5_20 
ROOT
HETATM    1  C1  UNL     1      -1.548   0.946  -8.679  1.00  0.00     0.021 C 
HETATM    2  C2  UNL     1      -0.287   0.247  -8.678  1.00  0.00     0.018 C 
HETATM    3  C3  UNL     1      -0.423  -1.034  -9.412  1.00  0.00     0.015 C 
HETATM    4  C4  UNL     1      -1.003  -2.182  -8.702  1.00  0.00     0.001 C 
HETATM    5  C5  UNL     1      -2.065  -2.104  -7.697  1.00  0.00     0.000 C 
HETATM    6  C6  UNL     1      -1.783  -2.823  -6.368  1.00  0.00     0.000 C 
HETATM    7  C7  UNL     1      -1.074  -2.176  -5.295  1.00  0.00     0.003 C 
HETATM    8  C8  UNL     1      -0.854  -0.718  -5.116  1.00  0.00     0.038 C 
HETATM    9  C9  UNL     1       0.614  -0.318  -4.964  1.00  0.00     0.189 C 
HETATM   10  O1  UNL     1       1.297  -1.237  -5.789  1.00  0.00    -0.230 OA
HETATM   11  O2  UNL     1       0.696  -1.155  -6.901  1.00  0.00    -0.196 OA
HETATM   12  C10 UNL     1       0.632  -0.055  -7.586  1.00  0.00     0.242 C 
HETATM   13  C11 UNL     1       0.530   1.269  -6.865  1.00  0.00     0.086 C 
HETATM   14  C12 UNL     1       1.145   2.025  -7.961  1.00  0.00     0.014 C 
HETATM   15  C13 UNL     1       0.670   1.302  -9.271  1.00  0.00     0.015 C 
HETATM   16  C14 UNL     1       0.977   1.050  -5.527  1.00  0.00     0.159 C 
ENDROOT
BRANCH  12  17
HETATM   17  O3  UNL     1       1.956  -0.131  -8.161  1.00  0.00    -0.199 OA
BRANCH  17  18
HETATM   18  O4  UNL     1       2.415  -1.312  -8.233  1.00  0.00    -0.247 OA
ATOM     19  H4  UNL     1       3.307  -1.357  -8.557  1.00  0.00     0.253 HD
ENDBRANCH  17  18
ENDBRANCH  12  17
BRANCH  16  20
HETATM   20  O5  UNL     1       0.392   1.973  -4.619  1.00  0.00    -0.392 OA
ATOM     21  H5  UNL     1      -0.415   1.555  -4.344  1.00  0.00     0.210 HD
ENDBRANCH  16  20
TORSDOF 3
ENDMDL
MODEL 2
REMARK VINA RESULT: -6.797721604      1.792      3.846
REMARK  3 active torsions:
REMARK  status: ('A' for Active; 'I' for Inactive)
REMARK    1  A    between atoms: C10_12  and  O3_13 
REMARK    2  A    between atoms: O3_13  and  O4_14 
REMARK    3  A    between atoms: C14_19  and  O5_20 
ROOT
HETATM    1  C1  UNL     1       1.628  -0.889  -8.680  1.00  0.00     0.021 C 
HETATM    2  C2  UNL     1       0.355  -0.213  -8.686  1.00  0.00     0.018 C 
HETATM    3  C3  UNL     1       0.475   1.076  -9.409  1.00  0.00     0.015 C 
HETATM    4  C4  UNL     1       1.027   2.229  -8.684  1.00  0.00     0.001 C 
HETATM    5  C5  UNL     1       2.080   2.162  -7.669  1.00  0.00     0.000 C 
HETATM    6  C6  UNL     1       1.773   2.865  -6.338  1.00  0.00     0.000 C 
HETATM    7  C7  UNL     1       1.065   2.196  -5.276  1.00  0.00     0.003 C 
HETATM    8  C8  UNL     1       0.871   0.733  -5.111  1.00  0.00     0.038 C 
HETATM    9  C9  UNL     1      -0.592   0.305  -4.976  1.00  0.00     0.189 C 
HETATM   10  O1  UNL     1      -1.283   1.218  -5.801  1.00  0.00    -0.230 OA
HETATM   11  O2  UNL     1      -0.671   1.156  -6.908  1.00  0.00    -0.196 OA
HETATM   12  C10 UNL     1      -0.579   0.064  -7.600  1.00  0.00     0.242 C 
HETATM   13  C11 UNL     1      -0.461  -1.264  -6.889  1.00  0.00     0.086 C 
HETATM   14  C12 UNL     1      -1.051  -2.022  -7.997  1.00  0.00     0.014 C 
HETATM   15  C13 UNL     1      -0.577  -1.280  -9.297  1.00  0.00     0.015 C 
HETATM   16  C14 UNL     1      -0.924  -1.065  -5.554  1.00  0.00     0.159 C 
ENDROOT
BRANCH  12  17
HETATM   17  O3  UNL     1      -1.899   0.120  -8.187  1.00  0.00    -0.199 OA
BRANCH  17  18
HETATM   18  O4  UNL     1      -2.373   1.294  -8.266  1.00  0.00    -0.247 OA
ATOM     19  H4  UNL     1      -3.233   1.334  -8.669  1.00  0.00     0.253 HD
ENDBRANCH  17  18
ENDBRANCH  12  17
BRANCH  16  20
HETATM   20  O5  UNL     1      -0.331  -1.984  -4.648  1.00  0.00    -0.392 OA
ATOM     21  H5  UNL     1       0.362  -2.397  -5.148  1.00  0.00     0.210 HD
ENDBRANCH  16  20
TORSDOF 3
ENDMDL
MODEL 3
REMARK VINA RESULT: -6.619838160      1.920      3.787
REMARK  3 active torsions:
REMARK  status: ('A' for Active; 'I' for Inactive)
REMARK    1  A    between atoms: C10_12  and  O3_13 
REMARK    2  A    between atoms: O3_13  and  O4_14 
REMARK    3  A    between atoms: C14_19  and  O5_20 
ROOT
HETATM    1  C1  UNL     1       0.918  -1.473  -6.181  1.00  0.00     0.021 C 
HETATM    2  C2  UNL     1      -0.268  -0.718  -6.503  1.00  0.00     0.018 C 
HETATM    3  C3  UNL     1      -1.367  -1.641  -6.868  1.00  0.00     0.015 C 
HETATM    4  C4  UNL     1      -1.398  -2.175  -8.237  1.00  0.00     0.001 C 
HETATM    5  C5  UNL     1      -0.220  -2.510  -9.039  1.00  0.00     0.000 C 
HETATM    6  C6  UNL     1      -0.175  -1.904 -10.450  1.00  0.00     0.000 C 
HETATM    7  C7  UNL     1       0.356  -0.586 -10.689  1.00  0.00     0.003 C 
HETATM    8  C8  UNL     1       1.241   0.200  -9.792  1.00  0.00     0.038 C 
HETATM    9  C9  UNL     1       0.707   1.590  -9.444  1.00  0.00     0.189 C 
HETATM   10  O1  UNL     1      -0.692   1.407  -9.394  1.00  0.00    -0.230 OA
HETATM   11  O2  UNL     1      -0.844   0.420  -8.615  1.00  0.00    -0.196 OA
HETATM   12  C10 UNL     1      -0.452   0.434  -7.379  1.00  0.00     0.242 C 
HETATM   13  C11 UNL     1       0.808   1.178  -7.003  1.00  0.00     0.086 C 
HETATM   14  C12 UNL     1       0.376   1.412  -5.621  1.00  0.00     0.014 C 
HETATM   15  C13 UNL     1      -0.460   0.141  -5.234  1.00  0.00     0.015 C 
HETATM   16  C14 UNL     1       1.078   2.100  -8.057  1.00  0.00     0.159 C 
ENDROOT
BRANCH  12  17
HETATM   17  O3  UNL     1      -1.568   1.187  -6.852  1.00  0.00    -0.199 OA
BRANCH  17  18
HETATM   18  O4  UNL     1      -2.425   1.511  -7.729  1.00  0.00    -0.247 OA
ATOM     19  H4  UNL     1      -2.333   2.403  -8.044  1.00  0.00     0.253 HD
ENDBRANCH  17  18
ENDBRANCH  12  17
BRANCH  16  20
HETATM   20  O5  UNL     1       2.463   2.404  -8.151  1.00  0.00    -0.392 OA
ATOM     21  H5  UNL     1       2.835   1.668  -8.622  1.00  0.00     0.210 HD
ENDBRANCH  16  20
TORSDOF 3
ENDMDL
MODEL 4
REMARK VINA RESULT: -6.617609644      1.412      4.190
REMARK  3 active torsions:
REMARK  status: ('A' for Active; 'I' for Inactive)
REMARK    1  A    between atoms: C10_12  and  O3_13 
REMARK    2  A    between atoms: O3_13  and  O4_14 
REMARK    3  A    between atoms: C14_19  and  O5_20 
ROOT
HETATM    1  C1  UNL     1      -0.890   1.453  -6.178  1.00  0.00     0.021 C 
HETATM    2  C2  UNL     1       0.297   0.703  -6.509  1.00  0.00     0.018 C 
HETATM    3  C3  UNL     1       1.388   1.632  -6.888  1.00  0.00     0.015 C 
HETATM    4  C4  UNL     1       1.403   2.162  -8.259  1.00  0.00     0.001 C 
HETATM    5  C5  UNL     1       0.214   2.489  -9.050  1.00  0.00     0.000 C 
HETATM    6  C6  UNL     1       0.159   1.878 -10.459  1.00  0.00     0.000 C 
HETATM    7  C7  UNL     1      -0.367   0.557 -10.689  1.00  0.00     0.003 C 
HETATM    8  C8  UNL     1      -1.239  -0.232  -9.782  1.00  0.00     0.038 C 
HETATM    9  C9  UNL     1      -0.693  -1.618  -9.435  1.00  0.00     0.189 C 
HETATM   10  O1  UNL     1       0.705  -1.426  -9.399  1.00  0.00    -0.230 OA
HETATM   11  O2  UNL     1       0.859  -0.437  -8.624  1.00  0.00    -0.196 OA
HETATM   12  C10 UNL     1       0.479  -0.450  -7.384  1.00  0.00     0.242 C 
HETATM   13  C11 UNL     1      -0.773  -1.199  -6.994  1.00  0.00     0.086 C 
HETATM   14  C12 UNL     1      -0.326  -1.428  -5.616  1.00  0.00     0.014 C 
HETATM   15  C13 UNL     1       0.506  -0.151  -5.241  1.00  0.00     0.015 C 
HETATM   16  C14 UNL     1      -1.048  -2.127  -8.043  1.00  0.00     0.159 C 
ENDROOT
BRANCH  12  17
HETATM   17  O3  UNL     1       1.604  -1.195  -6.866  1.00  0.00    -0.199 OA
BRANCH  17  18
HETATM   18  O4  UNL     1       2.457  -1.514  -7.750  1.00  0.00    -0.247 OA
ATOM     19  H4  UNL     1       2.071  -1.761  -8.583  1.00  0.00     0.253 HD
ENDBRANCH  17  18
ENDBRANCH  12  17
BRANCH  16  20
HETATM   20  O5  UNL     1      -2.432  -2.438  -8.123  1.00  0.00    -0.392 OA
ATOM     21  H5  UNL     1      -2.839  -1.632  -8.418  1.00  0.00     0.210 HD
ENDBRANCH  16  20
TORSDOF 3
ENDMDL
MODEL 5
REMARK VINA RESULT: -6.247942605      1.641      4.154
REMARK  3 active torsions:
REMARK  status: ('A' for Active; 'I' for Inactive)
REMARK    1  A    between atoms: C10_12  and  O3_13 
REMARK    2  A    between atoms: O3_13  and  O4_14 
REMARK    3  A    between atoms: C14_19  and  O5_20 
ROOT
HETATM    1  C1  UNL     1      -1.654   1.507  -8.067  1.00  0.00     0.021 C 
HETATM    2  C2  UNL     1      -0.269   1.115  -7.991  1.00  0.00     0.018 C 
HETATM    3  C3  UNL     1       0.576   2.115  -8.686  1.00  0.00     0.015 C 
HETATM    4  C4  UNL     1       0.686   2.033 -10.149  1.00  0.00     0.001 C 
HETATM    5  C5  UNL     1      -0.388   1.616 -11.054  1.00  0.00     0.000 C 
HETATM    6  C6  UNL     1      -0.024   0.516 -12.062  1.00  0.00     0.000 C 
HETATM    7  C7  UNL     1      -0.119  -0.881 -11.723  1.00  0.00     0.003 C 
HETATM    8  C8  UNL     1      -0.888  -1.481 -10.603  1.00  0.00     0.038 C 
HETATM    9  C9  UNL     1      -0.054  -2.359  -9.669  1.00  0.00     0.189 C 
HETATM   10  O1  UNL     1       1.209  -1.730  -9.659  1.00  0.00    -0.230 OA
HETATM   11  O2  UNL     1       0.948  -0.522  -9.381  1.00  0.00    -0.196 OA
HETATM   12  C10 UNL     1       0.374  -0.165  -8.274  1.00  0.00     0.242 C 
HETATM   13  C11 UNL     1      -0.675  -1.058  -7.653  1.00  0.00     0.086 C 
HETATM   14  C12 UNL     1      -0.433  -0.565  -6.294  1.00  0.00     0.014 C 
HETATM   15  C13 UNL     1      -0.061   0.950  -6.470  1.00  0.00     0.015 C 
HETATM   16  C14 UNL     1      -0.496  -2.360  -8.211  1.00  0.00     0.159 C 
ENDROOT
BRANCH  12  17
HETATM   17  O3  UNL     1       1.550  -0.237  -7.437  1.00  0.00    -0.199 OA
BRANCH  17  18
HETATM   18  O4  UNL     1       2.619  -0.475  -8.078  1.00  0.00    -0.247 OA
ATOM     19  H4  UNL     1       3.175  -1.127  -7.666  1.00  0.00     0.253 HD
ENDBRANCH  17  18
ENDBRANCH  12  17
BRANCH  16  20
HETATM   20  O5  UNL     1      -1.705  -3.105  -8.208  1.00  0.00    -0.392 OA
ATOM     21  H5  UNL     1      -2.173  -2.795  -7.442  1.00  0.00     0.210 HD
ENDBRANCH  16  20
TORSDOF 3
ENDMDL
