MODEL 1
REMARK VINA RESULT: -5.859644405      0.000      0.000
REMARK  1 active torsions:
REMARK  status: ('A' for Active; 'I' for Inactive)
REMARK    1  A    between atoms: C7_17  and  C8_18 
ROOT
HETATM    1  N1  UNL     1       1.570   1.886  -8.704  1.00  0.00    -0.388 N 
ATOM      2  H11 UNL     1       1.426   1.835  -9.713  1.00  0.00     0.157 HD
ATOM      3  H12 UNL     1       2.387   2.395  -8.366  1.00  0.00     0.157 HD
HETATM    4  C1  UNL     1       0.760   1.331  -7.883  1.00  0.00     0.085 C 
HETATM    5  N2  UNL     1       0.962   1.402  -6.480  1.00  0.00    -0.331 N 
ATOM      6  H2  UNL     1       1.548   2.138  -6.085  1.00  0.00     0.168 HD
HETATM    7  C2  UNL     1       0.348   0.451  -5.632  1.00  0.00     0.116 A 
HETATM    8  N3  UNL     1       0.545   0.527  -4.281  1.00  0.00    -0.319 N 
ATOM      9  H3  UNL     1       1.134   1.267  -3.900  1.00  0.00     0.170 HD
HETATM   10  C3  UNL     1      -0.026  -0.358  -3.449  1.00  0.00     0.177 A 
HETATM   11  S1  UNL     1       0.240  -0.224  -1.843  1.00  0.00    -0.040 SA
HETATM   12  N4  UNL     1      -0.795  -1.320  -3.977  1.00  0.00    -0.342 N 
ATOM     13  H4  UNL     1      -1.224  -1.989  -3.336  1.00  0.00     0.167 HD
HETATM   14  C4  UNL     1      -1.037  -1.466  -5.271  1.00  0.00     0.101 A 
HETATM   15  C5  UNL     1      -0.437  -0.536  -6.142  1.00  0.00     0.003 A 
HETATM   16  C6  UNL     1      -0.675  -0.658  -7.586  1.00  0.00     0.061 C 
HETATM   17  C7  UNL     1      -0.436   0.584  -8.379  1.00  0.00     0.099 C 
ENDROOT
BRANCH  17  18
HETATM   18  C8  UNL     1      -0.218   0.265  -9.824  1.00  0.00     0.011 A 
HETATM   19  C9  UNL     1       0.144  -0.919 -10.412  1.00  0.00     0.103 A 
HETATM   20  N5  UNL     1       0.272  -0.944 -11.695  1.00  0.00    -0.368 N 
HETATM   21  C10 UNL     1       0.056   0.154 -12.407  1.00  0.00     0.138 A 
ATOM     22  H5  UNL     1       0.540  -1.810 -12.163  1.00  0.00     0.165 HD
HETATM   23  S2  UNL     1      -0.351   1.285 -11.188  1.00  0.00    -0.087 SA
ENDBRANCH  17  18
TORSDOF 1
ENDMDL
MODEL 2
REMARK VINA RESULT: -5.849195189      1.526      2.360
REMARK  1 active torsions:
REMARK  status: ('A' for Active; 'I' for Inactive)
REMARK    1  A    between atoms: C7_17  and  C8_18 
ROOT
HETATM    1  N1  UNL     1      -1.550  -1.904  -8.676  1.00  0.00    -0.388 N 
ATOM      2  H11 UNL     1      -1.404  -1.853  -9.684  1.00  0.00     0.157 HD
ATOM      3  H12 UNL     1      -2.363  -2.418  -8.337  1.00  0.00     0.157 HD
HETATM    4  C1  UNL     1      -0.745  -1.341  -7.854  1.00  0.00     0.085 C 
HETATM    5  N2  UNL     1      -0.948  -1.411  -6.452  1.00  0.00    -0.331 N 
ATOM      6  H2  UNL     1      -1.529  -2.150  -6.056  1.00  0.00     0.168 HD
HETATM    7  C2  UNL     1      -0.342  -0.454  -5.605  1.00  0.00     0.116 A 
HETATM    8  N3  UNL     1      -0.540  -0.529  -4.254  1.00  0.00    -0.319 N 
ATOM      9  H3  UNL     1      -1.124  -1.272  -3.872  1.00  0.00     0.170 HD
HETATM   10  C3  UNL     1       0.023   0.362  -3.423  1.00  0.00     0.177 A 
HETATM   11  S1  UNL     1      -0.244   0.230  -1.817  1.00  0.00    -0.040 SA
HETATM   12  N4  UNL     1       0.785   1.330  -3.952  1.00  0.00    -0.342 N 
ATOM     13  H4  UNL     1       1.208   2.003  -3.312  1.00  0.00     0.167 HD
HETATM   14  C4  UNL     1       1.028   1.475  -5.246  1.00  0.00     0.101 A 
HETATM   15  C5  UNL     1       0.437   0.538  -6.116  1.00  0.00     0.003 A 
HETATM   16  C6  UNL     1       0.675   0.659  -7.560  1.00  0.00     0.061 C 
HETATM   17  C7  UNL     1       0.447  -0.586  -8.350  1.00  0.00     0.099 C 
ENDROOT
BRANCH  17  18
HETATM   18  C8  UNL     1       0.227  -0.272  -9.797  1.00  0.00     0.011 A 
HETATM   19  C9  UNL     1      -0.116   0.915 -10.389  1.00  0.00     0.103 A 
HETATM   20  N5  UNL     1      -0.249   0.935 -11.672  1.00  0.00    -0.368 N 
HETATM   21  C10 UNL     1      -0.055  -0.170 -12.379  1.00  0.00     0.138 A 
ATOM     22  H5  UNL     1      -0.504   1.803 -12.144  1.00  0.00     0.165 HD
HETATM   23  S2  UNL     1       0.338  -1.302 -11.156  1.00  0.00    -0.087 SA
ENDBRANCH  17  18
TORSDOF 1
ENDMDL
MODEL 3
REMARK VINA RESULT: -5.780268016      2.021      6.540
REMARK  1 active torsions:
REMARK  status: ('A' for Active; 'I' for Inactive)
REMARK    1  A    between atoms: C7_17  and  C8_18 
ROOT
HETATM    1  N1  UNL     1      -0.996  -1.926  -4.904  1.00  0.00    -0.388 N 
ATOM      2  H11 UNL     1      -0.797  -2.172  -3.934  1.00  0.00     0.157 HD
ATOM      3  H12 UNL     1      -1.468  -2.619  -5.485  1.00  0.00     0.157 HD
HETATM    4  C1  UNL     1      -0.665  -0.786  -5.386  1.00  0.00     0.085 C 
HETATM    5  N2  UNL     1      -0.941  -0.443  -6.734  1.00  0.00    -0.331 N 
ATOM      6  H2  UNL     1      -1.668  -0.941  -7.250  1.00  0.00     0.168 HD
HETATM    7  C2  UNL     1      -0.207   0.590  -7.362  1.00  0.00     0.116 A 
HETATM    8  N3  UNL     1      -0.480   0.917  -8.661  1.00  0.00    -0.319 N 
ATOM      9  H3  UNL     1      -1.208   0.411  -9.164  1.00  0.00     0.170 HD
HETATM   10  C3  UNL     1       0.197   1.894  -9.284  1.00  0.00     0.177 A 
HETATM   11  S1  UNL     1      -0.166   2.247 -10.837  1.00  0.00    -0.040 SA
HETATM   12  N4  UNL     1       1.150   2.543  -8.600  1.00  0.00    -0.342 N 
ATOM     13  H4  UNL     1       1.659   3.283  -9.082  1.00  0.00     0.167 HD
HETATM   14  C4  UNL     1       1.477   2.290  -7.341  1.00  0.00     0.101 A 
HETATM   15  C5  UNL     1       0.766   1.264  -6.689  1.00  0.00     0.003 A 
HETATM   16  C6  UNL     1       1.094   0.946  -5.294  1.00  0.00     0.061 C 
HETATM   17  C7  UNL     1       0.027   0.230  -4.535  1.00  0.00     0.099 C 
ENDROOT
BRANCH  17  18
HETATM   18  C8  UNL     1       0.595  -0.473  -3.342  1.00  0.00     0.011 A 
HETATM   19  C9  UNL     1       0.227  -0.395  -2.025  1.00  0.00     0.103 A 
HETATM   20  N5  UNL     1       0.879  -1.108  -1.170  1.00  0.00    -0.368 N 
HETATM   21  C10 UNL     1       1.873  -1.887  -1.574  1.00  0.00     0.138 A 
ATOM     22  H5  UNL     1       0.629  -1.072  -0.182  1.00  0.00     0.165 HD
HETATM   23  S2  UNL     1       1.884  -1.592  -3.260  1.00  0.00    -0.087 SA
ENDBRANCH  17  18
TORSDOF 1
ENDMDL
MODEL 4
REMARK VINA RESULT: -5.779611938      2.309      6.127
REMARK  1 active torsions:
REMARK  status: ('A' for Active; 'I' for Inactive)
REMARK    1  A    between atoms: C7_17  and  C8_18 
ROOT
HETATM    1  N1  UNL     1       1.063   1.897  -4.874  1.00  0.00    -0.388 N 
ATOM      2  H11 UNL     1       0.852   2.167  -3.913  1.00  0.00     0.157 HD
ATOM      3  H12 UNL     1       1.573   2.563  -5.454  1.00  0.00     0.157 HD
HETATM    4  C1  UNL     1       0.701   0.763  -5.345  1.00  0.00     0.085 C 
HETATM    5  N2  UNL     1       0.994   0.389  -6.682  1.00  0.00    -0.331 N 
ATOM      6  H2  UNL     1       1.750   0.851  -7.188  1.00  0.00     0.168 HD
HETATM    7  C2  UNL     1       0.236  -0.627  -7.311  1.00  0.00     0.116 A 
HETATM    8  N3  UNL     1       0.525  -0.984  -8.598  1.00  0.00    -0.319 N 
ATOM      9  H3  UNL     1       1.283  -0.513  -9.092  1.00  0.00     0.170 HD
HETATM   10  C3  UNL     1      -0.173  -1.946  -9.221  1.00  0.00     0.177 A 
HETATM   11  S1  UNL     1       0.211  -2.336 -10.760  1.00  0.00    -0.040 SA
HETATM   12  N4  UNL     1      -1.164  -2.547  -8.549  1.00  0.00    -0.342 N 
ATOM     13  H4  UNL     1      -1.690  -3.277  -9.032  1.00  0.00     0.167 HD
HETATM   14  C4  UNL     1      -1.510  -2.263  -7.302  1.00  0.00     0.101 A 
HETATM   15  C5  UNL     1      -0.775  -1.254  -6.650  1.00  0.00     0.003 A 
HETATM   16  C6  UNL     1      -1.123  -0.901  -5.267  1.00  0.00     0.061 C 
HETATM   17  C7  UNL     1      -0.047  -0.213  -4.495  1.00  0.00     0.099 C 
ENDROOT
BRANCH  17  18
HETATM   18  C8  UNL     1      -0.616   0.530  -3.327  1.00  0.00     0.011 A 
HETATM   19  C9  UNL     1      -0.272   0.467  -2.002  1.00  0.00     0.103 A 
HETATM   20  N5  UNL     1      -0.918   1.215  -1.173  1.00  0.00    -0.368 N 
HETATM   21  C10 UNL     1      -1.882   2.014  -1.609  1.00  0.00     0.138 A 
ATOM     22  H5  UNL     1      -0.686   1.192  -0.180  1.00  0.00     0.165 HD
HETATM   23  S2  UNL     1      -1.873   1.686  -3.289  1.00  0.00    -0.087 SA
ENDBRANCH  17  18
TORSDOF 1
ENDMDL
MODEL 5
REMARK VINA RESULT: -5.776354762      1.668      6.482
REMARK  1 active torsions:
REMARK  status: ('A' for Active; 'I' for Inactive)
REMARK    1  A    between atoms: C7_17  and  C8_18 
ROOT
HETATM    1  N1  UNL     1      -1.336  -2.257  -5.294  1.00  0.00    -0.388 N 
ATOM      2  H11 UNL     1      -1.238  -2.176  -4.281  1.00  0.00     0.157 HD
ATOM      3  H12 UNL     1      -1.680  -3.140  -5.670  1.00  0.00     0.157 HD
HETATM    4  C1  UNL     1      -1.038  -1.286  -6.074  1.00  0.00     0.085 C 
HETATM    5  N2  UNL     1      -1.175  -1.399  -7.482  1.00  0.00    -0.331 N 
ATOM      6  H2  UNL     1      -1.794  -2.105  -7.880  1.00  0.00     0.168 HD
HETATM    7  C2  UNL     1      -0.451  -0.529  -8.331  1.00  0.00     0.116 A 
HETATM    8  N3  UNL     1      -0.589  -0.641  -9.686  1.00  0.00    -0.319 N 
ATOM      9  H3  UNL     1      -1.210  -1.353 -10.070  1.00  0.00     0.170 HD
HETATM   10  C3  UNL     1       0.082   0.170 -10.518  1.00  0.00     0.177 A 
HETATM   11  S1  UNL     1      -0.117  -0.004 -12.130  1.00  0.00    -0.040 SA
HETATM   12  N4  UNL     1       0.892   1.096  -9.986  1.00  0.00    -0.342 N 
ATOM     13  H4  UNL     1       1.398   1.708 -10.627  1.00  0.00     0.167 HD
HETATM   14  C4  UNL     1       1.084   1.272  -8.687  1.00  0.00     0.101 A 
HETATM   15  C5  UNL     1       0.379   0.419  -7.816  1.00  0.00     0.003 A 
HETATM   16  C6  UNL     1       0.560   0.575  -6.367  1.00  0.00     0.061 C 
HETATM   17  C7  UNL     1      -0.533   0.008  -5.523  1.00  0.00     0.099 C 
ENDROOT
BRANCH  17  18
HETATM   18  C8  UNL     1      -0.061  -0.235  -4.124  1.00  0.00     0.011 A 
HETATM   19  C9  UNL     1      -0.558   0.241  -2.940  1.00  0.00     0.103 A 
HETATM   20  N5  UNL     1       0.030  -0.116  -1.849  1.00  0.00    -0.368 N 
HETATM   21  C10 UNL     1       1.084  -0.920  -1.893  1.00  0.00     0.138 A 
ATOM     22  H5  UNL     1      -0.316   0.221  -0.950  1.00  0.00     0.165 HD
HETATM   23  S2  UNL     1       1.250  -1.185  -3.576  1.00  0.00    -0.087 SA
ENDBRANCH  17  18
TORSDOF 1
ENDMDL
