MODEL 1
REMARK VINA RESULT: -7.203577785      0.000      0.000
REMARK  3 active torsions:
REMARK  status: ('A' for Active; 'I' for Inactive)
REMARK    1  A    between atoms: N1_1  and  C1_4 
REMARK    2  A    between atoms: C4_7  and  N2_8 
REMARK    3  A    between atoms: N3_10  and  C5_12 
ROOT
HETATM    1  N2  UNL     1      -0.268   0.708  -6.933  1.00  0.00    -0.301 N 
ATOM      2  H2  UNL     1      -0.233   1.643  -7.339  1.00  0.00     0.186 HD
HETATM    3  N3  UNL     1      -0.461   0.660  -5.712  1.00  0.00    -0.331 N 
ATOM      4  H3  UNL     1      -0.565   1.560  -5.244  1.00  0.00     0.180 HD
ENDROOT
BRANCH   1   5
HETATM    5  C4  UNL     1      -0.092  -0.345  -7.828  1.00  0.00     0.089 A 
HETATM    6  C3  UNL     1      -1.053  -1.326  -7.924  1.00  0.00     0.038 A 
HETATM    7  C2  UNL     1      -0.925  -2.391  -8.796  1.00  0.00     0.050 A 
HETATM    8  C1  UNL     1       0.189  -2.467  -9.581  1.00  0.00     0.100 A 
HETATM    9  N5  UNL     1       1.137  -1.502  -9.488  1.00  0.00    -0.329 N 
HETATM   10  C12 UNL     1       1.019  -0.458  -8.639  1.00  0.00     0.146 A 
ATOM     11  H5  UNL     1       1.966  -1.566 -10.079  1.00  0.00     0.168 HD
HETATM   12  N4  UNL     1       2.068   0.498  -8.619  1.00  0.00    -0.080 NA
BRANCH   8  13
HETATM   13  N1  UNL     1       0.290  -3.467 -10.387  1.00  0.00    -0.385 N 
ATOM     14  H12 UNL     1      -0.312  -4.289 -10.325  1.00  0.00     0.157 HD
ATOM     15  H11 UNL     1       1.005  -3.424 -11.114  1.00  0.00     0.157 HD
ENDBRANCH   8  13
ENDBRANCH   1   5
BRANCH   3  16
HETATM   16  C5  UNL     1      -0.558  -0.485  -4.876  1.00  0.00     0.105 C 
HETATM   17  C6  UNL     1      -1.622  -0.233  -3.839  1.00  0.00     0.027 C 
HETATM   18  C7  UNL     1      -1.131   0.635  -2.706  1.00  0.00     0.003 C 
HETATM   19  C8  UNL     1       0.141   0.129  -2.099  1.00  0.00     0.015 C 
HETATM   20  C9  UNL     1       1.195  -0.184  -3.100  1.00  0.00     0.054 C 
HETATM   21  S1  UNL     1       2.121  -1.678  -2.578  1.00  0.00    -0.163 SA
HETATM   22  C11 UNL     1       0.746  -0.933  -4.294  1.00  0.00     0.033 C 
HETATM   23  C10 UNL     1       0.691  -2.235  -3.580  1.00  0.00     0.082 C 
ENDBRANCH   3  16
TORSDOF 3
ENDMDL
MODEL 2
REMARK VINA RESULT: -7.183466225      2.377      3.613
REMARK  3 active torsions:
REMARK  status: ('A' for Active; 'I' for Inactive)
REMARK    1  A    between atoms: N1_1  and  C1_4 
REMARK    2  A    between atoms: C4_7  and  N2_8 
REMARK    3  A    between atoms: N3_10  and  C5_12 
ROOT
HETATM    1  N2  UNL     1       0.262  -0.724  -6.935  1.00  0.00    -0.301 N 
ATOM      2  H2  UNL     1       0.219  -1.657  -7.344  1.00  0.00     0.186 HD
HETATM    3  N3  UNL     1       0.463  -0.682  -5.715  1.00  0.00    -0.331 N 
ATOM      4  H3  UNL     1       0.563  -1.585  -5.251  1.00  0.00     0.180 HD
ENDROOT
BRANCH   1   5
HETATM    5  C4  UNL     1       0.088   0.335  -7.824  1.00  0.00     0.089 A 
HETATM    6  C3  UNL     1       1.046   1.319  -7.908  1.00  0.00     0.038 A 
HETATM    7  C2  UNL     1       0.919   2.389  -8.774  1.00  0.00     0.050 A 
HETATM    8  C1  UNL     1      -0.190   2.466  -9.566  1.00  0.00     0.100 A 
HETATM    9  N5  UNL     1      -1.136   1.497  -9.484  1.00  0.00    -0.329 N 
HETATM   10  C12 UNL     1      -1.019   0.449  -8.641  1.00  0.00     0.146 A 
ATOM     11  H5  UNL     1      -1.961   1.563 -10.079  1.00  0.00     0.168 HD
HETATM   12  N4  UNL     1      -2.065  -0.511  -8.633  1.00  0.00    -0.080 NA
BRANCH   8  13
HETATM   13  N1  UNL     1      -0.290   3.471 -10.365  1.00  0.00    -0.385 N 
ATOM     14  H12 UNL     1      -0.204   4.438 -10.050  1.00  0.00     0.157 HD
ATOM     15  H11 UNL     1      -0.462   3.280 -11.353  1.00  0.00     0.157 HD
ENDBRANCH   8  13
ENDBRANCH   1   5
BRANCH   3  16
HETATM   16  C5  UNL     1       0.572   0.459  -4.874  1.00  0.00     0.105 C 
HETATM   17  C6  UNL     1       1.644   0.198  -3.849  1.00  0.00     0.027 C 
HETATM   18  C7  UNL     1       1.161  -0.674  -2.715  1.00  0.00     0.003 C 
HETATM   19  C8  UNL     1      -0.103  -0.166  -2.093  1.00  0.00     0.015 C 
HETATM   20  C9  UNL     1      -1.166   0.154  -3.083  1.00  0.00     0.054 C 
HETATM   21  S1  UNL     1      -2.082   1.650  -2.545  1.00  0.00    -0.163 SA
HETATM   22  C11 UNL     1      -0.726   0.908  -4.278  1.00  0.00     0.033 C 
HETATM   23  C10 UNL     1      -0.659   2.207  -3.558  1.00  0.00     0.082 C 
ENDBRANCH   3  16
TORSDOF 3
ENDMDL
MODEL 3
REMARK VINA RESULT: -6.873516790      2.874      6.312
REMARK  3 active torsions:
REMARK  status: ('A' for Active; 'I' for Inactive)
REMARK    1  A    between atoms: N1_1  and  C1_4 
REMARK    2  A    between atoms: C4_7  and  N2_8 
REMARK    3  A    between atoms: N3_10  and  C5_12 
ROOT
HETATM    1  N2  UNL     1       1.033  -0.767  -5.924  1.00  0.00    -0.301 N 
ATOM      2  H2  UNL     1       1.913  -1.093  -5.525  1.00  0.00     0.186 HD
HETATM    3  N3  UNL     1       0.871  -1.001  -7.128  1.00  0.00    -0.331 N 
ATOM      4  H3  UNL     1       1.635  -1.495  -7.590  1.00  0.00     0.180 HD
ENDROOT
BRANCH   1   5
HETATM    5  C4  UNL     1       0.173  -0.117  -5.041  1.00  0.00     0.089 A 
HETATM    6  C3  UNL     1       0.430   1.184  -4.672  1.00  0.00     0.038 A 
HETATM    7  C2  UNL     1      -0.392   1.871  -3.800  1.00  0.00     0.050 A 
HETATM    8  C1  UNL     1      -1.489   1.236  -3.292  1.00  0.00     0.100 A 
HETATM    9  N5  UNL     1      -1.744  -0.046  -3.653  1.00  0.00    -0.329 N 
HETATM   10  C12 UNL     1      -0.945  -0.724  -4.505  1.00  0.00     0.146 A 
ATOM     11  H5  UNL     1      -2.565  -0.513  -3.269  1.00  0.00     0.168 HD
HETATM   12  N4  UNL     1      -1.301  -2.062  -4.819  1.00  0.00    -0.080 NA
BRANCH   8  13
HETATM   13  N1  UNL     1      -2.242   1.894  -2.480  1.00  0.00    -0.385 N 
ATOM     14  H12 UNL     1      -2.259   1.716  -1.475  1.00  0.00     0.157 HD
ATOM     15  H11 UNL     1      -2.843   2.621  -2.870  1.00  0.00     0.157 HD
ENDBRANCH   8  13
ENDBRANCH   1   5
BRANCH   3  16
HETATM   16  C5  UNL     1      -0.239  -0.672  -7.952  1.00  0.00     0.105 C 
HETATM   17  C6  UNL     1      -0.927  -1.949  -8.361  1.00  0.00     0.027 C 
HETATM   18  C7  UNL     1      -0.213  -2.655  -9.489  1.00  0.00     0.003 C 
HETATM   19  C8  UNL     1       0.051  -1.756 -10.658  1.00  0.00     0.015 C 
HETATM   20  C9  UNL     1       0.679  -0.461 -10.282  1.00  0.00     0.054 C 
HETATM   21  S1  UNL     1       0.000   0.883 -11.330  1.00  0.00    -0.163 SA
HETATM   22  C11 UNL     1       0.095   0.220  -9.106  1.00  0.00     0.033 C 
HETATM   23  C10 UNL     1      -1.082   0.726  -9.859  1.00  0.00     0.082 C 
ENDBRANCH   3  16
TORSDOF 3
ENDMDL
MODEL 4
REMARK VINA RESULT: -6.857441664      3.123      5.809
REMARK  3 active torsions:
REMARK  status: ('A' for Active; 'I' for Inactive)
REMARK    1  A    between atoms: N1_1  and  C1_4 
REMARK    2  A    between atoms: C4_7  and  N2_8 
REMARK    3  A    between atoms: N3_10  and  C5_12 
ROOT
HETATM    1  N2  UNL     1      -1.074   0.815  -5.965  1.00  0.00    -0.301 N 
ATOM      2  H2  UNL     1      -1.955   1.147  -5.573  1.00  0.00     0.186 HD
HETATM    3  N3  UNL     1      -0.893   1.062  -7.163  1.00  0.00    -0.331 N 
ATOM      4  H3  UNL     1      -1.643   1.572  -7.629  1.00  0.00     0.180 HD
ENDROOT
BRANCH   1   5
HETATM    5  C4  UNL     1      -0.234   0.142  -5.078  1.00  0.00     0.089 A 
HETATM    6  C3  UNL     1      -0.520  -1.156  -4.721  1.00  0.00     0.038 A 
HETATM    7  C2  UNL     1       0.281  -1.865  -3.846  1.00  0.00     0.050 A 
HETATM    8  C1  UNL     1       1.385  -1.255  -3.324  1.00  0.00     0.100 A 
HETATM    9  N5  UNL     1       1.668   0.024  -3.674  1.00  0.00    -0.329 N 
HETATM   10  C12 UNL     1       0.891   0.723  -4.528  1.00  0.00     0.146 A 
ATOM     11  H5  UNL     1       2.494   0.472  -3.280  1.00  0.00     0.168 HD
HETATM   12  N4  UNL     1       1.275   2.056  -4.830  1.00  0.00    -0.080 NA
BRANCH   8  13
HETATM   13  N1  UNL     1       2.118  -1.933  -2.510  1.00  0.00    -0.385 N 
ATOM     14  H12 UNL     1       2.179  -1.721  -1.514  1.00  0.00     0.157 HD
ATOM     15  H11 UNL     1       2.656  -2.713  -2.890  1.00  0.00     0.157 HD
ENDBRANCH   8  13
ENDBRANCH   1   5
BRANCH   3  16
HETATM   16  C5  UNL     1       0.224   0.729  -7.977  1.00  0.00     0.105 C 
HETATM   17  C6  UNL     1       0.889   2.005  -8.423  1.00  0.00     0.027 C 
HETATM   18  C7  UNL     1       0.165   2.664  -9.572  1.00  0.00     0.003 C 
HETATM   19  C8  UNL     1      -0.082   1.726 -10.713  1.00  0.00     0.015 C 
HETATM   20  C9  UNL     1      -0.688   0.432 -10.300  1.00  0.00     0.054 C 
HETATM   21  S1  UNL     1       0.017  -0.930 -11.307  1.00  0.00    -0.163 SA
HETATM   22  C11 UNL     1      -0.093  -0.204  -9.104  1.00  0.00     0.033 C 
HETATM   23  C10 UNL     1       1.095  -0.711  -9.840  1.00  0.00     0.082 C 
ENDBRANCH   3  16
TORSDOF 3
ENDMDL
MODEL 5
REMARK VINA RESULT: -6.779019787      3.082      5.912
REMARK  3 active torsions:
REMARK  status: ('A' for Active; 'I' for Inactive)
REMARK    1  A    between atoms: N1_1  and  C1_4 
REMARK    2  A    between atoms: C4_7  and  N2_8 
REMARK    3  A    between atoms: N3_10  and  C5_12 
ROOT
HETATM    1  N2  UNL     1      -0.908   0.767  -5.719  1.00  0.00    -0.301 N 
ATOM      2  H2  UNL     1      -1.761   1.135  -5.298  1.00  0.00     0.186 HD
HETATM    3  N3  UNL     1      -0.743   1.032  -6.916  1.00  0.00    -0.331 N 
ATOM      4  H3  UNL     1      -1.478   1.590  -7.351  1.00  0.00     0.180 HD
ENDROOT
BRANCH   1   5
HETATM    5  C4  UNL     1      -0.083   0.032  -4.869  1.00  0.00     0.089 A 
HETATM    6  C3  UNL     1       0.990   0.644  -4.264  1.00  0.00     0.038 A 
HETATM    7  C2  UNL     1       1.838  -0.042  -3.414  1.00  0.00     0.050 A 
HETATM    8  C1  UNL     1       1.597  -1.363  -3.172  1.00  0.00     0.100 A 
HETATM    9  N5  UNL     1       0.540  -1.969  -3.768  1.00  0.00    -0.329 N 
HETATM   10  C12 UNL     1      -0.292  -1.306  -4.599  1.00  0.00     0.146 A 
ATOM     11  H5  UNL     1       0.368  -2.956  -3.581  1.00  0.00     0.168 HD
HETATM   12  N4  UNL     1      -1.370  -2.032  -5.171  1.00  0.00    -0.080 NA
BRANCH   8  13
HETATM   13  N1  UNL     1       2.399  -1.985  -2.377  1.00  0.00    -0.385 N 
ATOM     14  H12 UNL     1       2.502  -1.736  -1.393  1.00  0.00     0.157 HD
ATOM     15  H11 UNL     1       2.947  -2.756  -2.759  1.00  0.00     0.157 HD
ENDBRANCH   8  13
ENDBRANCH   1   5
BRANCH   3  16
HETATM   16  C5  UNL     1       0.335   0.661  -7.764  1.00  0.00     0.105 C 
HETATM   17  C6  UNL     1       1.044   1.913  -8.213  1.00  0.00     0.027 C 
HETATM   18  C7  UNL     1       0.318   2.619  -9.333  1.00  0.00     0.003 C 
HETATM   19  C8  UNL     1      -0.002   1.709 -10.479  1.00  0.00     0.015 C 
HETATM   20  C9  UNL     1      -0.653   0.437 -10.065  1.00  0.00     0.054 C 
HETATM   21  S1  UNL     1      -0.039  -0.941 -11.108  1.00  0.00    -0.163 SA
HETATM   22  C11 UNL     1      -0.055  -0.241  -8.894  1.00  0.00     0.033 C 
HETATM   23  C10 UNL     1       1.088  -0.790  -9.669  1.00  0.00     0.082 C 
ENDBRANCH   3  16
TORSDOF 3
ENDMDL
