MODEL 1
REMARK VINA RESULT: -6.120805455      0.000      0.000
REMARK  2 active torsions:
REMARK  status: ('A' for Active; 'I' for Inactive)
REMARK    1  A    between atoms: N1_1  and  C1_4 
REMARK    2  A    between atoms: C2_7  and  C3_8 
ROOT
HETATM    1  C3  UNL     1      -0.043   0.031  -8.071  1.00  0.00     0.057 A 
HETATM    2  S1  UNL     1      -0.744  -1.290  -7.204  1.00  0.00    -0.090 SA
HETATM    3  C4  UNL     1      -0.294  -0.852  -5.627  1.00  0.00    -0.008 A 
HETATM    4  C5  UNL     1       0.385   0.305  -5.814  1.00  0.00    -0.019 A 
HETATM    5  C6  UNL     1       0.513   0.761  -7.096  1.00  0.00     0.073 A 
HETATM    6  N3  UNL     1       1.231   1.999  -7.389  1.00  0.00    -0.100 NA
HETATM    7  C7  UNL     1       0.989   1.077  -4.652  1.00  0.00     0.042 C 
HETATM    8  C8  UNL     1       0.114   0.954  -3.442  1.00  0.00     0.005 C 
HETATM    9  C9  UNL     1       0.498  -0.248  -2.614  1.00  0.00     0.001 C 
HETATM   10  C10 UNL     1       0.530  -1.515  -3.426  1.00  0.00     0.005 C 
HETATM   11  C11 UNL     1      -0.621  -1.628  -4.385  1.00  0.00     0.046 C 
ENDROOT
BRANCH   1  12
HETATM   12  C2  UNL     1      -0.090   0.239  -9.561  1.00  0.00     0.059 A 
HETATM   13  N2  UNL     1      -0.639   1.331 -10.063  1.00  0.00    -0.335 N 
HETATM   14  C1  UNL     1      -0.665   1.483 -11.375  1.00  0.00     0.142 A 
ATOM     15  H2  UNL     1      -1.034   2.043  -9.449  1.00  0.00     0.168 HD
HETATM   16  S2  UNL     1       0.088   0.084 -11.961  1.00  0.00    -0.064 SA
HETATM   17  C12 UNL     1       0.416  -0.664 -10.447  1.00  0.00     0.084 A 
BRANCH  14  18
HETATM   18  N1  UNL     1      -1.170   2.504 -12.045  1.00  0.00    -0.380 N 
ATOM     19  H12 UNL     1      -1.218   3.488 -11.781  1.00  0.00     0.158 HD
ATOM     20  H11 UNL     1      -1.608   2.475 -12.965  1.00  0.00     0.158 HD
ENDBRANCH  14  18
ENDBRANCH   1  12
TORSDOF 2
ENDMDL
MODEL 2
REMARK VINA RESULT: -6.120569593      1.989      2.733
REMARK  2 active torsions:
REMARK  status: ('A' for Active; 'I' for Inactive)
REMARK    1  A    between atoms: N1_1  and  C1_4 
REMARK    2  A    between atoms: C2_7  and  C3_8 
ROOT
HETATM    1  C3  UNL     1       0.090  -0.046  -8.182  1.00  0.00     0.057 A 
HETATM    2  S1  UNL     1       0.819   1.255  -7.307  1.00  0.00    -0.090 SA
HETATM    3  C4  UNL     1       0.358   0.819  -5.733  1.00  0.00    -0.008 A 
HETATM    4  C5  UNL     1      -0.347  -0.322  -5.927  1.00  0.00    -0.019 A 
HETATM    5  C6  UNL     1      -0.483  -0.768  -7.211  1.00  0.00     0.073 A 
HETATM    6  N3  UNL     1      -1.228  -1.989  -7.511  1.00  0.00    -0.100 NA
HETATM    7  C7  UNL     1      -0.970  -1.086  -4.769  1.00  0.00     0.042 C 
HETATM    8  C8  UNL     1      -0.093  -0.989  -3.557  1.00  0.00     0.005 C 
HETATM    9  C9  UNL     1      -0.451   0.218  -2.723  1.00  0.00     0.001 C 
HETATM   10  C10 UNL     1      -0.454   1.489  -3.529  1.00  0.00     0.005 C 
HETATM   11  C11 UNL     1       0.701   1.581  -4.486  1.00  0.00     0.046 C 
ENDROOT
BRANCH   1  12
HETATM   12  C2  UNL     1       0.134  -0.247  -9.673  1.00  0.00     0.059 A 
HETATM   13  N2  UNL     1       0.709  -1.322 -10.182  1.00  0.00    -0.335 N 
HETATM   14  C1  UNL     1       0.731  -1.469 -11.495  1.00  0.00     0.142 A 
ATOM     15  H2  UNL     1       1.127  -2.026  -9.573  1.00  0.00     0.168 HD
HETATM   16  S2  UNL     1      -0.062  -0.088 -12.072  1.00  0.00    -0.064 SA
HETATM   17  C12 UNL     1      -0.401   0.645 -10.552  1.00  0.00     0.084 A 
BRANCH  14  18
HETATM   18  N1  UNL     1       1.259  -2.473 -12.171  1.00  0.00    -0.380 N 
ATOM     19  H12 UNL     1       0.962  -3.448 -12.216  1.00  0.00     0.158 HD
ATOM     20  H11 UNL     1       2.077  -2.439 -12.779  1.00  0.00     0.158 HD
ENDBRANCH  14  18
ENDBRANCH   1  12
TORSDOF 2
ENDMDL
MODEL 3
REMARK VINA RESULT: -5.821460864      1.945      2.357
REMARK  2 active torsions:
REMARK  status: ('A' for Active; 'I' for Inactive)
REMARK    1  A    between atoms: N1_1  and  C1_4 
REMARK    2  A    between atoms: C2_7  and  C3_8 
ROOT
HETATM    1  C3  UNL     1       0.014  -0.072  -8.111  1.00  0.00     0.057 A 
HETATM    2  S1  UNL     1      -1.073   0.953  -7.240  1.00  0.00    -0.090 SA
HETATM    3  C4  UNL     1      -0.593   0.578  -5.656  1.00  0.00    -0.008 A 
HETATM    4  C5  UNL     1       0.395  -0.329  -5.844  1.00  0.00    -0.019 A 
HETATM    5  C6  UNL     1       0.707  -0.665  -7.131  1.00  0.00     0.073 A 
HETATM    6  N3  UNL     1       1.759  -1.636  -7.425  1.00  0.00    -0.100 NA
HETATM    7  C7  UNL     1       1.137  -0.960  -4.676  1.00  0.00     0.042 C 
HETATM    8  C8  UNL     1       1.286   0.034  -3.564  1.00  0.00     0.005 C 
HETATM    9  C9  UNL     1       0.109  -0.027  -2.620  1.00  0.00     0.001 C 
HETATM   10  C10 UNL     1      -1.207   0.113  -3.338  1.00  0.00     0.005 C 
HETATM   11  C11 UNL     1      -1.184   1.167  -4.408  1.00  0.00     0.046 C 
ENDROOT
BRANCH   1  12
HETATM   12  C2  UNL     1       0.097  -0.208  -9.607  1.00  0.00     0.059 A 
HETATM   13  N2  UNL     1       0.650  -1.279 -10.148  1.00  0.00    -0.335 N 
HETATM   14  C1  UNL     1       0.708  -1.369 -11.464  1.00  0.00     0.142 A 
ATOM     15  H2  UNL     1       1.025  -2.023  -9.559  1.00  0.00     0.168 HD
HETATM   16  S2  UNL     1      -0.019   0.064 -12.001  1.00  0.00    -0.064 SA
HETATM   17  C12 UNL     1      -0.380   0.741 -10.461  1.00  0.00     0.084 A 
BRANCH  14  18
HETATM   18  N1  UNL     1       1.223  -2.360 -12.170  1.00  0.00    -0.380 N 
ATOM     19  H12 UNL     1       1.256  -3.356 -11.954  1.00  0.00     0.158 HD
ATOM     20  H11 UNL     1       1.686  -2.291 -13.076  1.00  0.00     0.158 HD
ENDBRANCH  14  18
ENDBRANCH   1  12
TORSDOF 2
ENDMDL
MODEL 4
REMARK VINA RESULT: -5.805001304      1.176      1.325
REMARK  2 active torsions:
REMARK  status: ('A' for Active; 'I' for Inactive)
REMARK    1  A    between atoms: N1_1  and  C1_4 
REMARK    2  A    between atoms: C2_7  and  C3_8 
ROOT
HETATM    1  C3  UNL     1      -0.001   0.575  -7.908  1.00  0.00     0.057 A 
HETATM    2  S1  UNL     1      -0.798  -0.814  -7.258  1.00  0.00    -0.090 SA
HETATM    3  C4  UNL     1      -0.269  -0.706  -5.649  1.00  0.00    -0.008 A 
HETATM    4  C5  UNL     1       0.510   0.403  -5.658  1.00  0.00    -0.019 A 
HETATM    5  C6  UNL     1       0.646   1.068  -6.844  1.00  0.00     0.073 A 
HETATM    6  N3  UNL     1       1.467   2.272  -6.945  1.00  0.00    -0.100 NA
HETATM    7  C7  UNL     1       1.213   0.899  -4.405  1.00  0.00     0.042 C 
HETATM    8  C8  UNL     1       0.361   0.638  -3.199  1.00  0.00     0.005 C 
HETATM    9  C9  UNL     1       0.654  -0.721  -2.612  1.00  0.00     0.001 C 
HETATM   10  C10 UNL     1       0.547  -1.820  -3.635  1.00  0.00     0.005 C 
HETATM   11  C11 UNL     1      -0.634  -1.660  -4.549  1.00  0.00     0.046 C 
ENDROOT
BRANCH   1  12
HETATM   12  C2  UNL     1      -0.067   1.048  -9.335  1.00  0.00     0.059 A 
HETATM   13  N2  UNL     1       0.051   0.185 -10.328  1.00  0.00    -0.335 N 
HETATM   14  C1  UNL     1      -0.012   0.632 -11.570  1.00  0.00     0.142 A 
ATOM     15  H2  UNL     1       0.187  -0.808 -10.140  1.00  0.00     0.168 HD
HETATM   16  S2  UNL     1      -0.241   2.301 -11.389  1.00  0.00    -0.064 SA
HETATM   17  C12 UNL     1      -0.247   2.357  -9.669  1.00  0.00     0.084 A 
BRANCH  14  18
HETATM   18  N1  UNL     1       0.086  -0.083 -12.676  1.00  0.00    -0.380 N 
ATOM     19  H12 UNL     1      -0.214  -1.041 -12.853  1.00  0.00     0.158 HD
ATOM     20  H11 UNL     1       0.491   0.215 -13.564  1.00  0.00     0.158 HD
ENDBRANCH  14  18
ENDBRANCH   1  12
TORSDOF 2
ENDMDL
MODEL 5
REMARK VINA RESULT: -5.795784160      1.890      2.509
REMARK  2 active torsions:
REMARK  status: ('A' for Active; 'I' for Inactive)
REMARK    1  A    between atoms: N1_1  and  C1_4 
REMARK    2  A    between atoms: C2_7  and  C3_8 
ROOT
HETATM    1  C3  UNL     1      -0.016  -0.563  -7.887  1.00  0.00     0.057 A 
HETATM    2  S1  UNL     1       0.762   0.840  -7.243  1.00  0.00    -0.090 SA
HETATM    3  C4  UNL     1       0.242   0.727  -5.631  1.00  0.00    -0.008 A 
HETATM    4  C5  UNL     1      -0.520  -0.394  -5.635  1.00  0.00    -0.019 A 
HETATM    5  C6  UNL     1      -0.650  -1.063  -6.819  1.00  0.00     0.073 A 
HETATM    6  N3  UNL     1      -1.454  -2.280  -6.914  1.00  0.00    -0.100 NA
HETATM    7  C7  UNL     1      -1.210  -0.898  -4.378  1.00  0.00     0.042 C 
HETATM    8  C8  UNL     1      -0.357  -0.621  -3.176  1.00  0.00     0.005 C 
HETATM    9  C9  UNL     1      -0.668   0.735  -2.590  1.00  0.00     0.001 C 
HETATM   10  C10 UNL     1      -0.583   1.834  -3.616  1.00  0.00     0.005 C 
HETATM   11  C11 UNL     1       0.597   1.689  -4.535  1.00  0.00     0.046 C 
ENDROOT
BRANCH   1  12
HETATM   12  C2  UNL     1       0.052  -1.039  -9.313  1.00  0.00     0.059 A 
HETATM   13  N2  UNL     1      -0.052  -0.175 -10.307  1.00  0.00    -0.335 N 
HETATM   14  C1  UNL     1       0.012  -0.624 -11.548  1.00  0.00     0.142 A 
ATOM     15  H2  UNL     1      -0.178   0.820 -10.120  1.00  0.00     0.168 HD
HETATM   16  S2  UNL     1       0.220  -2.295 -11.365  1.00  0.00    -0.064 SA
HETATM   17  C12 UNL     1       0.218  -2.349  -9.644  1.00  0.00     0.084 A 
BRANCH  14  18
HETATM   18  N1  UNL     1      -0.073   0.091 -12.655  1.00  0.00    -0.380 N 
ATOM     19  H12 UNL     1       0.121   1.081 -12.800  1.00  0.00     0.158 HD
ATOM     20  H11 UNL     1      -0.354  -0.240 -13.578  1.00  0.00     0.158 HD
ENDBRANCH  14  18
ENDBRANCH   1  12
TORSDOF 2
ENDMDL
