MODEL 1
REMARK VINA RESULT: -4.960703322      0.000      0.000
REMARK  4 active torsions:
REMARK  status: ('A' for Active; 'I' for Inactive)
REMARK    1  A    between atoms: N2_4  and  N3_6 
REMARK    2  A    between atoms: C1_8  and  N4_9 
REMARK    3  A    between atoms: N4_9  and  C2_11 
REMARK    4  A    between atoms: C2_11  and  C3_12 
ROOT
HETATM    1  N3  UNL     1      15.838  12.790   8.287  1.00  0.00    -0.283 N 
ATOM      2  H3  UNL     1      15.159  12.031   8.330  1.00  0.00     0.189 HD
HETATM    3  C1  UNL     1      15.516  13.830   7.598  1.00  0.00     0.194 C 
ENDROOT
BRANCH   3   4
HETATM    4  N4  UNL     1      14.236  13.902   6.928  1.00  0.00    -0.385 N 
ATOM      5  H4  UNL     1      13.769  13.068   6.574  1.00  0.00     0.160 HD
BRANCH   4   6
HETATM    6  C2  UNL     1      13.663  15.199   6.788  1.00  0.00     0.125 C 
BRANCH   6   7
HETATM    7  C3  UNL     1      12.206  15.315   6.730  1.00  0.00     0.003 C 
HETATM    8  C4  UNL     1      11.364  15.080   7.949  1.00  0.00     0.006 C 
HETATM    9  C5  UNL     1      10.274  14.704   6.916  1.00  0.00     0.001 C 
HETATM   10  C6  UNL     1      11.444  14.143   6.118  1.00  0.00     0.006 C 
ENDBRANCH   6   7
ENDBRANCH   4   6
ENDBRANCH   3   4
BRANCH   1  11
HETATM   11  N2  UNL     1      17.024  12.618   8.970  1.00  0.00    -0.248 N 
HETATM   12  N1  UNL     1      17.810  11.681   8.635  1.00  0.00    -0.331 N 
ATOM     13  H12 UNL     1      17.552  11.068   7.863  1.00  0.00     0.178 HD
ATOM     14  H11 UNL     1      18.687  11.553   9.140  1.00  0.00     0.178 HD
ATOM     15  H2  UNL     1      17.267  13.241   9.739  1.00  0.00     0.207 HD
ENDBRANCH   1  11
TORSDOF 4
ENDMDL
MODEL 2
REMARK VINA RESULT: -4.848776381      0.892      1.343
REMARK  4 active torsions:
REMARK  status: ('A' for Active; 'I' for Inactive)
REMARK    1  A    between atoms: N2_4  and  N3_6 
REMARK    2  A    between atoms: C1_8  and  N4_9 
REMARK    3  A    between atoms: N4_9  and  C2_11 
REMARK    4  A    between atoms: C2_11  and  C3_12 
ROOT
HETATM    1  N3  UNL     1      15.229  13.670   8.118  1.00  0.00    -0.283 N 
ATOM      2  H3  UNL     1      14.548  13.867   8.851  1.00  0.00     0.189 HD
HETATM    3  C1  UNL     1      15.341  14.533   7.169  1.00  0.00     0.194 C 
ENDROOT
BRANCH   3   4
HETATM    4  N4  UNL     1      14.528  15.729   7.162  1.00  0.00    -0.385 N 
ATOM      5  H4  UNL     1      14.711  16.506   7.798  1.00  0.00     0.160 HD
BRANCH   4   6
HETATM    6  C2  UNL     1      13.459  15.768   6.222  1.00  0.00     0.125 C 
BRANCH   6   7
HETATM    7  C3  UNL     1      12.289  14.922   6.461  1.00  0.00     0.003 C 
HETATM    8  C4  UNL     1      10.992  15.183   5.754  1.00  0.00     0.006 C 
HETATM    9  C5  UNL     1      10.374  14.491   6.994  1.00  0.00     0.001 C 
HETATM   10  C6  UNL     1      11.507  15.173   7.747  1.00  0.00     0.006 C 
ENDBRANCH   6   7
ENDBRANCH   4   6
ENDBRANCH   3   4
BRANCH   1  11
HETATM   11  N2  UNL     1      15.955  12.501   8.228  1.00  0.00    -0.248 N 
HETATM   12  N1  UNL     1      17.051  12.501   8.865  1.00  0.00    -0.331 N 
ATOM     13  H12 UNL     1      17.379  13.369   9.289  1.00  0.00     0.178 HD
ATOM     14  H11 UNL     1      17.588  11.638   8.946  1.00  0.00     0.178 HD
ATOM     15  H2  UNL     1      15.612  11.643   7.798  1.00  0.00     0.207 HD
ENDBRANCH   1  11
TORSDOF 4
ENDMDL
MODEL 3
REMARK VINA RESULT: -4.565135198      1.085      1.127
REMARK  4 active torsions:
REMARK  status: ('A' for Active; 'I' for Inactive)
REMARK    1  A    between atoms: N2_4  and  N3_6 
REMARK    2  A    between atoms: C1_8  and  N4_9 
REMARK    3  A    between atoms: N4_9  and  C2_11 
REMARK    4  A    between atoms: C2_11  and  C3_12 
ROOT
HETATM    1  N3  UNL     1      15.714  12.439   7.810  1.00  0.00    -0.283 N 
ATOM      2  H3  UNL     1      15.309  12.349   8.741  1.00  0.00     0.189 HD
HETATM    3  C1  UNL     1      15.345  13.450   7.102  1.00  0.00     0.194 C 
ENDROOT
BRANCH   3   4
HETATM    4  N4  UNL     1      14.400  14.411   7.627  1.00  0.00    -0.385 N 
ATOM      5  H4  UNL     1      14.206  14.482   8.626  1.00  0.00     0.160 HD
BRANCH   4   6
HETATM    6  C2  UNL     1      13.753  15.252   6.676  1.00  0.00     0.125 C 
BRANCH   6   7
HETATM    7  C3  UNL     1      12.295  15.361   6.719  1.00  0.00     0.003 C 
HETATM    8  C4  UNL     1      11.539  15.096   7.987  1.00  0.00     0.006 C 
HETATM    9  C5  UNL     1      10.383  14.736   7.022  1.00  0.00     0.001 C 
HETATM   10  C6  UNL     1      11.499  14.198   6.135  1.00  0.00     0.006 C 
ENDBRANCH   6   7
ENDBRANCH   4   6
ENDBRANCH   3   4
BRANCH   1  11
HETATM   11  N2  UNL     1      16.611  11.468   7.413  1.00  0.00    -0.248 N 
HETATM   12  N1  UNL     1      16.181  10.355   6.986  1.00  0.00    -0.331 N 
ATOM     13  H12 UNL     1      15.175  10.193   6.942  1.00  0.00     0.178 HD
ATOM     14  H11 UNL     1      16.844   9.637   6.693  1.00  0.00     0.178 HD
ATOM     15  H2  UNL     1      17.614  11.646   7.463  1.00  0.00     0.207 HD
ENDBRANCH   1  11
TORSDOF 4
ENDMDL
MODEL 4
REMARK VINA RESULT: -4.550657423      2.977      3.181
REMARK  4 active torsions:
REMARK  status: ('A' for Active; 'I' for Inactive)
REMARK    1  A    between atoms: N2_4  and  N3_6 
REMARK    2  A    between atoms: C1_8  and  N4_9 
REMARK    3  A    between atoms: N4_9  and  C2_11 
REMARK    4  A    between atoms: C2_11  and  C3_12 
ROOT
HETATM    1  N3  UNL     1      15.223  16.961   7.718  1.00  0.00    -0.283 N 
ATOM      2  H3  UNL     1      14.762  16.208   8.229  1.00  0.00     0.189 HD
HETATM    3  C1  UNL     1      15.135  16.941   6.433  1.00  0.00     0.194 C 
ENDROOT
BRANCH   3   4
HETATM    4  N4  UNL     1      14.404  15.889   5.761  1.00  0.00    -0.385 N 
ATOM      5  H4  UNL     1      14.444  15.770   4.749  1.00  0.00     0.160 HD
BRANCH   4   6
HETATM    6  C2  UNL     1      13.625  15.028   6.587  1.00  0.00     0.125 C 
BRANCH   6   7
HETATM    7  C3  UNL     1      12.179  15.240   6.648  1.00  0.00     0.003 C 
HETATM    8  C4  UNL     1      11.427  15.065   7.933  1.00  0.00     0.006 C 
HETATM    9  C5  UNL     1      10.233  14.759   6.996  1.00  0.00     0.001 C 
HETATM   10  C6  UNL     1      11.294  14.120   6.110  1.00  0.00     0.006 C 
ENDBRANCH   6   7
ENDBRANCH   4   6
ENDBRANCH   3   4
BRANCH   1  11
HETATM   11  N2  UNL     1      15.887  17.916   8.460  1.00  0.00    -0.248 N 
HETATM   12  N1  UNL     1      17.079  17.703   8.832  1.00  0.00    -0.331 N 
ATOM     13  H12 UNL     1      17.531  16.826   8.575  1.00  0.00     0.178 HD
ATOM     14  H11 UNL     1      17.570  18.409   9.381  1.00  0.00     0.178 HD
ATOM     15  H2  UNL     1      15.420  18.788   8.708  1.00  0.00     0.207 HD
ENDBRANCH   1  11
TORSDOF 4
ENDMDL
MODEL 5
REMARK VINA RESULT: -4.537134405      1.509      2.456
REMARK  4 active torsions:
REMARK  status: ('A' for Active; 'I' for Inactive)
REMARK    1  A    between atoms: N2_4  and  N3_6 
REMARK    2  A    between atoms: C1_8  and  N4_9 
REMARK    3  A    between atoms: N4_9  and  C2_11 
REMARK    4  A    between atoms: C2_11  and  C3_12 
ROOT
HETATM    1  N3  UNL     1      14.254  14.300   7.679  1.00  0.00    -0.283 N 
ATOM      2  H3  UNL     1      13.934  14.514   8.623  1.00  0.00     0.189 HD
HETATM    3  C1  UNL     1      13.535  14.728   6.700  1.00  0.00     0.194 C 
ENDROOT
BRANCH   3   4
HETATM    4  N4  UNL     1      12.328  15.486   6.950  1.00  0.00    -0.385 N 
ATOM      5  H4  UNL     1      12.310  16.504   6.879  1.00  0.00     0.160 HD
BRANCH   4   6
HETATM    6  C2  UNL     1      11.168  14.739   7.301  1.00  0.00     0.125 C 
BRANCH   6   7
HETATM    7  C3  UNL     1      10.008  14.791   6.410  1.00  0.00     0.003 C 
HETATM    8  C4  UNL     1       9.314  13.536   5.973  1.00  0.00     0.006 C 
HETATM    9  C5  UNL     1       8.912  14.388   4.745  1.00  0.00     0.001 C 
HETATM   10  C6  UNL     1      10.287  15.017   4.928  1.00  0.00     0.006 C 
ENDBRANCH   6   7
ENDBRANCH   4   6
ENDBRANCH   3   4
BRANCH   1  11
HETATM   11  N2  UNL     1      15.422  13.576   7.556  1.00  0.00    -0.248 N 
HETATM   12  N1  UNL     1      15.768  12.783   8.483  1.00  0.00    -0.331 N 
ATOM     13  H12 UNL     1      15.175  12.693   9.308  1.00  0.00     0.178 HD
ATOM     14  H11 UNL     1      16.632  12.248   8.393  1.00  0.00     0.178 HD
ATOM     15  H2  UNL     1      16.004  13.678   6.725  1.00  0.00     0.207 HD
ENDBRANCH   1  11
TORSDOF 4
ENDMDL
