MODEL 1
REMARK VINA RESULT: -3.957293331      0.000      0.000
REMARK  4 active torsions:
REMARK  status: ('A' for Active; 'I' for Inactive)
REMARK    1  A    between atoms: N1_2  and  C2_5 
REMARK    2  A    between atoms: C2_5  and  C3_6 
REMARK    3  A    between atoms: C5_8  and  N2_9 
REMARK    4  A    between atoms: N2_9  and  C6_11 
ROOT
HETATM    1  C3  UNL     1      11.755  15.230   6.597  1.00  0.00     0.036 A 
HETATM    2  C4  UNL     1      11.081  14.989   7.903  1.00  0.00     0.033 A 
HETATM    3  C5  UNL     1      10.633  14.215   6.719  1.00  0.00     0.090 A 
ENDROOT
BRANCH   1   4
HETATM    4  C2  UNL     1      13.124  14.701   6.325  1.00  0.00     0.238 C 
BRANCH   4   5
HETATM    5  N1  UNL     1      13.933  14.757   7.513  1.00  0.00    -0.079 N 
HETATM    6  C1  UNL     1      15.230  14.193   7.235  1.00  0.00     0.267 C 
ATOM      7  H12 UNL     1      13.480  14.309   8.310  1.00  0.00     0.276 HD
ATOM      8  H11 UNL     1      13.995  15.701   7.893  1.00  0.00     0.276 HD
ENDBRANCH   4   5
ENDBRANCH   1   4
BRANCH   3   9
HETATM    9  N2  UNL     1       9.435  14.581   6.005  1.00  0.00    -0.363 N 
ATOM     10  H2  UNL     1       8.905  15.384   6.344  1.00  0.00     0.162 HD
BRANCH   9  11
HETATM   11  C6  UNL     1       8.948  13.905   4.873  1.00  0.00     0.348 C 
HETATM   12  O1  UNL     1       8.413  14.553   3.922  1.00  0.00    -0.284 OA
ENDBRANCH   9  11
ENDBRANCH   3   9
TORSDOF 4
ENDMDL
MODEL 2
REMARK VINA RESULT: -3.832511869      1.618      2.132
REMARK  4 active torsions:
REMARK  status: ('A' for Active; 'I' for Inactive)
REMARK    1  A    between atoms: N1_2  and  C2_5 
REMARK    2  A    between atoms: C2_5  and  C3_6 
REMARK    3  A    between atoms: C5_8  and  N2_9 
REMARK    4  A    between atoms: N2_9  and  C6_11 
ROOT
HETATM    1  C3  UNL     1      10.343  14.901   6.316  1.00  0.00     0.036 A 
HETATM    2  C4  UNL     1       8.873  14.725   6.142  1.00  0.00     0.033 A 
HETATM    3  C5  UNL     1       9.779  13.650   5.665  1.00  0.00     0.090 A 
ENDROOT
BRANCH   1   4
HETATM    4  C2  UNL     1      10.988  14.741   7.652  1.00  0.00     0.238 C 
BRANCH   4   5
HETATM    5  N1  UNL     1      12.359  15.171   7.605  1.00  0.00    -0.079 N 
HETATM    6  C1  UNL     1      12.698  15.543   6.254  1.00  0.00     0.267 C 
ATOM      7  H12 UNL     1      12.997  14.472   7.985  1.00  0.00     0.276 HD
ATOM      8  H11 UNL     1      12.551  15.920   8.271  1.00  0.00     0.276 HD
ENDBRANCH   4   5
ENDBRANCH   1   4
BRANCH   3   9
HETATM    9  N2  UNL     1      10.104  13.522   4.266  1.00  0.00    -0.363 N 
ATOM     10  H2  UNL     1      11.070  13.308   4.019  1.00  0.00     0.162 HD
BRANCH   9  11
HETATM   11  C6  UNL     1       9.178  13.673   3.220  1.00  0.00     0.348 C 
HETATM   12  O1  UNL     1       8.083  13.032   3.237  1.00  0.00    -0.284 OA
ENDBRANCH   9  11
ENDBRANCH   3   9
TORSDOF 4
ENDMDL
MODEL 3
REMARK VINA RESULT: -3.825191925      2.754      4.839
REMARK  4 active torsions:
REMARK  status: ('A' for Active; 'I' for Inactive)
REMARK    1  A    between atoms: N1_2  and  C2_5 
REMARK    2  A    between atoms: C2_5  and  C3_6 
REMARK    3  A    between atoms: C5_8  and  N2_9 
REMARK    4  A    between atoms: N2_9  and  C6_11 
ROOT
HETATM    1  C3  UNL     1      10.815  14.220   6.947  1.00  0.00     0.036 A 
HETATM    2  C4  UNL     1      11.336  15.112   8.020  1.00  0.00     0.033 A 
HETATM    3  C5  UNL     1      12.053  15.070   6.721  1.00  0.00     0.090 A 
ENDROOT
BRANCH   1   4
HETATM    4  C2  UNL     1       9.593  14.579   6.169  1.00  0.00     0.238 C 
BRANCH   4   5
HETATM    5  N1  UNL     1       9.025  13.411   5.552  1.00  0.00    -0.079 N 
HETATM    6  C1  UNL     1       8.837  13.657   4.144  1.00  0.00     0.267 C 
ATOM      7  H12 UNL     1       8.164  13.112   6.010  1.00  0.00     0.276 HD
ATOM      8  H11 UNL     1       9.581  12.574   5.727  1.00  0.00     0.276 HD
ENDBRANCH   4   5
ENDBRANCH   1   4
BRANCH   3   9
HETATM    9  N2  UNL     1      13.266  14.305   6.569  1.00  0.00    -0.363 N 
ATOM     10  H2  UNL     1      13.189  13.357   6.201  1.00  0.00     0.162 HD
BRANCH   9  11
HETATM   11  C6  UNL     1      14.548  14.779   6.895  1.00  0.00     0.348 C 
HETATM   12  O1  UNL     1      15.306  14.102   7.655  1.00  0.00    -0.284 OA
ENDBRANCH   9  11
ENDBRANCH   3   9
TORSDOF 4
ENDMDL
MODEL 4
REMARK VINA RESULT: -3.788911689      1.645      2.182
REMARK  4 active torsions:
REMARK  status: ('A' for Active; 'I' for Inactive)
REMARK    1  A    between atoms: N1_2  and  C2_5 
REMARK    2  A    between atoms: C2_5  and  C3_6 
REMARK    3  A    between atoms: C5_8  and  N2_9 
REMARK    4  A    between atoms: N2_9  and  C6_11 
ROOT
HETATM    1  C3  UNL     1      10.679  14.307   6.332  1.00  0.00     0.036 A 
HETATM    2  C4  UNL     1      10.481  15.086   5.078  1.00  0.00     0.033 A 
HETATM    3  C5  UNL     1       9.319  14.370   5.661  1.00  0.00     0.090 A 
ENDROOT
BRANCH   1   4
HETATM    4  C2  UNL     1      10.817  14.990   7.652  1.00  0.00     0.238 C 
BRANCH   4   5
HETATM    5  N1  UNL     1      12.166  14.881   8.139  1.00  0.00    -0.079 N 
HETATM    6  C1  UNL     1      13.079  15.337   7.121  1.00  0.00     0.267 C 
ATOM      7  H12 UNL     1      12.386  13.938   8.459  1.00  0.00     0.276 HD
ATOM      8  H11 UNL     1      12.298  15.370   9.024  1.00  0.00     0.276 HD
ENDBRANCH   4   5
ENDBRANCH   1   4
BRANCH   3   9
HETATM    9  N2  UNL     1       8.877  13.109   5.117  1.00  0.00    -0.363 N 
ATOM     10  H2  UNL     1       8.864  12.301   5.738  1.00  0.00     0.162 HD
BRANCH   9  11
HETATM   11  C6  UNL     1       8.464  12.920   3.787  1.00  0.00     0.348 C 
HETATM   12  O1  UNL     1       7.628  12.009   3.501  1.00  0.00    -0.284 OA
ENDBRANCH   9  11
ENDBRANCH   3   9
TORSDOF 4
ENDMDL
MODEL 5
REMARK VINA RESULT: -3.784071626      1.021      1.021
REMARK  4 active torsions:
REMARK  status: ('A' for Active; 'I' for Inactive)
REMARK    1  A    between atoms: N1_2  and  C2_5 
REMARK    2  A    between atoms: C2_5  and  C3_6 
REMARK    3  A    between atoms: C5_8  and  N2_9 
REMARK    4  A    between atoms: N2_9  and  C6_11 
ROOT
HETATM    1  C3  UNL     1      11.455  15.174   6.256  1.00  0.00     0.036 A 
HETATM    2  C4  UNL     1      10.664  14.856   7.478  1.00  0.00     0.033 A 
HETATM    3  C5  UNL     1      10.470  14.019   6.267  1.00  0.00     0.090 A 
ENDROOT
BRANCH   1   4
HETATM    4  C2  UNL     1      12.904  14.831   6.162  1.00  0.00     0.238 C 
BRANCH   4   5
HETATM    5  N1  UNL     1      13.644  15.470   7.217  1.00  0.00    -0.079 N 
HETATM    6  C1  UNL     1      14.599  16.386   6.644  1.00  0.00     0.267 C 
ATOM      7  H12 UNL     1      14.083  14.797   7.844  1.00  0.00     0.276 HD
ATOM      8  H11 UNL     1      13.033  15.924   7.896  1.00  0.00     0.276 HD
ENDBRANCH   4   5
ENDBRANCH   1   4
BRANCH   3   9
HETATM    9  N2  UNL     1       9.330  14.215   5.407  1.00  0.00    -0.363 N 
ATOM     10  H2  UNL     1       8.833  15.103   5.470  1.00  0.00     0.162 HD
BRANCH   9  11
HETATM   11  C6  UNL     1       8.857  13.263   4.488  1.00  0.00     0.348 C 
HETATM   12  O1  UNL     1       8.102  13.618   3.530  1.00  0.00    -0.284 OA
ENDBRANCH   9  11
ENDBRANCH   3   9
TORSDOF 4
ENDMDL
