MODEL 1
REMARK VINA RESULT: -3.895904337      0.000      0.000
REMARK  5 active torsions:
REMARK  status: ('A' for Active; 'I' for Inactive)
REMARK    1  A    between atoms: C1_4  and  C2_5 
REMARK    2  A    between atoms: C4_7  and  N2_8 
REMARK    3  A    between atoms: N2_8  and  C5_10 
REMARK    4  A    between atoms: C5_10  and  C6_11 
REMARK    5  A    between atoms: C6_11  and  N3_12 
ROOT
HETATM    1  N2  UNL     1      13.303  14.441   6.674  1.00  0.00    -0.415 N 
ATOM      2  H2  UNL     1      13.257  13.432   6.816  1.00  0.00     0.153 HD
ENDROOT
BRANCH   1   3
HETATM    3  C4  UNL     1      12.174  15.290   6.848  1.00  0.00     0.086 A 
HETATM    4  C2  UNL     1      10.773  14.971   6.678  1.00  0.00     0.048 A 
HETATM    5  C3  UNL     1      11.343  15.031   8.087  1.00  0.00     0.037 A 
BRANCH   4   6
HETATM    6  C1  UNL     1      10.240  13.643   6.319  1.00  0.00     0.059 C 
HETATM    7  N1  UNL     1       9.146  13.488   5.658  1.00  0.00    -0.411 N 
ATOM      8  H12 UNL     1       8.638  14.328   5.379  1.00  0.00     0.155 HD
ATOM      9  H11 UNL     1       8.778  12.570   5.410  1.00  0.00     0.155 HD
ENDBRANCH   4   6
ENDBRANCH   1   3
BRANCH   1  10
HETATM   10  C5  UNL     1      14.503  15.105   6.287  1.00  0.00     0.141 C 
BRANCH  10  11
HETATM   11  C6  UNL     1      15.672  14.673   7.155  1.00  0.00     0.248 C 
BRANCH  11  12
HETATM   12  N3  UNL     1      15.261  13.663   8.078  1.00  0.00    -0.078 N 
ATOM     13  H33 UNL     1      15.509  12.728   7.754  1.00  0.00     0.274 HD
ATOM     14  H32 UNL     1      15.817  13.679   8.932  1.00  0.00     0.274 HD
ATOM     15  H31 UNL     1      14.262  13.745   8.272  1.00  0.00     0.274 HD
ENDBRANCH  11  12
ENDBRANCH  10  11
ENDBRANCH   1  10
TORSDOF 5
ENDMDL
MODEL 2
REMARK VINA RESULT: -3.857396923      1.276      1.393
REMARK  5 active torsions:
REMARK  status: ('A' for Active; 'I' for Inactive)
REMARK    1  A    between atoms: C1_4  and  C2_5 
REMARK    2  A    between atoms: C4_7  and  N2_8 
REMARK    3  A    between atoms: N2_8  and  C5_10 
REMARK    4  A    between atoms: C5_10  and  C6_11 
REMARK    5  A    between atoms: C6_11  and  N3_12 
ROOT
HETATM    1  N2  UNL     1      13.360  14.353   6.781  1.00  0.00    -0.415 N 
ATOM      2  H2  UNL     1      13.234  13.353   6.630  1.00  0.00     0.153 HD
ENDROOT
BRANCH   1   3
HETATM    3  C4  UNL     1      12.263  15.253   6.897  1.00  0.00     0.086 A 
HETATM    4  C2  UNL     1      10.857  14.994   6.671  1.00  0.00     0.048 A 
HETATM    5  C3  UNL     1      11.370  15.047   8.103  1.00  0.00     0.037 A 
BRANCH   4   6
HETATM    6  C1  UNL     1      10.282  13.686   6.305  1.00  0.00     0.059 C 
HETATM    7  N1  UNL     1       9.138  13.567   5.726  1.00  0.00    -0.411 N 
ATOM      8  H12 UNL     1       8.621  14.422   5.519  1.00  0.00     0.155 HD
ATOM      9  H11 UNL     1       8.740  12.663   5.473  1.00  0.00     0.155 HD
ENDBRANCH   4   6
ENDBRANCH   1   3
BRANCH   1  10
HETATM   10  C5  UNL     1      14.647  14.954   6.890  1.00  0.00     0.141 C 
BRANCH  10  11
HETATM   11  C6  UNL     1      14.575  16.451   6.644  1.00  0.00     0.248 C 
BRANCH  11  12
HETATM   12  N3  UNL     1      15.268  17.159   7.675  1.00  0.00    -0.078 N 
ATOM     13  H33 UNL     1      14.733  17.959   8.012  1.00  0.00     0.274 HD
ATOM     14  H32 UNL     1      15.304  16.625   8.543  1.00  0.00     0.274 HD
ATOM     15  H31 UNL     1      16.198  17.430   7.356  1.00  0.00     0.274 HD
ENDBRANCH  11  12
ENDBRANCH  10  11
ENDBRANCH   1  10
TORSDOF 5
ENDMDL
MODEL 3
REMARK VINA RESULT: -3.790358236      1.011      1.082
REMARK  5 active torsions:
REMARK  status: ('A' for Active; 'I' for Inactive)
REMARK    1  A    between atoms: C1_4  and  C2_5 
REMARK    2  A    between atoms: C4_7  and  N2_8 
REMARK    3  A    between atoms: N2_8  and  C5_10 
REMARK    4  A    between atoms: C5_10  and  C6_11 
REMARK    5  A    between atoms: C6_11  and  N3_12 
ROOT
HETATM    1  N2  UNL     1      12.454  13.616   6.056  1.00  0.00    -0.415 N 
ATOM      2  H2  UNL     1      12.108  12.668   6.205  1.00  0.00     0.153 HD
ENDROOT
BRANCH   1   3
HETATM    3  C4  UNL     1      11.628  14.764   6.214  1.00  0.00     0.086 A 
HETATM    4  C2  UNL     1      10.187  14.859   6.116  1.00  0.00     0.048 A 
HETATM    5  C3  UNL     1      10.825  14.824   7.497  1.00  0.00     0.037 A 
BRANCH   4   6
HETATM    6  C1  UNL     1       9.276  13.726   5.865  1.00  0.00     0.059 C 
HETATM    7  N1  UNL     1       8.903  13.383   4.680  1.00  0.00    -0.411 N 
ATOM      8  H12 UNL     1       9.261  13.927   3.895  1.00  0.00     0.155 HD
ATOM      9  H11 UNL     1       8.274  12.600   4.507  1.00  0.00     0.155 HD
ENDBRANCH   4   6
ENDBRANCH   1   3
BRANCH   1  10
HETATM   10  C5  UNL     1      13.799  13.888   5.674  1.00  0.00     0.141 C 
BRANCH  10  11
HETATM   11  C6  UNL     1      14.489  14.777   6.694  1.00  0.00     0.248 C 
BRANCH  11  12
HETATM   12  N3  UNL     1      14.909  14.007   7.822  1.00  0.00    -0.078 N 
ATOM     13  H33 UNL     1      14.738  14.494   8.701  1.00  0.00     0.274 HD
ATOM     14  H32 UNL     1      14.306  13.199   7.977  1.00  0.00     0.274 HD
ATOM     15  H31 UNL     1      15.889  13.737   7.722  1.00  0.00     0.274 HD
ENDBRANCH  11  12
ENDBRANCH  10  11
ENDBRANCH   1  10
TORSDOF 5
ENDMDL
MODEL 4
REMARK VINA RESULT: -3.766717900      1.304      1.580
REMARK  5 active torsions:
REMARK  status: ('A' for Active; 'I' for Inactive)
REMARK    1  A    between atoms: C1_4  and  C2_5 
REMARK    2  A    between atoms: C4_7  and  N2_8 
REMARK    3  A    between atoms: N2_8  and  C5_10 
REMARK    4  A    between atoms: C5_10  and  C6_11 
REMARK    5  A    between atoms: C6_11  and  N3_12 
ROOT
HETATM    1  N2  UNL     1      13.414  14.378   6.894  1.00  0.00    -0.415 N 
ATOM      2  H2  UNL     1      13.725  13.833   7.698  1.00  0.00     0.153 HD
ENDROOT
BRANCH   1   3
HETATM    3  C4  UNL     1      12.301  15.262   6.954  1.00  0.00     0.086 A 
HETATM    4  C2  UNL     1      10.909  14.978   6.676  1.00  0.00     0.048 A 
HETATM    5  C3  UNL     1      11.363  15.058   8.126  1.00  0.00     0.037 A 
BRANCH   4   6
HETATM    6  C1  UNL     1      10.369  13.656   6.306  1.00  0.00     0.059 C 
HETATM    7  N1  UNL     1       9.223  13.508   5.736  1.00  0.00    -0.411 N 
ATOM      8  H12 UNL     1       8.680  14.349   5.540  1.00  0.00     0.155 HD
ATOM      9  H11 UNL     1       8.850  12.594   5.480  1.00  0.00     0.155 HD
ENDBRANCH   4   6
ENDBRANCH   1   3
BRANCH   1  10
HETATM   10  C5  UNL     1      14.064  14.312   5.628  1.00  0.00     0.141 C 
BRANCH  10  11
HETATM   11  C6  UNL     1      13.812  12.975   4.953  1.00  0.00     0.248 C 
BRANCH  11  12
HETATM   12  N3  UNL     1      13.779  11.926   5.922  1.00  0.00    -0.078 N 
ATOM     13  H33 UNL     1      14.492  11.220   5.743  1.00  0.00     0.274 HD
ATOM     14  H32 UNL     1      14.106  12.242   6.835  1.00  0.00     0.274 HD
ATOM     15  H31 UNL     1      12.845  11.518   5.973  1.00  0.00     0.274 HD
ENDBRANCH  11  12
ENDBRANCH  10  11
ENDBRANCH   1  10
TORSDOF 5
ENDMDL
MODEL 5
REMARK VINA RESULT: -3.700643279      1.602      2.151
REMARK  5 active torsions:
REMARK  status: ('A' for Active; 'I' for Inactive)
REMARK    1  A    between atoms: C1_4  and  C2_5 
REMARK    2  A    between atoms: C4_7  and  N2_8 
REMARK    3  A    between atoms: N2_8  and  C5_10 
REMARK    4  A    between atoms: C5_10  and  C6_11 
REMARK    5  A    between atoms: C6_11  and  N3_12 
ROOT
HETATM    1  N2  UNL     1      12.786  14.714   5.269  1.00  0.00    -0.415 N 
ATOM      2  H2  UNL     1      12.777  15.662   4.895  1.00  0.00     0.153 HD
ENDROOT
BRANCH   1   3
HETATM    3  C4  UNL     1      11.593  13.990   5.546  1.00  0.00     0.086 A 
HETATM    4  C2  UNL     1      10.713  14.106   6.690  1.00  0.00     0.048 A 
HETATM    5  C3  UNL     1      10.302  14.764   5.381  1.00  0.00     0.037 A 
BRANCH   4   6
HETATM    6  C1  UNL     1      10.882  15.064   7.798  1.00  0.00     0.059 C 
HETATM    7  N1  UNL     1      11.841  14.976   8.654  1.00  0.00    -0.411 N 
ATOM      8  H12 UNL     1      12.501  14.206   8.547  1.00  0.00     0.155 HD
ATOM      9  H11 UNL     1      11.957  15.638   9.420  1.00  0.00     0.155 HD
ENDBRANCH   4   6
ENDBRANCH   1   3
BRANCH   1  10
HETATM   10  C5  UNL     1      13.995  14.016   5.554  1.00  0.00     0.141 C 
BRANCH  10  11
HETATM   11  C6  UNL     1      14.826  14.759   6.586  1.00  0.00     0.248 C 
BRANCH  11  12
HETATM   12  N3  UNL     1      14.984  13.964   7.763  1.00  0.00    -0.078 N 
ATOM     13  H33 UNL     1      15.308  13.022   7.545  1.00  0.00     0.274 HD
ATOM     14  H32 UNL     1      15.779  14.270   8.324  1.00  0.00     0.274 HD
ATOM     15  H31 UNL     1      14.119  13.952   8.303  1.00  0.00     0.274 HD
ENDBRANCH  11  12
ENDBRANCH  10  11
ENDBRANCH   1  10
TORSDOF 5
ENDMDL
