MODEL 1
REMARK VINA RESULT: -4.195103043      0.000      0.000
REMARK  4 active torsions:
REMARK  status: ('A' for Active; 'I' for Inactive)
REMARK    1  A    between atoms: C2_2  and  C3_3 
REMARK    2  A    between atoms: C3_3  and  C4_4 
REMARK    3  A    between atoms: C4_4  and  N1_5 
REMARK    4  A    between atoms: N1_5  and  N2_7 
ROOT
HETATM    1  N1  UNL     1       8.865  14.044   4.088  1.00  0.00    -0.354 N 
ATOM      2  H1  UNL     1       9.137  14.984   3.802  1.00  0.00     0.174 HD
ENDROOT
BRANCH   1   3
HETATM    3  C4  UNL     1       9.235  13.486   5.356  1.00  0.00     0.137 C 
BRANCH   3   4
HETATM    4  C3  UNL     1       9.418  14.636   6.345  1.00  0.00     0.047 C 
BRANCH   4   5
HETATM    5  C2  UNL     1      10.838  14.671   6.776  1.00  0.00    -0.035 C 
HETATM    6  C1  UNL     1      11.200  15.043   7.990  1.00  0.00     0.007 C 
ENDBRANCH   4   5
ENDBRANCH   3   4
ENDBRANCH   1   3
BRANCH   1   7
HETATM    7  N2  UNL     1       8.120  13.219   3.291  1.00  0.00    -0.236 NA
HETATM    8  C5  UNL     1       8.855  12.821   2.107  1.00  0.00     0.114 C 
HETATM    9  C6  UNL     1       8.531  11.386   2.337  1.00  0.00     0.032 C 
HETATM   10  C7  UNL     1       7.946  11.862   3.670  1.00  0.00     0.114 C 
ENDBRANCH   1   7
TORSDOF 4
ENDMDL
MODEL 2
REMARK VINA RESULT: -3.938631610      4.077      6.485
REMARK  4 active torsions:
REMARK  status: ('A' for Active; 'I' for Inactive)
REMARK    1  A    between atoms: C2_2  and  C3_3 
REMARK    2  A    between atoms: C3_3  and  C4_4 
REMARK    3  A    between atoms: C4_4  and  N1_5 
REMARK    4  A    between atoms: N1_5  and  N2_7 
ROOT
HETATM    1  N1  UNL     1      13.427  14.827   7.635  1.00  0.00    -0.354 N 
ATOM      2  H1  UNL     1      13.331  14.743   8.647  1.00  0.00     0.174 HD
ENDROOT
BRANCH   1   3
HETATM    3  C4  UNL     1      12.338  15.215   6.787  1.00  0.00     0.137 C 
BRANCH   3   4
HETATM    4  C3  UNL     1      11.033  14.886   7.510  1.00  0.00     0.047 C 
BRANCH   4   5
HETATM    5  C2  UNL     1       9.946  14.781   6.505  1.00  0.00    -0.035 C 
HETATM    6  C1  UNL     1       9.594  13.630   5.961  1.00  0.00     0.007 C 
ENDBRANCH   4   5
ENDBRANCH   3   4
ENDBRANCH   1   3
BRANCH   1   7
HETATM    7  N2  UNL     1      14.604  14.579   6.985  1.00  0.00    -0.236 NA
HETATM    8  C5  UNL     1      15.426  15.770   6.906  1.00  0.00     0.114 C 
HETATM    9  C6  UNL     1      16.613  15.037   7.426  1.00  0.00     0.032 C 
HETATM   10  C7  UNL     1      15.638  13.882   7.666  1.00  0.00     0.114 C 
ENDBRANCH   1   7
TORSDOF 4
ENDMDL
MODEL 3
REMARK VINA RESULT: -3.933315136      0.750      1.212
REMARK  4 active torsions:
REMARK  status: ('A' for Active; 'I' for Inactive)
REMARK    1  A    between atoms: C2_2  and  C3_3 
REMARK    2  A    between atoms: C3_3  and  C4_4 
REMARK    3  A    between atoms: C4_4  and  N1_5 
REMARK    4  A    between atoms: N1_5  and  N2_7 
ROOT
HETATM    1  N1  UNL     1       9.016  14.230   4.308  1.00  0.00    -0.354 N 
ATOM      2  H1  UNL     1       8.864  15.007   3.665  1.00  0.00     0.174 HD
ENDROOT
BRANCH   1   3
HETATM    3  C4  UNL     1       8.930  14.378   5.732  1.00  0.00     0.137 C 
BRANCH   3   4
HETATM    4  C3  UNL     1      10.215  13.827   6.346  1.00  0.00     0.047 C 
BRANCH   4   5
HETATM    5  C2  UNL     1      11.020  14.961   6.862  1.00  0.00    -0.035 C 
HETATM    6  C1  UNL     1      11.378  15.056   8.130  1.00  0.00     0.007 C 
ENDBRANCH   4   5
ENDBRANCH   3   4
ENDBRANCH   1   3
BRANCH   1   7
HETATM    7  N2  UNL     1       9.317  12.967   3.877  1.00  0.00    -0.236 NA
HETATM    8  C5  UNL     1       8.119  12.184   3.652  1.00  0.00     0.114 C 
HETATM    9  C6  UNL     1       8.588  11.775   2.300  1.00  0.00     0.032 C 
HETATM   10  C7  UNL     1       9.725  12.774   2.530  1.00  0.00     0.114 C 
ENDBRANCH   1   7
TORSDOF 4
ENDMDL
MODEL 4
REMARK VINA RESULT: -3.921990823      1.030      1.590
REMARK  4 active torsions:
REMARK  status: ('A' for Active; 'I' for Inactive)
REMARK    1  A    between atoms: C2_2  and  C3_3 
REMARK    2  A    between atoms: C3_3  and  C4_4 
REMARK    3  A    between atoms: C4_4  and  N1_5 
REMARK    4  A    between atoms: N1_5  and  N2_7 
ROOT
HETATM    1  N1  UNL     1       8.264  12.912   3.763  1.00  0.00    -0.354 N 
ATOM      2  H1  UNL     1       7.335  13.331   3.713  1.00  0.00     0.174 HD
ENDROOT
BRANCH   1   3
HETATM    3  C4  UNL     1       9.407  13.625   4.252  1.00  0.00     0.137 C 
BRANCH   3   4
HETATM    4  C3  UNL     1       9.334  13.652   5.778  1.00  0.00     0.047 C 
BRANCH   4   5
HETATM    5  C2  UNL     1      10.107  14.818   6.271  1.00  0.00    -0.035 C 
HETATM    6  C1  UNL     1      10.752  14.804   7.423  1.00  0.00     0.007 C 
ENDBRANCH   4   5
ENDBRANCH   3   4
ENDBRANCH   1   3
BRANCH   1   7
HETATM    7  N2  UNL     1       8.511  11.626   3.368  1.00  0.00    -0.236 NA
HETATM    8  C5  UNL     1       7.337  10.790   3.519  1.00  0.00     0.114 C 
HETATM    9  C6  UNL     1       7.472  10.278   2.128  1.00  0.00     0.032 C 
HETATM   10  C7  UNL     1       8.576  11.327   1.981  1.00  0.00     0.114 C 
ENDBRANCH   1   7
TORSDOF 4
ENDMDL
MODEL 5
REMARK VINA RESULT: -3.875785964      4.085      5.610
REMARK  4 active torsions:
REMARK  status: ('A' for Active; 'I' for Inactive)
REMARK    1  A    between atoms: C2_2  and  C3_3 
REMARK    2  A    between atoms: C3_3  and  C4_4 
REMARK    3  A    between atoms: C4_4  and  N1_5 
REMARK    4  A    between atoms: N1_5  and  N2_7 
ROOT
HETATM    1  N1  UNL     1      13.824  14.653   7.411  1.00  0.00    -0.354 N 
ATOM      2  H1  UNL     1      14.062  14.518   8.393  1.00  0.00     0.174 HD
ENDROOT
BRANCH   1   3
HETATM    3  C4  UNL     1      12.702  15.440   6.990  1.00  0.00     0.137 C 
BRANCH   3   4
HETATM    4  C3  UNL     1      11.510  15.080   7.876  1.00  0.00     0.047 C 
BRANCH   4   5
HETATM    5  C2  UNL     1      10.336  14.813   7.009  1.00  0.00    -0.035 C 
HETATM    6  C1  UNL     1      10.266  13.757   6.219  1.00  0.00     0.007 C 
ENDBRANCH   4   5
ENDBRANCH   3   4
ENDBRANCH   1   3
BRANCH   1   7
HETATM    7  N2  UNL     1      14.552  14.097   6.395  1.00  0.00    -0.236 NA
HETATM    8  C5  UNL     1      15.501  13.124   6.895  1.00  0.00     0.114 C 
HETATM    9  C6  UNL     1      15.048  12.109   5.904  1.00  0.00     0.032 C 
HETATM   10  C7  UNL     1      13.946  13.116   5.566  1.00  0.00     0.114 C 
ENDBRANCH   1   7
TORSDOF 4
ENDMDL
