MODEL 1
REMARK VINA RESULT: -4.746614983      0.000      0.000
REMARK  5 active torsions:
REMARK  status: ('A' for Active; 'I' for Inactive)
REMARK    1  A    between atoms: N2_4  and  N3_6 
REMARK    2  A    between atoms: C1_8  and  N4_9 
REMARK    3  A    between atoms: N4_9  and  C2_11 
REMARK    4  A    between atoms: C2_11  and  C3_12 
REMARK    5  A    between atoms: C3_12  and  C4_13 
ROOT
HETATM    1  N3  UNL     1      16.462  12.636   8.593  1.00  0.00    -0.283 N 
ATOM      2  H3  UNL     1      15.710  12.019   8.900  1.00  0.00     0.189 HD
HETATM    3  C1  UNL     1      16.135  13.705   7.988  1.00  0.00     0.194 C 
ENDROOT
BRANCH   3   4
HETATM    4  N4  UNL     1      14.753  13.963   7.784  1.00  0.00    -0.385 N 
ATOM      5  H4  UNL     1      14.056  13.594   8.431  1.00  0.00     0.160 HD
BRANCH   4   6
HETATM    6  C2  UNL     1      14.357  14.746   6.657  1.00  0.00     0.120 C 
BRANCH   6   7
HETATM    7  C3  UNL     1      12.969  14.487   6.185  1.00  0.00     0.024 C 
BRANCH   7   8
HETATM    8  C4  UNL     1      11.932  15.360   6.814  1.00  0.00    -0.013 A 
HETATM    9  C5  UNL     1      10.548  14.683   6.879  1.00  0.00     0.005 A 
HETATM   10  C6  UNL     1      11.297  15.052   8.103  1.00  0.00     0.005 A 
ENDBRANCH   7   8
ENDBRANCH   6   7
ENDBRANCH   4   6
ENDBRANCH   3   4
BRANCH   1  11
HETATM   11  N2  UNL     1      17.769  12.244   8.868  1.00  0.00    -0.248 N 
HETATM   12  N1  UNL     1      18.191  11.055   8.801  1.00  0.00    -0.331 N 
ATOM     13  H12 UNL     1      17.513  10.345   8.525  1.00  0.00     0.178 HD
ATOM     14  H11 UNL     1      19.148  10.768   9.003  1.00  0.00     0.178 HD
ATOM     15  H2  UNL     1      18.434  12.968   9.143  1.00  0.00     0.207 HD
ENDBRANCH   1  11
TORSDOF 5
ENDMDL
MODEL 2
REMARK VINA RESULT: -4.663557146      1.529      2.812
REMARK  5 active torsions:
REMARK  status: ('A' for Active; 'I' for Inactive)
REMARK    1  A    between atoms: N2_4  and  N3_6 
REMARK    2  A    between atoms: C1_8  and  N4_9 
REMARK    3  A    between atoms: N4_9  and  C2_11 
REMARK    4  A    between atoms: C2_11  and  C3_12 
REMARK    5  A    between atoms: C3_12  and  C4_13 
ROOT
HETATM    1  N3  UNL     1      14.382  14.329   7.732  1.00  0.00    -0.283 N 
ATOM      2  H3  UNL     1      13.724  14.411   8.507  1.00  0.00     0.189 HD
HETATM    3  C1  UNL     1      13.995  14.727   6.588  1.00  0.00     0.194 C 
ENDROOT
BRANCH   3   4
HETATM    4  N4  UNL     1      12.682  15.254   6.472  1.00  0.00    -0.385 N 
ATOM      5  H4  UNL     1      12.364  15.666   5.595  1.00  0.00     0.160 HD
BRANCH   4   6
HETATM    6  C2  UNL     1      11.813  15.198   7.605  1.00  0.00     0.120 C 
BRANCH   6   7
HETATM    7  C3  UNL     1      10.404  14.844   7.283  1.00  0.00     0.024 C 
BRANCH   7   8
HETATM    8  C4  UNL     1      10.158  14.550   5.839  1.00  0.00    -0.013 A 
HETATM    9  C5  UNL     1       9.173  13.381   5.631  1.00  0.00     0.005 A 
HETATM   10  C6  UNL     1       8.858  14.760   5.187  1.00  0.00     0.005 A 
ENDBRANCH   7   8
ENDBRANCH   6   7
ENDBRANCH   4   6
ENDBRANCH   3   4
BRANCH   1  11
HETATM   11  N2  UNL     1      15.636  13.790   8.006  1.00  0.00    -0.248 N 
HETATM   12  N1  UNL     1      15.829  12.671   8.561  1.00  0.00    -0.331 N 
ATOM     13  H12 UNL     1      14.999  12.139   8.819  1.00  0.00     0.178 HD
ATOM     14  H11 UNL     1      16.748  12.276   8.762  1.00  0.00     0.178 HD
ATOM     15  H2  UNL     1      16.456  14.336   7.740  1.00  0.00     0.207 HD
ENDBRANCH   1  11
TORSDOF 5
ENDMDL
MODEL 3
REMARK VINA RESULT: -4.657424760      1.018      1.545
REMARK  5 active torsions:
REMARK  status: ('A' for Active; 'I' for Inactive)
REMARK    1  A    between atoms: N2_4  and  N3_6 
REMARK    2  A    between atoms: C1_8  and  N4_9 
REMARK    3  A    between atoms: N4_9  and  C2_11 
REMARK    4  A    between atoms: C2_11  and  C3_12 
REMARK    5  A    between atoms: C3_12  and  C4_13 
ROOT
HETATM    1  N3  UNL     1      15.175  13.675   8.096  1.00  0.00    -0.283 N 
ATOM      2  H3  UNL     1      14.223  13.758   8.452  1.00  0.00     0.189 HD
HETATM    3  C1  UNL     1      15.584  14.575   7.297  1.00  0.00     0.194 C 
ENDROOT
BRANCH   3   4
HETATM    4  N4  UNL     1      14.692  15.627   6.960  1.00  0.00    -0.385 N 
ATOM      5  H4  UNL     1      14.579  16.429   7.579  1.00  0.00     0.160 HD
BRANCH   4   6
HETATM    6  C2  UNL     1      13.955  15.542   5.739  1.00  0.00     0.120 C 
BRANCH   6   7
HETATM    7  C3  UNL     1      12.493  15.782   5.885  1.00  0.00     0.024 C 
BRANCH   7   8
HETATM    8  C4  UNL     1      11.752  14.676   6.562  1.00  0.00    -0.013 A 
HETATM    9  C5  UNL     1      11.256  15.069   7.969  1.00  0.00     0.005 A 
HETATM   10  C6  UNL     1      10.317  14.741   6.870  1.00  0.00     0.005 A 
ENDBRANCH   7   8
ENDBRANCH   6   7
ENDBRANCH   4   6
ENDBRANCH   3   4
BRANCH   1  11
HETATM   11  N2  UNL     1      15.928  12.584   8.520  1.00  0.00    -0.248 N 
HETATM   12  N1  UNL     1      17.132  12.648   8.899  1.00  0.00    -0.331 N 
ATOM     13  H12 UNL     1      17.567  13.570   8.887  1.00  0.00     0.178 HD
ATOM     14  H11 UNL     1      17.684  11.848   9.210  1.00  0.00     0.178 HD
ATOM     15  H2  UNL     1      15.477  11.669   8.526  1.00  0.00     0.207 HD
ENDBRANCH   1  11
TORSDOF 5
ENDMDL
MODEL 4
REMARK VINA RESULT: -4.575037241      1.136      2.083
REMARK  5 active torsions:
REMARK  status: ('A' for Active; 'I' for Inactive)
REMARK    1  A    between atoms: N2_4  and  N3_6 
REMARK    2  A    between atoms: C1_8  and  N4_9 
REMARK    3  A    between atoms: N4_9  and  C2_11 
REMARK    4  A    between atoms: C2_11  and  C3_12 
REMARK    5  A    between atoms: C3_12  and  C4_13 
ROOT
HETATM    1  N3  UNL     1      15.033  13.700   8.082  1.00  0.00    -0.283 N 
ATOM      2  H3  UNL     1      14.605  13.988   8.962  1.00  0.00     0.189 HD
HETATM    3  C1  UNL     1      14.715  14.347   7.035  1.00  0.00     0.194 C 
ENDROOT
BRANCH   3   4
HETATM    4  N4  UNL     1      13.792  15.418   7.164  1.00  0.00    -0.385 N 
ATOM      5  H4  UNL     1      13.984  16.195   7.795  1.00  0.00     0.160 HD
BRANCH   4   6
HETATM    6  C2  UNL     1      12.589  15.388   6.393  1.00  0.00     0.120 C 
BRANCH   6   7
HETATM    7  C3  UNL     1      11.367  15.055   7.174  1.00  0.00     0.024 C 
BRANCH   7   8
HETATM    8  C4  UNL     1      10.524  13.979   6.569  1.00  0.00    -0.013 A 
HETATM    9  C5  UNL     1       9.131  14.486   6.144  1.00  0.00     0.005 A 
HETATM   10  C6  UNL     1      10.114  13.979   5.158  1.00  0.00     0.005 A 
ENDBRANCH   7   8
ENDBRANCH   6   7
ENDBRANCH   4   6
ENDBRANCH   3   4
BRANCH   1  11
HETATM   11  N2  UNL     1      15.921  12.629   8.119  1.00  0.00    -0.248 N 
HETATM   12  N1  UNL     1      16.953  12.578   8.847  1.00  0.00    -0.331 N 
ATOM     13  H12 UNL     1      17.133  13.385   9.442  1.00  0.00     0.178 HD
ATOM     14  H11 UNL     1      17.604  11.793   8.873  1.00  0.00     0.178 HD
ATOM     15  H2  UNL     1      15.725  11.829   7.516  1.00  0.00     0.207 HD
ENDBRANCH   1  11
TORSDOF 5
ENDMDL
MODEL 5
REMARK VINA RESULT: -4.538104376      3.293      3.883
REMARK  5 active torsions:
REMARK  status: ('A' for Active; 'I' for Inactive)
REMARK    1  A    between atoms: N2_4  and  N3_6 
REMARK    2  A    between atoms: C1_8  and  N4_9 
REMARK    3  A    between atoms: N4_9  and  C2_11 
REMARK    4  A    between atoms: C2_11  and  C3_12 
REMARK    5  A    between atoms: C3_12  and  C4_13 
ROOT
HETATM    1  N3  UNL     1      14.332  16.228   7.385  1.00  0.00    -0.283 N 
ATOM      2  H3  UNL     1      13.581  16.558   7.992  1.00  0.00     0.189 HD
HETATM    3  C1  UNL     1      14.095  15.216   6.653  1.00  0.00     0.194 C 
ENDROOT
BRANCH   3   4
HETATM    4  N4  UNL     1      12.808  14.620   6.731  1.00  0.00    -0.385 N 
ATOM      5  H4  UNL     1      12.580  13.804   6.165  1.00  0.00     0.160 HD
BRANCH   4   6
HETATM    6  C2  UNL     1      11.840  15.185   7.616  1.00  0.00     0.120 C 
BRANCH   6   7
HETATM    7  C3  UNL     1      10.430  14.844   7.283  1.00  0.00     0.024 C 
BRANCH   7   8
HETATM    8  C4  UNL     1      10.191  14.558   5.837  1.00  0.00    -0.013 A 
HETATM    9  C5  UNL     1       9.209  13.388   5.618  1.00  0.00     0.005 A 
HETATM   10  C6  UNL     1       8.893  14.769   5.180  1.00  0.00     0.005 A 
ENDBRANCH   7   8
ENDBRANCH   6   7
ENDBRANCH   4   6
ENDBRANCH   3   4
BRANCH   1  11
HETATM   11  N2  UNL     1      15.540  16.920   7.422  1.00  0.00    -0.248 N 
HETATM   12  N1  UNL     1      15.877  17.726   8.335  1.00  0.00    -0.331 N 
ATOM     13  H12 UNL     1      15.206  17.869   9.090  1.00  0.00     0.178 HD
ATOM     14  H11 UNL     1      16.761  18.233   8.362  1.00  0.00     0.178 HD
ATOM     15  H2  UNL     1      16.199  16.765   6.659  1.00  0.00     0.207 HD
ENDBRANCH   1  11
TORSDOF 5
ENDMDL
