MODEL 1
REMARK VINA RESULT: -5.733615086      0.000      0.000
REMARK  7 active torsions:
REMARK  status: ('A' for Active; 'I' for Inactive)
REMARK    1  A    between atoms: C2_2  and  C3_3 
REMARK    2  A    between atoms: C3_3  and  N1_4 
REMARK    3  A    between atoms: N1_4  and  C4_6 
REMARK    4  A    between atoms: C4_6  and  N2_8 
REMARK    5  A    between atoms: N2_8  and  N3_10 
REMARK    6  A    between atoms: N3_10  and  C5_12 
REMARK    7  A    between atoms: C5_12  and  N4_14 
ROOT
HETATM    1  N2  UNL     1      -1.347  34.606  40.058  1.00  0.00    -0.274 N 
ATOM      2  H2  UNL     1      -1.212  33.594  40.047  1.00  0.00     0.189 HD
ENDROOT
BRANCH   1   3
HETATM    3  C4  UNL     1      -0.240  35.456  39.810  1.00  0.00     0.186 C 
HETATM    4  S1  UNL     1      -0.523  36.949  39.234  1.00  0.00    -0.040 SA
BRANCH   3   5
HETATM    5  N1  UNL     1       1.080  35.039  40.060  1.00  0.00    -0.363 N 
ATOM      6  H1  UNL     1       1.625  35.539  40.762  1.00  0.00     0.162 HD
BRANCH   5   7
HETATM    7  C3  UNL     1       1.689  33.941  39.369  1.00  0.00     0.148 C 
BRANCH   7   8
HETATM    8  C2  UNL     1       2.148  34.325  38.018  1.00  0.00    -0.018 C 
HETATM    9  C1  UNL     1       3.432  34.310  37.688  1.00  0.00     0.008 C 
ENDBRANCH   7   8
ENDBRANCH   5   7
ENDBRANCH   3   5
ENDBRANCH   1   3
BRANCH   1  10
HETATM   10  N3  UNL     1      -2.623  35.124  40.317  1.00  0.00    -0.274 N 
ATOM     11  H3  UNL     1      -2.745  35.790  41.081  1.00  0.00     0.189 HD
BRANCH  10  12
HETATM   12  C5  UNL     1      -3.745  34.747  39.547  1.00  0.00     0.188 C 
HETATM   13  S2  UNL     1      -3.698  34.935  37.935  1.00  0.00    -0.039 SA
BRANCH  12  14
HETATM   14  N4  UNL     1      -4.888  34.212  40.173  1.00  0.00    -0.357 N 
HETATM   15  C6  UNL     1      -5.026  33.890  41.578  1.00  0.00     0.125 C 
HETATM   16  C7  UNL     1      -5.739  32.532  41.450  1.00  0.00     0.021 C 
HETATM   17  C8  UNL     1      -6.834  32.878  40.467  1.00  0.00     0.021 C 
HETATM   18  C9  UNL     1      -6.178  33.865  39.551  1.00  0.00     0.125 C 
ENDBRANCH  12  14
ENDBRANCH  10  12
ENDBRANCH   1  10
TORSDOF 7
ENDMDL
MODEL 2
REMARK VINA RESULT: -5.731861755      1.159      6.918
REMARK  7 active torsions:
REMARK  status: ('A' for Active; 'I' for Inactive)
REMARK    1  A    between atoms: C2_2  and  C3_3 
REMARK    2  A    between atoms: C3_3  and  N1_4 
REMARK    3  A    between atoms: N1_4  and  C4_6 
REMARK    4  A    between atoms: C4_6  and  N2_8 
REMARK    5  A    between atoms: N2_8  and  N3_10 
REMARK    6  A    between atoms: N3_10  and  C5_12 
REMARK    7  A    between atoms: C5_12  and  N4_14 
ROOT
HETATM    1  N2  UNL     1      -1.715  34.771  40.361  1.00  0.00    -0.274 N 
ATOM      2  H2  UNL     1      -1.298  34.795  41.292  1.00  0.00     0.189 HD
ENDROOT
BRANCH   1   3
HETATM    3  C4  UNL     1      -3.120  34.899  40.226  1.00  0.00     0.186 C 
HETATM    4  S1  UNL     1      -3.758  34.908  38.731  1.00  0.00    -0.040 SA
BRANCH   3   5
HETATM    5  N1  UNL     1      -3.961  35.007  41.348  1.00  0.00    -0.363 N 
ATOM      6  H1  UNL     1      -4.249  35.936  41.656  1.00  0.00     0.162 HD
BRANCH   5   7
HETATM    7  C3  UNL     1      -4.430  33.866  42.078  1.00  0.00     0.148 C 
BRANCH   7   8
HETATM    8  C2  UNL     1      -5.787  33.460  41.657  1.00  0.00    -0.018 C 
HETATM    9  C1  UNL     1      -6.065  32.210  41.315  1.00  0.00     0.008 C 
ENDBRANCH   7   8
ENDBRANCH   5   7
ENDBRANCH   3   5
ENDBRANCH   1   3
BRANCH   1  10
HETATM   10  N3  UNL     1      -0.885  34.611  39.243  1.00  0.00    -0.274 N 
ATOM     11  H3  UNL     1      -1.127  33.913  38.539  1.00  0.00     0.189 HD
BRANCH  10  12
HETATM   12  C5  UNL     1       0.277  35.393  39.067  1.00  0.00     0.188 C 
HETATM   13  S2  UNL     1       0.321  36.896  39.679  1.00  0.00    -0.039 SA
BRANCH  12  14
HETATM   14  N4  UNL     1       1.386  34.871  38.371  1.00  0.00    -0.357 N 
HETATM   15  C6  UNL     1       1.788  33.480  38.317  1.00  0.00     0.125 C 
HETATM   16  C7  UNL     1       3.306  33.657  38.502  1.00  0.00     0.021 C 
HETATM   17  C8  UNL     1       3.590  34.744  37.490  1.00  0.00     0.021 C 
HETATM   18  C9  UNL     1       2.368  35.607  37.556  1.00  0.00     0.125 C 
ENDBRANCH  12  14
ENDBRANCH  10  12
ENDBRANCH   1  10
TORSDOF 7
ENDMDL
MODEL 3
REMARK VINA RESULT: -5.718861450      4.561      6.619
REMARK  7 active torsions:
REMARK  status: ('A' for Active; 'I' for Inactive)
REMARK    1  A    between atoms: C2_2  and  C3_3 
REMARK    2  A    between atoms: C3_3  and  N1_4 
REMARK    3  A    between atoms: N1_4  and  C4_6 
REMARK    4  A    between atoms: C4_6  and  N2_8 
REMARK    5  A    between atoms: N2_8  and  N3_10 
REMARK    6  A    between atoms: N3_10  and  C5_12 
REMARK    7  A    between atoms: C5_12  and  N4_14 
ROOT
HETATM    1  N2  UNL     1       0.939  35.952  40.419  1.00  0.00    -0.274 N 
ATOM      2  H2  UNL     1       0.433  35.876  41.302  1.00  0.00     0.189 HD
ENDROOT
BRANCH   1   3
HETATM    3  C4  UNL     1       0.945  34.851  39.526  1.00  0.00     0.186 C 
HETATM    4  S1  UNL     1      -0.201  34.778  38.376  1.00  0.00    -0.040 SA
BRANCH   3   5
HETATM    5  N1  UNL     1       1.919  33.840  39.610  1.00  0.00    -0.363 N 
ATOM      6  H1  UNL     1       1.998  33.307  40.477  1.00  0.00     0.162 HD
BRANCH   5   7
HETATM    7  C3  UNL     1       2.807  33.527  38.528  1.00  0.00     0.148 C 
BRANCH   7   8
HETATM    8  C2  UNL     1       3.756  34.626  38.256  1.00  0.00    -0.018 C 
HETATM    9  C1  UNL     1       4.099  34.960  37.020  1.00  0.00     0.008 C 
ENDBRANCH   7   8
ENDBRANCH   5   7
ENDBRANCH   3   5
ENDBRANCH   1   3
BRANCH   1  10
HETATM   10  N3  UNL     1       1.614  37.143  40.115  1.00  0.00    -0.274 N 
ATOM     11  H3  UNL     1       2.614  37.112  39.918  1.00  0.00     0.189 HD
BRANCH  10  12
HETATM   12  C5  UNL     1       0.941  38.383  40.074  1.00  0.00     0.188 C 
HETATM   13  S2  UNL     1      -0.549  38.455  39.433  1.00  0.00    -0.039 SA
BRANCH  12  14
HETATM   14  N4  UNL     1       1.556  39.542  40.588  1.00  0.00    -0.357 N 
HETATM   15  C6  UNL     1       2.149  39.688  41.902  1.00  0.00     0.125 C 
HETATM   16  C7  UNL     1       1.601  41.080  42.264  1.00  0.00     0.021 C 
HETATM   17  C8  UNL     1       1.931  41.851  41.007  1.00  0.00     0.021 C 
HETATM   18  C9  UNL     1       1.732  40.843  39.919  1.00  0.00     0.125 C 
ENDBRANCH  12  14
ENDBRANCH  10  12
ENDBRANCH   1  10
TORSDOF 7
ENDMDL
MODEL 4
REMARK VINA RESULT: -5.683089135      5.954      8.770
REMARK  7 active torsions:
REMARK  status: ('A' for Active; 'I' for Inactive)
REMARK    1  A    between atoms: C2_2  and  C3_3 
REMARK    2  A    between atoms: C3_3  and  N1_4 
REMARK    3  A    between atoms: N1_4  and  C4_6 
REMARK    4  A    between atoms: C4_6  and  N2_8 
REMARK    5  A    between atoms: N2_8  and  N3_10 
REMARK    6  A    between atoms: N3_10  and  C5_12 
REMARK    7  A    between atoms: C5_12  and  N4_14 
ROOT
HETATM    1  N2  UNL     1      -0.661  41.522  37.816  1.00  0.00    -0.274 N 
ATOM      2  H2  UNL     1      -1.046  41.759  36.901  1.00  0.00     0.189 HD
ENDROOT
BRANCH   1   3
HETATM    3  C4  UNL     1      -0.834  40.210  38.323  1.00  0.00     0.186 C 
HETATM    4  S1  UNL     1      -1.123  40.024  39.912  1.00  0.00    -0.040 SA
BRANCH   3   5
HETATM    5  N1  UNL     1      -0.770  39.082  37.485  1.00  0.00    -0.363 N 
ATOM      6  H1  UNL     1      -0.049  39.049  36.764  1.00  0.00     0.162 HD
BRANCH   5   7
HETATM    7  C3  UNL     1      -1.676  37.978  37.602  1.00  0.00     0.148 C 
BRANCH   7   8
HETATM    8  C2  UNL     1      -3.029  38.319  37.116  1.00  0.00    -0.018 C 
HETATM    9  C1  UNL     1      -3.742  37.469  36.389  1.00  0.00     0.008 C 
ENDBRANCH   7   8
ENDBRANCH   5   7
ENDBRANCH   3   5
ENDBRANCH   1   3
BRANCH   1  10
HETATM   10  N3  UNL     1       0.028  42.502  38.544  1.00  0.00    -0.274 N 
ATOM     11  H3  UNL     1      -0.503  43.196  39.071  1.00  0.00     0.189 HD
BRANCH  10  12
HETATM   12  C5  UNL     1       1.438  42.552  38.566  1.00  0.00     0.188 C 
HETATM   13  S2  UNL     1       2.217  43.446  37.458  1.00  0.00    -0.039 SA
BRANCH  12  14
HETATM   14  N4  UNL     1       2.159  41.835  39.543  1.00  0.00    -0.357 N 
HETATM   15  C6  UNL     1       3.177  40.835  39.295  1.00  0.00     0.125 C 
HETATM   16  C7  UNL     1       2.751  39.788  40.339  1.00  0.00     0.021 C 
HETATM   17  C8  UNL     1       2.585  40.659  41.563  1.00  0.00     0.021 C 
HETATM   18  C9  UNL     1       2.042  41.938  41.008  1.00  0.00     0.125 C 
ENDBRANCH  12  14
ENDBRANCH  10  12
ENDBRANCH   1  10
TORSDOF 7
ENDMDL
MODEL 5
REMARK VINA RESULT: -5.662508891      4.196      5.029
REMARK  7 active torsions:
REMARK  status: ('A' for Active; 'I' for Inactive)
REMARK    1  A    between atoms: C2_2  and  C3_3 
REMARK    2  A    between atoms: C3_3  and  N1_4 
REMARK    3  A    between atoms: N1_4  and  C4_6 
REMARK    4  A    between atoms: C4_6  and  N2_8 
REMARK    5  A    between atoms: N2_8  and  N3_10 
REMARK    6  A    between atoms: N3_10  and  C5_12 
REMARK    7  A    between atoms: C5_12  and  N4_14 
ROOT
HETATM    1  N2  UNL     1       1.159  36.497  40.079  1.00  0.00    -0.274 N 
ATOM      2  H2  UNL     1       1.333  36.795  41.040  1.00  0.00     0.189 HD
ENDROOT
BRANCH   1   3
HETATM    3  C4  UNL     1       0.637  35.201  39.839  1.00  0.00     0.186 C 
HETATM    4  S1  UNL     1      -0.962  35.042  39.590  1.00  0.00    -0.040 SA
BRANCH   3   5
HETATM    5  N1  UNL     1       1.468  34.067  39.803  1.00  0.00    -0.363 N 
ATOM      6  H1  UNL     1       1.740  33.632  40.685  1.00  0.00     0.162 HD
BRANCH   5   7
HETATM    7  C3  UNL     1       1.950  33.499  38.578  1.00  0.00     0.148 C 
BRANCH   7   8
HETATM    8  C2  UNL     1       3.341  33.904  38.290  1.00  0.00    -0.018 C 
HETATM    9  C1  UNL     1       3.631  34.745  37.307  1.00  0.00     0.008 C 
ENDBRANCH   7   8
ENDBRANCH   5   7
ENDBRANCH   3   5
ENDBRANCH   1   3
BRANCH   1  10
HETATM   10  N3  UNL     1       1.440  37.378  39.026  1.00  0.00    -0.274 N 
ATOM     11  H3  UNL     1       2.072  37.081  38.283  1.00  0.00     0.189 HD
BRANCH  10  12
HETATM   12  C5  UNL     1       0.868  38.668  38.969  1.00  0.00     0.188 C 
HETATM   13  S2  UNL     1       1.806  39.963  39.249  1.00  0.00    -0.039 SA
BRANCH  12  14
HETATM   14  N4  UNL     1      -0.499  38.826  38.668  1.00  0.00    -0.357 N 
HETATM   15  C6  UNL     1      -1.487  39.492  39.492  1.00  0.00     0.125 C 
HETATM   16  C7  UNL     1      -2.642  38.485  39.353  1.00  0.00     0.021 C 
HETATM   17  C8  UNL     1      -2.666  38.286  37.854  1.00  0.00     0.021 C 
HETATM   18  C9  UNL     1      -1.221  38.358  37.472  1.00  0.00     0.125 C 
ENDBRANCH  12  14
ENDBRANCH  10  12
ENDBRANCH   1  10
TORSDOF 7
ENDMDL
