MODEL 1
REMARK VINA RESULT: -6.623369341      0.000      0.000
REMARK  4 active torsions:
REMARK  status: ('A' for Active; 'I' for Inactive)
REMARK    1  A    between atoms: C1_2  and  N1_3 
REMARK    2  A    between atoms: C1_2  and  N3_13 
REMARK    3  A    between atoms: N1_3  and  C2_5 
REMARK    4  A    between atoms: C2_5  and  C3_6 
ROOT
HETATM    1  S1  UNL     1       0.368  37.037  39.686  1.00  0.00    -0.041 SA
HETATM    2  C1  UNL     1       1.777  37.330  38.818  1.00  0.00     0.169 C 
ENDROOT
BRANCH   2   3
HETATM    3  N1  UNL     1       2.092  38.678  38.649  1.00  0.00    -0.367 N 
ATOM      4  H1  UNL     1       1.894  39.041  37.717  1.00  0.00     0.161 HD
BRANCH   3   5
HETATM    5  C2  UNL     1       2.639  39.635  39.543  1.00  0.00     0.126 C 
BRANCH   5   6
HETATM    6  C3  UNL     1       2.531  41.059  39.033  1.00  0.00     0.006 C 
HETATM    7  C4  UNL     1       1.048  41.379  38.865  1.00  0.00     0.025 C 
HETATM    8  C5  UNL     1       1.018  42.749  38.210  1.00  0.00     0.114 C 
HETATM    9  N2  UNL     1       1.587  43.705  39.099  1.00  0.00    -0.421 N 
HETATM   10  C6  UNL     1       2.916  43.463  39.544  1.00  0.00     0.114 C 
ATOM     11  H2  UNL     1       1.064  44.526  39.404  1.00  0.00     0.153 HD
HETATM   12  C7  UNL     1       3.144  42.032  40.006  1.00  0.00     0.025 C 
ENDBRANCH   5   6
ENDBRANCH   3   5
ENDBRANCH   2   3
BRANCH   2  13
HETATM   13  N3  UNL     1       2.449  36.172  38.376  1.00  0.00    -0.355 N 
HETATM   14  C8  UNL     1       3.556  36.237  37.479  1.00  0.00     0.152 C 
HETATM   15  C9  UNL     1       4.090  34.920  36.993  1.00  0.00     0.252 C 
HETATM   16  N4  UNL     1       3.352  33.762  37.377  1.00  0.00    -0.072 N 
HETATM   17  C10 UNL     1       2.917  33.780  38.742  1.00  0.00     0.252 C 
ATOM     18  H42 UNL     1       2.562  33.615  36.750  1.00  0.00     0.277 HD
ATOM     19  H41 UNL     1       3.885  32.915  37.181  1.00  0.00     0.277 HD
HETATM   20  C11 UNL     1       1.946  34.898  38.902  1.00  0.00     0.152 C 
ENDBRANCH   2  13
TORSDOF 4
ENDMDL
MODEL 2
REMARK VINA RESULT: -6.620440083      5.143      7.520
REMARK  4 active torsions:
REMARK  status: ('A' for Active; 'I' for Inactive)
REMARK    1  A    between atoms: C1_2  and  N1_3 
REMARK    2  A    between atoms: C1_2  and  N3_13 
REMARK    3  A    between atoms: N1_3  and  C2_5 
REMARK    4  A    between atoms: C2_5  and  C3_6 
ROOT
HETATM    1  S1  UNL     1      -4.575  35.085  37.572  1.00  0.00    -0.041 SA
HETATM    2  C1  UNL     1      -3.422  34.712  38.737  1.00  0.00     0.169 C 
ENDROOT
BRANCH   2   3
HETATM    3  N1  UNL     1      -2.102  34.758  38.290  1.00  0.00    -0.367 N 
ATOM      4  H1  UNL     1      -1.728  33.856  37.996  1.00  0.00     0.161 HD
BRANCH   3   5
HETATM    5  C2  UNL     1      -1.185  35.834  38.171  1.00  0.00     0.126 C 
BRANCH   5   6
HETATM    6  C3  UNL     1       0.261  35.383  38.102  1.00  0.00     0.006 C 
HETATM    7  C4  UNL     1       1.140  36.610  38.332  1.00  0.00     0.025 C 
HETATM    8  C5  UNL     1       2.558  36.122  38.094  1.00  0.00     0.114 C 
HETATM    9  N2  UNL     1       2.886  35.144  39.076  1.00  0.00    -0.421 N 
HETATM   10  C6  UNL     1       2.040  34.003  39.159  1.00  0.00     0.114 C 
ATOM     11  H2  UNL     1       3.692  35.256  39.692  1.00  0.00     0.153 HD
HETATM   12  C7  UNL     1       0.559  34.352  39.157  1.00  0.00     0.025 C 
ENDBRANCH   5   6
ENDBRANCH   3   5
ENDBRANCH   2   3
BRANCH   2  13
HETATM   13  N3  UNL     1      -3.947  34.403  40.008  1.00  0.00    -0.355 N 
HETATM   14  C8  UNL     1      -5.322  34.071  40.196  1.00  0.00     0.152 C 
HETATM   15  C9  UNL     1      -5.768  33.891  41.618  1.00  0.00     0.252 C 
HETATM   16  N4  UNL     1      -4.805  34.198  42.624  1.00  0.00    -0.072 N 
HETATM   17  C10 UNL     1      -3.489  33.716  42.330  1.00  0.00     0.252 C 
ATOM     18  H42 UNL     1      -4.788  35.201  42.810  1.00  0.00     0.277 HD
ATOM     19  H41 UNL     1      -5.116  33.861  43.535  1.00  0.00     0.277 HD
HETATM   20  C11 UNL     1      -2.994  34.433  41.122  1.00  0.00     0.152 C 
ENDBRANCH   2  13
TORSDOF 4
ENDMDL
MODEL 3
REMARK VINA RESULT: -6.522162731      1.186      6.929
REMARK  4 active torsions:
REMARK  status: ('A' for Active; 'I' for Inactive)
REMARK    1  A    between atoms: C1_2  and  N1_3 
REMARK    2  A    between atoms: C1_2  and  N3_13 
REMARK    3  A    between atoms: N1_3  and  C2_5 
REMARK    4  A    between atoms: C2_5  and  C3_6 
ROOT
HETATM    1  S1  UNL     1       2.973  39.155  40.900  1.00  0.00    -0.041 SA
HETATM    2  C1  UNL     1       2.327  39.470  39.380  1.00  0.00     0.169 C 
ENDROOT
BRANCH   2   3
HETATM    3  N1  UNL     1       2.088  38.340  38.599  1.00  0.00    -0.367 N 
ATOM      4  H1  UNL     1       2.417  38.419  37.637  1.00  0.00     0.161 HD
BRANCH   3   5
HETATM    5  C2  UNL     1       1.468  37.100  38.903  1.00  0.00     0.126 C 
BRANCH   5   6
HETATM    6  C3  UNL     1       2.368  35.906  38.656  1.00  0.00     0.006 C 
HETATM    7  C4  UNL     1       1.473  34.700  38.381  1.00  0.00     0.025 C 
HETATM    8  C5  UNL     1       2.425  33.520  38.301  1.00  0.00     0.114 C 
HETATM    9  N2  UNL     1       3.295  33.696  37.187  1.00  0.00    -0.421 N 
HETATM   10  C6  UNL     1       4.073  34.886  37.158  1.00  0.00     0.114 C 
ATOM     11  H2  UNL     1       3.358  33.000  36.444  1.00  0.00     0.153 HD
HETATM   12  C7  UNL     1       3.268  36.139  37.471  1.00  0.00     0.025 C 
ENDBRANCH   5   6
ENDBRANCH   3   5
ENDBRANCH   2   3
BRANCH   2  13
HETATM   13  N3  UNL     1       2.117  40.836  39.102  1.00  0.00    -0.355 N 
HETATM   14  C8  UNL     1       3.199  41.758  38.982  1.00  0.00     0.152 C 
HETATM   15  C9  UNL     1       2.821  43.201  38.813  1.00  0.00     0.252 C 
HETATM   16  N4  UNL     1       1.432  43.504  38.921  1.00  0.00    -0.072 N 
HETATM   17  C10 UNL     1       0.582  42.566  38.251  1.00  0.00     0.252 C 
ATOM     18  H42 UNL     1       1.161  43.601  39.899  1.00  0.00     0.277 HD
ATOM     19  H41 UNL     1       1.245  44.453  38.597  1.00  0.00     0.277 HD
HETATM   20  C11 UNL     1       0.720  41.249  38.933  1.00  0.00     0.152 C 
ENDBRANCH   2  13
TORSDOF 4
ENDMDL
MODEL 4
REMARK VINA RESULT: -6.516178684      4.841      7.162
REMARK  4 active torsions:
REMARK  status: ('A' for Active; 'I' for Inactive)
REMARK    1  A    between atoms: C1_2  and  N1_3 
REMARK    2  A    between atoms: C1_2  and  N3_13 
REMARK    3  A    between atoms: N1_3  and  C2_5 
REMARK    4  A    between atoms: C2_5  and  C3_6 
ROOT
HETATM    1  S1  UNL     1      -0.677  37.151  39.259  1.00  0.00    -0.041 SA
HETATM    2  C1  UNL     1      -0.386  35.506  39.071  1.00  0.00     0.169 C 
ENDROOT
BRANCH   2   3
HETATM    3  N1  UNL     1      -1.452  34.678  39.424  1.00  0.00    -0.367 N 
ATOM      4  H1  UNL     1      -1.197  33.909  40.043  1.00  0.00     0.161 HD
BRANCH   3   5
HETATM    5  C2  UNL     1      -2.827  34.714  39.076  1.00  0.00     0.126 C 
BRANCH   5   6
HETATM    6  C3  UNL     1      -3.748  34.736  40.279  1.00  0.00     0.006 C 
HETATM    7  C4  UNL     1      -4.995  33.930  39.923  1.00  0.00     0.025 C 
HETATM    8  C5  UNL     1      -5.933  34.124  41.102  1.00  0.00     0.114 C 
HETATM    9  N2  UNL     1      -5.345  33.549  42.265  1.00  0.00    -0.421 N 
HETATM   10  C6  UNL     1      -4.062  34.031  42.645  1.00  0.00     0.114 C 
ATOM     11  H2  UNL     1      -5.823  32.825  42.802  1.00  0.00     0.153 HD
HETATM   12  C7  UNL     1      -3.084  34.119  41.482  1.00  0.00     0.025 C 
ENDBRANCH   5   6
ENDBRANCH   3   5
ENDBRANCH   2   3
BRANCH   2  13
HETATM   13  N3  UNL     1       0.897  35.186  38.583  1.00  0.00    -0.355 N 
HETATM   14  C8  UNL     1       1.693  36.135  37.876  1.00  0.00     0.152 C 
HETATM   15  C9  UNL     1       2.982  35.619  37.303  1.00  0.00     0.252 C 
HETATM   16  N4  UNL     1       3.203  34.215  37.418  1.00  0.00    -0.072 N 
HETATM   17  C10 UNL     1       2.840  33.675  38.694  1.00  0.00     0.252 C 
ATOM     18  H42 UNL     1       2.729  33.714  36.667  1.00  0.00     0.277 HD
ATOM     19  H41 UNL     1       4.171  33.984  37.192  1.00  0.00     0.277 HD
HETATM   20  C11 UNL     1       1.367  33.824  38.856  1.00  0.00     0.152 C 
ENDBRANCH   2  13
TORSDOF 4
ENDMDL
MODEL 5
REMARK VINA RESULT: -6.482875997      5.451      7.823
REMARK  4 active torsions:
REMARK  status: ('A' for Active; 'I' for Inactive)
REMARK    1  A    between atoms: C1_2  and  N1_3 
REMARK    2  A    between atoms: C1_2  and  N3_13 
REMARK    3  A    between atoms: N1_3  and  C2_5 
REMARK    4  A    between atoms: C2_5  and  C3_6 
ROOT
HETATM    1  S1  UNL     1      -4.377  35.035  37.581  1.00  0.00    -0.041 SA
HETATM    2  C1  UNL     1      -3.447  34.693  38.939  1.00  0.00     0.169 C 
ENDROOT
BRANCH   2   3
HETATM    3  N1  UNL     1      -2.069  34.765  38.740  1.00  0.00    -0.367 N 
ATOM      4  H1  UNL     1      -1.515  34.608  39.581  1.00  0.00     0.161 HD
BRANCH   3   5
HETATM    5  C2  UNL     1      -1.299  35.018  37.575  1.00  0.00     0.126 C 
BRANCH   5   6
HETATM    6  C3  UNL     1       0.180  34.744  37.765  1.00  0.00     0.006 C 
HETATM    7  C4  UNL     1       0.929  36.051  37.514  1.00  0.00     0.025 C 
HETATM    8  C5  UNL     1       2.399  35.671  37.565  1.00  0.00     0.114 C 
HETATM    9  N2  UNL     1       2.718  35.215  38.876  1.00  0.00    -0.421 N 
HETATM   10  C6  UNL     1       1.967  34.117  39.378  1.00  0.00     0.114 C 
ATOM     11  H2  UNL     1       3.453  35.656  39.430  1.00  0.00     0.153 HD
HETATM   12  C7  UNL     1       0.468  34.265  39.163  1.00  0.00     0.025 C 
ENDBRANCH   5   6
ENDBRANCH   3   5
ENDBRANCH   2   3
BRANCH   2  13
HETATM   13  N3  UNL     1      -4.189  34.377  40.096  1.00  0.00    -0.355 N 
HETATM   14  C8  UNL     1      -3.663  34.574  41.407  1.00  0.00     0.152 C 
HETATM   15  C9  UNL     1      -4.511  34.073  42.540  1.00  0.00     0.252 C 
HETATM   16  N4  UNL     1      -5.680  33.344  42.176  1.00  0.00    -0.072 N 
HETATM   17  C10 UNL     1      -6.401  33.917  41.079  1.00  0.00     0.252 C 
ATOM     18  H42 UNL     1      -5.450  32.369  41.986  1.00  0.00     0.277 HD
ATOM     19  H41 UNL     1      -6.293  33.220  42.983  1.00  0.00     0.277 HD
HETATM   20  C11 UNL     1      -5.536  33.843  39.870  1.00  0.00     0.152 C 
ENDBRANCH   2  13
TORSDOF 4
ENDMDL
