MODEL 1
REMARK VINA RESULT: -7.462795873      0.000      0.000
REMARK  4 active torsions:
REMARK  status: ('A' for Active; 'I' for Inactive)
REMARK    1  A    between atoms: C5_5  and  C6_6 
REMARK    2  A    between atoms: C6_6  and  O1_7 
REMARK       I    between atoms: N1_9  and  C7_10 
REMARK       I    between atoms: C7_10  and  N3_14 
REMARK    3  A    between atoms: N3_14  and  C8_16 
REMARK    4  A    between atoms: C8_16  and  C10_20 
ROOT
HETATM    1  C1  UNL     1      -1.735  34.591  40.120  1.00  0.00     0.014 C 
HETATM    2  C2  UNL     1      -1.035  35.171  39.321  1.00  0.00    -0.091 C 
HETATM    3  C3  UNL     1      -0.190  35.872  38.365  1.00  0.00     0.183 C 
HETATM    4  C4  UNL     1       0.557  34.880  37.500  1.00  0.00     0.067 C 
HETATM    5  C5  UNL     1       1.494  34.845  38.706  1.00  0.00     0.130 C 
HETATM    6  N1  UNL     1       1.111  36.213  38.961  1.00  0.00    -0.196 N 
HETATM    7  C7  UNL     1       1.594  37.412  39.495  1.00  0.00     0.676 C 
HETATM    8  N2  UNL     1       1.690  37.543  40.788  1.00  0.00    -0.234 N 
ATOM      9  H21 UNL     1       2.042  38.418  41.177  1.00  0.00     0.174 HD
ATOM     10  H22 UNL     1       1.416  36.781  41.410  1.00  0.00     0.174 HD
HETATM   11  N3  UNL     1       1.972  38.464  38.636  1.00  0.00    -0.181 N 
ATOM     12  H3  UNL     1       2.732  38.332  37.969  1.00  0.00     0.185 HD
ENDROOT
BRANCH   5  13
HETATM   13  C6  UNL     1       2.931  34.630  38.314  1.00  0.00     0.190 C 
BRANCH  13  14
HETATM   14  O1  UNL     1       3.639  34.230  39.439  1.00  0.00    -0.399 OA
ATOM     15  H1  UNL     1       4.021  33.378  39.268  1.00  0.00     0.209 HD
ENDBRANCH  13  14
ENDBRANCH   5  13
BRANCH  11  16
HETATM   16  C8  UNL     1       1.296  39.697  38.700  1.00  0.00     0.097 C 
HETATM   17  N4  UNL     1       0.022  39.697  38.519  1.00  0.00    -0.383 N 
HETATM   18  C9  UNL     1      -0.802  40.885  38.557  1.00  0.00     0.147 C 
ATOM     19  H4  UNL     1      -0.435  38.804  38.336  1.00  0.00     0.160 HD
BRANCH  16  20
HETATM   20  C10 UNL     1       2.057  40.923  38.969  1.00  0.00     0.058 A 
HETATM   21  C11 UNL     1       3.468  40.897  39.397  1.00  0.00     0.017 A 
HETATM   22  C12 UNL     1       2.425  41.152  40.417  1.00  0.00    -0.007 A 
HETATM   23  C13 UNL     1       2.152  42.518  40.951  1.00  0.00     0.011 C 
ENDBRANCH  16  20
ENDBRANCH  11  16
TORSDOF 4
ENDMDL
MODEL 2
REMARK VINA RESULT: -7.243032911      3.211      6.271
REMARK  4 active torsions:
REMARK  status: ('A' for Active; 'I' for Inactive)
REMARK    1  A    between atoms: C5_5  and  C6_6 
REMARK    2  A    between atoms: C6_6  and  O1_7 
REMARK       I    between atoms: N1_9  and  C7_10 
REMARK       I    between atoms: C7_10  and  N3_14 
REMARK    3  A    between atoms: N3_14  and  C8_16 
REMARK    4  A    between atoms: C8_16  and  C10_20 
ROOT
HETATM    1  C1  UNL     1       1.831  39.381  42.062  1.00  0.00     0.014 C 
HETATM    2  C2  UNL     1       1.770  39.400  40.853  1.00  0.00    -0.091 C 
HETATM    3  C3  UNL     1       1.689  39.424  39.400  1.00  0.00     0.183 C 
HETATM    4  C4  UNL     1       2.358  40.670  38.858  1.00  0.00     0.067 C 
HETATM    5  C5  UNL     1       1.010  41.298  39.209  1.00  0.00     0.130 C 
HETATM    6  N1  UNL     1       0.416  40.008  38.951  1.00  0.00    -0.196 N 
HETATM    7  C7  UNL     1      -0.764  39.409  38.499  1.00  0.00     0.676 C 
HETATM    8  N2  UNL     1      -1.800  39.362  39.287  1.00  0.00    -0.234 N 
ATOM      9  H21 UNL     1      -2.661  38.925  38.957  1.00  0.00     0.174 HD
ATOM     10  H22 UNL     1      -1.757  39.759  40.226  1.00  0.00     0.174 HD
HETATM   11  N3  UNL     1      -0.823  38.860  37.201  1.00  0.00    -0.181 N 
ATOM     12  H3  UNL     1      -0.691  39.460  36.386  1.00  0.00     0.185 HD
ENDROOT
BRANCH   5  13
HETATM   13  C6  UNL     1       0.623  42.399  38.258  1.00  0.00     0.190 C 
BRANCH  13  14
HETATM   14  O1  UNL     1       1.061  43.607  38.783  1.00  0.00    -0.399 OA
ATOM     15  H1  UNL     1       1.590  44.046  38.126  1.00  0.00     0.209 HD
ENDBRANCH  13  14
ENDBRANCH   5  13
BRANCH  11  16
HETATM   16  C8  UNL     1      -1.063  37.485  37.032  1.00  0.00     0.097 C 
HETATM   17  N4  UNL     1      -0.131  36.663  37.365  1.00  0.00    -0.383 N 
HETATM   18  C9  UNL     1      -0.237  35.226  37.249  1.00  0.00     0.147 C 
ATOM     19  H4  UNL     1       0.738  37.050  37.733  1.00  0.00     0.160 HD
BRANCH  16  20
HETATM   20  C10 UNL     1      -2.353  37.039  36.492  1.00  0.00     0.058 A 
HETATM   21  C11 UNL     1      -3.551  37.899  36.501  1.00  0.00     0.017 A 
HETATM   22  C12 UNL     1      -3.445  36.824  37.515  1.00  0.00    -0.007 A 
HETATM   23  C13 UNL     1      -4.204  35.545  37.399  1.00  0.00     0.011 C 
ENDBRANCH  16  20
ENDBRANCH  11  16
TORSDOF 4
ENDMDL
MODEL 3
REMARK VINA RESULT: -7.120174391      3.456      4.115
REMARK  4 active torsions:
REMARK  status: ('A' for Active; 'I' for Inactive)
REMARK    1  A    between atoms: C5_5  and  C6_6 
REMARK    2  A    between atoms: C6_6  and  O1_7 
REMARK       I    between atoms: N1_9  and  C7_10 
REMARK       I    between atoms: C7_10  and  N3_14 
REMARK    3  A    between atoms: N3_14  and  C8_16 
REMARK    4  A    between atoms: C8_16  and  C10_20 
ROOT
HETATM    1  C1  UNL     1      -4.490  34.780  37.792  1.00  0.00     0.014 C 
HETATM    2  C2  UNL     1      -4.128  35.869  37.406  1.00  0.00    -0.091 C 
HETATM    3  C3  UNL     1      -3.685  37.176  36.945  1.00  0.00     0.183 C 
HETATM    4  C4  UNL     1      -3.918  37.313  35.455  1.00  0.00     0.067 C 
HETATM    5  C5  UNL     1      -2.598  36.547  35.387  1.00  0.00     0.130 C 
HETATM    6  N1  UNL     1      -2.246  37.170  36.640  1.00  0.00    -0.196 N 
HETATM    7  C7  UNL     1      -1.147  37.622  37.376  1.00  0.00     0.676 C 
HETATM    8  N2  UNL     1      -0.373  36.756  37.967  1.00  0.00    -0.234 N 
ATOM      9  H21 UNL     1       0.429  37.086  38.504  1.00  0.00     0.174 HD
ATOM     10  H22 UNL     1      -0.562  35.756  37.896  1.00  0.00     0.174 HD
HETATM   11  N3  UNL     1      -0.885  39.005  37.474  1.00  0.00    -0.181 N 
ATOM     12  H3  UNL     1      -0.680  39.547  36.635  1.00  0.00     0.185 HD
ENDROOT
BRANCH   5  13
HETATM   13  C6  UNL     1      -1.761  36.945  34.200  1.00  0.00     0.190 C 
BRANCH  13  14
HETATM   14  O1  UNL     1      -1.476  35.805  33.460  1.00  0.00    -0.399 OA
ATOM     15  H1  UNL     1      -2.198  35.645  32.864  1.00  0.00     0.209 HD
ENDBRANCH  13  14
ENDBRANCH   5  13
BRANCH  11  16
HETATM   16  C8  UNL     1      -0.908  39.634  38.732  1.00  0.00     0.097 C 
HETATM   17  N4  UNL     1      -2.046  39.776  39.316  1.00  0.00    -0.383 N 
HETATM   18  C9  UNL     1      -2.223  40.400  40.608  1.00  0.00     0.147 C 
ATOM     19  H4  UNL     1      -2.876  39.426  38.837  1.00  0.00     0.160 HD
BRANCH  16  20
HETATM   20  C10 UNL     1       0.349  40.099  39.329  1.00  0.00     0.058 A 
HETATM   21  C11 UNL     1       1.656  39.517  38.969  1.00  0.00     0.017 A 
HETATM   22  C12 UNL     1       1.032  39.115  40.251  1.00  0.00    -0.007 A 
HETATM   23  C13 UNL     1       1.490  39.659  41.562  1.00  0.00     0.011 C 
ENDBRANCH  16  20
ENDBRANCH  11  16
TORSDOF 4
ENDMDL
MODEL 4
REMARK VINA RESULT: -6.971432801      2.866      5.157
REMARK  4 active torsions:
REMARK  status: ('A' for Active; 'I' for Inactive)
REMARK    1  A    between atoms: C5_5  and  C6_6 
REMARK    2  A    between atoms: C6_6  and  O1_7 
REMARK       I    between atoms: N1_9  and  C7_10 
REMARK       I    between atoms: C7_10  and  N3_14 
REMARK    3  A    between atoms: N3_14  and  C8_16 
REMARK    4  A    between atoms: C8_16  and  C10_20 
ROOT
HETATM    1  C1  UNL     1       2.987  33.424  38.337  1.00  0.00     0.014 C 
HETATM    2  C2  UNL     1       2.748  34.518  37.876  1.00  0.00    -0.091 C 
HETATM    3  C3  UNL     1       2.454  35.834  37.327  1.00  0.00     0.183 C 
HETATM    4  C4  UNL     1       3.552  36.811  37.691  1.00  0.00     0.067 C 
HETATM    5  C5  UNL     1       2.766  36.889  38.999  1.00  0.00     0.130 C 
HETATM    6  N1  UNL     1       1.581  36.600  38.228  1.00  0.00    -0.196 N 
HETATM    7  C7  UNL     1       0.203  36.839  38.192  1.00  0.00     0.676 C 
HETATM    8  N2  UNL     1      -0.578  36.203  39.018  1.00  0.00    -0.234 N 
ATOM      9  H21 UNL     1      -1.583  36.377  38.992  1.00  0.00     0.174 HD
ATOM     10  H22 UNL     1      -0.194  35.535  39.687  1.00  0.00     0.174 HD
HETATM   11  N3  UNL     1      -0.328  37.762  37.267  1.00  0.00    -0.181 N 
ATOM     12  H3  UNL     1      -0.052  38.743  37.308  1.00  0.00     0.185 HD
ENDROOT
BRANCH   5  13
HETATM   13  C6  UNL     1       2.822  38.257  39.625  1.00  0.00     0.190 C 
BRANCH  13  14
HETATM   14  O1  UNL     1       3.837  38.266  40.572  1.00  0.00    -0.399 OA
ATOM     15  H1  UNL     1       3.833  39.109  41.010  1.00  0.00     0.209 HD
ENDBRANCH  13  14
ENDBRANCH   5  13
BRANCH  11  16
HETATM   16  C8  UNL     1      -1.239  37.325  36.288  1.00  0.00     0.097 C 
HETATM   17  N4  UNL     1      -0.779  36.651  35.293  1.00  0.00    -0.383 N 
HETATM   18  C9  UNL     1      -1.595  36.138  34.215  1.00  0.00     0.147 C 
ATOM     19  H4  UNL     1       0.224  36.467  35.263  1.00  0.00     0.160 HD
BRANCH  16  20
HETATM   20  C10 UNL     1      -2.664  37.648  36.432  1.00  0.00     0.058 A 
HETATM   21  C11 UNL     1      -3.293  37.865  37.749  1.00  0.00     0.017 A 
HETATM   22  C12 UNL     1      -3.511  36.569  37.065  1.00  0.00    -0.007 A 
HETATM   23  C13 UNL     1      -4.787  36.247  36.363  1.00  0.00     0.011 C 
ENDBRANCH  16  20
ENDBRANCH  11  16
TORSDOF 4
ENDMDL
MODEL 5
REMARK VINA RESULT: -6.917808181      3.233      5.673
REMARK  4 active torsions:
REMARK  status: ('A' for Active; 'I' for Inactive)
REMARK    1  A    between atoms: C5_5  and  C6_6 
REMARK    2  A    between atoms: C6_6  and  O1_7 
REMARK       I    between atoms: N1_9  and  C7_10 
REMARK       I    between atoms: C7_10  and  N3_14 
REMARK    3  A    between atoms: N3_14  and  C8_16 
REMARK    4  A    between atoms: C8_16  and  C10_20 
ROOT
HETATM    1  C1  UNL     1       2.305  33.550  38.206  1.00  0.00     0.014 C 
HETATM    2  C2  UNL     1       1.606  34.523  38.030  1.00  0.00    -0.091 C 
HETATM    3  C3  UNL     1       0.760  35.690  37.823  1.00  0.00     0.183 C 
HETATM    4  C4  UNL     1       1.552  36.959  38.060  1.00  0.00     0.067 C 
HETATM    5  C5  UNL     1       1.221  36.647  39.519  1.00  0.00     0.130 C 
HETATM    6  N1  UNL     1       0.011  36.022  39.044  1.00  0.00    -0.196 N 
HETATM    7  C7  UNL     1      -1.313  35.761  39.412  1.00  0.00     0.676 C 
HETATM    8  N2  UNL     1      -1.561  34.825  40.283  1.00  0.00    -0.234 N 
ATOM      9  H21 UNL     1      -2.527  34.634  40.551  1.00  0.00     0.174 HD
ATOM     10  H22 UNL     1      -0.801  34.284  40.697  1.00  0.00     0.174 HD
HETATM   11  N3  UNL     1      -2.363  36.508  38.840  1.00  0.00    -0.181 N 
ATOM     12  H3  UNL     1      -2.411  37.516  38.984  1.00  0.00     0.185 HD
ENDROOT
BRANCH   5  13
HETATM   13  C6  UNL     1       1.035  37.891  40.346  1.00  0.00     0.190 C 
BRANCH  13  14
HETATM   14  O1  UNL     1       1.781  37.763  41.510  1.00  0.00    -0.399 OA
ATOM     15  H1  UNL     1       1.232  37.367  42.177  1.00  0.00     0.209 HD
ENDBRANCH  13  14
ENDBRANCH   5  13
BRANCH  11  16
HETATM   16  C8  UNL     1      -3.345  35.859  38.069  1.00  0.00     0.097 C 
HETATM   17  N4  UNL     1      -4.223  35.146  38.684  1.00  0.00    -0.383 N 
HETATM   18  C9  UNL     1      -5.288  34.425  38.024  1.00  0.00     0.147 C 
ATOM     19  H4  UNL     1      -4.163  35.087  39.700  1.00  0.00     0.160 HD
BRANCH  16  20
HETATM   20  C10 UNL     1      -3.335  36.015  36.609  1.00  0.00     0.058 A 
HETATM   21  C11 UNL     1      -2.477  37.002  35.928  1.00  0.00     0.017 A 
HETATM   22  C12 UNL     1      -3.917  37.310  36.092  1.00  0.00    -0.007 A 
HETATM   23  C13 UNL     1      -4.890  37.186  34.968  1.00  0.00     0.011 C 
ENDBRANCH  16  20
ENDBRANCH  11  16
TORSDOF 4
ENDMDL
