MODEL 1
REMARK VINA RESULT: -7.545908567      0.000      0.000
REMARK  12 active torsions:
REMARK  status: ('A' for Active; 'I' for Inactive)
REMARK    1  A    between atoms: C2_2  and  N2_6 
REMARK    2  A    between atoms: C4_13  and  S1_14 
REMARK    3  A    between atoms: S1_14  and  C5_15 
REMARK    4  A    between atoms: C5_15  and  C6_16 
REMARK    5  A    between atoms: C6_16  and  S2_17 
REMARK    6  A    between atoms: C6_16  and  C16_31 
REMARK    7  A    between atoms: S2_17  and  C7_18 
REMARK    8  A    between atoms: C7_18  and  C8_19 
REMARK    9  A    between atoms: C8_19  and  O1_20 
REMARK   10  A    between atoms: C8_19  and  C9_22 
REMARK   11  A    between atoms: C9_22  and  C10_23 
REMARK   12  A    between atoms: C10_23  and  C11_25 
ROOT
HETATM    1  C6  UNL     1      23.985  34.942  25.125  1.00  0.00     0.126 C 
ENDROOT
BRANCH   1   2
HETATM    2  C5  UNL     1      24.584  35.463  23.824  1.00  0.00     0.104 C 
BRANCH   2   3
HETATM    3  S1  UNL     1      26.370  35.522  23.847  1.00  0.00    -0.102 SA
BRANCH   3   4
HETATM    4  C4  UNL     1      26.999  37.150  24.211  1.00  0.00     0.130 A 
HETATM    5  N4  UNL     1      27.085  37.745  25.388  1.00  0.00    -0.286 N 
HETATM    6  N3  UNL     1      27.571  38.914  25.485  1.00  0.00    -0.278 N 
ATOM      7  H4  UNL     1      26.759  37.261  26.225  1.00  0.00     0.188 HD
HETATM    8  C3  UNL     1      27.993  39.536  24.387  1.00  0.00     0.167 A 
ATOM      9  H3  UNL     1      27.638  39.370  26.395  1.00  0.00     0.189 HD
HETATM   10  N2  UNL     1      28.523  40.729  24.241  1.00  0.00    -0.326 N 
HETATM   11  S3  UNL     1      27.656  38.343  23.180  1.00  0.00    -0.026 SA
ATOM     12  H2  UNL     1      28.680  41.363  25.025  1.00  0.00     0.169 HD
BRANCH  10  13
HETATM   13  C2  UNL     1      28.864  41.070  22.880  1.00  0.00     0.072 C 
HETATM   14  C1  UNL     1      30.182  40.742  22.282  1.00  0.00     0.088 C 
HETATM   15  N1  UNL     1      28.007  41.676  22.131  1.00  0.00    -0.389 N 
ATOM     16  H12 UNL     1      28.248  41.917  21.169  1.00  0.00     0.157 HD
ATOM     17  H11 UNL     1      27.101  41.902  22.541  1.00  0.00     0.157 HD
ENDBRANCH  10  13
ENDBRANCH   3   4
ENDBRANCH   2   3
ENDBRANCH   1   2
BRANCH   1  18
HETATM   18  S2  UNL     1      23.839  36.290  26.311  1.00  0.00    -0.153 SA
BRANCH  18  19
HETATM   19  C7  UNL     1      23.020  37.710  25.624  1.00  0.00     0.107 C 
BRANCH  19  20
HETATM   20  C8  UNL     1      23.723  39.029  25.751  1.00  0.00     0.134 C 
BRANCH  20  21
HETATM   21  O1  UNL     1      24.808  38.789  26.647  1.00  0.00    -0.394 OA
ATOM     22  H1  UNL     1      25.198  39.642  26.799  1.00  0.00     0.210 HD
ENDBRANCH  20  21
BRANCH  20  23
HETATM   23  C9  UNL     1      22.793  39.958  26.548  1.00  0.00     0.118 C 
BRANCH  23  24
HETATM   24  C10 UNL     1      22.047  40.873  25.665  1.00  0.00     0.185 C 
HETATM   25  O2  UNL     1      22.736  41.468  24.777  1.00  0.00    -0.290 OA
BRANCH  24  26
HETATM   26  C11 UNL     1      20.623  41.120  25.754  1.00  0.00     0.121 A 
HETATM   27  C12 UNL     1      19.778  40.512  26.683  1.00  0.00     0.043 A 
HETATM   28  C13 UNL     1      18.522  40.979  26.473  1.00  0.00     0.035 A 
HETATM   29  C14 UNL     1      18.608  41.865  25.420  1.00  0.00     0.050 A 
HETATM   30  C15 UNL     1      17.440  42.612  24.859  1.00  0.00     0.076 C 
HETATM   31  O3  UNL     1      19.864  41.899  25.049  1.00  0.00    -0.312 OA
ENDBRANCH  24  26
ENDBRANCH  23  24
ENDBRANCH  20  23
ENDBRANCH  19  20
ENDBRANCH  18  19
ENDBRANCH   1  18
BRANCH   1  32
HETATM   32  C16 UNL     1      22.738  34.215  24.968  1.00  0.00     0.137 C 
HETATM   33  C17 UNL     1      22.716  32.765  25.287  1.00  0.00     0.092 C 
HETATM   34  O4  UNL     1      21.692  34.729  24.586  1.00  0.00    -0.297 OA
ENDBRANCH   1  32
TORSDOF 12
ENDMDL
MODEL 2
REMARK VINA RESULT: -7.520762174      2.463      5.685
REMARK  12 active torsions:
REMARK  status: ('A' for Active; 'I' for Inactive)
REMARK    1  A    between atoms: C2_2  and  N2_6 
REMARK    2  A    between atoms: C4_13  and  S1_14 
REMARK    3  A    between atoms: S1_14  and  C5_15 
REMARK    4  A    between atoms: C5_15  and  C6_16 
REMARK    5  A    between atoms: C6_16  and  S2_17 
REMARK    6  A    between atoms: C6_16  and  C16_31 
REMARK    7  A    between atoms: S2_17  and  C7_18 
REMARK    8  A    between atoms: C7_18  and  C8_19 
REMARK    9  A    between atoms: C8_19  and  O1_20 
REMARK   10  A    between atoms: C8_19  and  C9_22 
REMARK   11  A    between atoms: C9_22  and  C10_23 
REMARK   12  A    between atoms: C10_23  and  C11_25 
ROOT
HETATM    1  C6  UNL     1      27.433  41.417  22.270  1.00  0.00     0.126 C 
ENDROOT
BRANCH   1   2
HETATM    2  C5  UNL     1      28.023  40.076  21.852  1.00  0.00     0.104 C 
BRANCH   2   3
HETATM    3  S1  UNL     1      28.483  39.047  23.238  1.00  0.00    -0.102 SA
BRANCH   3   4
HETATM    4  C4  UNL     1      27.406  37.640  23.436  1.00  0.00     0.130 A 
HETATM    5  N4  UNL     1      27.294  36.584  22.649  1.00  0.00    -0.286 N 
HETATM    6  N3  UNL     1      26.481  35.652  22.935  1.00  0.00    -0.278 N 
ATOM      7  H4  UNL     1      27.864  36.517  21.806  1.00  0.00     0.188 HD
HETATM    8  C3  UNL     1      25.740  35.749  24.037  1.00  0.00     0.167 A 
ATOM      9  H3  UNL     1      26.396  34.837  22.327  1.00  0.00     0.189 HD
HETATM   10  N2  UNL     1      24.844  34.925  24.530  1.00  0.00    -0.326 N 
HETATM   11  S3  UNL     1      26.275  37.272  24.661  1.00  0.00    -0.026 SA
ATOM     12  H2  UNL     1      24.598  34.043  24.079  1.00  0.00     0.169 HD
BRANCH  10  13
HETATM   13  C2  UNL     1      24.237  35.369  25.762  1.00  0.00     0.072 C 
HETATM   14  C1  UNL     1      23.043  36.249  25.791  1.00  0.00     0.088 C 
HETATM   15  N1  UNL     1      24.726  34.995  26.896  1.00  0.00    -0.389 N 
ATOM     16  H12 UNL     1      24.297  35.309  27.766  1.00  0.00     0.157 HD
ATOM     17  H11 UNL     1      25.547  34.390  26.876  1.00  0.00     0.157 HD
ENDBRANCH  10  13
ENDBRANCH   3   4
ENDBRANCH   2   3
ENDBRANCH   1   2
BRANCH   1  18
HETATM   18  S2  UNL     1      26.552  41.233  23.831  1.00  0.00    -0.153 SA
BRANCH  18  19
HETATM   19  C7  UNL     1      24.926  40.551  23.615  1.00  0.00     0.107 C 
BRANCH  19  20
HETATM   20  C8  UNL     1      23.938  40.781  24.719  1.00  0.00     0.134 C 
BRANCH  20  21
HETATM   21  O1  UNL     1      24.099  39.670  25.601  1.00  0.00    -0.394 OA
ATOM     22  H1  UNL     1      23.756  39.964  26.436  1.00  0.00     0.210 HD
ENDBRANCH  20  21
BRANCH  20  23
HETATM   23  C9  UNL     1      22.538  40.570  24.121  1.00  0.00     0.118 C 
BRANCH  23  24
HETATM   24  C10 UNL     1      21.598  41.624  24.543  1.00  0.00     0.185 C 
HETATM   25  O2  UNL     1      21.898  42.807  24.184  1.00  0.00    -0.290 OA
BRANCH  24  26
HETATM   26  C11 UNL     1      20.397  41.391  25.318  1.00  0.00     0.121 A 
HETATM   27  C12 UNL     1      20.252  40.365  26.251  1.00  0.00     0.043 A 
HETATM   28  C13 UNL     1      19.006  40.452  26.778  1.00  0.00     0.035 A 
HETATM   29  C14 UNL     1      18.400  41.529  26.165  1.00  0.00     0.050 A 
HETATM   30  C15 UNL     1      17.004  41.980  26.457  1.00  0.00     0.076 C 
HETATM   31  O3  UNL     1      19.270  42.030  25.324  1.00  0.00    -0.312 OA
ENDBRANCH  24  26
ENDBRANCH  23  24
ENDBRANCH  20  23
ENDBRANCH  19  20
ENDBRANCH  18  19
ENDBRANCH   1  18
BRANCH   1  32
HETATM   32  C16 UNL     1      28.385  42.513  22.306  1.00  0.00     0.137 C 
HETATM   33  C17 UNL     1      28.323  43.470  23.440  1.00  0.00     0.092 C 
HETATM   34  O4  UNL     1      29.244  42.698  21.452  1.00  0.00    -0.297 OA
ENDBRANCH   1  32
TORSDOF 12
ENDMDL
MODEL 3
REMARK VINA RESULT: -7.487830590      3.833      7.100
REMARK  12 active torsions:
REMARK  status: ('A' for Active; 'I' for Inactive)
REMARK    1  A    between atoms: C2_2  and  N2_6 
REMARK    2  A    between atoms: C4_13  and  S1_14 
REMARK    3  A    between atoms: S1_14  and  C5_15 
REMARK    4  A    between atoms: C5_15  and  C6_16 
REMARK    5  A    between atoms: C6_16  and  S2_17 
REMARK    6  A    between atoms: C6_16  and  C16_31 
REMARK    7  A    between atoms: S2_17  and  C7_18 
REMARK    8  A    between atoms: C7_18  and  C8_19 
REMARK    9  A    between atoms: C8_19  and  O1_20 
REMARK   10  A    between atoms: C8_19  and  C9_22 
REMARK   11  A    between atoms: C9_22  and  C10_23 
REMARK   12  A    between atoms: C10_23  and  C11_25 
ROOT
HETATM    1  C6  UNL     1      22.042  37.799  25.712  1.00  0.00     0.126 C 
ENDROOT
BRANCH   1   2
HETATM    2  C5  UNL     1      20.969  38.718  25.142  1.00  0.00     0.104 C 
BRANCH   2   3
HETATM    3  S1  UNL     1      21.310  40.450  25.413  1.00  0.00    -0.102 SA
BRANCH   3   4
HETATM    4  C4  UNL     1      21.936  41.263  23.955  1.00  0.00     0.130 A 
HETATM    5  N4  UNL     1      23.185  41.312  23.523  1.00  0.00    -0.286 N 
HETATM    6  N3  UNL     1      23.472  41.928  22.451  1.00  0.00    -0.278 N 
ATOM      7  H4  UNL     1      23.924  40.852  24.056  1.00  0.00     0.188 HD
HETATM    8  C3  UNL     1      22.501  42.526  21.764  1.00  0.00     0.167 A 
ATOM      9  H3  UNL     1      24.436  41.964  22.119  1.00  0.00     0.189 HD
HETATM   10  N2  UNL     1      22.555  43.213  20.646  1.00  0.00    -0.326 N 
HETATM   11  S3  UNL     1      21.125  42.157  22.747  1.00  0.00    -0.026 SA
ATOM     12  H2  UNL     1      23.426  43.377  20.140  1.00  0.00     0.169 HD
BRANCH  10  13
HETATM   13  C2  UNL     1      21.281  43.717  20.192  1.00  0.00     0.072 C 
HETATM   14  C1  UNL     1      20.401  42.952  19.274  1.00  0.00     0.088 C 
HETATM   15  N1  UNL     1      20.863  44.872  20.589  1.00  0.00    -0.389 N 
ATOM     16  H12 UNL     1      19.963  45.228  20.268  1.00  0.00     0.157 HD
ATOM     17  H11 UNL     1      21.468  45.398  21.219  1.00  0.00     0.157 HD
ENDBRANCH  10  13
ENDBRANCH   3   4
ENDBRANCH   2   3
ENDBRANCH   1   2
BRANCH   1  18
HETATM   18  S2  UNL     1      22.248  36.365  24.641  1.00  0.00    -0.153 SA
BRANCH  18  19
HETATM   19  C7  UNL     1      23.014  34.999  25.478  1.00  0.00     0.107 C 
BRANCH  19  20
HETATM   20  C8  UNL     1      24.478  34.784  25.232  1.00  0.00     0.134 C 
BRANCH  20  21
HETATM   21  O1  UNL     1      25.136  35.378  26.352  1.00  0.00    -0.394 OA
ATOM     22  H1  UNL     1      24.760  36.247  26.429  1.00  0.00     0.210 HD
ENDBRANCH  20  21
BRANCH  20  23
HETATM   23  C9  UNL     1      24.875  35.692  24.057  1.00  0.00     0.118 C 
BRANCH  23  24
HETATM   24  C10 UNL     1      26.336  35.860  23.964  1.00  0.00     0.185 C 
HETATM   25  O2  UNL     1      27.016  34.784  23.957  1.00  0.00    -0.290 OA
BRANCH  24  26
HETATM   26  C11 UNL     1      27.012  37.137  23.884  1.00  0.00     0.121 A 
HETATM   27  C12 UNL     1      27.299  37.943  24.985  1.00  0.00     0.043 A 
HETATM   28  C13 UNL     1      27.934  39.054  24.536  1.00  0.00     0.035 A 
HETATM   29  C14 UNL     1      28.029  38.920  23.166  1.00  0.00     0.050 A 
HETATM   30  C15 UNL     1      28.666  39.934  22.270  1.00  0.00     0.076 C 
HETATM   31  O3  UNL     1      27.470  37.777  22.854  1.00  0.00    -0.312 OA
ENDBRANCH  24  26
ENDBRANCH  23  24
ENDBRANCH  20  23
ENDBRANCH  19  20
ENDBRANCH  18  19
ENDBRANCH   1  18
BRANCH   1  32
HETATM   32  C16 UNL     1      23.307  38.451  26.001  1.00  0.00     0.137 C 
HETATM   33  C17 UNL     1      23.690  38.661  27.420  1.00  0.00     0.092 C 
HETATM   34  O4  UNL     1      24.085  38.842  25.138  1.00  0.00    -0.297 OA
ENDBRANCH   1  32
TORSDOF 12
ENDMDL
MODEL 4
REMARK VINA RESULT: -7.463012258      1.434      1.863
REMARK  12 active torsions:
REMARK  status: ('A' for Active; 'I' for Inactive)
REMARK    1  A    between atoms: C2_2  and  N2_6 
REMARK    2  A    between atoms: C4_13  and  S1_14 
REMARK    3  A    between atoms: S1_14  and  C5_15 
REMARK    4  A    between atoms: C5_15  and  C6_16 
REMARK    5  A    between atoms: C6_16  and  S2_17 
REMARK    6  A    between atoms: C6_16  and  C16_31 
REMARK    7  A    between atoms: S2_17  and  C7_18 
REMARK    8  A    between atoms: C7_18  and  C8_19 
REMARK    9  A    between atoms: C8_19  and  O1_20 
REMARK   10  A    between atoms: C8_19  and  C9_22 
REMARK   11  A    between atoms: C9_22  and  C10_23 
REMARK   12  A    between atoms: C10_23  and  C11_25 
ROOT
HETATM    1  C6  UNL     1      24.041  34.826  25.147  1.00  0.00     0.126 C 
ENDROOT
BRANCH   1   2
HETATM    2  C5  UNL     1      24.592  35.451  23.871  1.00  0.00     0.104 C 
BRANCH   2   3
HETATM    3  S1  UNL     1      26.376  35.538  23.845  1.00  0.00    -0.102 SA
BRANCH   3   4
HETATM    4  C4  UNL     1      26.991  37.171  24.213  1.00  0.00     0.130 A 
HETATM    5  N4  UNL     1      27.050  37.772  25.390  1.00  0.00    -0.286 N 
HETATM    6  N3  UNL     1      27.529  38.943  25.490  1.00  0.00    -0.278 N 
ATOM      7  H4  UNL     1      26.709  37.291  26.222  1.00  0.00     0.188 HD
HETATM    8  C3  UNL     1      27.971  39.562  24.398  1.00  0.00     0.167 A 
ATOM      9  H3  UNL     1      27.575  39.405  26.399  1.00  0.00     0.189 HD
HETATM   10  N2  UNL     1      28.498  40.757  24.256  1.00  0.00    -0.326 N 
HETATM   11  S3  UNL     1      27.663  38.361  23.190  1.00  0.00    -0.026 SA
ATOM     12  H2  UNL     1      28.636  41.395  25.040  1.00  0.00     0.169 HD
BRANCH  10  13
HETATM   13  C2  UNL     1      28.866  41.092  22.901  1.00  0.00     0.072 C 
HETATM   14  C1  UNL     1      30.170  40.704  22.309  1.00  0.00     0.088 C 
HETATM   15  N1  UNL     1      28.045  41.746  22.151  1.00  0.00    -0.389 N 
ATOM     16  H12 UNL     1      28.304  41.983  21.194  1.00  0.00     0.157 HD
ATOM     17  H11 UNL     1      27.148  42.013  22.558  1.00  0.00     0.157 HD
ENDBRANCH  10  13
ENDBRANCH   3   4
ENDBRANCH   2   3
ENDBRANCH   1   2
BRANCH   1  18
HETATM   18  S2  UNL     1      23.999  36.059  26.460  1.00  0.00    -0.153 SA
BRANCH  18  19
HETATM   19  C7  UNL     1      22.914  37.414  26.082  1.00  0.00     0.107 C 
BRANCH  19  20
HETATM   20  C8  UNL     1      23.498  38.793  26.146  1.00  0.00     0.134 C 
BRANCH  20  21
HETATM   21  O1  UNL     1      24.745  38.640  26.825  1.00  0.00    -0.394 OA
ATOM     22  H1  UNL     1      25.075  39.522  26.941  1.00  0.00     0.210 HD
ENDBRANCH  20  21
BRANCH  20  23
HETATM   23  C9  UNL     1      22.643  39.599  27.137  1.00  0.00     0.118 C 
BRANCH  23  24
HETATM   24  C10 UNL     1      21.481  40.221  26.478  1.00  0.00     0.185 C 
HETATM   25  O2  UNL     1      20.479  40.452  27.227  1.00  0.00    -0.290 OA
BRANCH  24  26
HETATM   26  C11 UNL     1      21.424  40.570  25.074  1.00  0.00     0.121 A 
HETATM   27  C12 UNL     1      21.775  41.819  24.561  1.00  0.00     0.043 A 
HETATM   28  C13 UNL     1      21.597  41.783  23.217  1.00  0.00     0.035 A 
HETATM   29  C14 UNL     1      21.139  40.517  22.919  1.00  0.00     0.050 A 
HETATM   30  C15 UNL     1      20.811  40.051  21.536  1.00  0.00     0.076 C 
HETATM   31  O3  UNL     1      21.061  39.862  24.051  1.00  0.00    -0.312 OA
ENDBRANCH  24  26
ENDBRANCH  23  24
ENDBRANCH  20  23
ENDBRANCH  19  20
ENDBRANCH  18  19
ENDBRANCH   1  18
BRANCH   1  32
HETATM   32  C16 UNL     1      22.763  34.154  24.988  1.00  0.00     0.137 C 
HETATM   33  C17 UNL     1      22.677  32.708  25.313  1.00  0.00     0.092 C 
HETATM   34  O4  UNL     1      21.743  34.712  24.600  1.00  0.00    -0.297 OA
ENDBRANCH   1  32
TORSDOF 12
ENDMDL
MODEL 5
REMARK VINA RESULT: -7.454098520      4.706      8.127
REMARK  12 active torsions:
REMARK  status: ('A' for Active; 'I' for Inactive)
REMARK    1  A    between atoms: C2_2  and  N2_6 
REMARK    2  A    between atoms: C4_13  and  S1_14 
REMARK    3  A    between atoms: S1_14  and  C5_15 
REMARK    4  A    between atoms: C5_15  and  C6_16 
REMARK    5  A    between atoms: C6_16  and  S2_17 
REMARK    6  A    between atoms: C6_16  and  C16_31 
REMARK    7  A    between atoms: S2_17  and  C7_18 
REMARK    8  A    between atoms: C7_18  and  C8_19 
REMARK    9  A    between atoms: C8_19  and  O1_20 
REMARK   10  A    between atoms: C8_19  and  C9_22 
REMARK   11  A    between atoms: C9_22  and  C10_23 
REMARK   12  A    between atoms: C10_23  and  C11_25 
ROOT
HETATM    1  C6  UNL     1      20.522  40.624  24.883  1.00  0.00     0.126 C 
ENDROOT
BRANCH   1   2
HETATM    2  C5  UNL     1      21.080  41.875  24.217  1.00  0.00     0.104 C 
BRANCH   2   3
HETATM    3  S1  UNL     1      22.328  41.522  22.988  1.00  0.00    -0.102 SA
BRANCH   3   4
HETATM    4  C4  UNL     1      21.630  41.113  21.399  1.00  0.00     0.130 A 
HETATM    5  N4  UNL     1      21.839  41.714  20.240  1.00  0.00    -0.286 N 
HETATM    6  N3  UNL     1      21.272  41.293  19.185  1.00  0.00    -0.278 N 
ATOM      7  H4  UNL     1      22.460  42.522  20.193  1.00  0.00     0.188 HD
HETATM    8  C3  UNL     1      20.462  40.239  19.257  1.00  0.00     0.167 A 
ATOM      9  H3  UNL     1      21.434  41.758  18.292  1.00  0.00     0.189 HD
HETATM   10  N2  UNL     1      19.774  39.634  18.317  1.00  0.00    -0.326 N 
HETATM   11  S3  UNL     1      20.554  39.868  20.946  1.00  0.00    -0.026 SA
ATOM     12  H2  UNL     1      19.787  39.936  17.342  1.00  0.00     0.169 HD
BRANCH  10  13
HETATM   13  C2  UNL     1      18.997  38.506  18.775  1.00  0.00     0.072 C 
HETATM   14  C1  UNL     1      19.591  37.164  18.992  1.00  0.00     0.088 C 
HETATM   15  N1  UNL     1      17.738  38.645  19.019  1.00  0.00    -0.389 N 
ATOM     16  H12 UNL     1      17.189  37.848  19.343  1.00  0.00     0.157 HD
ATOM     17  H11 UNL     1      17.329  39.567  18.870  1.00  0.00     0.157 HD
ENDBRANCH  10  13
ENDBRANCH   3   4
ENDBRANCH   2   3
ENDBRANCH   1   2
BRANCH   1  18
HETATM   18  S2  UNL     1      21.818  39.380  25.023  1.00  0.00    -0.153 SA
BRANCH  18  19
HETATM   19  C7  UNL     1      21.170  37.726  25.045  1.00  0.00     0.107 C 
BRANCH  19  20
HETATM   20  C8  UNL     1      22.037  36.646  24.470  1.00  0.00     0.134 C 
BRANCH  20  21
HETATM   21  O1  UNL     1      21.205  35.487  24.419  1.00  0.00    -0.394 OA
ATOM     22  H1  UNL     1      21.152  35.180  25.316  1.00  0.00     0.210 HD
ENDBRANCH  20  21
BRANCH  20  23
HETATM   23  C9  UNL     1      23.084  36.294  25.538  1.00  0.00     0.118 C 
BRANCH  23  24
HETATM   24  C10 UNL     1      24.209  35.530  24.970  1.00  0.00     0.185 C 
HETATM   25  O2  UNL     1      24.041  34.271  24.899  1.00  0.00    -0.290 OA
BRANCH  24  26
HETATM   26  C11 UNL     1      25.450  36.116  24.508  1.00  0.00     0.121 A 
HETATM   27  C12 UNL     1      26.315  35.506  23.601  1.00  0.00     0.043 A 
HETATM   28  C13 UNL     1      27.367  36.338  23.402  1.00  0.00     0.035 A 
HETATM   29  C14 UNL     1      27.138  37.448  24.188  1.00  0.00     0.050 A 
HETATM   30  C15 UNL     1      28.063  38.620  24.268  1.00  0.00     0.076 C 
HETATM   31  O3  UNL     1      26.001  37.250  24.807  1.00  0.00    -0.312 OA
ENDBRANCH  24  26
ENDBRANCH  23  24
ENDBRANCH  20  23
ENDBRANCH  19  20
ENDBRANCH  18  19
ENDBRANCH   1  18
BRANCH   1  32
HETATM   32  C16 UNL     1      19.853  40.859  26.150  1.00  0.00     0.137 C 
HETATM   33  C17 UNL     1      20.506  40.384  27.396  1.00  0.00     0.092 C 
HETATM   34  O4  UNL     1      18.774  41.431  26.255  1.00  0.00    -0.297 OA
ENDBRANCH   1  32
TORSDOF 12
ENDMDL
