MODEL 1
REMARK VINA RESULT: -7.153907719      0.000      0.000
REMARK  12 active torsions:
REMARK  status: ('A' for Active; 'I' for Inactive)
REMARK    1  A    between atoms: C2_2  and  C3_3 
REMARK    2  A    between atoms: C3_3  and  C4_4 
REMARK    3  A    between atoms: C4_4  and  C5_5 
REMARK    4  A    between atoms: C5_5  and  O1_6 
REMARK    5  A    between atoms: C5_5  and  C6_8 
REMARK    6  A    between atoms: C6_8  and  C7_9 
REMARK    7  A    between atoms: C7_9  and  S1_10 
REMARK    8  A    between atoms: S1_10  and  S2_11 
REMARK    9  A    between atoms: S2_11  and  C8_12 
REMARK   10  A    between atoms: C11_16  and  N2_17 
REMARK   11  A    between atoms: C14_22  and  N4_23 
REMARK   12  A    between atoms: C17_33  and  C18_34 
ROOT
HETATM    1  C8  UNL     1      20.583  41.251  23.684  1.00  0.00     0.137 C 
HETATM    2  C9  UNL     1      20.643  40.324  22.542  1.00  0.00     0.084 C 
HETATM    3  N1  UNL     1      20.701  39.605  21.633  1.00  0.00    -0.195 NA
HETATM    4  C10 UNL     1      21.204  40.628  24.927  1.00  0.00     0.093 C 
HETATM    5  C11 UNL     1      22.587  41.239  24.992  1.00  0.00     0.233 C 
HETATM    6  O2  UNL     1      22.756  41.855  23.781  1.00  0.00    -0.358 OA
HETATM    7  C17 UNL     1      21.519  42.391  23.417  1.00  0.00     0.157 C 
ENDROOT
BRANCH   1   8
HETATM    8  S2  UNL     1      18.911  41.687  24.092  1.00  0.00    -0.069 SA
BRANCH   8   9
HETATM    9  S1  UNL     1      18.710  41.640  26.206  1.00  0.00    -0.096 SA
BRANCH   9  10
HETATM   10  C7  UNL     1      17.215  40.721  26.530  1.00  0.00     0.088 C 
BRANCH  10  11
HETATM   11  C6  UNL     1      17.514  39.466  27.261  1.00  0.00     0.042 C 
BRANCH  11  12
HETATM   12  C5  UNL     1      16.420  38.808  28.002  1.00  0.00     0.118 C 
BRANCH  12  13
HETATM   13  C4  UNL     1      15.041  39.378  27.849  1.00  0.00     0.032 C 
BRANCH  13  14
HETATM   14  C3  UNL     1      14.694  40.086  29.161  1.00  0.00     0.002 C 
BRANCH  14  15
HETATM   15  C2  UNL     1      14.319  41.522  28.821  1.00  0.00    -0.004 C 
HETATM   16  C1  UNL     1      13.642  41.575  27.477  1.00  0.00     0.005 C 
ENDBRANCH  14  15
ENDBRANCH  13  14
ENDBRANCH  12  13
BRANCH  12  17
HETATM   17  O1  UNL     1      16.709  38.501  29.338  1.00  0.00    -0.396 OA
ATOM     18  H1  UNL     1      16.951  37.588  29.444  1.00  0.00     0.210 HD
ENDBRANCH  12  17
ENDBRANCH  11  12
ENDBRANCH  10  11
ENDBRANCH   9  10
ENDBRANCH   8   9
ENDBRANCH   1   8
BRANCH   7  19
HETATM   19  C18 UNL     1      21.638  42.668  21.915  1.00  0.00     0.030 C 
HETATM   20  C19 UNL     1      23.095  42.514  21.538  1.00  0.00     0.007 C 
ENDBRANCH   7  19
BRANCH   5  21
HETATM   21  N2  UNL     1      23.563  40.188  25.225  1.00  0.00    -0.300 N 
HETATM   22  C12 UNL     1      23.299  39.094  25.961  1.00  0.00     0.188 A 
HETATM   23  N3  UNL     1      24.405  38.297  25.995  1.00  0.00    -0.346 N 
HETATM   24  C13 UNL     1      25.372  38.876  25.286  1.00  0.00     0.122 A 
ATOM     25  H3  UNL     1      24.479  37.404  26.483  1.00  0.00     0.167 HD
HETATM   26  C14 UNL     1      26.668  38.507  24.999  1.00  0.00     0.131 A 
HETATM   27  C16 UNL     1      24.824  40.062  24.808  1.00  0.00     0.142 A 
HETATM   28  N5  UNL     1      27.405  39.328  24.237  1.00  0.00    -0.337 N 
HETATM   29  C15 UNL     1      26.857  40.490  23.774  1.00  0.00     0.183 A 
ATOM     30  H5  UNL     1      28.369  39.087  24.005  1.00  0.00     0.168 HD
HETATM   31  N6  UNL     1      25.590  40.846  24.058  1.00  0.00    -0.336 N 
ATOM     32  H6  UNL     1      25.216  41.723  23.695  1.00  0.00     0.168 HD
BRANCH  26  33
HETATM   33  N4  UNL     1      27.219  37.422  25.415  1.00  0.00    -0.383 N 
ATOM     34  H42 UNL     1      27.102  37.178  26.398  1.00  0.00     0.157 HD
ATOM     35  H41 UNL     1      27.765  36.794  24.825  1.00  0.00     0.157 HD
ENDBRANCH  26  33
ENDBRANCH   5  21
TORSDOF 12
ENDMDL
MODEL 2
REMARK VINA RESULT: -7.088488696      4.278      8.582
REMARK  12 active torsions:
REMARK  status: ('A' for Active; 'I' for Inactive)
REMARK    1  A    between atoms: C2_2  and  C3_3 
REMARK    2  A    between atoms: C3_3  and  C4_4 
REMARK    3  A    between atoms: C4_4  and  C5_5 
REMARK    4  A    between atoms: C5_5  and  O1_6 
REMARK    5  A    between atoms: C5_5  and  C6_8 
REMARK    6  A    between atoms: C6_8  and  C7_9 
REMARK    7  A    between atoms: C7_9  and  S1_10 
REMARK    8  A    between atoms: S1_10  and  S2_11 
REMARK    9  A    between atoms: S2_11  and  C8_12 
REMARK   10  A    between atoms: C11_16  and  N2_17 
REMARK   11  A    between atoms: C14_22  and  N4_23 
REMARK   12  A    between atoms: C17_33  and  C18_34 
ROOT
HETATM    1  C8  UNL     1      21.930  40.022  24.695  1.00  0.00     0.137 C 
HETATM    2  C9  UNL     1      21.359  40.078  23.339  1.00  0.00     0.084 C 
HETATM    3  N1  UNL     1      20.906  40.105  22.272  1.00  0.00    -0.195 NA
HETATM    4  C10 UNL     1      21.181  40.952  25.641  1.00  0.00     0.093 C 
HETATM    5  C11 UNL     1      20.253  40.030  26.404  1.00  0.00     0.233 C 
HETATM    6  O2  UNL     1      20.305  38.842  25.727  1.00  0.00    -0.358 OA
HETATM    7  C17 UNL     1      21.619  38.678  25.283  1.00  0.00     0.157 C 
ENDROOT
BRANCH   1   8
HETATM    8  S2  UNL     1      23.635  40.513  24.714  1.00  0.00    -0.069 SA
BRANCH   8   9
HETATM    9  S1  UNL     1      24.747  39.012  25.726  1.00  0.00    -0.096 SA
BRANCH   9  10
HETATM   10  C7  UNL     1      25.950  38.423  24.547  1.00  0.00     0.088 C 
BRANCH  10  11
HETATM   11  C6  UNL     1      26.354  37.030  24.854  1.00  0.00     0.042 C 
BRANCH  11  12
HETATM   12  C5  UNL     1      25.849  35.947  23.987  1.00  0.00     0.118 C 
BRANCH  12  13
HETATM   13  C4  UNL     1      24.468  35.427  24.263  1.00  0.00     0.032 C 
BRANCH  13  14
HETATM   14  C3  UNL     1      24.316  35.326  25.783  1.00  0.00     0.002 C 
BRANCH  14  15
HETATM   15  C2  UNL     1      23.761  33.944  26.096  1.00  0.00    -0.004 C 
HETATM   16  C1  UNL     1      22.825  33.502  25.003  1.00  0.00     0.005 C 
ENDBRANCH  14  15
ENDBRANCH  13  14
ENDBRANCH  12  13
BRANCH  12  17
HETATM   17  O1  UNL     1      26.756  34.907  23.749  1.00  0.00    -0.396 OA
ATOM     18  H1  UNL     1      27.512  35.205  23.255  1.00  0.00     0.210 HD
ENDBRANCH  12  17
ENDBRANCH  11  12
ENDBRANCH  10  11
ENDBRANCH   9  10
ENDBRANCH   8   9
ENDBRANCH   1   8
BRANCH   7  19
HETATM   19  C18 UNL     1      21.534  37.605  24.194  1.00  0.00     0.030 C 
HETATM   20  C19 UNL     1      20.873  36.389  24.803  1.00  0.00     0.007 C 
ENDBRANCH   7  19
BRANCH   5  21
HETATM   21  N2  UNL     1      18.919  40.604  26.422  1.00  0.00    -0.300 N 
HETATM   22  C12 UNL     1      18.647  41.839  25.963  1.00  0.00     0.188 A 
HETATM   23  N3  UNL     1      17.315  42.091  26.113  1.00  0.00    -0.346 N 
HETATM   24  C13 UNL     1      16.738  41.027  26.667  1.00  0.00     0.122 A 
ATOM     25  H3  UNL     1      16.840  42.953  25.846  1.00  0.00     0.167 HD
HETATM   26  C14 UNL     1      15.438  40.754  27.031  1.00  0.00     0.131 A 
HETATM   27  C16 UNL     1      17.760  40.103  26.853  1.00  0.00     0.142 A 
HETATM   28  N5  UNL     1      15.171  39.559  27.579  1.00  0.00    -0.337 N 
HETATM   29  C15 UNL     1      16.183  38.660  27.756  1.00  0.00     0.183 A 
ATOM     30  H5  UNL     1      14.220  39.323  27.860  1.00  0.00     0.168 HD
HETATM   31  N6  UNL     1      17.453  38.932  27.399  1.00  0.00    -0.336 N 
ATOM     32  H6  UNL     1      18.182  38.234  27.549  1.00  0.00     0.168 HD
BRANCH  26  33
HETATM   33  N4  UNL     1      14.458  41.574  26.879  1.00  0.00    -0.383 N 
ATOM     34  H42 UNL     1      13.951  41.866  27.714  1.00  0.00     0.157 HD
ATOM     35  H41 UNL     1      14.157  41.946  25.978  1.00  0.00     0.157 HD
ENDBRANCH  26  33
ENDBRANCH   5  21
TORSDOF 12
ENDMDL
MODEL 3
REMARK VINA RESULT: -7.088224639      3.928      7.831
REMARK  12 active torsions:
REMARK  status: ('A' for Active; 'I' for Inactive)
REMARK    1  A    between atoms: C2_2  and  C3_3 
REMARK    2  A    between atoms: C3_3  and  C4_4 
REMARK    3  A    between atoms: C4_4  and  C5_5 
REMARK    4  A    between atoms: C5_5  and  O1_6 
REMARK    5  A    between atoms: C5_5  and  C6_8 
REMARK    6  A    between atoms: C6_8  and  C7_9 
REMARK    7  A    between atoms: C7_9  and  S1_10 
REMARK    8  A    between atoms: S1_10  and  S2_11 
REMARK    9  A    between atoms: S2_11  and  C8_12 
REMARK   10  A    between atoms: C11_16  and  N2_17 
REMARK   11  A    between atoms: C14_22  and  N4_23 
REMARK   12  A    between atoms: C17_33  and  C18_34 
ROOT
HETATM    1  C8  UNL     1      22.462  40.112  24.700  1.00  0.00     0.137 C 
HETATM    2  C9  UNL     1      21.891  38.818  24.293  1.00  0.00     0.084 C 
HETATM    3  N1  UNL     1      21.424  37.803  23.980  1.00  0.00    -0.195 NA
HETATM    4  C10 UNL     1      22.946  40.899  23.489  1.00  0.00     0.093 C 
HETATM    5  C11 UNL     1      21.839  41.899  23.234  1.00  0.00     0.233 C 
HETATM    6  O2  UNL     1      20.799  41.478  24.018  1.00  0.00    -0.358 OA
HETATM    7  C17 UNL     1      21.350  40.983  25.202  1.00  0.00     0.157 C 
ENDROOT
BRANCH   1   8
HETATM    8  S2  UNL     1      23.852  39.909  25.786  1.00  0.00    -0.069 SA
BRANCH   8   9
HETATM    9  S1  UNL     1      25.611  39.808  24.601  1.00  0.00    -0.096 SA
BRANCH   9  10
HETATM   10  C7  UNL     1      26.552  38.436  25.246  1.00  0.00     0.088 C 
BRANCH  10  11
HETATM   11  C6  UNL     1      26.806  37.426  24.191  1.00  0.00     0.042 C 
BRANCH  11  12
HETATM   12  C5  UNL     1      25.953  36.221  24.153  1.00  0.00     0.118 C 
BRANCH  12  13
HETATM   13  C4  UNL     1      24.802  36.158  25.114  1.00  0.00     0.032 C 
BRANCH  13  14
HETATM   14  C3  UNL     1      23.843  35.080  24.604  1.00  0.00     0.002 C 
BRANCH  14  15
HETATM   15  C2  UNL     1      23.632  34.083  25.735  1.00  0.00    -0.004 C 
HETATM   16  C1  UNL     1      22.679  33.001  25.299  1.00  0.00     0.005 C 
ENDBRANCH  14  15
ENDBRANCH  13  14
ENDBRANCH  12  13
BRANCH  12  17
HETATM   17  O1  UNL     1      26.647  35.005  24.094  1.00  0.00    -0.396 OA
ATOM     18  H1  UNL     1      27.586  35.133  24.159  1.00  0.00     0.210 HD
ENDBRANCH  12  17
ENDBRANCH  11  12
ENDBRANCH  10  11
ENDBRANCH   9  10
ENDBRANCH   8   9
ENDBRANCH   1   8
BRANCH   7  19
HETATM   19  C18 UNL     1      20.235  40.145  25.834  1.00  0.00     0.030 C 
HETATM   20  C19 UNL     1      20.205  40.468  27.312  1.00  0.00     0.007 C 
ENDBRANCH   7  19
BRANCH   5  21
HETATM   21  N2  UNL     1      21.509  41.896  21.820  1.00  0.00    -0.300 N 
HETATM   22  C12 UNL     1      21.563  42.999  21.052  1.00  0.00     0.188 A 
HETATM   23  N3  UNL     1      21.201  42.679  19.777  1.00  0.00    -0.346 N 
HETATM   24  C13 UNL     1      20.914  41.380  19.727  1.00  0.00     0.122 A 
ATOM     25  H3  UNL     1      21.156  43.328  18.992  1.00  0.00     0.167 HD
HETATM   26  C14 UNL     1      20.501  40.554  18.705  1.00  0.00     0.131 A 
HETATM   27  C16 UNL     1      21.115  40.904  21.019  1.00  0.00     0.142 A 
HETATM   28  N5  UNL     1      20.293  39.259  18.983  1.00  0.00    -0.337 N 
HETATM   29  C15 UNL     1      20.492  38.803  20.255  1.00  0.00     0.183 A 
ATOM     30  H5  UNL     1      19.987  38.618  18.251  1.00  0.00     0.168 HD
HETATM   31  N6  UNL     1      20.895  39.615  21.251  1.00  0.00    -0.336 N 
ATOM     32  H6  UNL     1      21.033  39.238  22.189  1.00  0.00     0.168 HD
BRANCH  26  33
HETATM   33  N4  UNL     1      20.303  40.945  17.496  1.00  0.00    -0.383 N 
ATOM     34  H42 UNL     1      21.123  41.142  16.922  1.00  0.00     0.157 HD
ATOM     35  H41 UNL     1      19.381  41.069  17.078  1.00  0.00     0.157 HD
ENDBRANCH  26  33
ENDBRANCH   5  21
TORSDOF 12
ENDMDL
MODEL 4
REMARK VINA RESULT: -7.052465865      3.564      6.227
REMARK  12 active torsions:
REMARK  status: ('A' for Active; 'I' for Inactive)
REMARK    1  A    between atoms: C2_2  and  C3_3 
REMARK    2  A    between atoms: C3_3  and  C4_4 
REMARK    3  A    between atoms: C4_4  and  C5_5 
REMARK    4  A    between atoms: C5_5  and  O1_6 
REMARK    5  A    between atoms: C5_5  and  C6_8 
REMARK    6  A    between atoms: C6_8  and  C7_9 
REMARK    7  A    between atoms: C7_9  and  S1_10 
REMARK    8  A    between atoms: S1_10  and  S2_11 
REMARK    9  A    between atoms: S2_11  and  C8_12 
REMARK   10  A    between atoms: C11_16  and  N2_17 
REMARK   11  A    between atoms: C14_22  and  N4_23 
REMARK   12  A    between atoms: C17_33  and  C18_34 
ROOT
HETATM    1  C8  UNL     1      21.143  40.224  24.726  1.00  0.00     0.137 C 
HETATM    2  C9  UNL     1      22.389  40.980  24.937  1.00  0.00     0.084 C 
HETATM    3  N1  UNL     1      23.368  41.573  25.121  1.00  0.00    -0.195 NA
HETATM    4  C10 UNL     1      21.401  38.965  23.909  1.00  0.00     0.093 C 
HETATM    5  C11 UNL     1      21.449  37.860  24.942  1.00  0.00     0.233 C 
HETATM    6  O2  UNL     1      21.511  38.508  26.146  1.00  0.00    -0.358 OA
HETATM    7  C17 UNL     1      20.712  39.648  26.041  1.00  0.00     0.157 C 
ENDROOT
BRANCH   1   8
HETATM    8  S2  UNL     1      19.930  41.181  23.852  1.00  0.00    -0.069 SA
BRANCH   8   9
HETATM    9  S1  UNL     1      20.940  42.396  22.433  1.00  0.00    -0.096 SA
BRANCH   9  10
HETATM   10  C7  UNL     1      21.331  41.320  21.065  1.00  0.00     0.088 C 
BRANCH  10  11
HETATM   11  C6  UNL     1      20.122  41.030  20.257  1.00  0.00     0.042 C 
BRANCH  11  12
HETATM   12  C5  UNL     1      20.142  39.859  19.359  1.00  0.00     0.118 C 
BRANCH  12  13
HETATM   13  C4  UNL     1      20.494  38.531  19.961  1.00  0.00     0.032 C 
BRANCH  13  14
HETATM   14  C3  UNL     1      19.766  37.457  19.151  1.00  0.00     0.002 C 
BRANCH  14  15
HETATM   15  C2  UNL     1      20.156  36.104  19.730  1.00  0.00    -0.004 C 
HETATM   16  C1  UNL     1      21.318  36.261  20.674  1.00  0.00     0.005 C 
ENDBRANCH  14  15
ENDBRANCH  13  14
ENDBRANCH  12  13
BRANCH  12  17
HETATM   17  O1  UNL     1      20.793  40.062  18.135  1.00  0.00    -0.396 OA
ATOM     18  H1  UNL     1      21.710  40.280  18.256  1.00  0.00     0.210 HD
ENDBRANCH  12  17
ENDBRANCH  11  12
ENDBRANCH  10  11
ENDBRANCH   9  10
ENDBRANCH   8   9
ENDBRANCH   1   8
BRANCH   7  19
HETATM   19  C18 UNL     1      21.149  40.542  27.206  1.00  0.00     0.030 C 
HETATM   20  C19 UNL     1      22.244  39.814  27.953  1.00  0.00     0.007 C 
ENDBRANCH   7  19
BRANCH   5  21
HETATM   21  N2  UNL     1      22.613  37.026  24.696  1.00  0.00    -0.300 N 
HETATM   22  C12 UNL     1      22.528  35.776  24.208  1.00  0.00     0.188 A 
HETATM   23  N3  UNL     1      23.783  35.254  24.086  1.00  0.00    -0.346 N 
HETATM   24  C13 UNL     1      24.666  36.163  24.494  1.00  0.00     0.122 A 
ATOM     25  H3  UNL     1      24.007  34.322  23.739  1.00  0.00     0.167 HD
HETATM   26  C14 UNL     1      26.040  36.156  24.581  1.00  0.00     0.131 A 
HETATM   27  C16 UNL     1      23.913  37.270  24.872  1.00  0.00     0.142 A 
HETATM   28  N5  UNL     1      26.651  37.256  25.045  1.00  0.00    -0.337 N 
HETATM   29  C15 UNL     1      25.902  38.337  25.413  1.00  0.00     0.183 A 
ATOM     30  H5  UNL     1      27.667  37.286  25.122  1.00  0.00     0.168 HD
HETATM   31  N6  UNL     1      24.558  38.338  25.327  1.00  0.00    -0.336 N 
ATOM     32  H6  UNL     1      24.033  39.165  25.613  1.00  0.00     0.168 HD
BRANCH  26  33
HETATM   33  N4  UNL     1      26.780  35.160  24.243  1.00  0.00    -0.383 N 
ATOM     34  H42 UNL     1      26.325  34.359  23.804  1.00  0.00     0.157 HD
ATOM     35  H41 UNL     1      27.789  35.120  24.388  1.00  0.00     0.157 HD
ENDBRANCH  26  33
ENDBRANCH   5  21
TORSDOF 12
ENDMDL
MODEL 5
REMARK VINA RESULT: -7.052145542      3.923      9.809
REMARK  12 active torsions:
REMARK  status: ('A' for Active; 'I' for Inactive)
REMARK    1  A    between atoms: C2_2  and  C3_3 
REMARK    2  A    between atoms: C3_3  and  C4_4 
REMARK    3  A    between atoms: C4_4  and  C5_5 
REMARK    4  A    between atoms: C5_5  and  O1_6 
REMARK    5  A    between atoms: C5_5  and  C6_8 
REMARK    6  A    between atoms: C6_8  and  C7_9 
REMARK    7  A    between atoms: C7_9  and  S1_10 
REMARK    8  A    between atoms: S1_10  and  S2_11 
REMARK    9  A    between atoms: S2_11  and  C8_12 
REMARK   10  A    between atoms: C11_16  and  N2_17 
REMARK   11  A    between atoms: C14_22  and  N4_23 
REMARK   12  A    between atoms: C17_33  and  C18_34 
ROOT
HETATM    1  C8  UNL     1      21.861  40.022  24.758  1.00  0.00     0.137 C 
HETATM    2  C9  UNL     1      21.282  39.932  23.408  1.00  0.00     0.084 C 
HETATM    3  N1  UNL     1      20.823  39.843  22.346  1.00  0.00    -0.195 NA
HETATM    4  C10 UNL     1      21.090  41.016  25.617  1.00  0.00     0.093 C 
HETATM    5  C11 UNL     1      20.194  40.144  26.472  1.00  0.00     0.233 C 
HETATM    6  O2  UNL     1      20.278  38.899  25.911  1.00  0.00    -0.358 OA
HETATM    7  C17 UNL     1      21.594  38.732  25.474  1.00  0.00     0.157 C 
ENDROOT
BRANCH   1   8
HETATM    8  S2  UNL     1      23.552  40.562  24.717  1.00  0.00    -0.069 SA
BRANCH   8   9
HETATM    9  S1  UNL     1      24.782  38.939  25.322  1.00  0.00    -0.096 SA
BRANCH   9  10
HETATM   10  C7  UNL     1      26.396  39.276  24.640  1.00  0.00     0.088 C 
BRANCH  10  11
HETATM   11  C6  UNL     1      26.417  40.590  23.954  1.00  0.00     0.042 C 
BRANCH  11  12
HETATM   12  C5  UNL     1      27.721  41.143  23.536  1.00  0.00     0.118 C 
BRANCH  12  13
HETATM   13  C4  UNL     1      28.883  40.196  23.465  1.00  0.00     0.032 C 
BRANCH  13  14
HETATM   14  C3  UNL     1      29.135  39.897  21.985  1.00  0.00     0.002 C 
BRANCH  14  15
HETATM   15  C2  UNL     1      30.558  40.334  21.667  1.00  0.00    -0.004 C 
HETATM   16  C1  UNL     1      31.284  40.699  22.935  1.00  0.00     0.005 C 
ENDBRANCH  14  15
ENDBRANCH  13  14
ENDBRANCH  12  13
BRANCH  12  17
HETATM   17  O1  UNL     1      28.075  42.352  24.148  1.00  0.00    -0.396 OA
ATOM     18  H1  UNL     1      27.392  43.006  24.056  1.00  0.00     0.210 HD
ENDBRANCH  12  17
ENDBRANCH  11  12
ENDBRANCH  10  11
ENDBRANCH   9  10
ENDBRANCH   8   9
ENDBRANCH   1   8
BRANCH   7  19
HETATM   19  C18 UNL     1      21.535  37.558  24.493  1.00  0.00     0.030 C 
HETATM   20  C19 UNL     1      22.122  36.351  25.191  1.00  0.00     0.007 C 
ENDBRANCH   7  19
BRANCH   5  21
HETATM   21  N2  UNL     1      18.844  40.679  26.447  1.00  0.00    -0.300 N 
HETATM   22  C12 UNL     1      18.548  41.898  25.961  1.00  0.00     0.188 A 
HETATM   23  N3  UNL     1      17.205  42.112  26.073  1.00  0.00    -0.346 N 
HETATM   24  C13 UNL     1      16.645  41.040  26.627  1.00  0.00     0.122 A 
ATOM     25  H3  UNL     1      16.713  42.956  25.779  1.00  0.00     0.167 HD
HETATM   26  C14 UNL     1      15.344  40.734  26.961  1.00  0.00     0.131 A 
HETATM   27  C16 UNL     1      17.689  40.149  26.854  1.00  0.00     0.142 A 
HETATM   28  N5  UNL     1      15.099  39.539  27.519  1.00  0.00    -0.337 N 
HETATM   29  C15 UNL     1      16.132  38.673  27.738  1.00  0.00     0.183 A 
ATOM     30  H5  UNL     1      14.147  39.279  27.779  1.00  0.00     0.168 HD
HETATM   31  N6  UNL     1      17.402  38.977  27.410  1.00  0.00    -0.336 N 
ATOM     32  H6  UNL     1      18.147  38.305  27.590  1.00  0.00     0.168 HD
BRANCH  26  33
HETATM   33  N4  UNL     1      14.345  41.521  26.771  1.00  0.00    -0.383 N 
ATOM     34  H42 UNL     1      14.067  42.128  27.541  1.00  0.00     0.157 HD
ATOM     35  H41 UNL     1      13.815  41.574  25.901  1.00  0.00     0.157 HD
ENDBRANCH  26  33
ENDBRANCH   5  21
TORSDOF 12
ENDMDL
