MODEL 1
REMARK VINA RESULT: -5.955603301      0.000      0.000
REMARK  8 active torsions:
REMARK  status: ('A' for Active; 'I' for Inactive)
REMARK    1  A    between atoms: C2_2  and  C4_4 
REMARK    2  A    between atoms: C4_4  and  C5_5 
REMARK    3  A    between atoms: C5_5  and  O1_6 
REMARK    4  A    between atoms: C5_5  and  C6_8 
REMARK    5  A    between atoms: C5_5  and  N3_21 
REMARK    6  A    between atoms: C10_13  and  C11_14 
REMARK    7  A    between atoms: C11_14  and  N1_15 
REMARK    8  A    between atoms: N1_15  and  C13_17 
ROOT
HETATM    1  C6  UNL     1      -5.553 -37.149   2.830  1.00  0.00     0.009 A 
HETATM    2  C7  UNL     1      -5.923 -37.582   4.083  1.00  0.00     0.036 A 
HETATM    3  C8  UNL     1      -6.930 -36.951   4.763  1.00  0.00     0.035 A 
HETATM    4 CL1  UNL     1      -7.436 -37.471   6.372  1.00  0.00    -0.084 Cl
HETATM    5  C9  UNL     1      -7.618 -35.864   4.234  1.00  0.00     0.032 A 
HETATM    6  C10 UNL     1      -7.270 -35.417   2.997  1.00  0.00    -0.038 A 
HETATM    7  C14 UNL     1      -6.232 -36.082   2.319  1.00  0.00     0.021 A 
ENDROOT
BRANCH   1   8
HETATM    8  C5  UNL     1      -4.452 -37.830   2.073  1.00  0.00     0.287 C 
BRANCH   8   9
HETATM    9  C4  UNL     1      -4.415 -39.305   2.336  1.00  0.00     0.081 C 
BRANCH   9  10
HETATM   10  C2  UNL     1      -5.114 -40.140   1.316  1.00  0.00    -0.018 C 
HETATM   11  C1  UNL     1      -6.338 -40.751   2.005  1.00  0.00     0.009 C 
HETATM   12  C3  UNL     1      -4.224 -41.337   0.960  1.00  0.00     0.009 C 
ENDBRANCH   9  10
ENDBRANCH   8   9
BRANCH   8  13
HETATM   13  O1  UNL     1      -4.563 -37.508   0.751  1.00  0.00    -0.359 OA
ATOM     14  H1  UNL     1      -4.515 -36.576   0.577  1.00  0.00     0.213 HD
ENDBRANCH   8  13
BRANCH   8  15
HETATM   15  N3  UNL     1      -3.197 -37.274   2.562  1.00  0.00     0.128 N 
HETATM   16  C15 UNL     1      -2.341 -36.776   1.545  1.00  0.00     0.277 C 
HETATM   17  C16 UNL     1      -1.010 -36.616   2.272  1.00  0.00     0.032 C 
HETATM   18  C17 UNL     1      -0.954 -37.853   3.120  1.00  0.00     0.032 C 
HETATM   19  C18 UNL     1      -2.394 -38.261   3.233  1.00  0.00     0.277 C 
ENDBRANCH   8  15
ENDBRANCH   1   8
BRANCH   6  20
HETATM   20  C11 UNL     1      -7.924 -34.268   2.339  1.00  0.00     0.162 C 
BRANCH  20  21
HETATM   21  N1  UNL     1      -8.307 -33.174   3.182  1.00  0.00    -0.361 N 
HETATM   22  C12 UNL     1      -9.629 -33.126   3.748  1.00  0.00     0.152 C 
BRANCH  21  23
HETATM   23  C13 UNL     1      -7.402 -32.130   3.488  1.00  0.00     0.183 C 
HETATM   24  N2  UNL     1      -7.077 -31.172   2.505  1.00  0.00    -0.070 NA
HETATM   25  S1  UNL     1      -6.737 -32.028   4.957  1.00  0.00    -0.044 SA
ENDBRANCH  21  23
ENDBRANCH  20  21
ENDBRANCH   6  20
TORSDOF 8
ENDMDL
MODEL 2
REMARK VINA RESULT: -5.831632940      0.950      1.156
REMARK  8 active torsions:
REMARK  status: ('A' for Active; 'I' for Inactive)
REMARK    1  A    between atoms: C2_2  and  C4_4 
REMARK    2  A    between atoms: C4_4  and  C5_5 
REMARK    3  A    between atoms: C5_5  and  O1_6 
REMARK    4  A    between atoms: C5_5  and  C6_8 
REMARK    5  A    between atoms: C5_5  and  N3_21 
REMARK    6  A    between atoms: C10_13  and  C11_14 
REMARK    7  A    between atoms: C11_14  and  N1_15 
REMARK    8  A    between atoms: N1_15  and  C13_17 
ROOT
HETATM    1  C6  UNL     1      -5.627 -37.084   2.753  1.00  0.00     0.009 A 
HETATM    2  C7  UNL     1      -6.110 -37.539   3.959  1.00  0.00     0.036 A 
HETATM    3  C8  UNL     1      -7.120 -36.868   4.596  1.00  0.00     0.035 A 
HETATM    4 CL1  UNL     1      -7.767 -37.414   6.145  1.00  0.00    -0.084 Cl
HETATM    5  C9  UNL     1      -7.700 -35.720   4.069  1.00  0.00     0.032 A 
HETATM    6  C10 UNL     1      -7.239 -35.251   2.877  1.00  0.00    -0.038 A 
HETATM    7  C14 UNL     1      -6.201 -35.957   2.242  1.00  0.00     0.021 A 
ENDROOT
BRANCH   1   8
HETATM    8  C5  UNL     1      -4.522 -37.808   2.043  1.00  0.00     0.287 C 
BRANCH   8   9
HETATM    9  C4  UNL     1      -4.527 -39.277   2.340  1.00  0.00     0.081 C 
BRANCH   9  10
HETATM   10  C2  UNL     1      -5.203 -40.121   1.311  1.00  0.00    -0.018 C 
HETATM   11  C1  UNL     1      -6.412 -40.768   1.992  1.00  0.00     0.009 C 
HETATM   12  C3  UNL     1      -4.283 -41.291   0.945  1.00  0.00     0.009 C 
ENDBRANCH   9  10
ENDBRANCH   8   9
BRANCH   8  13
HETATM   13  O1  UNL     1      -4.587 -37.514   0.712  1.00  0.00    -0.359 OA
ATOM     14  H1  UNL     1      -4.456 -36.594   0.515  1.00  0.00     0.213 HD
ENDBRANCH   8  13
BRANCH   8  15
HETATM   15  N3  UNL     1      -3.268 -37.271   2.556  1.00  0.00     0.128 N 
HETATM   16  C15 UNL     1      -2.385 -36.786   1.556  1.00  0.00     0.277 C 
HETATM   17  C16 UNL     1      -1.067 -36.645   2.308  1.00  0.00     0.032 C 
HETATM   18  C17 UNL     1      -1.045 -37.882   3.158  1.00  0.00     0.032 C 
HETATM   19  C18 UNL     1      -2.493 -38.269   3.243  1.00  0.00     0.277 C 
ENDBRANCH   8  15
ENDBRANCH   1   8
BRANCH   6  20
HETATM   20  C11 UNL     1      -7.772 -34.038   2.225  1.00  0.00     0.162 C 
BRANCH  20  21
HETATM   21  N1  UNL     1      -7.906 -32.871   3.046  1.00  0.00    -0.361 N 
HETATM   22  C12 UNL     1      -6.750 -32.298   3.682  1.00  0.00     0.152 C 
BRANCH  21  23
HETATM   23  C13 UNL     1      -9.162 -32.249   3.240  1.00  0.00     0.183 C 
HETATM   24  N2  UNL     1      -9.498 -31.099   2.494  1.00  0.00    -0.070 NA
HETATM   25  S1  UNL     1     -10.215 -32.845   4.311  1.00  0.00    -0.044 SA
ENDBRANCH  21  23
ENDBRANCH  20  21
ENDBRANCH   6  20
TORSDOF 8
ENDMDL
MODEL 3
REMARK VINA RESULT: -5.627262728      4.159      7.499
REMARK  8 active torsions:
REMARK  status: ('A' for Active; 'I' for Inactive)
REMARK    1  A    between atoms: C2_2  and  C4_4 
REMARK    2  A    between atoms: C4_4  and  C5_5 
REMARK    3  A    between atoms: C5_5  and  O1_6 
REMARK    4  A    between atoms: C5_5  and  C6_8 
REMARK    5  A    between atoms: C5_5  and  N3_21 
REMARK    6  A    between atoms: C10_13  and  C11_14 
REMARK    7  A    between atoms: C11_14  and  N1_15 
REMARK    8  A    between atoms: N1_15  and  C13_17 
ROOT
HETATM    1  C6  UNL     1      -3.869 -40.198   2.194  1.00  0.00     0.009 A 
HETATM    2  C7  UNL     1      -3.170 -40.794   3.219  1.00  0.00     0.036 A 
HETATM    3  C8  UNL     1      -2.734 -42.087   3.099  1.00  0.00     0.035 A 
HETATM    4 CL1  UNL     1      -1.837 -42.891   4.389  1.00  0.00    -0.084 Cl
HETATM    5  C9  UNL     1      -2.967 -42.848   1.959  1.00  0.00     0.032 A 
HETATM    6  C10 UNL     1      -3.656 -42.280   0.932  1.00  0.00    -0.038 A 
HETATM    7  C14 UNL     1      -4.094 -40.952   1.079  1.00  0.00     0.021 A 
ENDROOT
BRANCH   1   8
HETATM    8  C5  UNL     1      -4.352 -38.784   2.311  1.00  0.00     0.287 C 
BRANCH   8   9
HETATM    9  C4  UNL     1      -3.312 -37.878   2.898  1.00  0.00     0.081 C 
BRANCH   9  10
HETATM   10  C2  UNL     1      -2.093 -37.698   2.057  1.00  0.00    -0.018 C 
HETATM   11  C1  UNL     1      -0.900 -37.624   3.014  1.00  0.00     0.009 C 
HETATM   12  C3  UNL     1      -2.149 -36.319   1.388  1.00  0.00     0.009 C 
ENDBRANCH   9  10
ENDBRANCH   8   9
BRANCH   8  13
HETATM   13  O1  UNL     1      -4.816 -38.375   1.094  1.00  0.00    -0.359 OA
ATOM     14  H1  UNL     1      -5.619 -38.805   0.824  1.00  0.00     0.213 HD
ENDBRANCH   8  13
BRANCH   8  15
HETATM   15  N3  UNL     1      -5.480 -38.798   3.234  1.00  0.00     0.128 N 
HETATM   16  C15 UNL     1      -6.686 -38.281   2.694  1.00  0.00     0.277 C 
HETATM   17  C16 UNL     1      -7.550 -38.074   3.933  1.00  0.00     0.032 C 
HETATM   18  C17 UNL     1      -6.569 -37.516   4.922  1.00  0.00     0.032 C 
HETATM   19  C18 UNL     1      -5.243 -37.976   4.391  1.00  0.00     0.277 C 
ENDBRANCH   8  15
ENDBRANCH   1   8
BRANCH   6  20
HETATM   20  C11 UNL     1      -3.969 -42.994  -0.323  1.00  0.00     0.162 C 
BRANCH  20  21
HETATM   21  N1  UNL     1      -5.271 -43.583  -0.422  1.00  0.00    -0.361 N 
HETATM   22  C12 UNL     1      -5.503 -44.913   0.077  1.00  0.00     0.152 C 
BRANCH  21  23
HETATM   23  C13 UNL     1      -6.356 -42.878  -0.994  1.00  0.00     0.183 C 
HETATM   24  N2  UNL     1      -6.447 -42.747  -2.396  1.00  0.00    -0.070 NA
HETATM   25  S1  UNL     1      -7.493 -42.221  -0.053  1.00  0.00    -0.044 SA
ENDBRANCH  21  23
ENDBRANCH  20  21
ENDBRANCH   6  20
TORSDOF 8
ENDMDL
MODEL 4
REMARK VINA RESULT: -5.555418983      1.760      1.931
REMARK  8 active torsions:
REMARK  status: ('A' for Active; 'I' for Inactive)
REMARK    1  A    between atoms: C2_2  and  C4_4 
REMARK    2  A    between atoms: C4_4  and  C5_5 
REMARK    3  A    between atoms: C5_5  and  O1_6 
REMARK    4  A    between atoms: C5_5  and  C6_8 
REMARK    5  A    between atoms: C5_5  and  N3_21 
REMARK    6  A    between atoms: C10_13  and  C11_14 
REMARK    7  A    between atoms: C11_14  and  N1_15 
REMARK    8  A    between atoms: N1_15  and  C13_17 
ROOT
HETATM    1  C6  UNL     1      -5.425 -37.486   3.080  1.00  0.00     0.009 A 
HETATM    2  C7  UNL     1      -5.531 -37.852   4.402  1.00  0.00     0.036 A 
HETATM    3  C8  UNL     1      -6.500 -37.301   5.197  1.00  0.00     0.035 A 
HETATM    4 CL1  UNL     1      -6.671 -37.739   6.898  1.00  0.00    -0.084 Cl
HETATM    5  C9  UNL     1      -7.411 -36.364   4.719  1.00  0.00     0.032 A 
HETATM    6  C10 UNL     1      -7.325 -35.986   3.415  1.00  0.00    -0.038 A 
HETATM    7  C14 UNL     1      -6.321 -36.567   2.619  1.00  0.00     0.021 A 
ENDROOT
BRANCH   1   8
HETATM    8  C5  UNL     1      -4.369 -38.082   2.197  1.00  0.00     0.287 C 
BRANCH   8   9
HETATM    9  C4  UNL     1      -4.286 -39.571   2.342  1.00  0.00     0.081 C 
BRANCH   9  10
HETATM   10  C2  UNL     1      -4.992 -40.344   1.279  1.00  0.00    -0.018 C 
HETATM   11  C1  UNL     1      -6.207 -41.001   1.940  1.00  0.00     0.009 C 
HETATM   12  C3  UNL     1      -4.102 -41.511   0.838  1.00  0.00     0.009 C 
ENDBRANCH   9  10
ENDBRANCH   8   9
BRANCH   8  13
HETATM   13  O1  UNL     1      -4.579 -37.663   0.915  1.00  0.00    -0.359 OA
ATOM     14  H1  UNL     1      -5.267 -37.014   0.831  1.00  0.00     0.213 HD
ENDBRANCH   8  13
BRANCH   8  15
HETATM   15  N3  UNL     1      -3.092 -37.535   2.639  1.00  0.00     0.128 N 
HETATM   16  C15 UNL     1      -2.400 -36.790   1.649  1.00  0.00     0.277 C 
HETATM   17  C16 UNL     1      -0.998 -36.669   2.236  1.00  0.00     0.032 C 
HETATM   18  C17 UNL     1      -0.769 -38.037   2.812  1.00  0.00     0.032 C 
HETATM   19  C18 UNL     1      -2.160 -38.567   3.006  1.00  0.00     0.277 C 
ENDBRANCH   8  15
ENDBRANCH   1   8
BRANCH   6  20
HETATM   20  C11 UNL     1      -8.232 -34.996   2.800  1.00  0.00     0.162 C 
BRANCH  20  21
HETATM   21  N1  UNL     1      -9.636 -35.189   3.010  1.00  0.00    -0.361 N 
HETATM   22  C12 UNL     1     -10.289 -36.363   2.495  1.00  0.00     0.152 C 
BRANCH  21  23
HETATM   23  C13 UNL     1     -10.408 -34.249   3.733  1.00  0.00     0.183 C 
HETATM   24  N2  UNL     1      -9.866 -33.628   4.878  1.00  0.00    -0.070 NA
HETATM   25  S1  UNL     1     -11.907 -33.881   3.256  1.00  0.00    -0.044 SA
ENDBRANCH  21  23
ENDBRANCH  20  21
ENDBRANCH   6  20
TORSDOF 8
ENDMDL
MODEL 5
REMARK VINA RESULT: -5.554459906      1.299      1.703
REMARK  8 active torsions:
REMARK  status: ('A' for Active; 'I' for Inactive)
REMARK    1  A    between atoms: C2_2  and  C4_4 
REMARK    2  A    between atoms: C4_4  and  C5_5 
REMARK    3  A    between atoms: C5_5  and  O1_6 
REMARK    4  A    between atoms: C5_5  and  C6_8 
REMARK    5  A    between atoms: C5_5  and  N3_21 
REMARK    6  A    between atoms: C10_13  and  C11_14 
REMARK    7  A    between atoms: C11_14  and  N1_15 
REMARK    8  A    between atoms: N1_15  and  C13_17 
ROOT
HETATM    1  C6  UNL     1      -5.084 -37.907   3.318  1.00  0.00     0.009 A 
HETATM    2  C7  UNL     1      -4.890 -38.384   4.595  1.00  0.00     0.036 A 
HETATM    3  C8  UNL     1      -5.755 -38.039   5.600  1.00  0.00     0.035 A 
HETATM    4 CL1  UNL     1      -5.543 -38.625   7.251  1.00  0.00    -0.084 Cl
HETATM    5  C9  UNL     1      -6.850 -37.209   5.388  1.00  0.00     0.032 A 
HETATM    6  C10 UNL     1      -7.061 -36.725   4.134  1.00  0.00    -0.038 A 
HETATM    7  C14 UNL     1      -6.160 -37.093   3.118  1.00  0.00     0.021 A 
ENDROOT
BRANCH   1   8
HETATM    8  C5  UNL     1      -4.146 -38.276   2.208  1.00  0.00     0.287 C 
BRANCH   8   9
HETATM    9  C4  UNL     1      -3.892 -39.752   2.151  1.00  0.00     0.081 C 
BRANCH   9  10
HETATM   10  C2  UNL     1      -4.865 -40.523   1.323  1.00  0.00    -0.018 C 
HETATM   11  C1  UNL     1      -5.768 -41.287   2.295  1.00  0.00     0.009 C 
HETATM   12  C3  UNL     1      -4.108 -41.610   0.550  1.00  0.00     0.009 C 
ENDBRANCH   9  10
ENDBRANCH   8   9
BRANCH   8  13
HETATM   13  O1  UNL     1      -4.621 -37.753   1.039  1.00  0.00    -0.359 OA
ATOM     14  H1  UNL     1      -4.066 -37.077   0.668  1.00  0.00     0.213 HD
ENDBRANCH   8  13
BRANCH   8  15
HETATM   15  N3  UNL     1      -2.873 -37.631   2.499  1.00  0.00     0.128 N 
HETATM   16  C15 UNL     1      -2.445 -36.705   1.511  1.00  0.00     0.277 C 
HETATM   17  C16 UNL     1      -0.980 -36.481   1.869  1.00  0.00     0.032 C 
HETATM   18  C17 UNL     1      -0.518 -37.866   2.219  1.00  0.00     0.032 C 
HETATM   19  C18 UNL     1      -1.792 -38.577   2.572  1.00  0.00     0.277 C 
ENDBRANCH   8  15
ENDBRANCH   1   8
BRANCH   6  20
HETATM   20  C11 UNL     1      -8.186 -35.831   3.792  1.00  0.00     0.162 C 
BRANCH  20  21
HETATM   21  N1  UNL     1      -7.945 -34.422   3.900  1.00  0.00    -0.361 N 
HETATM   22  C12 UNL     1      -7.572 -33.662   2.736  1.00  0.00     0.152 C 
BRANCH  21  23
HETATM   23  C13 UNL     1      -8.079 -33.745   5.134  1.00  0.00     0.183 C 
HETATM   24  N2  UNL     1      -8.970 -34.236   6.111  1.00  0.00    -0.070 NA
HETATM   25  S1  UNL     1      -7.219 -32.411   5.434  1.00  0.00    -0.044 SA
ENDBRANCH  21  23
ENDBRANCH  20  21
ENDBRANCH   6  20
TORSDOF 8
ENDMDL
