MODEL 1
REMARK VINA RESULT: -6.847274697      0.000      0.000
REMARK  6 active torsions:
REMARK  status: ('A' for Active; 'I' for Inactive)
REMARK    1  A    between atoms: N2_9  and  C6_11 
REMARK    2  A    between atoms: C6_11  and  C7_12 
REMARK    3  A    between atoms: C6_11  and  C12_18 
REMARK    4  A    between atoms: C7_12  and  C8_13 
REMARK       I    between atoms: C12_18  and  N3_20 
REMARK    5  A    between atoms: N3_20  and  C13_22 
REMARK    6  A    between atoms: C13_22  and  C14_23 
ROOT
HETATM    1  C6  UNL     1      -4.607 -38.595   1.821  1.00  0.00     0.177 C 
ENDROOT
BRANCH   1   2
HETATM    2  N2  UNL     1      -5.394 -38.115   2.903  1.00  0.00    -0.362 N 
HETATM    3  C5  UNL     1      -6.160 -37.095   2.933  1.00  0.00     0.108 A 
HETATM    4  N1  UNL     1      -6.374 -36.250   1.919  1.00  0.00    -0.350 N 
HETATM    5  C19 UNL     1      -6.827 -36.834   4.122  1.00  0.00    -0.011 A 
HETATM    6  C4  UNL     1      -7.195 -35.200   2.033  1.00  0.00     0.114 A 
ATOM      7  H1  UNL     1      -5.898 -36.413   1.031  1.00  0.00     0.166 HD
HETATM    8  C3  UNL     1      -7.874 -34.924   3.225  1.00  0.00     0.056 A 
HETATM    9  C2  UNL     1      -7.682 -35.770   4.300  1.00  0.00    -0.029 A 
HETATM   10 CL1  UNL     1      -8.944 -33.569   3.404  1.00  0.00    -0.082 Cl
HETATM   11  C1  UNL     1      -8.372 -35.545   5.608  1.00  0.00     0.050 C 
HETATM   12  C20 UNL     1      -6.617 -37.743   5.272  1.00  0.00     0.052 C 
ATOM     13  H2  UNL     1      -5.340 -38.656   3.766  1.00  0.00     0.162 HD
ENDBRANCH   1   2
BRANCH   1  14
HETATM   14  C7  UNL     1      -3.125 -38.615   2.136  1.00  0.00     0.066 C 
BRANCH  14  15
HETATM   15  C8  UNL     1      -2.647 -37.294   2.687  1.00  0.00     0.123 C 
HETATM   16  C9  UNL     1      -1.136 -37.248   2.624  1.00  0.00     0.034 C 
HETATM   17  C10 UNL     1      -0.799 -36.420   1.406  1.00  0.00     0.029 C 
HETATM   18  C11 UNL     1      -2.172 -36.158   0.821  1.00  0.00     0.168 C 
HETATM   19  O1  UNL     1      -3.021 -36.216   1.915  1.00  0.00    -0.386 OA
ENDBRANCH  14  15
ENDBRANCH   1  14
BRANCH   1  20
HETATM   20  C12 UNL     1      -4.984 -39.990   1.522  1.00  0.00     0.240 C 
HETATM   21  O2  UNL     1      -6.171 -40.343   1.683  1.00  0.00    -0.271 OA
HETATM   22  N3  UNL     1      -4.020 -40.904   1.065  1.00  0.00    -0.359 N 
ATOM     23  H3  UNL     1      -3.052 -40.608   0.936  1.00  0.00     0.162 HD
BRANCH  22  24
HETATM   24  C13 UNL     1      -4.413 -42.283   0.776  1.00  0.00     0.127 C 
BRANCH  24  25
HETATM   25  C14 UNL     1      -4.515 -42.416  -0.723  1.00  0.00     0.003 C 
HETATM   26  C15 UNL     1      -3.806 -43.723  -1.091  1.00  0.00     0.006 C 
HETATM   27  C16 UNL     1      -4.390 -44.056  -2.444  1.00  0.00     0.000 C 
HETATM   28  C17 UNL     1      -5.677 -43.259  -2.571  1.00  0.00     0.000 C 
HETATM   29  C18 UNL     1      -5.922 -42.697  -1.171  1.00  0.00     0.006 C 
ENDBRANCH  24  25
ENDBRANCH  22  24
ENDBRANCH   1  20
TORSDOF 6
ENDMDL
MODEL 2
REMARK VINA RESULT: -6.547662168      3.904      6.644
REMARK  6 active torsions:
REMARK  status: ('A' for Active; 'I' for Inactive)
REMARK    1  A    between atoms: N2_9  and  C6_11 
REMARK    2  A    between atoms: C6_11  and  C7_12 
REMARK    3  A    between atoms: C6_11  and  C12_18 
REMARK    4  A    between atoms: C7_12  and  C8_13 
REMARK       I    between atoms: C12_18  and  N3_20 
REMARK    5  A    between atoms: N3_20  and  C13_22 
REMARK    6  A    between atoms: C13_22  and  C14_23 
ROOT
HETATM    1  C6  UNL     1      -7.558 -35.942   4.008  1.00  0.00     0.177 C 
ENDROOT
BRANCH   1   2
HETATM    2  N2  UNL     1      -7.570 -34.549   3.726  1.00  0.00    -0.362 N 
HETATM    3  C5  UNL     1      -7.260 -33.582   4.499  1.00  0.00     0.108 A 
HETATM    4  N1  UNL     1      -6.850 -33.698   5.767  1.00  0.00    -0.350 N 
HETATM    5  C19 UNL     1      -7.356 -32.297   3.983  1.00  0.00    -0.011 A 
HETATM    6  C4  UNL     1      -6.543 -32.630   6.512  1.00  0.00     0.114 A 
ATOM      7  H1  UNL     1      -6.770 -34.628   6.177  1.00  0.00     0.166 HD
HETATM    8  C3  UNL     1      -6.636 -31.329   6.005  1.00  0.00     0.056 A 
HETATM    9  C2  UNL     1      -7.055 -31.161   4.701  1.00  0.00    -0.029 A 
HETATM   10 CL1  UNL     1      -6.246 -29.924   6.948  1.00  0.00    -0.082 Cl
HETATM   11  C1  UNL     1      -7.180 -29.804   4.084  1.00  0.00     0.050 C 
HETATM   12  C20 UNL     1      -7.807 -32.123   2.583  1.00  0.00     0.052 C 
ATOM     13  H2  UNL     1      -7.865 -34.288   2.785  1.00  0.00     0.162 HD
ENDBRANCH   1   2
BRANCH   1  14
HETATM   14  C7  UNL     1      -8.930 -36.574   3.904  1.00  0.00     0.066 C 
BRANCH  14  15
HETATM   15  C8  UNL     1      -9.826 -35.828   2.946  1.00  0.00     0.123 C 
HETATM   16  C9  UNL     1     -11.049 -36.668   2.654  1.00  0.00     0.034 C 
HETATM   17  C10 UNL     1     -12.153 -36.103   3.516  1.00  0.00     0.029 C 
HETATM   18  C11 UNL     1     -11.415 -35.045   4.310  1.00  0.00     0.168 C 
HETATM   19  O1  UNL     1     -10.362 -34.679   3.486  1.00  0.00    -0.386 OA
ENDBRANCH  14  15
ENDBRANCH   1  14
BRANCH   1  20
HETATM   20  C12 UNL     1      -6.708 -36.633   3.019  1.00  0.00     0.240 C 
HETATM   21  O2  UNL     1      -6.891 -37.851   2.810  1.00  0.00    -0.271 OA
HETATM   22  N3  UNL     1      -5.710 -35.929   2.326  1.00  0.00    -0.359 N 
ATOM     23  H3  UNL     1      -5.566 -34.934   2.502  1.00  0.00     0.162 HD
BRANCH  22  24
HETATM   24  C13 UNL     1      -4.877 -36.632   1.350  1.00  0.00     0.127 C 
BRANCH  24  25
HETATM   25  C14 UNL     1      -3.438 -36.419   1.750  1.00  0.00     0.003 C 
HETATM   26  C15 UNL     1      -2.893 -37.792   2.153  1.00  0.00     0.006 C 
HETATM   27  C16 UNL     1      -1.399 -37.616   2.016  1.00  0.00     0.000 C 
HETATM   28  C17 UNL     1      -1.182 -36.401   1.130  1.00  0.00     0.000 C 
HETATM   29  C18 UNL     1      -2.568 -36.079   0.572  1.00  0.00     0.006 C 
ENDBRANCH  24  25
ENDBRANCH  22  24
ENDBRANCH   1  20
TORSDOF 6
ENDMDL
MODEL 3
REMARK VINA RESULT: -6.532534933      2.794      5.430
REMARK  6 active torsions:
REMARK  status: ('A' for Active; 'I' for Inactive)
REMARK    1  A    between atoms: N2_9  and  C6_11 
REMARK    2  A    between atoms: C6_11  and  C7_12 
REMARK    3  A    between atoms: C6_11  and  C12_18 
REMARK    4  A    between atoms: C7_12  and  C8_13 
REMARK       I    between atoms: C12_18  and  N3_20 
REMARK    5  A    between atoms: N3_20  and  C13_22 
REMARK    6  A    between atoms: C13_22  and  C14_23 
ROOT
HETATM    1  C6  UNL     1      -5.916 -37.836   4.189  1.00  0.00     0.177 C 
ENDROOT
BRANCH   1   2
HETATM    2  N2  UNL     1      -4.894 -37.448   3.280  1.00  0.00    -0.362 N 
HETATM    3  C5  UNL     1      -3.682 -37.845   3.234  1.00  0.00     0.108 A 
HETATM    4  N1  UNL     1      -3.121 -38.732   4.062  1.00  0.00    -0.350 N 
HETATM    5  C19 UNL     1      -2.873 -37.311   2.241  1.00  0.00    -0.011 A 
HETATM    6  C4  UNL     1      -1.839 -39.097   3.947  1.00  0.00     0.114 A 
ATOM      7  H1  UNL     1      -3.688 -39.143   4.805  1.00  0.00     0.166 HD
HETATM    8  C3  UNL     1      -1.011 -38.566   2.951  1.00  0.00     0.056 A 
HETATM    9  C2  UNL     1      -1.548 -37.646   2.073  1.00  0.00    -0.029 A 
HETATM   10 CL1  UNL     1       0.656 -39.017   2.777  1.00  0.00    -0.082 Cl
HETATM   11  C1  UNL     1      -0.730 -37.032   0.981  1.00  0.00     0.050 C 
HETATM   12  C20 UNL     1      -3.454 -36.323   1.302  1.00  0.00     0.052 C 
ATOM     13  H2  UNL     1      -5.164 -36.764   2.572  1.00  0.00     0.162 HD
ENDBRANCH   1   2
BRANCH   1  14
HETATM   14  C7  UNL     1      -6.984 -36.775   4.359  1.00  0.00     0.066 C 
BRANCH  14  15
HETATM   15  C8  UNL     1      -7.549 -36.324   3.035  1.00  0.00     0.123 C 
HETATM   16  C9  UNL     1      -8.988 -35.900   3.228  1.00  0.00     0.034 C 
HETATM   17  C10 UNL     1      -8.969 -34.391   3.292  1.00  0.00     0.029 C 
HETATM   18  C11 UNL     1      -7.483 -34.098   3.235  1.00  0.00     0.168 C 
HETATM   19  O1  UNL     1      -6.953 -35.180   2.550  1.00  0.00    -0.386 OA
ENDBRANCH  14  15
ENDBRANCH   1  14
BRANCH   1  20
HETATM   20  C12 UNL     1      -6.602 -39.034   3.670  1.00  0.00     0.240 C 
HETATM   21  O2  UNL     1      -7.440 -39.612   4.394  1.00  0.00    -0.271 OA
HETATM   22  N3  UNL     1      -6.314 -39.515   2.383  1.00  0.00    -0.359 N 
ATOM     23  H3  UNL     1      -5.628 -39.038   1.797  1.00  0.00     0.162 HD
BRANCH  22  24
HETATM   24  C13 UNL     1      -7.004 -40.706   1.886  1.00  0.00     0.127 C 
BRANCH  24  25
HETATM   25  C14 UNL     1      -5.949 -41.669   1.404  1.00  0.00     0.003 C 
HETATM   26  C15 UNL     1      -6.390 -42.136   0.013  1.00  0.00     0.006 C 
HETATM   27  C16 UNL     1      -5.102 -42.629  -0.603  1.00  0.00     0.000 C 
HETATM   28  C17 UNL     1      -3.970 -42.016   0.203  1.00  0.00     0.000 C 
HETATM   29  C18 UNL     1      -4.651 -40.977   1.094  1.00  0.00     0.006 C 
ENDBRANCH  24  25
ENDBRANCH  22  24
ENDBRANCH   1  20
TORSDOF 6
ENDMDL
MODEL 4
REMARK VINA RESULT: -6.432525842      3.205      6.783
REMARK  6 active torsions:
REMARK  status: ('A' for Active; 'I' for Inactive)
REMARK    1  A    between atoms: N2_9  and  C6_11 
REMARK    2  A    between atoms: C6_11  and  C7_12 
REMARK    3  A    between atoms: C6_11  and  C12_18 
REMARK    4  A    between atoms: C7_12  and  C8_13 
REMARK       I    between atoms: C12_18  and  N3_20 
REMARK    5  A    between atoms: N3_20  and  C13_22 
REMARK    6  A    between atoms: C13_22  and  C14_23 
ROOT
HETATM    1  C6  UNL     1      -6.438 -39.049   2.564  1.00  0.00     0.177 C 
ENDROOT
BRANCH   1   2
HETATM    2  N2  UNL     1      -5.581 -40.063   2.055  1.00  0.00    -0.362 N 
HETATM    3  C5  UNL     1      -5.868 -41.015   1.256  1.00  0.00     0.108 A 
HETATM    4  N1  UNL     1      -7.073 -41.251   0.726  1.00  0.00    -0.350 N 
HETATM    5  C19 UNL     1      -4.844 -41.884   0.905  1.00  0.00    -0.011 A 
HETATM    6  C4  UNL     1      -7.292 -42.275  -0.107  1.00  0.00     0.114 A 
ATOM      7  H1  UNL     1      -7.848 -40.632   0.965  1.00  0.00     0.166 HD
HETATM    8  C3  UNL     1      -6.269 -43.159  -0.469  1.00  0.00     0.056 A 
HETATM    9  C2  UNL     1      -5.009 -42.954   0.055  1.00  0.00    -0.029 A 
HETATM   10 CL1  UNL     1      -6.523 -44.497  -1.546  1.00  0.00    -0.082 Cl
HETATM   11  C1  UNL     1      -3.862 -43.854  -0.283  1.00  0.00     0.050 C 
HETATM   12  C20 UNL     1      -3.494 -41.659   1.470  1.00  0.00     0.052 C 
ATOM     13  H2  UNL     1      -4.611 -40.024   2.369  1.00  0.00     0.162 HD
ENDBRANCH   1   2
BRANCH   1  14
HETATM   14  C7  UNL     1      -6.475 -39.017   4.078  1.00  0.00     0.066 C 
BRANCH  14  15
HETATM   15  C8  UNL     1      -5.107 -38.784   4.672  1.00  0.00     0.123 C 
HETATM   16  C9  UNL     1      -5.240 -38.614   6.169  1.00  0.00     0.034 C 
HETATM   17  C10 UNL     1      -4.848 -39.942   6.772  1.00  0.00     0.029 C 
HETATM   18  C11 UNL     1      -4.628 -40.790   5.536  1.00  0.00     0.168 C 
HETATM   19  O1  UNL     1      -4.272 -39.874   4.558  1.00  0.00    -0.386 OA
ENDBRANCH  14  15
ENDBRANCH   1  14
BRANCH   1  20
HETATM   20  C12 UNL     1      -5.941 -37.728   2.135  1.00  0.00     0.240 C 
HETATM   21  O2  UNL     1      -6.605 -36.709   2.422  1.00  0.00    -0.271 OA
HETATM   22  N3  UNL     1      -4.741 -37.621   1.413  1.00  0.00    -0.359 N 
ATOM     23  H3  UNL     1      -4.205 -38.458   1.181  1.00  0.00     0.162 HD
BRANCH  22  24
HETATM   24  C13 UNL     1      -4.265 -36.303   0.994  1.00  0.00     0.127 C 
BRANCH  24  25
HETATM   25  C14 UNL     1      -2.833 -36.176   1.448  1.00  0.00     0.003 C 
HETATM   26  C15 UNL     1      -2.432 -37.546   2.005  1.00  0.00     0.006 C 
HETATM   27  C16 UNL     1      -0.923 -37.513   1.931  1.00  0.00     0.000 C 
HETATM   28  C17 UNL     1      -0.559 -36.412   0.949  1.00  0.00     0.000 C 
HETATM   29  C18 UNL     1      -1.884 -36.028   0.292  1.00  0.00     0.006 C 
ENDBRANCH  24  25
ENDBRANCH  22  24
ENDBRANCH   1  20
TORSDOF 6
ENDMDL
MODEL 5
REMARK VINA RESULT: -6.414441277      1.160      1.917
REMARK  6 active torsions:
REMARK  status: ('A' for Active; 'I' for Inactive)
REMARK    1  A    between atoms: N2_9  and  C6_11 
REMARK    2  A    between atoms: C6_11  and  C7_12 
REMARK    3  A    between atoms: C6_11  and  C12_18 
REMARK    4  A    between atoms: C7_12  and  C8_13 
REMARK       I    between atoms: C12_18  and  N3_20 
REMARK    5  A    between atoms: N3_20  and  C13_22 
REMARK    6  A    between atoms: C13_22  and  C14_23 
ROOT
HETATM    1  C6  UNL     1      -4.578 -38.463   1.825  1.00  0.00     0.177 C 
ENDROOT
BRANCH   1   2
HETATM    2  N2  UNL     1      -5.383 -38.045   2.919  1.00  0.00    -0.362 N 
HETATM    3  C5  UNL     1      -6.147 -37.027   2.997  1.00  0.00     0.108 A 
HETATM    4  N1  UNL     1      -6.345 -36.125   2.030  1.00  0.00    -0.350 N 
HETATM    5  C19 UNL     1      -6.834 -36.834   4.187  1.00  0.00    -0.011 A 
HETATM    6  C4  UNL     1      -7.166 -35.081   2.191  1.00  0.00     0.114 A 
ATOM      7  H1  UNL     1      -5.853 -36.236   1.142  1.00  0.00     0.166 HD
HETATM    8  C3  UNL     1      -7.865 -34.874   3.386  1.00  0.00     0.056 A 
HETATM    9  C2  UNL     1      -7.691 -35.780   4.413  1.00  0.00    -0.029 A 
HETATM   10 CL1  UNL     1      -8.935 -33.529   3.626  1.00  0.00    -0.082 Cl
HETATM   11  C1  UNL     1      -8.402 -35.630   5.721  1.00  0.00     0.050 C 
HETATM   12  C20 UNL     1      -6.644 -37.809   5.286  1.00  0.00     0.052 C 
ATOM     13  H2  UNL     1      -5.344 -38.636   3.751  1.00  0.00     0.162 HD
ENDBRANCH   1   2
BRANCH   1  14
HETATM   14  C7  UNL     1      -3.108 -38.560   2.179  1.00  0.00     0.066 C 
BRANCH  14  15
HETATM   15  C8  UNL     1      -2.558 -37.244   2.670  1.00  0.00     0.123 C 
HETATM   16  C9  UNL     1      -1.059 -37.225   2.462  1.00  0.00     0.034 C 
HETATM   17  C10 UNL     1      -0.827 -36.412   1.211  1.00  0.00     0.029 C 
HETATM   18  C11 UNL     1      -2.244 -36.129   0.757  1.00  0.00     0.168 C 
HETATM   19  O1  UNL     1      -2.986 -36.164   1.928  1.00  0.00    -0.386 OA
ENDBRANCH  14  15
ENDBRANCH   1  14
BRANCH   1  20
HETATM   20  C12 UNL     1      -4.991 -39.815   1.402  1.00  0.00     0.240 C 
HETATM   21  O2  UNL     1      -6.205 -40.108   1.413  1.00  0.00    -0.271 OA
HETATM   22  N3  UNL     1      -4.030 -40.756   0.996  1.00  0.00    -0.359 N 
ATOM     23  H3  UNL     1      -3.040 -40.510   0.990  1.00  0.00     0.162 HD
BRANCH  22  24
HETATM   24  C13 UNL     1      -4.459 -42.093   0.582  1.00  0.00     0.127 C 
BRANCH  24  25
HETATM   25  C14 UNL     1      -3.770 -43.085   1.484  1.00  0.00     0.003 C 
HETATM   26  C15 UNL     1      -3.084 -44.102   0.566  1.00  0.00     0.006 C 
HETATM   27  C16 UNL     1      -2.023 -44.702   1.459  1.00  0.00     0.000 C 
HETATM   28  C17 UNL     1      -1.825 -43.733   2.612  1.00  0.00     0.000 C 
HETATM   29  C18 UNL     1      -2.595 -42.479   2.199  1.00  0.00     0.006 C 
ENDBRANCH  24  25
ENDBRANCH  22  24
ENDBRANCH   1  20
TORSDOF 6
ENDMDL
