MODEL 1
REMARK VINA RESULT: -6.537046604      0.000      0.000
REMARK  6 active torsions:
REMARK  status: ('A' for Active; 'I' for Inactive)
REMARK       I    between atoms: C2_2  and  N1_4 
REMARK    1  A    between atoms: N1_4  and  C3_6 
REMARK    2  A    between atoms: C6_9  and  C7_10 
REMARK    3  A    between atoms: C7_10  and  C8_11 
REMARK    4  A    between atoms: C8_11  and  C9_12 
REMARK    5  A    between atoms: C9_12  and  C10_13 
REMARK    6  A    between atoms: C10_13  and  N2_14 
ROOT
HETATM    1  C7  UNL     1      -6.763 -36.782   4.275  1.00  0.00     0.005 C 
ENDROOT
BRANCH   1   2
HETATM    2  C6  UNL     1      -6.494 -37.242   2.908  1.00  0.00    -0.011 C 
HETATM    3  C5  UNL     1      -6.204 -36.242   1.872  1.00  0.00     0.007 C 
HETATM    4  C4  UNL     1      -5.014 -36.618   0.989  1.00  0.00     0.025 C 
HETATM    5  C3  UNL     1      -3.839 -36.828   1.877  1.00  0.00     0.084 C 
HETATM    6  C18 UNL     1      -4.058 -37.913   2.902  1.00  0.00     0.029 C 
HETATM    7  C16 UNL     1      -5.483 -38.389   2.942  1.00  0.00    -0.013 C 
HETATM    8  C17 UNL     1      -5.793 -39.455   1.918  1.00  0.00     0.010 C 
BRANCH   5   9
HETATM    9  N1  UNL     1      -2.655 -37.090   1.075  1.00  0.00    -0.357 N 
HETATM   10  C2  UNL     1      -1.346 -36.834   1.534  1.00  0.00     0.213 C 
HETATM   11  C1  UNL     1      -0.181 -37.126   0.662  1.00  0.00     0.117 C 
HETATM   12  O1  UNL     1      -1.155 -36.366   2.665  1.00  0.00    -0.274 OA
ATOM     13  H1  UNL     1      -2.777 -37.476   0.139  1.00  0.00     0.162 HD
ENDBRANCH   5   9
ENDBRANCH   1   2
BRANCH   1  14
HETATM   14  C8  UNL     1      -8.034 -36.086   4.556  1.00  0.00     0.002 C 
BRANCH  14  15
HETATM   15  C9  UNL     1      -8.057 -34.900   5.416  1.00  0.00     0.015 C 
BRANCH  15  16
HETATM   16  C10 UNL     1      -7.653 -33.598   4.798  1.00  0.00     0.106 C 
BRANCH  16  17
HETATM   17  N2  UNL     1      -8.478 -32.500   4.944  1.00  0.00    -0.216 NA
HETATM   18  C11 UNL     1      -8.876 -31.969   6.194  1.00  0.00     0.109 C 
HETATM   19  C12 UNL     1      -7.700 -31.689   7.116  1.00  0.00     0.047 C 
HETATM   20  C13 UNL     1      -6.791 -30.690   6.433  1.00  0.00     0.040 A 
HETATM   21  C14 UNL     1      -5.910 -29.931   7.383  1.00  0.00     0.034 A 
HETATM   22  C15 UNL     1      -5.336 -30.878   6.405  1.00  0.00     0.034 A 
HETATM   23  N3  UNL     1      -7.407 -29.963   5.367  1.00  0.00    -0.318 N 
HETATM   24  S1  UNL     1      -7.806 -31.084   4.061  1.00  0.00     0.193 S 
ATOM     25  H3  UNL     1      -7.588 -28.958   5.360  1.00  0.00     0.172 HD
HETATM   26  O2  UNL     1      -6.562 -31.524   3.313  1.00  0.00    -0.218 OA
ENDBRANCH  16  17
ENDBRANCH  15  16
ENDBRANCH  14  15
ENDBRANCH   1  14
TORSDOF 6
ENDMDL
MODEL 2
REMARK VINA RESULT: -6.456098828      1.251      1.372
REMARK  6 active torsions:
REMARK  status: ('A' for Active; 'I' for Inactive)
REMARK       I    between atoms: C2_2  and  N1_4 
REMARK    1  A    between atoms: N1_4  and  C3_6 
REMARK    2  A    between atoms: C6_9  and  C7_10 
REMARK    3  A    between atoms: C7_10  and  C8_11 
REMARK    4  A    between atoms: C8_11  and  C9_12 
REMARK    5  A    between atoms: C9_12  and  C10_13 
REMARK    6  A    between atoms: C10_13  and  N2_14 
ROOT
HETATM    1  C7  UNL     1      -6.957 -36.206   3.531  1.00  0.00     0.005 C 
ENDROOT
BRANCH   1   2
HETATM    2  C6  UNL     1      -6.306 -37.035   2.512  1.00  0.00    -0.011 C 
HETATM    3  C5  UNL     1      -5.231 -36.445   1.703  1.00  0.00     0.007 C 
HETATM    4  C4  UNL     1      -4.015 -37.360   1.558  1.00  0.00     0.025 C 
HETATM    5  C3  UNL     1      -3.535 -37.697   2.925  1.00  0.00     0.084 C 
HETATM    6  C18 UNL     1      -4.579 -38.390   3.765  1.00  0.00     0.029 C 
HETATM    7  C16 UNL     1      -5.934 -38.391   3.114  1.00  0.00    -0.013 C 
HETATM    8  C17 UNL     1      -6.135 -39.526   2.137  1.00  0.00     0.010 C 
BRANCH   5   9
HETATM    9  N1  UNL     1      -2.317 -38.486   2.840  1.00  0.00    -0.357 N 
HETATM   10  C2  UNL     1      -1.036 -37.945   3.078  1.00  0.00     0.213 C 
HETATM   11  C1  UNL     1       0.167 -38.808   2.973  1.00  0.00     0.117 C 
HETATM   12  O1  UNL     1      -0.902 -36.750   3.375  1.00  0.00    -0.274 OA
ATOM     13  H1  UNL     1      -2.392 -39.474   2.597  1.00  0.00     0.162 HD
ENDBRANCH   5   9
ENDBRANCH   1   2
BRANCH   1  14
HETATM   14  C8  UNL     1      -8.013 -35.263   3.115  1.00  0.00     0.002 C 
BRANCH  14  15
HETATM   15  C9  UNL     1      -7.663 -33.944   2.580  1.00  0.00     0.015 C 
BRANCH  15  16
HETATM   16  C10 UNL     1      -7.333 -32.870   3.569  1.00  0.00     0.106 C 
BRANCH  16  17
HETATM   17  N2  UNL     1      -8.362 -32.208   4.211  1.00  0.00    -0.216 NA
HETATM   18  C11 UNL     1      -8.632 -32.320   5.596  1.00  0.00     0.109 C 
HETATM   19  C12 UNL     1      -7.409 -32.055   6.459  1.00  0.00     0.047 C 
HETATM   20  C13 UNL     1      -6.924 -30.650   6.173  1.00  0.00     0.040 A 
HETATM   21  C14 UNL     1      -6.094 -30.063   7.278  1.00  0.00     0.034 A 
HETATM   22  C15 UNL     1      -5.501 -30.363   5.959  1.00  0.00     0.034 A 
HETATM   23  N3  UNL     1      -7.893 -29.806   5.544  1.00  0.00    -0.318 N 
HETATM   24  S1  UNL     1      -8.243 -30.435   3.931  1.00  0.00     0.193 S 
ATOM     25  H3  UNL     1      -8.315 -28.975   5.961  1.00  0.00     0.172 HD
HETATM   26  O2  UNL     1      -7.095 -30.170   2.976  1.00  0.00    -0.218 OA
ENDBRANCH  16  17
ENDBRANCH  15  16
ENDBRANCH  14  15
ENDBRANCH   1  14
TORSDOF 6
ENDMDL
MODEL 3
REMARK VINA RESULT: -6.353249178      1.769      2.168
REMARK  6 active torsions:
REMARK  status: ('A' for Active; 'I' for Inactive)
REMARK       I    between atoms: C2_2  and  N1_4 
REMARK    1  A    between atoms: N1_4  and  C3_6 
REMARK    2  A    between atoms: C6_9  and  C7_10 
REMARK    3  A    between atoms: C7_10  and  C8_11 
REMARK    4  A    between atoms: C8_11  and  C9_12 
REMARK    5  A    between atoms: C9_12  and  C10_13 
REMARK    6  A    between atoms: C10_13  and  N2_14 
ROOT
HETATM    1  C7  UNL     1      -6.745 -36.864   4.314  1.00  0.00     0.005 C 
ENDROOT
BRANCH   1   2
HETATM    2  C6  UNL     1      -6.484 -37.288   2.935  1.00  0.00    -0.011 C 
HETATM    3  C5  UNL     1      -6.181 -36.264   1.926  1.00  0.00     0.007 C 
HETATM    4  C4  UNL     1      -4.997 -36.631   1.032  1.00  0.00     0.025 C 
HETATM    5  C3  UNL     1      -3.824 -36.883   1.912  1.00  0.00     0.084 C 
HETATM    6  C18 UNL     1      -4.058 -37.993   2.905  1.00  0.00     0.029 C 
HETATM    7  C16 UNL     1      -5.489 -38.450   2.934  1.00  0.00    -0.013 C 
HETATM    8  C17 UNL     1      -5.815 -39.482   1.880  1.00  0.00     0.010 C 
BRANCH   5   9
HETATM    9  N1  UNL     1      -2.645 -37.139   1.101  1.00  0.00    -0.357 N 
HETATM   10  C2  UNL     1      -1.335 -36.858   1.543  1.00  0.00     0.213 C 
HETATM   11  C1  UNL     1      -0.176 -37.145   0.662  1.00  0.00     0.117 C 
HETATM   12  O1  UNL     1      -1.140 -36.372   2.666  1.00  0.00    -0.274 OA
ATOM     13  H1  UNL     1      -2.771 -37.539   0.171  1.00  0.00     0.162 HD
ENDBRANCH   5   9
ENDBRANCH   1   2
BRANCH   1  14
HETATM   14  C8  UNL     1      -7.839 -35.908   4.571  1.00  0.00     0.002 C 
BRANCH  14  15
HETATM   15  C9  UNL     1      -7.679 -34.846   5.568  1.00  0.00     0.015 C 
BRANCH  15  16
HETATM   16  C10 UNL     1      -8.009 -33.450   5.140  1.00  0.00     0.106 C 
BRANCH  16  17
HETATM   17  N2  UNL     1      -7.215 -32.831   4.195  1.00  0.00    -0.216 NA
HETATM   18  C11 UNL     1      -7.656 -32.483   2.896  1.00  0.00     0.109 C 
HETATM   19  C12 UNL     1      -8.941 -31.671   2.907  1.00  0.00     0.047 C 
HETATM   20  C13 UNL     1      -8.690 -30.400   3.689  1.00  0.00     0.040 A 
HETATM   21  C14 UNL     1      -9.645 -29.289   3.355  1.00  0.00     0.034 A 
HETATM   22  C15 UNL     1      -9.647 -29.919   4.692  1.00  0.00     0.034 A 
HETATM   23  N3  UNL     1      -7.308 -30.067   3.850  1.00  0.00    -0.318 N 
HETATM   24  S1  UNL     1      -6.532 -31.300   4.849  1.00  0.00     0.193 S 
ATOM     25  H3  UNL     1      -6.844 -29.250   3.451  1.00  0.00     0.172 HD
HETATM   26  O2  UNL     1      -6.942 -31.169   6.303  1.00  0.00    -0.218 OA
ENDBRANCH  16  17
ENDBRANCH  15  16
ENDBRANCH  14  15
ENDBRANCH   1  14
TORSDOF 6
ENDMDL
MODEL 4
REMARK VINA RESULT: -6.237752548      1.379      1.682
REMARK  6 active torsions:
REMARK  status: ('A' for Active; 'I' for Inactive)
REMARK       I    between atoms: C2_2  and  N1_4 
REMARK    1  A    between atoms: N1_4  and  C3_6 
REMARK    2  A    between atoms: C6_9  and  C7_10 
REMARK    3  A    between atoms: C7_10  and  C8_11 
REMARK    4  A    between atoms: C8_11  and  C9_12 
REMARK    5  A    between atoms: C9_12  and  C10_13 
REMARK    6  A    between atoms: C10_13  and  N2_14 
ROOT
HETATM    1  C7  UNL     1      -6.610 -37.096   4.449  1.00  0.00     0.005 C 
ENDROOT
BRANCH   1   2
HETATM    2  C6  UNL     1      -6.385 -37.440   3.041  1.00  0.00    -0.011 C 
HETATM    3  C5  UNL     1      -6.160 -36.355   2.076  1.00  0.00     0.007 C 
HETATM    4  C4  UNL     1      -4.997 -36.628   1.123  1.00  0.00     0.025 C 
HETATM    5  C3  UNL     1      -3.783 -36.876   1.946  1.00  0.00     0.084 C 
HETATM    6  C18 UNL     1      -3.936 -38.043   2.889  1.00  0.00     0.029 C 
HETATM    7  C16 UNL     1      -5.347 -38.558   2.945  1.00  0.00    -0.013 C 
HETATM    8  C17 UNL     1      -5.672 -39.549   1.852  1.00  0.00     0.010 C 
BRANCH   5   9
HETATM    9  N1  UNL     1      -2.626 -37.043   1.081  1.00  0.00    -0.357 N 
HETATM   10  C2  UNL     1      -1.305 -36.806   1.515  1.00  0.00     0.213 C 
HETATM   11  C1  UNL     1      -0.170 -36.996   0.579  1.00  0.00     0.117 C 
HETATM   12  O1  UNL     1      -1.080 -36.438   2.676  1.00  0.00    -0.274 OA
ATOM     13  H1  UNL     1      -2.777 -37.345   0.119  1.00  0.00     0.162 HD
ENDBRANCH   5   9
ENDBRANCH   1   2
BRANCH   1  14
HETATM   14  C8  UNL     1      -7.756 -36.233   4.798  1.00  0.00     0.002 C 
BRANCH  14  15
HETATM   15  C9  UNL     1      -7.602 -35.154   5.776  1.00  0.00     0.015 C 
BRANCH  15  16
HETATM   16  C10 UNL     1      -7.640 -33.750   5.258  1.00  0.00     0.106 C 
BRANCH  16  17
HETATM   17  N2  UNL     1      -8.367 -33.474   4.116  1.00  0.00    -0.216 NA
HETATM   18  C11 UNL     1      -9.720 -33.058   4.120  1.00  0.00     0.109 C 
HETATM   19  C12 UNL     1      -9.967 -31.864   5.029  1.00  0.00     0.047 C 
HETATM   20  C13 UNL     1      -9.109 -30.715   4.544  1.00  0.00     0.040 A 
HETATM   21  C14 UNL     1      -9.610 -29.367   4.974  1.00  0.00     0.034 A 
HETATM   22  C15 UNL     1      -8.328 -29.899   5.479  1.00  0.00     0.034 A 
HETATM   23  N3  UNL     1      -8.637 -30.856   3.200  1.00  0.00    -0.318 N 
HETATM   24  S1  UNL     1      -7.531 -32.230   3.120  1.00  0.00     0.193 S 
ATOM     25  H3  UNL     1      -8.898 -30.259   2.415  1.00  0.00     0.172 HD
HETATM   26  O2  UNL     1      -6.199 -31.904   3.769  1.00  0.00    -0.218 OA
ENDBRANCH  16  17
ENDBRANCH  15  16
ENDBRANCH  14  15
ENDBRANCH   1  14
TORSDOF 6
ENDMDL
MODEL 5
REMARK VINA RESULT: -6.202686430      2.219      3.359
REMARK  6 active torsions:
REMARK  status: ('A' for Active; 'I' for Inactive)
REMARK       I    between atoms: C2_2  and  N1_4 
REMARK    1  A    between atoms: N1_4  and  C3_6 
REMARK    2  A    between atoms: C6_9  and  C7_10 
REMARK    3  A    between atoms: C7_10  and  C8_11 
REMARK    4  A    between atoms: C8_11  and  C9_12 
REMARK    5  A    between atoms: C9_12  and  C10_13 
REMARK    6  A    between atoms: C10_13  and  N2_14 
ROOT
HETATM    1  C7  UNL     1     -10.551 -34.883   2.955  1.00  0.00     0.005 C 
ENDROOT
BRANCH   1   2
HETATM    2  C6  UNL     1      -9.591 -35.748   3.649  1.00  0.00    -0.011 C 
HETATM    3  C5  UNL     1      -9.124 -36.967   2.975  1.00  0.00     0.007 C 
HETATM    4  C4  UNL     1      -7.613 -37.171   3.079  1.00  0.00     0.025 C 
HETATM    5  C3  UNL     1      -6.952 -35.960   2.521  1.00  0.00     0.084 C 
HETATM    6  C18 UNL     1      -7.332 -34.692   3.244  1.00  0.00     0.029 C 
HETATM    7  C16 UNL     1      -8.455 -34.900   4.221  1.00  0.00    -0.013 C 
HETATM    8  C17 UNL     1      -7.995 -35.395   5.573  1.00  0.00     0.010 C 
BRANCH   5   9
HETATM    9  N1  UNL     1      -5.510 -36.148   2.506  1.00  0.00    -0.357 N 
HETATM   10  C2  UNL     1      -4.779 -36.371   1.320  1.00  0.00     0.213 C 
HETATM   11  C1  UNL     1      -3.308 -36.555   1.377  1.00  0.00     0.117 C 
HETATM   12  O1  UNL     1      -5.354 -36.414   0.224  1.00  0.00    -0.274 OA
ATOM     13  H1  UNL     1      -5.005 -36.118   3.392  1.00  0.00     0.162 HD
ENDBRANCH   5   9
ENDBRANCH   1   2
BRANCH   1  14
HETATM   14  C8  UNL     1     -11.012 -33.650   3.623  1.00  0.00     0.002 C 
BRANCH  14  15
HETATM   15  C9  UNL     1     -10.843 -32.347   2.976  1.00  0.00     0.015 C 
BRANCH  15  16
HETATM   16  C10 UNL     1      -9.620 -31.560   3.332  1.00  0.00     0.106 C 
BRANCH  16  17
HETATM   17  N2  UNL     1      -9.708 -30.586   4.307  1.00  0.00    -0.216 NA
HETATM   18  C11 UNL     1      -9.740 -30.857   5.696  1.00  0.00     0.109 C 
HETATM   19  C12 UNL     1      -8.596 -31.751   6.149  1.00  0.00     0.047 C 
HETATM   20  C13 UNL     1      -7.294 -31.053   5.822  1.00  0.00     0.040 A 
HETATM   21  C14 UNL     1      -6.134 -31.526   6.651  1.00  0.00     0.034 A 
HETATM   22  C15 UNL     1      -6.180 -31.772   5.194  1.00  0.00     0.034 A 
HETATM   23  N3  UNL     1      -7.418 -29.647   5.588  1.00  0.00    -0.318 N 
HETATM   24  S1  UNL     1      -8.375 -29.390   4.126  1.00  0.00     0.193 S 
ATOM     25  H3  UNL     1      -7.018 -28.911   6.172  1.00  0.00     0.172 HD
HETATM   26  O2  UNL     1      -7.581 -29.733   2.880  1.00  0.00    -0.218 OA
ENDBRANCH  16  17
ENDBRANCH  15  16
ENDBRANCH  14  15
ENDBRANCH   1  14
TORSDOF 6
ENDMDL
