MODEL 1
REMARK VINA RESULT: -5.799404308      0.000      0.000
REMARK  11 active torsions:
REMARK  status: ('A' for Active; 'I' for Inactive)
REMARK    1  A    between atoms: C2_2  and  N1_3 
REMARK    2  A    between atoms: N1_3  and  C3_4 
REMARK    3  A    between atoms: N1_3  and  C5_6 
REMARK    4  A    between atoms: C5_6  and  O1_7 
REMARK    5  A    between atoms: C5_6  and  N2_9 
REMARK    6  A    between atoms: C6_10  and  C7_11 
REMARK    7  A    between atoms: C7_11  and  C8_12 
REMARK    8  A    between atoms: C11_17  and  C12_18 
REMARK    9  A    between atoms: C12_18  and  O4_19 
REMARK   10  A    between atoms: C12_18  and  N3_21 
REMARK   11  A    between atoms: N3_21  and  C13_23 
ROOT
HETATM    1  N2  UNL     1      -5.489 -37.931   3.133  1.00  0.00    -0.330 N 
HETATM    2  C6  UNL     1      -6.250 -37.141   4.002  1.00  0.00     0.098 C 
HETATM    3  C9  UNL     1      -6.612 -38.067   5.179  1.00  0.00     0.028 C 
HETATM    4  C10 UNL     1      -6.649 -39.405   4.548  1.00  0.00     0.036 C 
HETATM    5  C11 UNL     1      -5.766 -39.361   3.365  1.00  0.00     0.162 C 
ENDROOT
BRANCH   5   6
HETATM    6  C12 UNL     1      -6.317 -40.088   2.239  1.00  0.00     0.135 C 
BRANCH   6   7
HETATM    7  O4  UNL     1      -7.573 -40.417   2.393  1.00  0.00    -0.348 OA
ATOM      8  H4  UNL     1      -7.733 -41.351   2.322  1.00  0.00     0.219 HD
ENDBRANCH   6   7
BRANCH   6   9
HETATM    9  N3  UNL     1      -5.745 -40.493   1.037  1.00  0.00    -0.368 N 
ATOM     10  H3  UNL     1      -5.466 -39.772   0.371  1.00  0.00     0.161 HD
BRANCH   9  11
HETATM   11  C13 UNL     1      -5.523 -41.886   0.675  1.00  0.00     0.083 C 
HETATM   12  C14 UNL     1      -6.516 -42.326  -0.371  1.00  0.00     0.025 C 
HETATM   13  C15 UNL     1      -6.506 -43.842  -0.449  1.00  0.00     0.002 C 
HETATM   14  C16 UNL     1      -5.138 -44.387  -0.168  1.00  0.00     0.004 C 
HETATM   15  C17 UNL     1      -4.038 -43.423  -0.545  1.00  0.00    -0.017 C 
HETATM   16  C18 UNL     1      -4.006 -43.288  -2.051  1.00  0.00     0.010 C 
HETATM   17  C19 UNL     1      -4.135 -42.102   0.147  1.00  0.00     0.029 C 
ENDBRANCH   9  11
ENDBRANCH   6   9
ENDBRANCH   5   6
BRANCH   1  18
HETATM   18  C5  UNL     1      -4.490 -37.588   2.186  1.00  0.00     0.218 C 
BRANCH  18  19
HETATM   19  N1  UNL     1      -3.139 -37.290   2.300  1.00  0.00    -0.348 N 
BRANCH  19  20
HETATM   20  C2  UNL     1      -2.154 -37.882   3.155  1.00  0.00     0.122 C 
HETATM   21  C1  UNL     1      -2.161 -39.398   2.963  1.00  0.00     0.026 C 
ENDBRANCH  19  20
BRANCH  19  22
HETATM   22  C3  UNL     1      -2.655 -36.198   1.402  1.00  0.00     0.122 C 
HETATM   23  C4  UNL     1      -1.232 -36.406   1.018  1.00  0.00     0.026 C 
ENDBRANCH  19  22
ENDBRANCH  18  19
BRANCH  18  24
HETATM   24  O1  UNL     1      -4.912 -37.542   0.931  1.00  0.00    -0.332 OA
ATOM     25  H1  UNL     1      -5.860 -37.537   0.868  1.00  0.00     0.220 HD
ENDBRANCH  18  24
ENDBRANCH   1  18
BRANCH   2  26
HETATM   26  C7  UNL     1      -7.485 -36.453   3.623  1.00  0.00     0.138 C 
BRANCH  26  27
HETATM   27  C8  UNL     1      -7.757 -36.034   2.272  1.00  0.00     0.174 C 
HETATM   28  O2  UNL     1      -6.971 -35.397   1.539  1.00  0.00    -0.648 OA
HETATM   29  O3  UNL     1      -9.002 -36.345   1.689  1.00  0.00    -0.648 OA
ENDBRANCH  26  27
ENDBRANCH   2  26
TORSDOF 11
ENDMDL
MODEL 2
REMARK VINA RESULT: -5.683784273      3.307      7.077
REMARK  11 active torsions:
REMARK  status: ('A' for Active; 'I' for Inactive)
REMARK    1  A    between atoms: C2_2  and  N1_3 
REMARK    2  A    between atoms: N1_3  and  C3_4 
REMARK    3  A    between atoms: N1_3  and  C5_6 
REMARK    4  A    between atoms: C5_6  and  O1_7 
REMARK    5  A    between atoms: C5_6  and  N2_9 
REMARK    6  A    between atoms: C6_10  and  C7_11 
REMARK    7  A    between atoms: C7_11  and  C8_12 
REMARK    8  A    between atoms: C11_17  and  C12_18 
REMARK    9  A    between atoms: C12_18  and  O4_19 
REMARK   10  A    between atoms: C12_18  and  N3_21 
REMARK   11  A    between atoms: N3_21  and  C13_23 
ROOT
HETATM    1  N2  UNL     1      -5.921 -37.933   3.055  1.00  0.00    -0.330 N 
HETATM    2  C6  UNL     1      -6.218 -38.512   4.294  1.00  0.00     0.098 C 
HETATM    3  C9  UNL     1      -7.749 -38.678   4.307  1.00  0.00     0.028 C 
HETATM    4  C10 UNL     1      -8.210 -37.570   3.442  1.00  0.00     0.036 C 
HETATM    5  C11 UNL     1      -7.108 -37.246   2.512  1.00  0.00     0.162 C 
ENDROOT
BRANCH   5   6
HETATM    6  C12 UNL     1      -6.970 -35.821   2.297  1.00  0.00     0.135 C 
BRANCH   6   7
HETATM    7  O4  UNL     1      -6.908 -35.486   1.035  1.00  0.00    -0.348 OA
ATOM      8  H4  UNL     1      -7.583 -34.871   0.771  1.00  0.00     0.219 HD
ENDBRANCH   6   7
BRANCH   6   9
HETATM    9  N3  UNL     1      -6.890 -34.758   3.192  1.00  0.00    -0.368 N 
ATOM     10  H3  UNL     1      -6.233 -34.834   3.970  1.00  0.00     0.161 HD
BRANCH   9  11
HETATM   11  C13 UNL     1      -7.689 -33.546   3.084  1.00  0.00     0.083 C 
HETATM   12  C14 UNL     1      -8.962 -33.678   3.881  1.00  0.00     0.025 C 
HETATM   13  C15 UNL     1      -9.923 -32.583   3.454  1.00  0.00     0.002 C 
HETATM   14  C16 UNL     1      -9.183 -31.337   3.070  1.00  0.00     0.004 C 
HETATM   15  C17 UNL     1      -7.865 -31.196   3.792  1.00  0.00    -0.017 C 
HETATM   16  C18 UNL     1      -8.140 -30.945   5.259  1.00  0.00     0.010 C 
HETATM   17  C19 UNL     1      -6.934 -32.344   3.572  1.00  0.00     0.029 C 
ENDBRANCH   9  11
ENDBRANCH   6   9
ENDBRANCH   5   6
BRANCH   1  18
HETATM   18  C5  UNL     1      -4.752 -37.981   2.253  1.00  0.00     0.218 C 
BRANCH  18  19
HETATM   19  N1  UNL     1      -3.453 -37.530   2.445  1.00  0.00    -0.348 N 
BRANCH  19  20
HETATM   20  C2  UNL     1      -2.459 -38.009   3.359  1.00  0.00     0.122 C 
HETATM   21  C1  UNL     1      -2.651 -39.510   3.577  1.00  0.00     0.026 C 
ENDBRANCH  19  20
BRANCH  19  22
HETATM   22  C3  UNL     1      -3.044 -36.388   1.574  1.00  0.00     0.122 C 
HETATM   23  C4  UNL     1      -1.587 -36.429   1.276  1.00  0.00     0.026 C 
ENDBRANCH  19  22
ENDBRANCH  18  19
BRANCH  18  24
HETATM   24  O1  UNL     1      -4.910 -38.576   1.080  1.00  0.00    -0.332 OA
ATOM     25  H1  UNL     1      -5.813 -38.560   0.786  1.00  0.00     0.220 HD
ENDBRANCH  18  24
ENDBRANCH   1  18
BRANCH   2  26
HETATM   26  C7  UNL     1      -5.855 -37.926   5.586  1.00  0.00     0.138 C 
BRANCH  26  27
HETATM   27  C8  UNL     1      -5.292 -38.704   6.660  1.00  0.00     0.174 C 
HETATM   28  O2  UNL     1      -4.662 -39.773   6.526  1.00  0.00    -0.648 OA
HETATM   29  O3  UNL     1      -5.445 -38.259   7.988  1.00  0.00    -0.648 OA
ENDBRANCH  26  27
ENDBRANCH   2  26
TORSDOF 11
ENDMDL
MODEL 3
REMARK VINA RESULT: -5.654784443      2.102      5.975
REMARK  11 active torsions:
REMARK  status: ('A' for Active; 'I' for Inactive)
REMARK    1  A    between atoms: C2_2  and  N1_3 
REMARK    2  A    between atoms: N1_3  and  C3_4 
REMARK    3  A    between atoms: N1_3  and  C5_6 
REMARK    4  A    between atoms: C5_6  and  O1_7 
REMARK    5  A    between atoms: C5_6  and  N2_9 
REMARK    6  A    between atoms: C6_10  and  C7_11 
REMARK    7  A    between atoms: C7_11  and  C8_12 
REMARK    8  A    between atoms: C11_17  and  C12_18 
REMARK    9  A    between atoms: C12_18  and  O4_19 
REMARK   10  A    between atoms: C12_18  and  N3_21 
REMARK   11  A    between atoms: N3_21  and  C13_23 
ROOT
HETATM    1  N2  UNL     1      -3.267 -39.134   2.372  1.00  0.00    -0.330 N 
HETATM    2  C6  UNL     1      -1.965 -38.714   2.078  1.00  0.00     0.098 C 
HETATM    3  C9  UNL     1      -1.100 -39.225   3.246  1.00  0.00     0.028 C 
HETATM    4  C10 UNL     1      -2.051 -39.238   4.380  1.00  0.00     0.036 C 
HETATM    5  C11 UNL     1      -3.409 -39.389   3.818  1.00  0.00     0.162 C 
ENDROOT
BRANCH   5   6
HETATM    6  C12 UNL     1      -4.386 -38.574   4.510  1.00  0.00     0.135 C 
BRANCH   6   7
HETATM    7  O4  UNL     1      -4.507 -38.866   5.778  1.00  0.00    -0.348 OA
ATOM      8  H4  UNL     1      -5.298 -38.519   6.175  1.00  0.00     0.219 HD
ENDBRANCH   6   7
BRANCH   6   9
HETATM    9  N3  UNL     1      -5.209 -37.545   4.062  1.00  0.00    -0.368 N 
ATOM     10  H3  UNL     1      -4.768 -36.716   3.663  1.00  0.00     0.161 HD
BRANCH   9  11
HETATM   11  C13 UNL     1      -6.663 -37.584   4.130  1.00  0.00     0.083 C 
HETATM   12  C14 UNL     1      -7.163 -36.718   5.259  1.00  0.00     0.025 C 
HETATM   13  C15 UNL     1      -8.614 -37.068   5.538  1.00  0.00     0.002 C 
HETATM   14  C16 UNL     1      -9.324 -37.468   4.280  1.00  0.00     0.004 C 
HETATM   15  C17 UNL     1      -8.737 -36.819   3.049  1.00  0.00    -0.017 C 
HETATM   16  C18 UNL     1      -9.025 -35.335   3.099  1.00  0.00     0.010 C 
HETATM   17  C19 UNL     1      -7.286 -37.115   2.848  1.00  0.00     0.029 C 
ENDBRANCH   9  11
ENDBRANCH   6   9
ENDBRANCH   5   6
BRANCH   1  18
HETATM   18  C5  UNL     1      -4.373 -39.418   1.531  1.00  0.00     0.218 C 
BRANCH  18  19
HETATM   19  N1  UNL     1      -5.009 -40.597   1.168  1.00  0.00    -0.348 N 
BRANCH  19  20
HETATM   20  C2  UNL     1      -6.384 -40.966   1.327  1.00  0.00     0.122 C 
HETATM   21  C1  UNL     1      -6.749 -40.937   2.811  1.00  0.00     0.026 C 
ENDBRANCH  19  20
BRANCH  19  22
HETATM   22  C3  UNL     1      -4.129 -41.618   0.523  1.00  0.00     0.122 C 
HETATM   23  C4  UNL     1      -3.552 -42.548   1.531  1.00  0.00     0.026 C 
ENDBRANCH  19  22
ENDBRANCH  18  19
BRANCH  18  24
HETATM   24  O1  UNL     1      -4.929 -38.354   0.971  1.00  0.00    -0.332 OA
ATOM     25  H1  UNL     1      -5.877 -38.370   1.027  1.00  0.00     0.220 HD
ENDBRANCH  18  24
ENDBRANCH   1  18
BRANCH   2  26
HETATM   26  C7  UNL     1      -1.578 -37.319   1.858  1.00  0.00     0.138 C 
BRANCH  26  27
HETATM   27  C8  UNL     1      -2.488 -36.336   1.327  1.00  0.00     0.174 C 
HETATM   28  O2  UNL     1      -3.601 -36.045   1.809  1.00  0.00    -0.648 OA
HETATM   29  O3  UNL     1      -2.132 -35.623   0.165  1.00  0.00    -0.648 OA
ENDBRANCH  26  27
ENDBRANCH   2  26
TORSDOF 11
ENDMDL
MODEL 4
REMARK VINA RESULT: -5.629181300      1.537      2.371
REMARK  11 active torsions:
REMARK  status: ('A' for Active; 'I' for Inactive)
REMARK    1  A    between atoms: C2_2  and  N1_3 
REMARK    2  A    between atoms: N1_3  and  C3_4 
REMARK    3  A    between atoms: N1_3  and  C5_6 
REMARK    4  A    between atoms: C5_6  and  O1_7 
REMARK    5  A    between atoms: C5_6  and  N2_9 
REMARK    6  A    between atoms: C6_10  and  C7_11 
REMARK    7  A    between atoms: C7_11  and  C8_12 
REMARK    8  A    between atoms: C11_17  and  C12_18 
REMARK    9  A    between atoms: C12_18  and  O4_19 
REMARK   10  A    between atoms: C12_18  and  N3_21 
REMARK   11  A    between atoms: N3_21  and  C13_23 
ROOT
HETATM    1  N2  UNL     1      -3.626 -38.533   3.178  1.00  0.00    -0.330 N 
HETATM    2  C6  UNL     1      -4.436 -38.286   4.292  1.00  0.00     0.098 C 
HETATM    3  C9  UNL     1      -4.368 -39.573   5.136  1.00  0.00     0.028 C 
HETATM    4  C10 UNL     1      -4.142 -40.624   4.119  1.00  0.00     0.036 C 
HETATM    5  C11 UNL     1      -3.481 -39.985   2.962  1.00  0.00     0.162 C 
ENDROOT
BRANCH   5   6
HETATM    6  C12 UNL     1      -3.976 -40.488   1.698  1.00  0.00     0.135 C 
BRANCH   6   7
HETATM    7  O4  UNL     1      -4.640 -39.600   1.005  1.00  0.00    -0.348 OA
ATOM      8  H4  UNL     1      -5.232 -39.981   0.366  1.00  0.00     0.219 HD
ENDBRANCH   6   7
BRANCH   6   9
HETATM    9  N3  UNL     1      -3.871 -41.741   1.101  1.00  0.00    -0.368 N 
ATOM     10  H3  UNL     1      -3.295 -42.445   1.562  1.00  0.00     0.161 HD
BRANCH   9  11
HETATM   11  C13 UNL     1      -4.534 -42.103  -0.144  1.00  0.00     0.083 C 
HETATM   12  C14 UNL     1      -3.861 -43.297  -0.774  1.00  0.00     0.025 C 
HETATM   13  C15 UNL     1      -4.320 -43.414  -2.216  1.00  0.00     0.002 C 
HETATM   14  C16 UNL     1      -5.736 -42.947  -2.370  1.00  0.00     0.004 C 
HETATM   15  C17 UNL     1      -6.550 -43.130  -1.111  1.00  0.00    -0.017 C 
HETATM   16  C18 UNL     1      -6.744 -44.610  -0.870  1.00  0.00     0.010 C 
HETATM   17  C19 UNL     1      -5.982 -42.425   0.078  1.00  0.00     0.029 C 
ENDBRANCH   9  11
ENDBRANCH   6   9
ENDBRANCH   5   6
BRANCH   1  18
HETATM   18  C5  UNL     1      -2.900 -37.656   2.333  1.00  0.00     0.218 C 
BRANCH  18  19
HETATM   19  N1  UNL     1      -1.572 -37.252   2.305  1.00  0.00    -0.348 N 
BRANCH  19  20
HETATM   20  C2  UNL     1      -0.531 -37.509   3.255  1.00  0.00     0.122 C 
HETATM   21  C1  UNL     1      -0.120 -38.978   3.172  1.00  0.00     0.026 C 
ENDBRANCH  19  20
BRANCH  19  22
HETATM   22  C3  UNL     1      -1.184 -36.436   1.115  1.00  0.00     0.122 C 
HETATM   23  C4  UNL     1      -0.213 -37.164   0.254  1.00  0.00     0.026 C 
ENDBRANCH  19  22
ENDBRANCH  18  19
BRANCH  18  24
HETATM   24  O1  UNL     1      -3.615 -37.101   1.366  1.00  0.00    -0.332 OA
ATOM     25  H1  UNL     1      -4.418 -36.710   1.690  1.00  0.00     0.220 HD
ENDBRANCH  18  24
ENDBRANCH   1  18
BRANCH   2  26
HETATM   26  C7  UNL     1      -5.850 -37.914   4.219  1.00  0.00     0.138 C 
BRANCH  26  27
HETATM   27  C8  UNL     1      -6.582 -37.890   2.978  1.00  0.00     0.174 C 
HETATM   28  O2  UNL     1      -7.236 -38.842   2.505  1.00  0.00    -0.648 OA
HETATM   29  O3  UNL     1      -6.585 -36.715   2.200  1.00  0.00    -0.648 OA
ENDBRANCH  26  27
ENDBRANCH   2  26
TORSDOF 11
ENDMDL
MODEL 5
REMARK VINA RESULT: -5.611581575      2.026      5.537
REMARK  11 active torsions:
REMARK  status: ('A' for Active; 'I' for Inactive)
REMARK    1  A    between atoms: C2_2  and  N1_3 
REMARK    2  A    between atoms: N1_3  and  C3_4 
REMARK    3  A    between atoms: N1_3  and  C5_6 
REMARK    4  A    between atoms: C5_6  and  O1_7 
REMARK    5  A    between atoms: C5_6  and  N2_9 
REMARK    6  A    between atoms: C6_10  and  C7_11 
REMARK    7  A    between atoms: C7_11  and  C8_12 
REMARK    8  A    between atoms: C11_17  and  C12_18 
REMARK    9  A    between atoms: C12_18  and  O4_19 
REMARK   10  A    between atoms: C12_18  and  N3_21 
REMARK   11  A    between atoms: N3_21  and  C13_23 
ROOT
HETATM    1  N2  UNL     1      -6.746 -39.862   3.217  1.00  0.00    -0.330 N 
HETATM    2  C6  UNL     1      -7.622 -40.048   4.292  1.00  0.00     0.098 C 
HETATM    3  C9  UNL     1      -8.738 -39.005   4.091  1.00  0.00     0.028 C 
HETATM    4  C10 UNL     1      -8.042 -37.909   3.381  1.00  0.00     0.036 C 
HETATM    5  C11 UNL     1      -6.897 -38.504   2.662  1.00  0.00     0.162 C 
ENDROOT
BRANCH   5   6
HETATM    6  C12 UNL     1      -5.718 -37.665   2.714  1.00  0.00     0.135 C 
BRANCH   6   7
HETATM    7  O4  UNL     1      -5.696 -36.857   3.741  1.00  0.00    -0.348 OA
ATOM      8  H4  UNL     1      -6.350 -36.169   3.698  1.00  0.00     0.219 HD
ENDBRANCH   6   7
BRANCH   6   9
HETATM    9  N3  UNL     1      -4.616 -37.572   1.869  1.00  0.00    -0.368 N 
ATOM     10  H3  UNL     1      -4.774 -37.655   0.864  1.00  0.00     0.161 HD
BRANCH   9  11
HETATM   11  C13 UNL     1      -3.252 -37.362   2.335  1.00  0.00     0.083 C 
HETATM   12  C14 UNL     1      -2.494 -38.666   2.353  1.00  0.00     0.025 C 
HETATM   13  C15 UNL     1      -1.232 -38.486   3.179  1.00  0.00     0.002 C 
HETATM   14  C16 UNL     1      -0.697 -37.092   3.049  1.00  0.00     0.004 C 
HETATM   15  C17 UNL     1      -1.048 -36.454   1.727  1.00  0.00    -0.017 C 
HETATM   16  C18 UNL     1      -0.295 -37.170   0.628  1.00  0.00     0.010 C 
HETATM   17  C19 UNL     1      -2.518 -36.386   1.464  1.00  0.00     0.029 C 
ENDBRANCH   9  11
ENDBRANCH   6   9
ENDBRANCH   5   6
BRANCH   1  18
HETATM   18  C5  UNL     1      -5.856 -40.755   2.567  1.00  0.00     0.218 C 
BRANCH  18  19
HETATM   19  N1  UNL     1      -5.806 -41.274   1.280  1.00  0.00    -0.348 N 
BRANCH  19  20
HETATM   20  C2  UNL     1      -6.878 -41.755   0.460  1.00  0.00     0.122 C 
HETATM   21  C1  UNL     1      -7.797 -42.644   1.297  1.00  0.00     0.026 C 
ENDBRANCH  19  20
BRANCH  19  22
HETATM   22  C3  UNL     1      -4.442 -41.335   0.676  1.00  0.00     0.122 C 
HETATM   23  C4  UNL     1      -4.333 -42.453  -0.301  1.00  0.00     0.026 C 
ENDBRANCH  19  22
ENDBRANCH  18  19
BRANCH  18  24
HETATM   24  O1  UNL     1      -4.860 -41.191   3.325  1.00  0.00    -0.332 OA
ATOM     25  H1  UNL     1      -4.834 -40.759   4.170  1.00  0.00     0.220 HD
ENDBRANCH  18  24
ENDBRANCH   1  18
BRANCH   2  26
HETATM   26  C7  UNL     1      -7.228 -39.966   5.700  1.00  0.00     0.138 C 
BRANCH  26  27
HETATM   27  C8  UNL     1      -5.964 -39.419   6.122  1.00  0.00     0.174 C 
HETATM   28  O2  UNL     1      -5.749 -38.221   6.398  1.00  0.00    -0.648 OA
HETATM   29  O3  UNL     1      -4.849 -40.272   6.244  1.00  0.00    -0.648 OA
ENDBRANCH  26  27
ENDBRANCH   2  26
TORSDOF 11
ENDMDL
