MODEL 1
REMARK VINA RESULT: -6.932469595      0.000      0.000
REMARK  13 active torsions:
REMARK  status: ('A' for Active; 'I' for Inactive)
REMARK    1  A    between atoms: C5_5  and  C6_6 
REMARK    2  A    between atoms: C6_6  and  S1_7 
REMARK    3  A    between atoms: S1_7  and  C7_8 
REMARK    4  A    between atoms: C7_8  and  N1_9 
REMARK    5  A    between atoms: N1_9  and  O1_10 
REMARK    6  A    between atoms: N1_9  and  C8_12 
REMARK    7  A    between atoms: C8_12  and  C9_13 
REMARK    8  A    between atoms: C9_13  and  N2_14 
REMARK    9  A    between atoms: C10_18  and  O2_19 
REMARK   10  A    between atoms: C11_21  and  O3_22 
REMARK   11  A    between atoms: C12_24  and  O4_25 
REMARK   12  A    between atoms: C12_24  and  C13_27 
REMARK   13  A    between atoms: N3_28  and  N4_30 
ROOT
HETATM    1  C1  UNL     1      50.307  29.350  37.867  1.00  0.00     0.046 C 
HETATM    2  C2  UNL     1      49.852  30.552  38.659  1.00  0.00    -0.046 C 
HETATM    3  C3  UNL     1      48.924  30.290  39.561  1.00  0.00    -0.020 C 
HETATM    4  C4  UNL     1      48.208  31.124  40.529  1.00  0.00     0.035 C 
HETATM    5  C5  UNL     1      49.120  32.074  41.307  1.00  0.00     0.030 C 
HETATM    6  C10 UNL     1      49.716  33.108  40.423  1.00  0.00     0.155 C 
HETATM    7  C11 UNL     1      50.871  32.623  39.591  1.00  0.00     0.191 C 
HETATM    8  C12 UNL     1      50.467  31.851  38.361  1.00  0.00     0.142 C 
ENDROOT
BRANCH   5   9
HETATM    9  C6  UNL     1      48.196  32.740  42.303  1.00  0.00     0.083 C 
BRANCH   9  10
HETATM   10  S1  UNL     1      48.669  32.454  44.000  1.00  0.00    -0.146 SA
BRANCH  10  11
HETATM   11  C7  UNL     1      50.191  31.442  44.007  1.00  0.00     0.228 C 
BRANCH  11  12
HETATM   12  N1  UNL     1      50.662  31.338  45.342  1.00  0.00    -0.265 N 
BRANCH  12  13
HETATM   13  O1  UNL     1      51.811  30.955  45.521  1.00  0.00    -0.287 OA
ATOM     14  H1  UNL     1      52.408  30.970  44.783  1.00  0.00     0.244 HD
ENDBRANCH  12  13
BRANCH  12  15
HETATM   15  C8  UNL     1      49.920  31.636  46.503  1.00  0.00     0.117 C 
BRANCH  15  16
HETATM   16  C9  UNL     1      49.514  30.423  47.271  1.00  0.00     0.276 C 
BRANCH  16  17
HETATM   17  N2  UNL     1      48.137  30.132  47.163  1.00  0.00    -0.075 N 
ATOM     18  H23 UNL     1      47.845  30.121  46.185  1.00  0.00     0.274 HD
ATOM     19  H22 UNL     1      47.952  29.159  47.404  1.00  0.00     0.274 HD
ATOM     20  H21 UNL     1      47.550  30.760  47.710  1.00  0.00     0.274 HD
ENDBRANCH  16  17
ENDBRANCH  15  16
ENDBRANCH  12  15
ENDBRANCH  11  12
ENDBRANCH  10  11
ENDBRANCH   9  10
ENDBRANCH   5   9
BRANCH   6  21
HETATM   21  O2  UNL     1      50.188  34.169  41.179  1.00  0.00    -0.392 OA
ATOM     22  H2  UNL     1      50.550  34.840  40.612  1.00  0.00     0.210 HD
ENDBRANCH   6  21
BRANCH   7  23
HETATM   23  O3  UNL     1      51.842  31.956  40.299  1.00  0.00    -0.389 OA
ATOM     24  H3  UNL     1      52.472  31.491  39.760  1.00  0.00     0.210 HD
ENDBRANCH   7  23
BRANCH   8  25
HETATM   25  O4  UNL     1      51.689  31.558  37.702  1.00  0.00    -0.377 OA
ATOM     26  H4  UNL     1      52.353  31.545  38.381  1.00  0.00     0.211 HD
ENDBRANCH   8  25
BRANCH   8  27
HETATM   27  C13 UNL     1      49.699  32.668  37.400  1.00  0.00     0.124 C 
HETATM   28  N3  UNL     1      49.083  32.207  36.370  1.00  0.00    -0.319 N 
ATOM     29  H3  UNL     1      49.121  31.204  36.196  1.00  0.00     0.185 HD
BRANCH  28  30
HETATM   30  N4  UNL     1      48.365  33.002  35.479  1.00  0.00    -0.346 N 
ATOM     31  H42 UNL     1      48.877  33.745  35.004  1.00  0.00     0.176 HD
ATOM     32  H41 UNL     1      47.372  32.878  35.283  1.00  0.00     0.176 HD
ENDBRANCH  28  30
ENDBRANCH   8  27
TORSDOF 13
ENDMDL
MODEL 2
REMARK VINA RESULT: -6.924629305      1.479      1.839
REMARK  13 active torsions:
REMARK  status: ('A' for Active; 'I' for Inactive)
REMARK    1  A    between atoms: C5_5  and  C6_6 
REMARK    2  A    between atoms: C6_6  and  S1_7 
REMARK    3  A    between atoms: S1_7  and  C7_8 
REMARK    4  A    between atoms: C7_8  and  N1_9 
REMARK    5  A    between atoms: N1_9  and  O1_10 
REMARK    6  A    between atoms: N1_9  and  C8_12 
REMARK    7  A    between atoms: C8_12  and  C9_13 
REMARK    8  A    between atoms: C9_13  and  N2_14 
REMARK    9  A    between atoms: C10_18  and  O2_19 
REMARK   10  A    between atoms: C11_21  and  O3_22 
REMARK   11  A    between atoms: C12_24  and  O4_25 
REMARK   12  A    between atoms: C12_24  and  C13_27 
REMARK   13  A    between atoms: N3_28  and  N4_30 
ROOT
HETATM    1  C1  UNL     1      49.722  28.494  39.335  1.00  0.00     0.046 C 
HETATM    2  C2  UNL     1      49.352  29.845  39.899  1.00  0.00    -0.046 C 
HETATM    3  C3  UNL     1      48.537  29.797  40.937  1.00  0.00    -0.020 C 
HETATM    4  C4  UNL     1      47.932  30.830  41.779  1.00  0.00     0.035 C 
HETATM    5  C5  UNL     1      48.920  31.908  42.227  1.00  0.00     0.030 C 
HETATM    6  C10 UNL     1      49.402  32.719  41.080  1.00  0.00     0.155 C 
HETATM    7  C11 UNL     1      50.456  32.049  40.244  1.00  0.00     0.191 C 
HETATM    8  C12 UNL     1      49.919  31.039  39.262  1.00  0.00     0.142 C 
ENDROOT
BRANCH   5   9
HETATM    9  C6  UNL     1      48.112  32.786  43.157  1.00  0.00     0.083 C 
BRANCH   9  10
HETATM   10  S1  UNL     1      48.717  32.774  44.836  1.00  0.00    -0.146 SA
BRANCH  10  11
HETATM   11  C7  UNL     1      48.394  31.122  45.549  1.00  0.00     0.228 C 
BRANCH  11  12
HETATM   12  N1  UNL     1      49.425  30.816  46.476  1.00  0.00    -0.265 N 
BRANCH  12  13
HETATM   13  O1  UNL     1      49.149  30.106  47.433  1.00  0.00    -0.287 OA
ATOM     14  H1  UNL     1      48.768  30.516  48.200  1.00  0.00     0.244 HD
ENDBRANCH  12  13
BRANCH  12  15
HETATM   15  C8  UNL     1      50.760  31.263  46.400  1.00  0.00     0.117 C 
BRANCH  15  16
HETATM   16  C9  UNL     1      51.576  30.516  45.400  1.00  0.00     0.276 C 
BRANCH  16  17
HETATM   17  N2  UNL     1      52.823  30.091  45.906  1.00  0.00    -0.075 N 
ATOM     18  H23 UNL     1      52.794  30.014  46.923  1.00  0.00     0.274 HD
ATOM     19  H22 UNL     1      52.996  29.114  45.670  1.00  0.00     0.274 HD
ATOM     20  H21 UNL     1      53.599  30.680  45.608  1.00  0.00     0.274 HD
ENDBRANCH  16  17
ENDBRANCH  15  16
ENDBRANCH  12  15
ENDBRANCH  11  12
ENDBRANCH  10  11
ENDBRANCH   9  10
ENDBRANCH   5   9
BRANCH   6  21
HETATM   21  O2  UNL     1      49.950  33.909  41.533  1.00  0.00    -0.392 OA
ATOM     22  H2  UNL     1      50.005  34.536  40.822  1.00  0.00     0.210 HD
ENDBRANCH   6  21
BRANCH   7  23
HETATM   23  O3  UNL     1      51.507  31.531  40.962  1.00  0.00    -0.389 OA
ATOM     24  H3  UNL     1      51.253  30.927  41.651  1.00  0.00     0.210 HD
ENDBRANCH   7  23
BRANCH   8  25
HETATM   25  O4  UNL     1      51.058  30.592  38.545  1.00  0.00    -0.377 OA
ATOM     26  H4  UNL     1      51.808  30.818  39.083  1.00  0.00     0.211 HD
ENDBRANCH   8  25
BRANCH   8  27
HETATM   27  C13 UNL     1      49.038  31.646  38.243  1.00  0.00     0.124 C 
HETATM   28  N3  UNL     1      49.445  32.235  37.176  1.00  0.00    -0.319 N 
ATOM     29  H3  UNL     1      50.450  32.293  37.012  1.00  0.00     0.185 HD
BRANCH  28  30
HETATM   30  N4  UNL     1      48.592  32.800  36.230  1.00  0.00    -0.346 N 
ATOM     31  H42 UNL     1      48.194  32.172  35.531  1.00  0.00     0.176 HD
ATOM     32  H41 UNL     1      48.350  33.790  36.205  1.00  0.00     0.176 HD
ENDBRANCH  28  30
ENDBRANCH   8  27
TORSDOF 13
ENDMDL
MODEL 3
REMARK VINA RESULT: -6.753912098      3.803      7.172
REMARK  13 active torsions:
REMARK  status: ('A' for Active; 'I' for Inactive)
REMARK    1  A    between atoms: C5_5  and  C6_6 
REMARK    2  A    between atoms: C6_6  and  S1_7 
REMARK    3  A    between atoms: S1_7  and  C7_8 
REMARK    4  A    between atoms: C7_8  and  N1_9 
REMARK    5  A    between atoms: N1_9  and  O1_10 
REMARK    6  A    between atoms: N1_9  and  C8_12 
REMARK    7  A    between atoms: C8_12  and  C9_13 
REMARK    8  A    between atoms: C9_13  and  N2_14 
REMARK    9  A    between atoms: C10_18  and  O2_19 
REMARK   10  A    between atoms: C11_21  and  O3_22 
REMARK   11  A    between atoms: C12_24  and  O4_25 
REMARK   12  A    between atoms: C12_24  and  C13_27 
REMARK   13  A    between atoms: N3_28  and  N4_30 
ROOT
HETATM    1  C1  UNL     1      47.629  29.685  41.448  1.00  0.00     0.046 C 
HETATM    2  C2  UNL     1      48.665  30.715  41.066  1.00  0.00    -0.046 C 
HETATM    3  C3  UNL     1      49.086  30.627  39.818  1.00  0.00    -0.020 C 
HETATM    4  C4  UNL     1      50.057  31.395  39.035  1.00  0.00     0.035 C 
HETATM    5  C5  UNL     1      49.907  32.909  39.192  1.00  0.00     0.030 C 
HETATM    6  C10 UNL     1      50.236  33.351  40.571  1.00  0.00     0.155 C 
HETATM    7  C11 UNL     1      49.149  33.102  41.580  1.00  0.00     0.191 C 
HETATM    8  C12 UNL     1      49.087  31.683  42.085  1.00  0.00     0.142 C 
ENDROOT
BRANCH   5   9
HETATM    9  C6  UNL     1      50.920  33.483  38.227  1.00  0.00     0.083 C 
BRANCH   9  10
HETATM   10  S1  UNL     1      50.307  34.895  37.323  1.00  0.00    -0.146 SA
BRANCH  10  11
HETATM   11  C7  UNL     1      51.736  35.917  36.819  1.00  0.00     0.228 C 
BRANCH  11  12
HETATM   12  N1  UNL     1      52.094  36.764  37.901  1.00  0.00    -0.265 N 
BRANCH  12  13
HETATM   13  O1  UNL     1      52.345  36.246  38.981  1.00  0.00    -0.287 OA
ATOM     14  H1  UNL     1      53.256  36.119  39.216  1.00  0.00     0.244 HD
ENDBRANCH  12  13
BRANCH  12  15
HETATM   15  C8  UNL     1      52.187  38.170  37.850  1.00  0.00     0.117 C 
BRANCH  15  16
HETATM   16  C9  UNL     1      53.593  38.669  37.872  1.00  0.00     0.276 C 
BRANCH  16  17
HETATM   17  N2  UNL     1      53.699  40.012  38.293  1.00  0.00    -0.075 N 
ATOM     18  H23 UNL     1      53.051  40.606  37.776  1.00  0.00     0.274 HD
ATOM     19  H22 UNL     1      53.319  40.128  39.232  1.00  0.00     0.274 HD
ATOM     20  H21 UNL     1      54.649  40.375  38.238  1.00  0.00     0.274 HD
ENDBRANCH  16  17
ENDBRANCH  15  16
ENDBRANCH  12  15
ENDBRANCH  11  12
ENDBRANCH  10  11
ENDBRANCH   9  10
ENDBRANCH   5   9
BRANCH   6  21
HETATM   21  O2  UNL     1      50.490  34.714  40.588  1.00  0.00    -0.392 OA
ATOM     22  H2  UNL     1      49.879  35.168  40.019  1.00  0.00     0.210 HD
ENDBRANCH   6  21
BRANCH   7  23
HETATM   23  O3  UNL     1      47.906  33.548  41.199  1.00  0.00    -0.389 OA
ATOM     24  H3  UNL     1      47.400  33.945  41.899  1.00  0.00     0.210 HD
ENDBRANCH   7  23
BRANCH   8  25
HETATM   25  O4  UNL     1      48.056  31.692  43.060  1.00  0.00    -0.377 OA
ATOM     26  H4  UNL     1      47.671  32.560  43.021  1.00  0.00     0.211 HD
ENDBRANCH   8  25
BRANCH   8  27
HETATM   27  C13 UNL     1      50.305  31.284  42.819  1.00  0.00     0.124 C 
HETATM   28  N3  UNL     1      50.420  31.268  44.099  1.00  0.00    -0.319 N 
ATOM     29  H3  UNL     1      49.616  31.551  44.658  1.00  0.00     0.185 HD
BRANCH  28  30
HETATM   30  N4  UNL     1      51.582  30.886  44.766  1.00  0.00    -0.346 N 
ATOM     31  H42 UNL     1      52.302  31.599  44.889  1.00  0.00     0.176 HD
ATOM     32  H41 UNL     1      51.744  29.947  45.131  1.00  0.00     0.176 HD
ENDBRANCH  28  30
ENDBRANCH   8  27
TORSDOF 13
ENDMDL
MODEL 4
REMARK VINA RESULT: -6.743461843      1.459      1.776
REMARK  13 active torsions:
REMARK  status: ('A' for Active; 'I' for Inactive)
REMARK    1  A    between atoms: C5_5  and  C6_6 
REMARK    2  A    between atoms: C6_6  and  S1_7 
REMARK    3  A    between atoms: S1_7  and  C7_8 
REMARK    4  A    between atoms: C7_8  and  N1_9 
REMARK    5  A    between atoms: N1_9  and  O1_10 
REMARK    6  A    between atoms: N1_9  and  C8_12 
REMARK    7  A    between atoms: C8_12  and  C9_13 
REMARK    8  A    between atoms: C9_13  and  N2_14 
REMARK    9  A    between atoms: C10_18  and  O2_19 
REMARK   10  A    between atoms: C11_21  and  O3_22 
REMARK   11  A    between atoms: C12_24  and  O4_25 
REMARK   12  A    between atoms: C12_24  and  C13_27 
REMARK   13  A    between atoms: N3_28  and  N4_30 
ROOT
HETATM    1  C1  UNL     1      51.954  31.896  36.749  1.00  0.00     0.046 C 
HETATM    2  C2  UNL     1      50.764  32.104  37.656  1.00  0.00    -0.046 C 
HETATM    3  C3  UNL     1      50.333  31.006  38.248  1.00  0.00    -0.020 C 
HETATM    4  C4  UNL     1      49.238  30.741  39.185  1.00  0.00     0.035 C 
HETATM    5  C5  UNL     1      49.160  31.748  40.333  1.00  0.00     0.030 C 
HETATM    6  C10 UNL     1      48.800  33.105  39.847  1.00  0.00     0.155 C 
HETATM    7  C11 UNL     1      49.935  33.860  39.213  1.00  0.00     0.191 C 
HETATM    8  C12 UNL     1      50.225  33.462  37.789  1.00  0.00     0.142 C 
ENDROOT
BRANCH   5   9
HETATM    9  C6  UNL     1      48.049  31.220  41.213  1.00  0.00     0.083 C 
BRANCH   9  10
HETATM   10  S1  UNL     1      48.432  31.305  42.954  1.00  0.00    -0.146 SA
BRANCH  10  11
HETATM   11  C7  UNL     1      50.250  31.297  43.142  1.00  0.00     0.228 C 
BRANCH  11  12
HETATM   12  N1  UNL     1      50.564  31.318  44.526  1.00  0.00    -0.265 N 
BRANCH  12  13
HETATM   13  O1  UNL     1      51.693  30.990  44.867  1.00  0.00    -0.287 OA
ATOM     14  H1  UNL     1      52.102  31.466  45.580  1.00  0.00     0.244 HD
ENDBRANCH  12  13
BRANCH  12  15
HETATM   15  C8  UNL     1      49.685  31.684  45.566  1.00  0.00     0.117 C 
BRANCH  15  16
HETATM   16  C9  UNL     1      49.958  30.972  46.847  1.00  0.00     0.276 C 
BRANCH  16  17
HETATM   17  N2  UNL     1      50.936  31.609  47.640  1.00  0.00    -0.075 N 
ATOM     18  H23 UNL     1      50.624  32.538  47.924  1.00  0.00     0.274 HD
ATOM     19  H22 UNL     1      51.005  31.168  48.556  1.00  0.00     0.274 HD
ATOM     20  H21 UNL     1      51.850  31.655  47.190  1.00  0.00     0.274 HD
ENDBRANCH  16  17
ENDBRANCH  15  16
ENDBRANCH  12  15
ENDBRANCH  11  12
ENDBRANCH  10  11
ENDBRANCH   9  10
ENDBRANCH   5   9
BRANCH   6  21
HETATM   21  O2  UNL     1      48.342  33.883  40.899  1.00  0.00    -0.392 OA
ATOM     22  H2  UNL     1      49.064  34.119  41.470  1.00  0.00     0.210 HD
ENDBRANCH   6  21
BRANCH   7  23
HETATM   23  O3  UNL     1      51.086  33.891  39.963  1.00  0.00    -0.389 OA
ATOM     24  H3  UNL     1      51.878  33.693  39.476  1.00  0.00     0.210 HD
ENDBRANCH   7  23
BRANCH   8  25
HETATM   25  O4  UNL     1      51.265  34.334  37.375  1.00  0.00    -0.377 OA
ATOM     26  H4  UNL     1      51.950  33.774  37.031  1.00  0.00     0.211 HD
ENDBRANCH   8  25
BRANCH   8  27
HETATM   27  C13 UNL     1      49.099  33.748  36.876  1.00  0.00     0.124 C 
HETATM   28  N3  UNL     1      48.902  33.167  35.746  1.00  0.00    -0.319 N 
ATOM     29  H3  UNL     1      49.568  32.454  35.449  1.00  0.00     0.185 HD
BRANCH  28  30
HETATM   30  N4  UNL     1      47.831  33.457  34.904  1.00  0.00    -0.346 N 
ATOM     31  H42 UNL     1      47.411  34.383  34.989  1.00  0.00     0.176 HD
ATOM     32  H41 UNL     1      47.454  32.800  34.220  1.00  0.00     0.176 HD
ENDBRANCH  28  30
ENDBRANCH   8  27
TORSDOF 13
ENDMDL
MODEL 5
REMARK VINA RESULT: -6.600144476      2.110      2.484
REMARK  13 active torsions:
REMARK  status: ('A' for Active; 'I' for Inactive)
REMARK    1  A    between atoms: C5_5  and  C6_6 
REMARK    2  A    between atoms: C6_6  and  S1_7 
REMARK    3  A    between atoms: S1_7  and  C7_8 
REMARK    4  A    between atoms: C7_8  and  N1_9 
REMARK    5  A    between atoms: N1_9  and  O1_10 
REMARK    6  A    between atoms: N1_9  and  C8_12 
REMARK    7  A    between atoms: C8_12  and  C9_13 
REMARK    8  A    between atoms: C9_13  and  N2_14 
REMARK    9  A    between atoms: C10_18  and  O2_19 
REMARK   10  A    between atoms: C11_21  and  O3_22 
REMARK   11  A    between atoms: C12_24  and  O4_25 
REMARK   12  A    between atoms: C12_24  and  C13_27 
REMARK   13  A    between atoms: N3_28  and  N4_30 
ROOT
HETATM    1  C1  UNL     1      48.931  33.112  36.562  1.00  0.00     0.046 C 
HETATM    2  C2  UNL     1      49.405  32.949  37.986  1.00  0.00    -0.046 C 
HETATM    3  C3  UNL     1      48.505  32.436  38.804  1.00  0.00    -0.020 C 
HETATM    4  C4  UNL     1      48.524  32.110  40.232  1.00  0.00     0.035 C 
HETATM    5  C5  UNL     1      49.784  31.362  40.670  1.00  0.00     0.030 C 
HETATM    6  C10 UNL     1      50.995  32.215  40.554  1.00  0.00     0.155 C 
HETATM    7  C11 UNL     1      51.523  32.358  39.154  1.00  0.00     0.191 C 
HETATM    8  C12 UNL     1      50.776  33.359  38.310  1.00  0.00     0.142 C 
ENDROOT
BRANCH   5   9
HETATM    9  C6  UNL     1      49.536  31.041  42.127  1.00  0.00     0.083 C 
BRANCH   9  10
HETATM   10  S1  UNL     1      49.147  32.480  43.108  1.00  0.00    -0.146 SA
BRANCH  10  11
HETATM   11  C7  UNL     1      48.347  31.922  44.653  1.00  0.00     0.228 C 
BRANCH  11  12
HETATM   12  N1  UNL     1      49.352  31.483  45.554  1.00  0.00    -0.265 N 
BRANCH  12  13
HETATM   13  O1  UNL     1      50.523  31.652  45.239  1.00  0.00    -0.287 OA
ATOM     14  H1  UNL     1      51.188  31.527  45.905  1.00  0.00     0.244 HD
ENDBRANCH  12  13
BRANCH  12  15
HETATM   15  C8  UNL     1      49.129  30.858  46.797  1.00  0.00     0.117 C 
BRANCH  15  16
HETATM   16  C9  UNL     1      47.811  30.162  46.879  1.00  0.00     0.276 C 
BRANCH  16  17
HETATM   17  N2  UNL     1      47.492  29.730  48.184  1.00  0.00    -0.075 N 
ATOM     18  H23 UNL     1      46.581  30.087  48.471  1.00  0.00     0.274 HD
ATOM     19  H22 UNL     1      47.292  28.731  48.197  1.00  0.00     0.274 HD
ATOM     20  H21 UNL     1      48.207  29.966  48.871  1.00  0.00     0.274 HD
ENDBRANCH  16  17
ENDBRANCH  15  16
ENDBRANCH  12  15
ENDBRANCH  11  12
ENDBRANCH  10  11
ENDBRANCH   9  10
ENDBRANCH   5   9
BRANCH   6  21
HETATM   21  O2  UNL     1      52.025  31.687  41.316  1.00  0.00    -0.392 OA
ATOM     22  H2  UNL     1      52.863  32.001  40.996  1.00  0.00     0.210 HD
ENDBRANCH   6  21
BRANCH   7  23
HETATM   23  O3  UNL     1      51.687  31.169  38.484  1.00  0.00    -0.389 OA
ATOM     24  H3  UNL     1      52.593  30.922  38.339  1.00  0.00     0.210 HD
ENDBRANCH   7  23
BRANCH   8  25
HETATM   25  O4  UNL     1      51.475  33.383  37.075  1.00  0.00    -0.377 OA
ATOM     26  H4  UNL     1      51.752  32.488  36.918  1.00  0.00     0.211 HD
ENDBRANCH   8  25
BRANCH   8  27
HETATM   27  C13 UNL     1      50.878  34.737  38.834  1.00  0.00     0.124 C 
HETATM   28  N3  UNL     1      49.878  35.476  39.158  1.00  0.00    -0.319 N 
ATOM     29  H3  UNL     1      48.940  35.092  39.048  1.00  0.00     0.185 HD
BRANCH  28  30
HETATM   30  N4  UNL     1      50.003  36.774  39.651  1.00  0.00    -0.346 N 
ATOM     31  H42 UNL     1      50.048  36.883  40.664  1.00  0.00     0.176 HD
ATOM     32  H41 UNL     1      50.050  37.603  39.058  1.00  0.00     0.176 HD
ENDBRANCH  28  30
ENDBRANCH   8  27
TORSDOF 13
ENDMDL
