MODEL 1
REMARK VINA RESULT: -6.471550403      0.000      0.000
REMARK  5 active torsions:
REMARK  status: ('A' for Active; 'I' for Inactive)
REMARK    1  A    between atoms: C2_2  and  C3_3 
REMARK    2  A    between atoms: C3_3  and  N1_4 
REMARK    3  A    between atoms: C3_3  and  C12_19 
REMARK       I    between atoms: N1_4  and  C4_6 
REMARK    4  A    between atoms: C4_6  and  C5_8 
REMARK    5  A    between atoms: C9_13  and  C10_14 
REMARK       I    between atoms: C10_14  and  N2_16 
ROOT
HETATM    1  C5  UNL     1      23.769  10.518  22.137  1.00  0.00     0.093 C 
HETATM    2  C6  UNL     1      22.976   9.636  21.212  1.00  0.00     0.052 C 
HETATM    3  C7  UNL     1      21.658  10.284  20.980  1.00  0.00     0.171 C 
HETATM    4  F1  UNL     1      20.669   9.346  21.201  1.00  0.00    -0.249 F 
HETATM    5  C8  UNL     1      21.542  11.475  21.873  1.00  0.00     0.052 C 
HETATM    6  C9  UNL     1      22.729  11.406  22.781  1.00  0.00     0.093 C 
ENDROOT
BRANCH   1   7
HETATM    7  C4  UNL     1      24.831  11.269  21.468  1.00  0.00     0.223 C 
HETATM    8  N1  UNL     1      25.774  10.628  20.660  1.00  0.00    -0.356 N 
ATOM      9  H1  UNL     1      25.677   9.617  20.568  1.00  0.00     0.162 HD
HETATM   10  O1  UNL     1      24.881  12.497  21.632  1.00  0.00    -0.273 OA
BRANCH   8  11
HETATM   11  C3  UNL     1      26.859  11.228  19.950  1.00  0.00     0.087 C 
BRANCH  11  12
HETATM   12  C2  UNL     1      27.910  10.167  19.696  1.00  0.00     0.021 C 
HETATM   13  C1  UNL     1      28.547   9.692  20.979  1.00  0.00     0.007 C 
ENDBRANCH  11  12
BRANCH  11  14
HETATM   14  C12 UNL     1      26.519  11.865  18.649  1.00  0.00     0.000 C 
HETATM   15  C13 UNL     1      25.184  11.487  18.103  1.00  0.00     0.011 C 
HETATM   16  C14 UNL     1      26.624  13.378  18.681  1.00  0.00     0.011 C 
ENDBRANCH  11  14
ENDBRANCH   8  11
ENDBRANCH   1   7
BRANCH   6  17
HETATM   17  C10 UNL     1      22.287  10.746  24.058  1.00  0.00     0.222 C 
HETATM   18  O2  UNL     1      22.909   9.742  24.522  1.00  0.00    -0.273 OA
HETATM   19  N2  UNL     1      21.161  11.234  24.773  1.00  0.00    -0.365 N 
HETATM   20  C11 UNL     1      20.740  10.599  25.997  1.00  0.00     0.149 C 
ATOM     21  H2  UNL     1      20.647  12.040  24.417  1.00  0.00     0.161 HD
ENDBRANCH   6  17
TORSDOF 5
ENDMDL
MODEL 2
REMARK VINA RESULT: -6.451325682      2.521      3.439
REMARK  5 active torsions:
REMARK  status: ('A' for Active; 'I' for Inactive)
REMARK    1  A    between atoms: C2_2  and  C3_3 
REMARK    2  A    between atoms: C3_3  and  N1_4 
REMARK    3  A    between atoms: C3_3  and  C12_19 
REMARK       I    between atoms: N1_4  and  C4_6 
REMARK    4  A    between atoms: C4_6  and  C5_8 
REMARK    5  A    between atoms: C9_13  and  C10_14 
REMARK       I    between atoms: C10_14  and  N2_16 
ROOT
HETATM    1  C5  UNL     1      22.727  11.428  23.583  1.00  0.00     0.093 C 
HETATM    2  C6  UNL     1      22.872  10.236  24.489  1.00  0.00     0.052 C 
HETATM    3  C7  UNL     1      21.537   9.593  24.615  1.00  0.00     0.171 C 
HETATM    4  F1  UNL     1      21.274   9.401  25.957  1.00  0.00    -0.249 F 
HETATM    5  C8  UNL     1      20.522  10.452  23.938  1.00  0.00     0.052 C 
HETATM    6  C9  UNL     1      21.243  11.714  23.584  1.00  0.00     0.093 C 
ENDROOT
BRANCH   1   7
HETATM    7  C4  UNL     1      23.271  11.217  22.241  1.00  0.00     0.223 C 
HETATM    8  N1  UNL     1      23.837  12.268  21.515  1.00  0.00    -0.356 N 
ATOM      9  H1  UNL     1      23.848  13.179  21.973  1.00  0.00     0.162 HD
HETATM   10  O1  UNL     1      23.219  10.078  21.755  1.00  0.00    -0.273 OA
BRANCH   8  11
HETATM   11  C3  UNL     1      24.403  12.211  20.205  1.00  0.00     0.087 C 
BRANCH  11  12
HETATM   12  C2  UNL     1      24.039  13.484  19.469  1.00  0.00     0.021 C 
HETATM   13  C1  UNL     1      22.545  13.639  19.324  1.00  0.00     0.007 C 
ENDBRANCH  11  12
BRANCH  11  14
HETATM   14  C12 UNL     1      25.880  12.041  20.133  1.00  0.00     0.000 C 
HETATM   15  C13 UNL     1      26.339  10.623  20.075  1.00  0.00     0.011 C 
HETATM   16  C14 UNL     1      26.512  12.807  18.987  1.00  0.00     0.011 C 
ENDBRANCH  11  14
ENDBRANCH   8  11
ENDBRANCH   1   7
BRANCH   6  17
HETATM   17  C10 UNL     1      20.968  12.716  24.671  1.00  0.00     0.222 C 
HETATM   18  O2  UNL     1      19.815  12.816  25.188  1.00  0.00    -0.273 OA
HETATM   19  N2  UNL     1      21.998  13.571  25.144  1.00  0.00    -0.365 N 
HETATM   20  C11 UNL     1      21.732  14.531  26.188  1.00  0.00     0.149 C 
ATOM     21  H2  UNL     1      22.934  13.507  24.743  1.00  0.00     0.161 HD
ENDBRANCH   6  17
TORSDOF 5
ENDMDL
MODEL 3
REMARK VINA RESULT: -6.420577986      1.375      2.514
REMARK  5 active torsions:
REMARK  status: ('A' for Active; 'I' for Inactive)
REMARK    1  A    between atoms: C2_2  and  C3_3 
REMARK    2  A    between atoms: C3_3  and  N1_4 
REMARK    3  A    between atoms: C3_3  and  C12_19 
REMARK       I    between atoms: N1_4  and  C4_6 
REMARK    4  A    between atoms: C4_6  and  C5_8 
REMARK    5  A    between atoms: C9_13  and  C10_14 
REMARK       I    between atoms: C10_14  and  N2_16 
ROOT
HETATM    1  C5  UNL     1      24.077  10.328  21.392  1.00  0.00     0.093 C 
HETATM    2  C6  UNL     1      22.997   9.478  20.779  1.00  0.00     0.052 C 
HETATM    3  C7  UNL     1      21.818  10.349  20.527  1.00  0.00     0.171 C 
HETATM    4  F1  UNL     1      20.702   9.730  21.055  1.00  0.00    -0.249 F 
HETATM    5  C8  UNL     1      22.075  11.694  21.122  1.00  0.00     0.052 C 
HETATM    6  C9  UNL     1      23.342  11.545  21.904  1.00  0.00     0.093 C 
ENDROOT
BRANCH   1   7
HETATM    7  C4  UNL     1      25.162  10.659  20.468  1.00  0.00     0.223 C 
HETATM    8  N1  UNL     1      26.404  11.096  20.935  1.00  0.00    -0.356 N 
ATOM      9  H1  UNL     1      26.506  11.169  21.947  1.00  0.00     0.162 HD
HETATM   10  O1  UNL     1      24.957  10.544  19.250  1.00  0.00    -0.273 OA
BRANCH   8  11
HETATM   11  C3  UNL     1      27.547  11.452  20.156  1.00  0.00     0.087 C 
BRANCH  11  12
HETATM   12  C2  UNL     1      27.859  12.913  20.402  1.00  0.00     0.021 C 
HETATM   13  C1  UNL     1      27.069  13.816  19.487  1.00  0.00     0.007 C 
ENDBRANCH  11  12
BRANCH  11  14
HETATM   14  C12 UNL     1      28.785  10.666  20.409  1.00  0.00     0.000 C 
HETATM   15  C13 UNL     1      29.757  11.318  21.332  1.00  0.00     0.011 C 
HETATM   16  C14 UNL     1      28.506   9.260  20.905  1.00  0.00     0.011 C 
ENDBRANCH  11  14
ENDBRANCH   8  11
ENDBRANCH   1   7
BRANCH   6  17
HETATM   17  C10 UNL     1      22.963  11.285  23.336  1.00  0.00     0.222 C 
HETATM   18  O2  UNL     1      23.225  10.173  23.888  1.00  0.00    -0.273 OA
HETATM   19  N2  UNL     1      22.304  12.282  24.103  1.00  0.00    -0.365 N 
HETATM   20  C11 UNL     1      21.942  12.030  25.476  1.00  0.00     0.149 C 
ATOM     21  H2  UNL     1      22.084  13.183  23.679  1.00  0.00     0.161 HD
ENDBRANCH   6  17
TORSDOF 5
ENDMDL
MODEL 4
REMARK VINA RESULT: -6.414844886      2.395      6.452
REMARK  5 active torsions:
REMARK  status: ('A' for Active; 'I' for Inactive)
REMARK    1  A    between atoms: C2_2  and  C3_3 
REMARK    2  A    between atoms: C3_3  and  N1_4 
REMARK    3  A    between atoms: C3_3  and  C12_19 
REMARK       I    between atoms: N1_4  and  C4_6 
REMARK    4  A    between atoms: C4_6  and  C5_8 
REMARK    5  A    between atoms: C9_13  and  C10_14 
REMARK       I    between atoms: C10_14  and  N2_16 
ROOT
HETATM    1  C5  UNL     1      22.164  11.558  20.966  1.00  0.00     0.093 C 
HETATM    2  C6  UNL     1      22.293  10.319  20.124  1.00  0.00     0.052 C 
HETATM    3  C7  UNL     1      23.694   9.832  20.238  1.00  0.00     0.171 C 
HETATM    4  F1  UNL     1      24.182   9.613  18.965  1.00  0.00    -0.249 F 
HETATM    5  C8  UNL     1      24.492  10.833  21.005  1.00  0.00     0.052 C 
HETATM    6  C9  UNL     1      23.590  12.016  21.170  1.00  0.00     0.093 C 
ENDROOT
BRANCH   1   7
HETATM    7  C4  UNL     1      21.445  11.343  22.223  1.00  0.00     0.223 C 
HETATM    8  N1  UNL     1      21.369  12.345  23.194  1.00  0.00    -0.356 N 
ATOM      9  H1  UNL     1      21.839  13.222  22.976  1.00  0.00     0.162 HD
HETATM   10  O1  UNL     1      20.899  10.246  22.412  1.00  0.00    -0.273 OA
BRANCH   8  11
HETATM   11  C3  UNL     1      20.706  12.278  24.458  1.00  0.00     0.087 C 
BRANCH  11  12
HETATM   12  C2  UNL     1      21.613  11.562  25.437  1.00  0.00     0.021 C 
HETATM   13  C1  UNL     1      20.945  10.347  26.034  1.00  0.00     0.007 C 
ENDBRANCH  11  12
BRANCH  11  14
HETATM   14  C12 UNL     1      20.308  13.579  25.061  1.00  0.00     0.000 C 
HETATM   15  C13 UNL     1      19.002  13.556  25.779  1.00  0.00     0.011 C 
HETATM   16  C14 UNL     1      21.365  14.154  25.985  1.00  0.00     0.011 C 
ENDBRANCH  11  14
ENDBRANCH   8  11
ENDBRANCH   1   7
BRANCH   6  17
HETATM   17  C10 UNL     1      23.919  12.994  20.076  1.00  0.00     0.222 C 
HETATM   18  O2  UNL     1      23.037  13.783  19.621  1.00  0.00    -0.273 OA
HETATM   19  N2  UNL     1      25.229  13.055  19.531  1.00  0.00    -0.365 N 
HETATM   20  C11 UNL     1      25.542  13.995  18.482  1.00  0.00     0.149 C 
ATOM     21  H2  UNL     1      25.954  12.430  19.883  1.00  0.00     0.161 HD
ENDBRANCH   6  17
TORSDOF 5
ENDMDL
MODEL 5
REMARK VINA RESULT: -6.313097082      2.529      3.464
REMARK  5 active torsions:
REMARK  status: ('A' for Active; 'I' for Inactive)
REMARK    1  A    between atoms: C2_2  and  C3_3 
REMARK    2  A    between atoms: C3_3  and  N1_4 
REMARK    3  A    between atoms: C3_3  and  C12_19 
REMARK       I    between atoms: N1_4  and  C4_6 
REMARK    4  A    between atoms: C4_6  and  C5_8 
REMARK    5  A    between atoms: C9_13  and  C10_14 
REMARK       I    between atoms: C10_14  and  N2_16 
ROOT
HETATM    1  C5  UNL     1      22.564  11.341  23.187  1.00  0.00     0.093 C 
HETATM    2  C6  UNL     1      22.747  10.040  23.920  1.00  0.00     0.052 C 
HETATM    3  C7  UNL     1      21.411   9.591  24.396  1.00  0.00     0.171 C 
HETATM    4  F1  UNL     1      21.511   9.279  25.738  1.00  0.00    -0.249 F 
HETATM    5  C8  UNL     1      20.414  10.667  24.120  1.00  0.00     0.052 C 
HETATM    6  C9  UNL     1      21.217  11.841  23.655  1.00  0.00     0.093 C 
ENDROOT
BRANCH   1   7
HETATM    7  C4  UNL     1      22.656  11.215  21.732  1.00  0.00     0.223 C 
HETATM    8  N1  UNL     1      23.766  11.694  21.033  1.00  0.00    -0.356 N 
ATOM      9  H1  UNL     1      24.498  12.132  21.591  1.00  0.00     0.162 HD
HETATM   10  O1  UNL     1      21.722  10.670  21.126  1.00  0.00    -0.273 OA
BRANCH   8  11
HETATM   11  C3  UNL     1      23.992  11.641  19.623  1.00  0.00     0.087 C 
BRANCH  11  12
HETATM   12  C2  UNL     1      23.953  13.054  19.078  1.00  0.00     0.021 C 
HETATM   13  C1  UNL     1      22.590  13.681  19.243  1.00  0.00     0.007 C 
ENDBRANCH  11  12
BRANCH  11  14
HETATM   14  C12 UNL     1      25.266  11.010  19.185  1.00  0.00     0.000 C 
HETATM   15  C13 UNL     1      26.154  11.899  18.381  1.00  0.00     0.011 C 
HETATM   16  C14 UNL     1      26.067  10.427  20.334  1.00  0.00     0.011 C 
ENDBRANCH  11  14
ENDBRANCH   8  11
ENDBRANCH   1   7
BRANCH   6  17
HETATM   17  C10 UNL     1      21.445  12.734  24.844  1.00  0.00     0.222 C 
HETATM   18  O2  UNL     1      20.482  13.081  25.593  1.00  0.00    -0.273 OA
HETATM   19  N2  UNL     1      22.748  13.207  25.153  1.00  0.00    -0.365 N 
HETATM   20  C11 UNL     1      22.964  14.063  26.294  1.00  0.00     0.149 C 
ATOM     21  H2  UNL     1      23.536  12.940  24.564  1.00  0.00     0.161 HD
ENDBRANCH   6  17
TORSDOF 5
ENDMDL
