MODEL 1
REMARK VINA RESULT: -6.344265206      0.000      0.000
REMARK  6 active torsions:
REMARK  status: ('A' for Active; 'I' for Inactive)
REMARK    1  A    between atoms: C1_2  and  C2_3 
REMARK       I    between atoms: C1_2  and  N1_13 
REMARK    2  A    between atoms: C2_3  and  C3_4 
REMARK    3  A    between atoms: C3_4  and  C4_5 
REMARK    4  A    between atoms: N1_13  and  C10_15 
REMARK    5  A    between atoms: C10_15  and  C11_16 
REMARK    6  A    between atoms: C11_16  and  C12_17 
ROOT
HETATM    1  O1  UNL     1      23.063  11.309  24.833  1.00  0.00    -0.274 OA
HETATM    2  C1  UNL     1      22.224  12.233  24.812  1.00  0.00     0.218 C 
HETATM    3  N1  UNL     1      21.289  12.297  23.769  1.00  0.00    -0.361 N 
ATOM      4  H1  UNL     1      20.600  13.050  23.753  1.00  0.00     0.162 HD
ENDROOT
BRANCH   2   5
HETATM    5  C2  UNL     1      22.217  13.241  25.867  1.00  0.00     0.123 C 
BRANCH   5   6
HETATM    6  C3  UNL     1      21.145  13.115  26.898  1.00  0.00     0.056 C 
HETATM    7  C5  UNL     1      19.955  13.975  26.665  1.00  0.00     0.021 C 
HETATM    8  C6  UNL     1      18.638  13.242  26.844  1.00  0.00     0.001 C 
HETATM    9  C7  UNL     1      18.639  12.609  28.218  1.00  0.00     0.000 C 
HETATM   10  C8  UNL     1      19.796  11.658  28.299  1.00  0.00     0.001 C 
HETATM   11  C9  UNL     1      20.658  11.675  27.048  1.00  0.00     0.021 C 
BRANCH   6  12
HETATM   12  C4  UNL     1      21.780  13.443  28.206  1.00  0.00     0.182 C 
HETATM   13  O2  UNL     1      22.779  12.771  28.553  1.00  0.00    -0.647 OA
HETATM   14  O3  UNL     1      21.270  14.470  29.013  1.00  0.00    -0.647 OA
ENDBRANCH   6  12
ENDBRANCH   5   6
ENDBRANCH   2   5
BRANCH   3  15
HETATM   15  C10 UNL     1      21.291  11.310  22.722  1.00  0.00     0.123 C 
BRANCH  15  16
HETATM   16  C11 UNL     1      22.052  11.660  21.503  1.00  0.00     0.027 C 
BRANCH  16  17
HETATM   17  C12 UNL     1      23.340  10.902  21.341  1.00  0.00     0.024 A 
HETATM   18  C13 UNL     1      23.544  10.308  19.932  1.00  0.00     0.045 A 
HETATM   19  C14 UNL     1      23.399   9.454  21.147  1.00  0.00     0.174 A 
HETATM   20  F1  UNL     1      24.542   8.802  21.584  1.00  0.00    -0.249 F 
ENDBRANCH  16  17
ENDBRANCH  15  16
ENDBRANCH   3  15
TORSDOF 6
ENDMDL
MODEL 2
REMARK VINA RESULT: -6.322989521      3.125      4.644
REMARK  6 active torsions:
REMARK  status: ('A' for Active; 'I' for Inactive)
REMARK    1  A    between atoms: C1_2  and  C2_3 
REMARK       I    between atoms: C1_2  and  N1_13 
REMARK    2  A    between atoms: C2_3  and  C3_4 
REMARK    3  A    between atoms: C3_4  and  C4_5 
REMARK    4  A    between atoms: N1_13  and  C10_15 
REMARK    5  A    between atoms: C10_15  and  C11_16 
REMARK    6  A    between atoms: C11_16  and  C12_17 
ROOT
HETATM    1  O1  UNL     1      24.197  12.924  20.886  1.00  0.00    -0.274 OA
HETATM    2  C1  UNL     1      24.286  11.940  21.647  1.00  0.00     0.218 C 
HETATM    3  N1  UNL     1      24.744  10.713  21.146  1.00  0.00    -0.361 N 
ATOM      4  H1  UNL     1      24.820   9.909  21.769  1.00  0.00     0.162 HD
ENDROOT
BRANCH   2   5
HETATM    5  C2  UNL     1      23.914  12.064  23.053  1.00  0.00     0.123 C 
BRANCH   5   6
HETATM    6  C3  UNL     1      22.622  11.434  23.456  1.00  0.00     0.056 C 
HETATM    7  C5  UNL     1      21.600  11.371  22.379  1.00  0.00     0.021 C 
HETATM    8  C6  UNL     1      20.919  10.017  22.274  1.00  0.00     0.001 C 
HETATM    9  C7  UNL     1      20.355   9.672  23.634  1.00  0.00     0.000 C 
HETATM   10  C8  UNL     1      21.485   9.628  24.619  1.00  0.00     0.001 C 
HETATM   11  C9  UNL     1      22.817  10.021  24.001  1.00  0.00     0.021 C 
BRANCH   6  12
HETATM   12  C4  UNL     1      22.114  12.224  24.614  1.00  0.00     0.182 C 
HETATM   13  O2  UNL     1      20.995  12.775  24.498  1.00  0.00    -0.647 OA
HETATM   14  O3  UNL     1      22.871  12.338  25.790  1.00  0.00    -0.647 OA
ENDBRANCH   6  12
ENDBRANCH   5   6
ENDBRANCH   2   5
BRANCH   3  15
HETATM   15  C10 UNL     1      25.107  10.579  19.760  1.00  0.00     0.123 C 
BRANCH  15  16
HETATM   16  C11 UNL     1      26.556  10.620  19.463  1.00  0.00     0.027 C 
BRANCH  16  17
HETATM   17  C12 UNL     1      27.437  10.370  20.655  1.00  0.00     0.024 A 
HETATM   18  C13 UNL     1      28.925  10.694  20.411  1.00  0.00     0.045 A 
HETATM   19  C14 UNL     1      28.444   9.312  20.701  1.00  0.00     0.174 A 
HETATM   20  F1  UNL     1      28.763   8.794  21.947  1.00  0.00    -0.249 F 
ENDBRANCH  16  17
ENDBRANCH  15  16
ENDBRANCH   3  15
TORSDOF 6
ENDMDL
MODEL 3
REMARK VINA RESULT: -6.284898126      4.506      6.004
REMARK  6 active torsions:
REMARK  status: ('A' for Active; 'I' for Inactive)
REMARK    1  A    between atoms: C1_2  and  C2_3 
REMARK       I    between atoms: C1_2  and  N1_13 
REMARK    2  A    between atoms: C2_3  and  C3_4 
REMARK    3  A    between atoms: C3_4  and  C4_5 
REMARK    4  A    between atoms: N1_13  and  C10_15 
REMARK    5  A    between atoms: C10_15  and  C11_16 
REMARK    6  A    between atoms: C11_16  and  C12_17 
ROOT
HETATM    1  O1  UNL     1      23.910  13.497  19.157  1.00  0.00    -0.274 OA
HETATM    2  C1  UNL     1      23.571  12.354  19.525  1.00  0.00     0.218 C 
HETATM    3  N1  UNL     1      24.355  11.248  19.167  1.00  0.00    -0.361 N 
ATOM      4  H1  UNL     1      24.080  10.314  19.471  1.00  0.00     0.162 HD
ENDROOT
BRANCH   2   5
HETATM    5  C2  UNL     1      22.365  12.169  20.325  1.00  0.00     0.123 C 
BRANCH   5   6
HETATM    6  C3  UNL     1      22.531  11.439  21.617  1.00  0.00     0.056 C 
HETATM    7  C5  UNL     1      23.812  11.706  22.321  1.00  0.00     0.021 C 
HETATM    8  C6  UNL     1      23.638  11.976  23.805  1.00  0.00     0.001 C 
HETATM    9  C7  UNL     1      22.875  10.816  24.405  1.00  0.00     0.000 C 
HETATM   10  C8  UNL     1      21.544  10.720  23.719  1.00  0.00     0.001 C 
HETATM   11  C9  UNL     1      21.391  11.728  22.592  1.00  0.00     0.021 C 
BRANCH   6  12
HETATM   12  C4  UNL     1      22.401   9.988  21.298  1.00  0.00     0.182 C 
HETATM   13  O2  UNL     1      21.267   9.561  20.980  1.00  0.00    -0.647 OA
HETATM   14  O3  UNL     1      23.517   9.140  21.354  1.00  0.00    -0.647 OA
ENDBRANCH   6  12
ENDBRANCH   5   6
ENDBRANCH   2   5
BRANCH   3  15
HETATM   15  C10 UNL     1      25.543  11.419  18.374  1.00  0.00     0.123 C 
BRANCH  15  16
HETATM   16  C11 UNL     1      26.767  11.801  19.113  1.00  0.00     0.027 C 
BRANCH  16  17
HETATM   17  C12 UNL     1      27.094  10.900  20.270  1.00  0.00     0.024 A 
HETATM   18  C13 UNL     1      28.394  11.279  21.010  1.00  0.00     0.045 A 
HETATM   19  C14 UNL     1      28.237   9.988  20.278  1.00  0.00     0.174 A 
HETATM   20  F1  UNL     1      28.130   8.845  21.056  1.00  0.00    -0.249 F 
ENDBRANCH  16  17
ENDBRANCH  15  16
ENDBRANCH   3  15
TORSDOF 6
ENDMDL
MODEL 4
REMARK VINA RESULT: -6.279925277      1.684      2.175
REMARK  6 active torsions:
REMARK  status: ('A' for Active; 'I' for Inactive)
REMARK    1  A    between atoms: C1_2  and  C2_3 
REMARK       I    between atoms: C1_2  and  N1_13 
REMARK    2  A    between atoms: C2_3  and  C3_4 
REMARK    3  A    between atoms: C3_4  and  C4_5 
REMARK    4  A    between atoms: N1_13  and  C10_15 
REMARK    5  A    between atoms: C10_15  and  C11_16 
REMARK    6  A    between atoms: C11_16  and  C12_17 
ROOT
HETATM    1  O1  UNL     1      19.361  11.398  25.146  1.00  0.00    -0.274 OA
HETATM    2  C1  UNL     1      19.991  12.468  25.260  1.00  0.00     0.218 C 
HETATM    3  N1  UNL     1      21.217  12.626  24.599  1.00  0.00    -0.361 N 
ATOM      4  H1  UNL     1      21.731  13.503  24.689  1.00  0.00     0.162 HD
ENDROOT
BRANCH   2   5
HETATM    5  C2  UNL     1      19.454  13.551  26.078  1.00  0.00     0.123 C 
BRANCH   5   6
HETATM    6  C3  UNL     1      19.798  13.518  27.531  1.00  0.00     0.056 C 
HETATM    7  C5  UNL     1      18.657  13.781  28.446  1.00  0.00     0.021 C 
HETATM    8  C6  UNL     1      18.578  12.804  29.606  1.00  0.00     0.001 C 
HETATM    9  C7  UNL     1      19.912  12.818  30.319  1.00  0.00     0.000 C 
HETATM   10  C8  UNL     1      20.975  12.406  29.344  1.00  0.00     0.001 C 
HETATM   11  C9  UNL     1      20.431  12.190  27.942  1.00  0.00     0.021 C 
BRANCH   6  12
HETATM   12  C4  UNL     1      20.874  14.531  27.730  1.00  0.00     0.182 C 
HETATM   13  O2  UNL     1      20.605  15.536  28.429  1.00  0.00    -0.647 OA
HETATM   14  O3  UNL     1      22.139  14.356  27.151  1.00  0.00    -0.647 OA
ENDBRANCH   6  12
ENDBRANCH   5   6
ENDBRANCH   2   5
BRANCH   3  15
HETATM   15  C10 UNL     1      21.757  11.563  23.794  1.00  0.00     0.123 C 
BRANCH  15  16
HETATM   16  C11 UNL     1      21.415  11.600  22.356  1.00  0.00     0.027 C 
BRANCH  16  17
HETATM   17  C12 UNL     1      22.580  11.356  21.438  1.00  0.00     0.024 A 
HETATM   18  C13 UNL     1      22.569  12.229  20.166  1.00  0.00     0.045 A 
HETATM   19  C14 UNL     1      22.447  10.743  20.118  1.00  0.00     0.174 A 
HETATM   20  F1  UNL     1      23.543  10.048  19.628  1.00  0.00    -0.249 F 
ENDBRANCH  16  17
ENDBRANCH  15  16
ENDBRANCH   3  15
TORSDOF 6
ENDMDL
MODEL 5
REMARK VINA RESULT: -6.272866008      3.934      7.845
REMARK  6 active torsions:
REMARK  status: ('A' for Active; 'I' for Inactive)
REMARK    1  A    between atoms: C1_2  and  C2_3 
REMARK       I    between atoms: C1_2  and  N1_13 
REMARK    2  A    between atoms: C2_3  and  C3_4 
REMARK    3  A    between atoms: C3_4  and  C4_5 
REMARK    4  A    between atoms: N1_13  and  C10_15 
REMARK    5  A    between atoms: C10_15  and  C11_16 
REMARK    6  A    between atoms: C11_16  and  C12_17 
ROOT
HETATM    1  O1  UNL     1      22.035  10.216  20.651  1.00  0.00    -0.274 OA
HETATM    2  C1  UNL     1      22.170  11.433  20.888  1.00  0.00     0.218 C 
HETATM    3  N1  UNL     1      21.748  11.952  22.121  1.00  0.00    -0.361 N 
ATOM      4  H1  UNL     1      21.861  12.947  22.316  1.00  0.00     0.162 HD
ENDROOT
BRANCH   2   5
HETATM    5  C2  UNL     1      22.763  12.314  19.887  1.00  0.00     0.123 C 
BRANCH   5   6
HETATM    6  C3  UNL     1      24.245  12.231  19.726  1.00  0.00     0.056 C 
HETATM    7  C5  UNL     1      24.989  11.912  20.973  1.00  0.00     0.021 C 
HETATM    8  C6  UNL     1      26.049  10.841  20.785  1.00  0.00     0.001 C 
HETATM    9  C7  UNL     1      26.960  11.279  19.659  1.00  0.00     0.000 C 
HETATM   10  C8  UNL     1      26.134  11.439  18.417  1.00  0.00     0.001 C 
HETATM   11  C9  UNL     1      24.652  11.210  18.665  1.00  0.00     0.021 C 
BRANCH   6  12
HETATM   12  C4  UNL     1      24.682  13.547  19.178  1.00  0.00     0.182 C 
HETATM   13  O2  UNL     1      24.173  13.926  18.097  1.00  0.00    -0.647 OA
HETATM   14  O3  UNL     1      25.630  14.327  19.857  1.00  0.00    -0.647 OA
ENDBRANCH   6  12
ENDBRANCH   5   6
ENDBRANCH   2   5
BRANCH   3  15
HETATM   15  C10 UNL     1      21.156  11.093  23.112  1.00  0.00     0.123 C 
BRANCH  15  16
HETATM   16  C11 UNL     1      20.670  11.759  24.340  1.00  0.00     0.027 C 
BRANCH  16  17
HETATM   17  C12 UNL     1      20.206  10.813  25.412  1.00  0.00     0.024 A 
HETATM   18  C13 UNL     1      18.982  11.316  26.204  1.00  0.00     0.045 A 
HETATM   19  C14 UNL     1      20.314  11.104  26.840  1.00  0.00     0.174 A 
HETATM   20  F1  UNL     1      20.423  10.022  27.701  1.00  0.00    -0.249 F 
ENDBRANCH  16  17
ENDBRANCH  15  16
ENDBRANCH   3  15
TORSDOF 6
ENDMDL
