MODEL 1
REMARK VINA RESULT: -6.519199663      0.000      0.000
REMARK  6 active torsions:
REMARK  status: ('A' for Active; 'I' for Inactive)
REMARK    1  A    between atoms: C1_2  and  C2_3 
REMARK       I    between atoms: C1_2  and  N1_9 
REMARK    2  A    between atoms: C2_3  and  C3_4 
REMARK    3  A    between atoms: N1_9  and  C7_10 
REMARK    4  A    between atoms: C7_10  and  C8_11 
REMARK    5  A    between atoms: C8_11  and  N2_12 
REMARK       I    between atoms: N2_12  and  C9_14 
REMARK    6  A    between atoms: C9_14  and  C10_16 
ROOT
HETATM    1  C7  UNL     1      26.290  14.033  23.423  1.00  0.00     0.178 C 
ENDROOT
BRANCH   1   2
HETATM    2  N1  UNL     1      27.288  13.222  22.927  1.00  0.00    -0.386 NA
HETATM    3  C1  UNL     1      28.267  12.429  22.442  1.00  0.00     0.291 C 
HETATM    4  O1  UNL     1      29.137  11.778  23.087  1.00  0.00    -0.257 OA
BRANCH   3   5
HETATM    5  C2  UNL     1      28.356  12.268  20.928  1.00  0.00     0.124 C 
BRANCH   5   6
HETATM    6  C3  UNL     1      27.003  12.248  20.286  1.00  0.00     0.001 C 
HETATM    7  C4  UNL     1      26.860  13.160  19.084  1.00  0.00     0.042 C 
HETATM    8  C5  UNL     1      26.087  12.046  18.402  1.00  0.00     0.170 C 
HETATM    9  F1  UNL     1      24.731  12.198  18.666  1.00  0.00    -0.249 F 
HETATM   10  C6  UNL     1      26.820  11.083  19.305  1.00  0.00     0.042 C 
ENDBRANCH   5   6
ENDBRANCH   3   5
ENDBRANCH   1   2
BRANCH   1  11
HETATM   11  C8  UNL     1      25.139  13.248  24.041  1.00  0.00     0.182 C 
BRANCH  11  12
HETATM   12  N2  UNL     1      24.399  12.437  23.126  1.00  0.00    -0.355 N 
HETATM   13  C9  UNL     1      23.442  11.467  23.572  1.00  0.00     0.222 C 
HETATM   14  O2  UNL     1      23.257  11.320  24.782  1.00  0.00    -0.273 OA
ATOM     15  H2  UNL     1      24.557  12.552  22.124  1.00  0.00     0.162 HD
BRANCH  13  16
HETATM   16  C10 UNL     1      22.720  10.676  22.580  1.00  0.00     0.078 C 
HETATM   17  C11 UNL     1      22.246  11.636  21.477  1.00  0.00     0.014 C 
HETATM   18  C12 UNL     1      22.103  10.754  20.275  1.00  0.00     0.001 C 
HETATM   19  C13 UNL     1      23.410   9.956  20.364  1.00  0.00     0.001 C 
HETATM   20  C14 UNL     1      23.514   9.627  21.860  1.00  0.00     0.014 C 
ENDBRANCH  13  16
ENDBRANCH  11  12
ENDBRANCH   1  11
TORSDOF 6
ENDMDL
MODEL 2
REMARK VINA RESULT: -6.434013002      1.809      2.152
REMARK  6 active torsions:
REMARK  status: ('A' for Active; 'I' for Inactive)
REMARK    1  A    between atoms: C1_2  and  C2_3 
REMARK       I    between atoms: C1_2  and  N1_9 
REMARK    2  A    between atoms: C2_3  and  C3_4 
REMARK    3  A    between atoms: N1_9  and  C7_10 
REMARK    4  A    between atoms: C7_10  and  C8_11 
REMARK    5  A    between atoms: C8_11  and  N2_12 
REMARK       I    between atoms: N2_12  and  C9_14 
REMARK    6  A    between atoms: C9_14  and  C10_16 
ROOT
HETATM    1  C7  UNL     1      26.464  13.564  23.636  1.00  0.00     0.178 C 
ENDROOT
BRANCH   1   2
HETATM    2  N1  UNL     1      26.586  13.766  22.277  1.00  0.00    -0.386 NA
HETATM    3  C1  UNL     1      26.704  13.964  20.948  1.00  0.00     0.291 C 
HETATM    4  O1  UNL     1      27.087  15.006  20.345  1.00  0.00    -0.257 OA
BRANCH   3   5
HETATM    5  C2  UNL     1      26.350  12.800  20.029  1.00  0.00     0.124 C 
BRANCH   5   6
HETATM    6  C3  UNL     1      26.866  11.495  20.552  1.00  0.00     0.001 C 
HETATM    7  C4  UNL     1      26.930  10.383  19.525  1.00  0.00     0.042 C 
HETATM    8  C5  UNL     1      28.275   9.996  20.112  1.00  0.00     0.170 C 
HETATM    9  F1  UNL     1      28.087   9.048  21.111  1.00  0.00    -0.249 F 
HETATM   10  C6  UNL     1      28.398  11.424  20.587  1.00  0.00     0.042 C 
ENDBRANCH   5   6
ENDBRANCH   3   5
ENDBRANCH   1   2
BRANCH   1  11
HETATM   11  C8  UNL     1      25.051  13.174  24.054  1.00  0.00     0.182 C 
BRANCH  11  12
HETATM   12  N2  UNL     1      24.344  12.362  23.114  1.00  0.00    -0.355 N 
HETATM   13  C9  UNL     1      23.443  11.327  23.530  1.00  0.00     0.222 C 
HETATM   14  O2  UNL     1      23.279  11.123  24.734  1.00  0.00    -0.273 OA
ATOM     15  H2  UNL     1      24.485  12.524  22.116  1.00  0.00     0.162 HD
BRANCH  13  16
HETATM   16  C10 UNL     1      22.751  10.540  22.513  1.00  0.00     0.078 C 
HETATM   17  C11 UNL     1      22.067  11.523  21.550  1.00  0.00     0.014 C 
HETATM   18  C12 UNL     1      21.943  10.745  20.276  1.00  0.00     0.001 C 
HETATM   19  C13 UNL     1      23.346  10.132  20.192  1.00  0.00     0.001 C 
HETATM   20  C14 UNL     1      23.614   9.683  21.635  1.00  0.00     0.014 C 
ENDBRANCH  13  16
ENDBRANCH  11  12
ENDBRANCH   1  11
TORSDOF 6
ENDMDL
MODEL 3
REMARK VINA RESULT: -6.411105101      4.103      5.888
REMARK  6 active torsions:
REMARK  status: ('A' for Active; 'I' for Inactive)
REMARK    1  A    between atoms: C1_2  and  C2_3 
REMARK       I    between atoms: C1_2  and  N1_9 
REMARK    2  A    between atoms: C2_3  and  C3_4 
REMARK    3  A    between atoms: N1_9  and  C7_10 
REMARK    4  A    between atoms: C7_10  and  C8_11 
REMARK    5  A    between atoms: C8_11  and  N2_12 
REMARK       I    between atoms: N2_12  and  C9_14 
REMARK    6  A    between atoms: C9_14  and  C10_16 
ROOT
HETATM    1  C7  UNL     1      22.806   9.954  24.307  1.00  0.00     0.178 C 
ENDROOT
BRANCH   1   2
HETATM    2  N1  UNL     1      22.912  10.133  22.944  1.00  0.00    -0.386 NA
HETATM    3  C1  UNL     1      23.018  10.310  21.610  1.00  0.00     0.291 C 
HETATM    4  O1  UNL     1      23.643   9.596  20.776  1.00  0.00    -0.257 OA
BRANCH   3   5
HETATM    5  C2  UNL     1      22.296  11.505  21.000  1.00  0.00     0.124 C 
BRANCH   5   6
HETATM    6  C3  UNL     1      23.025  12.055  19.813  1.00  0.00     0.001 C 
HETATM    7  C4  UNL     1      22.510  13.390  19.315  1.00  0.00     0.042 C 
HETATM    8  C5  UNL     1      23.955  13.816  19.132  1.00  0.00     0.170 C 
HETATM    9  F1  UNL     1      24.366  13.505  17.841  1.00  0.00    -0.249 F 
HETATM   10  C6  UNL     1      24.313  12.798  20.189  1.00  0.00     0.042 C 
ENDBRANCH   5   6
ENDBRANCH   3   5
ENDBRANCH   1   2
BRANCH   1  11
HETATM   11  C8  UNL     1      21.385   9.630  24.755  1.00  0.00     0.182 C 
BRANCH  11  12
HETATM   12  N2  UNL     1      21.096   9.936  26.120  1.00  0.00    -0.355 N 
HETATM   13  C9  UNL     1      20.417  11.140  26.501  1.00  0.00     0.222 C 
HETATM   14  O2  UNL     1      20.079  11.941  25.628  1.00  0.00    -0.273 OA
ATOM     15  H2  UNL     1      21.381   9.278  26.846  1.00  0.00     0.162 HD
BRANCH  13  16
HETATM   16  C10 UNL     1      20.151  11.385  27.916  1.00  0.00     0.078 C 
HETATM   17  C11 UNL     1      21.311  12.229  28.467  1.00  0.00     0.014 C 
HETATM   18  C12 UNL     1      20.709  12.940  29.640  1.00  0.00     0.001 C 
HETATM   19  C13 UNL     1      19.384  13.408  29.025  1.00  0.00     0.001 C 
HETATM   20  C14 UNL     1      18.918  12.179  28.232  1.00  0.00     0.014 C 
ENDBRANCH  13  16
ENDBRANCH  11  12
ENDBRANCH   1  11
TORSDOF 6
ENDMDL
MODEL 4
REMARK VINA RESULT: -6.326789449      1.004      4.748
REMARK  6 active torsions:
REMARK  status: ('A' for Active; 'I' for Inactive)
REMARK    1  A    between atoms: C1_2  and  C2_3 
REMARK       I    between atoms: C1_2  and  N1_9 
REMARK    2  A    between atoms: C2_3  and  C3_4 
REMARK    3  A    between atoms: N1_9  and  C7_10 
REMARK    4  A    between atoms: C7_10  and  C8_11 
REMARK    5  A    between atoms: C8_11  and  N2_12 
REMARK       I    between atoms: N2_12  and  C9_14 
REMARK    6  A    between atoms: C9_14  and  C10_16 
ROOT
HETATM    1  C7  UNL     1      24.937  13.714  24.431  1.00  0.00     0.178 C 
ENDROOT
BRANCH   1   2
HETATM    2  N1  UNL     1      24.145  12.598  24.266  1.00  0.00    -0.386 NA
HETATM    3  C1  UNL     1      23.371  11.504  24.104  1.00  0.00     0.291 C 
HETATM    4  O1  UNL     1      23.350  10.452  24.803  1.00  0.00    -0.257 OA
BRANCH   3   5
HETATM    5  C2  UNL     1      22.377  11.511  22.948  1.00  0.00     0.124 C 
BRANCH   5   6
HETATM    6  C3  UNL     1      23.064  11.458  21.618  1.00  0.00     0.001 C 
HETATM    7  C4  UNL     1      23.758  10.146  21.316  1.00  0.00     0.042 C 
HETATM    8  C5  UNL     1      23.219  10.251  19.901  1.00  0.00     0.170 C 
HETATM    9  F1  UNL     1      24.146  10.913  19.104  1.00  0.00    -0.249 F 
HETATM   10  C6  UNL     1      22.114  11.113  20.464  1.00  0.00     0.042 C 
ENDBRANCH   5   6
ENDBRANCH   3   5
ENDBRANCH   1   2
BRANCH   1  11
HETATM   11  C8  UNL     1      26.416  13.434  24.191  1.00  0.00     0.182 C 
BRANCH  11  12
HETATM   12  N2  UNL     1      26.735  12.945  22.887  1.00  0.00    -0.355 N 
HETATM   13  C9  UNL     1      28.069  12.565  22.523  1.00  0.00     0.222 C 
HETATM   14  O2  UNL     1      28.972  12.672  23.356  1.00  0.00    -0.273 OA
ATOM     15  H2  UNL     1      25.991  12.863  22.193  1.00  0.00     0.162 HD
BRANCH  13  16
HETATM   16  C10 UNL     1      28.322  12.069  21.174  1.00  0.00     0.078 C 
HETATM   17  C11 UNL     1      28.939  10.668  21.302  1.00  0.00     0.014 C 
HETATM   18  C12 UNL     1      28.593  10.006  20.004  1.00  0.00     0.001 C 
HETATM   19  C13 UNL     1      27.116  10.400  19.880  1.00  0.00     0.001 C 
HETATM   20  C14 UNL     1      27.117  11.877  20.300  1.00  0.00     0.014 C 
ENDBRANCH  13  16
ENDBRANCH  11  12
ENDBRANCH   1  11
TORSDOF 6
ENDMDL
MODEL 5
REMARK VINA RESULT: -6.306273912      5.081      6.552
REMARK  6 active torsions:
REMARK  status: ('A' for Active; 'I' for Inactive)
REMARK    1  A    between atoms: C1_2  and  C2_3 
REMARK       I    between atoms: C1_2  and  N1_9 
REMARK    2  A    between atoms: C2_3  and  C3_4 
REMARK    3  A    between atoms: N1_9  and  C7_10 
REMARK    4  A    between atoms: C7_10  and  C8_11 
REMARK    5  A    between atoms: C8_11  and  N2_12 
REMARK       I    between atoms: N2_12  and  C9_14 
REMARK    6  A    between atoms: C9_14  and  C10_16 
ROOT
HETATM    1  C7  UNL     1      20.993  10.226  24.909  1.00  0.00     0.178 C 
ENDROOT
BRANCH   1   2
HETATM    2  N1  UNL     1      21.040  10.169  23.532  1.00  0.00    -0.386 NA
HETATM    3  C1  UNL     1      21.086  10.112  22.184  1.00  0.00     0.291 C 
HETATM    4  O1  UNL     1      20.523   9.279  21.418  1.00  0.00    -0.257 OA
BRANCH   3   5
HETATM    5  C2  UNL     1      21.904  11.177  21.463  1.00  0.00     0.124 C 
BRANCH   5   6
HETATM    6  C3  UNL     1      22.701  10.602  20.333  1.00  0.00     0.001 C 
HETATM    7  C4  UNL     1      23.684  11.565  19.698  1.00  0.00     0.042 C 
HETATM    8  C5  UNL     1      24.684  10.424  19.651  1.00  0.00     0.170 C 
HETATM    9  F1  UNL     1      24.567   9.759  18.436  1.00  0.00    -0.249 F 
HETATM   10  C6  UNL     1      23.926   9.808  20.803  1.00  0.00     0.042 C 
ENDBRANCH   5   6
ENDBRANCH   3   5
ENDBRANCH   1   2
BRANCH   1  11
HETATM   11  C8  UNL     1      19.749  10.934  25.432  1.00  0.00     0.182 C 
BRANCH  11  12
HETATM   12  N2  UNL     1      18.516  10.259  25.175  1.00  0.00    -0.355 N 
HETATM   13  C9  UNL     1      17.250  10.823  25.543  1.00  0.00     0.222 C 
HETATM   14  O2  UNL     1      17.223  11.919  26.107  1.00  0.00    -0.273 OA
ATOM     15  H2  UNL     1      18.537   9.348  24.715  1.00  0.00     0.162 HD
BRANCH  13  16
HETATM   16  C10 UNL     1      16.030  10.079  25.245  1.00  0.00     0.078 C 
HETATM   17  C11 UNL     1      15.147  10.972  24.359  1.00  0.00     0.014 C 
HETATM   18  C12 UNL     1      14.291   9.997  23.612  1.00  0.00     0.001 C 
HETATM   19  C13 UNL     1      15.349   8.969  23.192  1.00  0.00     0.001 C 
HETATM   20  C14 UNL     1      16.199   8.812  24.461  1.00  0.00     0.014 C 
ENDBRANCH  13  16
ENDBRANCH  11  12
ENDBRANCH   1  11
TORSDOF 6
ENDMDL
