MODEL 1
REMARK VINA RESULT: -6.010021253      0.000      0.000
REMARK  4 active torsions:
REMARK  status: ('A' for Active; 'I' for Inactive)
REMARK    1  A    between atoms: O1_2  and  C2_3 
REMARK       I    between atoms: C2_3  and  N1_5 
REMARK    2  A    between atoms: N1_5  and  C3_7 
REMARK    3  A    between atoms: C3_7  and  C4_8 
REMARK    4  A    between atoms: C4_8  and  C5_9 
ROOT
HETATM    1  C5  UNL     1      21.719  10.887  21.765  1.00  0.00     0.038 C 
HETATM    2 CL1  UNL     1      20.330   9.863  22.192  1.00  0.00    -0.119 Cl
HETATM    3  C6  UNL     1      21.923  10.704  20.277  1.00  0.00     0.026 C 
HETATM    4  C7  UNL     1      22.860  11.661  19.648  1.00  0.00     0.002 C 
HETATM    5  C8  UNL     1      22.081  12.879  19.189  1.00  0.00     0.000 C 
HETATM    6  C9  UNL     1      22.040  13.893  20.277  1.00  0.00     0.000 C 
HETATM    7  C10 UNL     1      22.274  13.354  21.656  1.00  0.00     0.002 C 
HETATM    8  C11 UNL     1      21.268  12.307  21.986  1.00  0.00     0.026 C 
ENDROOT
BRANCH   1   9
HETATM    9  C4  UNL     1      22.934  10.482  22.479  1.00  0.00     0.045 C 
BRANCH   9  10
HETATM   10  C3  UNL     1      22.869  10.126  23.904  1.00  0.00     0.127 C 
BRANCH  10  11
HETATM   11  N1  UNL     1      23.202  11.183  24.821  1.00  0.00    -0.337 N 
HETATM   12  C2  UNL     1      22.223  11.938  25.520  1.00  0.00     0.360 C 
HETATM   13  O2  UNL     1      21.005  11.689  25.348  1.00  0.00    -0.239 OA
ATOM     14  H1  UNL     1      24.186  11.399  24.977  1.00  0.00     0.164 HD
BRANCH  12  15
HETATM   15  O1  UNL     1      22.558  12.957  26.401  1.00  0.00    -0.309 OA
HETATM   16  C1  UNL     1      21.802  13.088  27.586  1.00  0.00     0.215 C 
ENDBRANCH  12  15
ENDBRANCH  10  11
ENDBRANCH   9  10
ENDBRANCH   1   9
TORSDOF 4
ENDMDL
MODEL 2
REMARK VINA RESULT: -5.891315353      4.628      5.615
REMARK  4 active torsions:
REMARK  status: ('A' for Active; 'I' for Inactive)
REMARK    1  A    between atoms: O1_2  and  C2_3 
REMARK       I    between atoms: C2_3  and  N1_5 
REMARK    2  A    between atoms: N1_5  and  C3_7 
REMARK    3  A    between atoms: C3_7  and  C4_8 
REMARK    4  A    between atoms: C4_8  and  C5_9 
ROOT
HETATM    1  C5  UNL     1      25.035  11.851  19.574  1.00  0.00     0.038 C 
HETATM    2 CL1  UNL     1      26.241  11.781  18.269  1.00  0.00    -0.119 Cl
HETATM    3  C6  UNL     1      24.117  13.002  19.225  1.00  0.00     0.026 C 
HETATM    4  C7  UNL     1      22.880  13.086  20.031  1.00  0.00     0.002 C 
HETATM    5  C8  UNL     1      21.795  12.275  19.349  1.00  0.00     0.000 C 
HETATM    6  C9  UNL     1      21.823  10.873  19.847  1.00  0.00     0.000 C 
HETATM    7  C10 UNL     1      23.126  10.439  20.449  1.00  0.00     0.002 C 
HETATM    8  C11 UNL     1      24.231  10.584  19.461  1.00  0.00     0.026 C 
ENDROOT
BRANCH   1   9
HETATM    9  C4  UNL     1      25.659  12.101  20.878  1.00  0.00     0.045 C 
BRANCH   9  10
HETATM   10  C3  UNL     1      27.056  12.551  20.954  1.00  0.00     0.127 C 
BRANCH  10  11
HETATM   11  N1  UNL     1      27.988  11.587  21.474  1.00  0.00    -0.337 N 
HETATM   12  C2  UNL     1      28.710  11.780  22.682  1.00  0.00     0.360 C 
HETATM   13  O2  UNL     1      28.541  12.832  23.346  1.00  0.00    -0.239 OA
ATOM     14  H1  UNL     1      28.138  10.724  20.951  1.00  0.00     0.164 HD
BRANCH  12  15
HETATM   15  O1  UNL     1      29.609  10.843  23.172  1.00  0.00    -0.309 OA
HETATM   16  C1  UNL     1      29.440   9.495  22.790  1.00  0.00     0.215 C 
ENDBRANCH  12  15
ENDBRANCH  10  11
ENDBRANCH   9  10
ENDBRANCH   1   9
TORSDOF 4
ENDMDL
MODEL 3
REMARK VINA RESULT: -5.874064934      1.679      1.883
REMARK  4 active torsions:
REMARK  status: ('A' for Active; 'I' for Inactive)
REMARK    1  A    between atoms: O1_2  and  C2_3 
REMARK       I    between atoms: C2_3  and  N1_5 
REMARK    2  A    between atoms: N1_5  and  C3_7 
REMARK    3  A    between atoms: C3_7  and  C4_8 
REMARK    4  A    between atoms: C4_8  and  C5_9 
ROOT
HETATM    1  C5  UNL     1      21.613  11.007  22.284  1.00  0.00     0.038 C 
HETATM    2 CL1  UNL     1      20.209  10.204  23.022  1.00  0.00    -0.119 Cl
HETATM    3  C6  UNL     1      21.725  10.438  20.886  1.00  0.00     0.026 C 
HETATM    4  C7  UNL     1      22.663  11.149  19.991  1.00  0.00     0.002 C 
HETATM    5  C8  UNL     1      21.910  12.250  19.267  1.00  0.00     0.000 C 
HETATM    6  C9  UNL     1      21.974  13.510  20.057  1.00  0.00     0.000 C 
HETATM    7  C10 UNL     1      22.263  13.329  21.517  1.00  0.00     0.002 C 
HETATM    8  C11 UNL     1      21.235  12.458  22.150  1.00  0.00     0.026 C 
ENDROOT
BRANCH   1   9
HETATM    9  C4  UNL     1      22.848  10.733  23.025  1.00  0.00     0.045 C 
BRANCH   9  10
HETATM   10  C3  UNL     1      23.004  11.214  24.404  1.00  0.00     0.127 C 
BRANCH  10  11
HETATM   11  N1  UNL     1      23.973  12.262  24.588  1.00  0.00    -0.337 N 
HETATM   12  C2  UNL     1      23.617  13.595  24.921  1.00  0.00     0.360 C 
HETATM   13  O2  UNL     1      22.408  13.898  25.070  1.00  0.00    -0.239 OA
ATOM     14  H1  UNL     1      24.961  12.036  24.475  1.00  0.00     0.164 HD
BRANCH  12  15
HETATM   15  O1  UNL     1      24.561  14.598  25.094  1.00  0.00    -0.309 OA
HETATM   16  C1  UNL     1      25.897  14.325  24.729  1.00  0.00     0.215 C 
ENDBRANCH  12  15
ENDBRANCH  10  11
ENDBRANCH   9  10
ENDBRANCH   1   9
TORSDOF 4
ENDMDL
MODEL 4
REMARK VINA RESULT: -5.787549053      4.796      5.697
REMARK  4 active torsions:
REMARK  status: ('A' for Active; 'I' for Inactive)
REMARK    1  A    between atoms: O1_2  and  C2_3 
REMARK       I    between atoms: C2_3  and  N1_5 
REMARK    2  A    between atoms: N1_5  and  C3_7 
REMARK    3  A    between atoms: C3_7  and  C4_8 
REMARK    4  A    between atoms: C4_8  and  C5_9 
ROOT
HETATM    1  C5  UNL     1      24.690  12.146  19.368  1.00  0.00     0.038 C 
HETATM    2 CL1  UNL     1      24.855  10.673  18.386  1.00  0.00    -0.119 Cl
HETATM    3  C6  UNL     1      24.214  13.224  18.418  1.00  0.00     0.026 C 
HETATM    4  C7  UNL     1      23.756  14.473  19.063  1.00  0.00     0.002 C 
HETATM    5  C8  UNL     1      22.272  14.356  19.358  1.00  0.00     0.000 C 
HETATM    6  C9  UNL     1      22.070  13.780  20.715  1.00  0.00     0.000 C 
HETATM    7  C10 UNL     1      23.231  12.998  21.252  1.00  0.00     0.002 C 
HETATM    8  C11 UNL     1      23.571  11.873  20.337  1.00  0.00     0.026 C 
ENDROOT
BRANCH   1   9
HETATM    9  C4  UNL     1      25.969  12.549  19.963  1.00  0.00     0.045 C 
BRANCH   9  10
HETATM   10  C3  UNL     1      27.082  11.592  20.039  1.00  0.00     0.127 C 
BRANCH  10  11
HETATM   11  N1  UNL     1      27.551  11.294  21.366  1.00  0.00    -0.337 N 
HETATM   12  C2  UNL     1      28.929  11.192  21.695  1.00  0.00     0.360 C 
HETATM   13  O2  UNL     1      29.796  11.370  20.806  1.00  0.00    -0.239 OA
ATOM     14  H1  UNL     1      26.862  11.149  22.104  1.00  0.00     0.164 HD
BRANCH  12  15
HETATM   15  O1  UNL     1      29.369  10.902  22.979  1.00  0.00    -0.309 OA
HETATM   16  C1  UNL     1      29.687   9.562  23.287  1.00  0.00     0.215 C 
ENDBRANCH  12  15
ENDBRANCH  10  11
ENDBRANCH   9  10
ENDBRANCH   1   9
TORSDOF 4
ENDMDL
MODEL 5
REMARK VINA RESULT: -5.757497011      4.884      6.432
REMARK  4 active torsions:
REMARK  status: ('A' for Active; 'I' for Inactive)
REMARK    1  A    between atoms: O1_2  and  C2_3 
REMARK       I    between atoms: C2_3  and  N1_5 
REMARK    2  A    between atoms: N1_5  and  C3_7 
REMARK    3  A    between atoms: C3_7  and  C4_8 
REMARK    4  A    between atoms: C4_8  and  C5_9 
ROOT
HETATM    1  C5  UNL     1      22.371  13.088  19.657  1.00  0.00     0.038 C 
HETATM    2 CL1  UNL     1      21.608  13.975  18.318  1.00  0.00    -0.119 Cl
HETATM    3  C6  UNL     1      21.868  13.744  20.925  1.00  0.00     0.026 C 
HETATM    4  C7  UNL     1      22.163  13.008  22.173  1.00  0.00     0.002 C 
HETATM    5  C8  UNL     1      21.023  12.047  22.456  1.00  0.00     0.000 C 
HETATM    6  C9  UNL     1      21.298  10.733  21.815  1.00  0.00     0.000 C 
HETATM    7  C10 UNL     1      22.273  10.774  20.677  1.00  0.00     0.002 C 
HETATM    8  C11 UNL     1      21.795  11.698  19.611  1.00  0.00     0.026 C 
ENDROOT
BRANCH   1   9
HETATM    9  C4  UNL     1      23.834  13.178  19.606  1.00  0.00     0.045 C 
BRANCH   9  10
HETATM   10  C3  UNL     1      24.553  12.810  18.378  1.00  0.00     0.127 C 
BRANCH  10  11
HETATM   11  N1  UNL     1      25.298  13.871  17.756  1.00  0.00    -0.337 N 
HETATM   12  C2  UNL     1      26.593  14.265  18.187  1.00  0.00     0.360 C 
HETATM   13  O2  UNL     1      27.135  13.671  19.152  1.00  0.00    -0.239 OA
ATOM     14  H1  UNL     1      24.877  14.365  16.969  1.00  0.00     0.164 HD
BRANCH  12  15
HETATM   15  O1  UNL     1      27.301  15.293  17.580  1.00  0.00    -0.309 OA
HETATM   16  C1  UNL     1      28.367  15.879  18.295  1.00  0.00     0.215 C 
ENDBRANCH  12  15
ENDBRANCH  10  11
ENDBRANCH   9  10
ENDBRANCH   1   9
TORSDOF 4
ENDMDL
