MODEL 1
REMARK VINA RESULT: -6.173945456      0.000      0.000
REMARK  4 active torsions:
REMARK  status: ('A' for Active; 'I' for Inactive)
REMARK    1  A    between atoms: C2_2  and  C5_5 
REMARK    2  A    between atoms: C6_7  and  C7_8 
REMARK    3  A    between atoms: C7_8  and  C8_9 
REMARK    4  A    between atoms: C10_11  and  O1_12 
ROOT
HETATM    1  C8  UNL     1      21.408  11.568  22.843  1.00  0.00    -0.010 C 
HETATM    2  C9  UNL     1      21.649  11.494  24.140  1.00  0.00     0.016 C 
HETATM    3  C10 UNL     1      21.169  10.201  24.659  1.00  0.00     0.148 C 
HETATM    4  C11 UNL     1      20.177   9.754  23.614  1.00  0.00     0.119 C 
HETATM    5  C12 UNL     1      20.749  10.355  22.385  1.00  0.00     0.158 C 
HETATM    6  O2  UNL     1      20.707   9.960  21.203  1.00  0.00    -0.293 OA
ENDROOT
BRANCH   1   7
HETATM    7  C7  UNL     1      21.771  12.753  22.001  1.00  0.00     0.070 C 
BRANCH   7   8
HETATM    8  C6  UNL     1      23.086  12.557  21.352  1.00  0.00    -0.002 C 
HETATM    9  C5  UNL     1      23.195  12.384  20.059  1.00  0.00     0.016 C 
HETATM   10 CL1  UNL     1      21.740  12.384  19.076  1.00  0.00    -0.088 Cl
BRANCH   9  11
HETATM   11  C2  UNL     1      24.496  12.184  19.359  1.00  0.00    -0.013 C 
HETATM   12  C1  UNL     1      24.640  10.801  18.797  1.00  0.00     0.020 C 
HETATM   13  C3  UNL     1      25.598  12.406  20.367  1.00  0.00     0.020 C 
HETATM   14  C4  UNL     1      24.569  13.174  18.222  1.00  0.00     0.020 C 
ENDBRANCH   9  11
ENDBRANCH   7   8
ENDBRANCH   1   7
BRANCH   3  15
HETATM   15  O1  UNL     1      22.197   9.268  24.786  1.00  0.00    -0.391 OA
ATOM     16  H1  UNL     1      22.709   9.186  23.990  1.00  0.00     0.210 HD
ENDBRANCH   3  15
TORSDOF 4
ENDMDL
MODEL 2
REMARK VINA RESULT: -6.148302050      1.249      1.561
REMARK  4 active torsions:
REMARK  status: ('A' for Active; 'I' for Inactive)
REMARK    1  A    between atoms: C2_2  and  C5_5 
REMARK    2  A    between atoms: C6_7  and  C7_8 
REMARK    3  A    between atoms: C7_8  and  C8_9 
REMARK    4  A    between atoms: C10_11  and  O1_12 
ROOT
HETATM    1  C8  UNL     1      21.506  11.260  22.331  1.00  0.00    -0.010 C 
HETATM    2  C9  UNL     1      22.047  11.435  23.524  1.00  0.00     0.016 C 
HETATM    3  C10 UNL     1      21.579  10.378  24.438  1.00  0.00     0.148 C 
HETATM    4  C11 UNL     1      20.323   9.873  23.771  1.00  0.00     0.119 C 
HETATM    5  C12 UNL     1      20.637  10.094  22.340  1.00  0.00     0.158 C 
HETATM    6  O2  UNL     1      20.269   9.461  21.330  1.00  0.00    -0.293 OA
ENDROOT
BRANCH   1   7
HETATM    7  C7  UNL     1      21.771  12.160  21.162  1.00  0.00     0.070 C 
BRANCH   7   8
HETATM    8  C6  UNL     1      22.837  11.607  20.299  1.00  0.00    -0.002 C 
HETATM    9  C5  UNL     1      24.051  12.096  20.308  1.00  0.00     0.016 C 
HETATM   10 CL1  UNL     1      24.416  13.444  21.372  1.00  0.00    -0.088 Cl
BRANCH   9  11
HETATM   11  C2  UNL     1      25.160  11.574  19.458  1.00  0.00    -0.013 C 
HETATM   12  C1  UNL     1      26.330  11.100  20.267  1.00  0.00     0.020 C 
HETATM   13  C3  UNL     1      25.622  12.700  18.565  1.00  0.00     0.020 C 
HETATM   14  C4  UNL     1      24.623  10.410  18.661  1.00  0.00     0.020 C 
ENDBRANCH   9  11
ENDBRANCH   7   8
ENDBRANCH   1   7
BRANCH   3  15
HETATM   15  O1  UNL     1      22.508   9.347  24.572  1.00  0.00    -0.391 OA
ATOM     16  H1  UNL     1      22.392   8.862  25.381  1.00  0.00     0.210 HD
ENDBRANCH   3  15
TORSDOF 4
ENDMDL
MODEL 3
REMARK VINA RESULT: -6.062998526      1.759      2.330
REMARK  4 active torsions:
REMARK  status: ('A' for Active; 'I' for Inactive)
REMARK    1  A    between atoms: C2_2  and  C5_5 
REMARK    2  A    between atoms: C6_7  and  C7_8 
REMARK    3  A    between atoms: C7_8  and  C8_9 
REMARK    4  A    between atoms: C10_11  and  O1_12 
ROOT
HETATM    1  C8  UNL     1      22.066  10.342  21.794  1.00  0.00    -0.010 C 
HETATM    2  C9  UNL     1      22.734  10.655  22.890  1.00  0.00     0.016 C 
HETATM    3  C10 UNL     1      21.893  10.393  24.073  1.00  0.00     0.148 C 
HETATM    4  C11 UNL     1      20.495  10.368  23.507  1.00  0.00     0.119 C 
HETATM    5  C12 UNL     1      20.738   9.856  22.137  1.00  0.00     0.158 C 
HETATM    6  O2  UNL     1      20.010   9.165  21.396  1.00  0.00    -0.293 OA
ENDROOT
BRANCH   1   7
HETATM    7  C7  UNL     1      22.628  10.487  20.413  1.00  0.00     0.070 C 
BRANCH   7   8
HETATM    8  C6  UNL     1      22.250  11.790  19.823  1.00  0.00    -0.002 C 
HETATM    9  C5  UNL     1      23.078  12.804  19.810  1.00  0.00     0.016 C 
HETATM   10 CL1  UNL     1      24.674  12.607  20.514  1.00  0.00    -0.088 Cl
BRANCH   9  11
HETATM   11  C2  UNL     1      22.745  14.136  19.228  1.00  0.00    -0.013 C 
HETATM   12  C1  UNL     1      22.147  14.031  17.857  1.00  0.00     0.020 C 
HETATM   13  C3  UNL     1      24.029  14.926  19.128  1.00  0.00     0.020 C 
HETATM   14  C4  UNL     1      21.745  14.805  20.139  1.00  0.00     0.020 C 
ENDBRANCH   9  11
ENDBRANCH   7   8
ENDBRANCH   1   7
BRANCH   3  15
HETATM   15  O1  UNL     1      22.197   9.172  24.676  1.00  0.00    -0.391 OA
ATOM     16  H1  UNL     1      21.998   9.171  25.605  1.00  0.00     0.210 HD
ENDBRANCH   3  15
TORSDOF 4
ENDMDL
MODEL 4
REMARK VINA RESULT: -6.021364116      2.484      5.313
REMARK  4 active torsions:
REMARK  status: ('A' for Active; 'I' for Inactive)
REMARK    1  A    between atoms: C2_2  and  C5_5 
REMARK    2  A    between atoms: C6_7  and  C7_8 
REMARK    3  A    between atoms: C7_8  and  C8_9 
REMARK    4  A    between atoms: C10_11  and  O1_12 
ROOT
HETATM    1  C8  UNL     1      23.327  11.249  19.644  1.00  0.00    -0.010 C 
HETATM    2  C9  UNL     1      24.132  10.374  20.220  1.00  0.00     0.016 C 
HETATM    3  C10 UNL     1      25.525  10.641  19.815  1.00  0.00     0.148 C 
HETATM    4  C11 UNL     1      25.369  11.452  18.552  1.00  0.00     0.119 C 
HETATM    5  C12 UNL     1      24.094  12.162  18.810  1.00  0.00     0.158 C 
HETATM    6  O2  UNL     1      23.707  13.285  18.427  1.00  0.00    -0.293 OA
ENDROOT
BRANCH   1   7
HETATM    7  C7  UNL     1      21.842  11.263  19.842  1.00  0.00     0.070 C 
BRANCH   7   8
HETATM    8  C6  UNL     1      21.485  10.788  21.197  1.00  0.00    -0.002 C 
HETATM    9  C5  UNL     1      21.358  11.616  22.204  1.00  0.00     0.016 C 
HETATM   10 CL1  UNL     1      21.621  13.330  21.932  1.00  0.00    -0.088 Cl
BRANCH   9  11
HETATM   11  C2  UNL     1      21.000  11.187  23.587  1.00  0.00    -0.013 C 
HETATM   12  C1  UNL     1      19.971  10.097  23.602  1.00  0.00     0.020 C 
HETATM   13  C3  UNL     1      20.433  12.388  24.305  1.00  0.00     0.020 C 
HETATM   14  C4  UNL     1      22.254  10.675  24.253  1.00  0.00     0.020 C 
ENDBRANCH   9  11
ENDBRANCH   7   8
ENDBRANCH   1   7
BRANCH   3  15
HETATM   15  O1  UNL     1      26.224  11.368  20.778  1.00  0.00    -0.391 OA
ATOM     16  H1  UNL     1      26.466  12.233  20.470  1.00  0.00     0.210 HD
ENDBRANCH   3  15
TORSDOF 4
ENDMDL
MODEL 5
REMARK VINA RESULT: -6.013341839      3.599      5.691
REMARK  4 active torsions:
REMARK  status: ('A' for Active; 'I' for Inactive)
REMARK    1  A    between atoms: C2_2  and  C5_5 
REMARK    2  A    between atoms: C6_7  and  C7_8 
REMARK    3  A    between atoms: C7_8  and  C8_9 
REMARK    4  A    between atoms: C10_11  and  O1_12 
ROOT
HETATM    1  C8  UNL     1      26.997  11.499  19.532  1.00  0.00    -0.010 C 
HETATM    2  C9  UNL     1      27.598  10.331  19.390  1.00  0.00     0.016 C 
HETATM    3  C10 UNL     1      28.406  10.042  20.589  1.00  0.00     0.148 C 
HETATM    4  C11 UNL     1      28.596  11.402  21.216  1.00  0.00     0.119 C 
HETATM    5  C12 UNL     1      27.347  12.091  20.814  1.00  0.00     0.158 C 
HETATM    6  O2  UNL     1      26.698  12.983  21.396  1.00  0.00    -0.293 OA
ENDROOT
BRANCH   1   7
HETATM    7  C7  UNL     1      26.096  12.097  18.495  1.00  0.00     0.070 C 
BRANCH   7   8
HETATM    8  C6  UNL     1      24.677  11.975  18.893  1.00  0.00    -0.002 C 
HETATM    9  C5  UNL     1      23.950  13.026  19.175  1.00  0.00     0.016 C 
HETATM   10 CL1  UNL     1      24.683  14.618  19.077  1.00  0.00    -0.088 Cl
BRANCH   9  11
HETATM   11  C2  UNL     1      22.516  12.955  19.581  1.00  0.00    -0.013 C 
HETATM   12  C1  UNL     1      22.277  13.522  20.948  1.00  0.00     0.020 C 
HETATM   13  C3  UNL     1      22.115  11.499  19.592  1.00  0.00     0.020 C 
HETATM   14  C4  UNL     1      21.711  13.751  18.582  1.00  0.00     0.020 C 
ENDBRANCH   9  11
ENDBRANCH   7   8
ENDBRANCH   1   7
BRANCH   3  15
HETATM   15  O1  UNL     1      27.751   9.185  21.473  1.00  0.00    -0.391 OA
ATOM     16  H1  UNL     1      28.267   9.007  22.250  1.00  0.00     0.210 HD
ENDBRANCH   3  15
TORSDOF 4
ENDMDL
