MODEL 1
REMARK VINA RESULT: -6.954104551      0.000      0.000
REMARK  3 active torsions:
REMARK  status: ('A' for Active; 'I' for Inactive)
REMARK    1  A    between atoms: C3_3  and  C5_5 
REMARK    2  A    between atoms: C8_9  and  C9_10 
REMARK    3  A    between atoms: C10_11  and  C11_12 
ROOT
HETATM    1  C1  UNL     1      25.116  10.662  18.380  1.00  0.00     0.102 C 
HETATM    2  C2  UNL     1      24.300  10.472  19.270  1.00  0.00    -0.150 C 
HETATM    3  C3  UNL     1      23.349  10.257  20.336  1.00  0.00     0.017 C 
HETATM    4  C4  UNL     1      23.784   9.492  21.319  1.00  0.00     0.031 C 
ENDROOT
BRANCH   3   5
HETATM    5  C5  UNL     1      22.000  10.839  20.325  1.00  0.00     0.161 C 
HETATM    6  F1  UNL     1      21.145  10.054  19.562  1.00  0.00    -0.232 F 
HETATM    7  C6  UNL     1      21.410  10.818  21.777  1.00  0.00     0.058 C 
HETATM    8  C7  UNL     1      21.635  12.320  21.792  1.00  0.00     0.043 C 
HETATM    9  C8  UNL     1      21.773  12.288  20.346  1.00  0.00    -0.021 C 
BRANCH   9  10
HETATM   10  C9  UNL     1      22.398  13.313  19.543  1.00  0.00     0.026 A 
HETATM   11  C10 UNL     1      23.563  14.001  19.905  1.00  0.00     0.045 A 
HETATM   12  N1  UNL     1      23.702  14.964  18.956  1.00  0.00    -0.264 N 
HETATM   13  O1  UNL     1      22.751  14.889  18.110  1.00  0.00    -0.242 OA
ATOM     14  H1  UNL     1      24.458  15.649  18.925  1.00  0.00     0.194 HD
HETATM   15  C13 UNL     1      21.918  13.906  18.406  1.00  0.00     0.085 A 
HETATM   16  C14 UNL     1      20.710  13.630  17.549  1.00  0.00     0.079 C 
BRANCH  11  17
HETATM   17  C11 UNL     1      24.532  13.784  20.972  1.00  0.00     0.055 C 
HETATM   18  C12 UNL     1      25.967  13.657  20.454  1.00  0.00     0.011 C 
ENDBRANCH  11  17
ENDBRANCH   9  10
ENDBRANCH   3   5
TORSDOF 3
ENDMDL
MODEL 2
REMARK VINA RESULT: -6.806843214      1.848      3.474
REMARK  3 active torsions:
REMARK  status: ('A' for Active; 'I' for Inactive)
REMARK    1  A    between atoms: C3_3  and  C5_5 
REMARK    2  A    between atoms: C8_9  and  C9_10 
REMARK    3  A    between atoms: C10_11  and  C11_12 
ROOT
HETATM    1  C1  UNL     1      24.281  13.604  23.078  1.00  0.00     0.102 C 
HETATM    2  C2  UNL     1      23.406  12.851  22.673  1.00  0.00    -0.150 C 
HETATM    3  C3  UNL     1      22.363  11.979  22.185  1.00  0.00     0.017 C 
HETATM    4  C4  UNL     1      21.150  12.283  22.601  1.00  0.00     0.031 C 
ENDROOT
BRANCH   3   5
HETATM    5  C5  UNL     1      22.633  10.839  21.299  1.00  0.00     0.161 C 
HETATM    6  F1  UNL     1      23.344   9.859  21.980  1.00  0.00    -0.232 F 
HETATM    7  C6  UNL     1      21.279  10.167  20.884  1.00  0.00     0.058 C 
HETATM    8  C7  UNL     1      21.498  10.783  19.513  1.00  0.00     0.043 C 
HETATM    9  C8  UNL     1      22.890  11.006  19.864  1.00  0.00    -0.021 C 
BRANCH   9  10
HETATM   10  C9  UNL     1      23.780  11.936  19.207  1.00  0.00     0.026 A 
HETATM   11  C10 UNL     1      23.364  13.108  18.563  1.00  0.00     0.045 A 
HETATM   12  N1  UNL     1      24.486  13.584  17.960  1.00  0.00    -0.264 N 
HETATM   13  O1  UNL     1      25.474  12.814  18.197  1.00  0.00    -0.242 OA
ATOM     14  H1  UNL     1      24.530  14.435  17.399  1.00  0.00     0.194 HD
HETATM   15  C13 UNL     1      25.117  11.787  18.950  1.00  0.00     0.085 A 
HETATM   16  C14 UNL     1      26.118  10.738  19.354  1.00  0.00     0.079 C 
BRANCH  11  17
HETATM   17  C11 UNL     1      22.084  13.804  18.535  1.00  0.00     0.055 C 
HETATM   18  C12 UNL     1      21.865  14.691  19.764  1.00  0.00     0.011 C 
ENDBRANCH  11  17
ENDBRANCH   9  10
ENDBRANCH   3   5
TORSDOF 3
ENDMDL
MODEL 3
REMARK VINA RESULT: -6.724791241      1.777      2.962
REMARK  3 active torsions:
REMARK  status: ('A' for Active; 'I' for Inactive)
REMARK    1  A    between atoms: C3_3  and  C5_5 
REMARK    2  A    between atoms: C8_9  and  C9_10 
REMARK    3  A    between atoms: C10_11  and  C11_12 
ROOT
HETATM    1  C1  UNL     1      24.443  13.727  23.350  1.00  0.00     0.102 C 
HETATM    2  C2  UNL     1      23.559  13.030  22.872  1.00  0.00    -0.150 C 
HETATM    3  C3  UNL     1      22.507  12.225  22.298  1.00  0.00     0.017 C 
HETATM    4  C4  UNL     1      21.293  12.518  22.722  1.00  0.00     0.031 C 
ENDROOT
BRANCH   3   5
HETATM    5  C5  UNL     1      22.766  11.157  21.322  1.00  0.00     0.161 C 
HETATM    6  F1  UNL     1      23.704  10.265  21.826  1.00  0.00    -0.232 F 
HETATM    7  C6  UNL     1      21.460  10.320  21.103  1.00  0.00     0.058 C 
HETATM    8  C7  UNL     1      21.360  10.999  19.748  1.00  0.00     0.043 C 
HETATM    9  C8  UNL     1      22.751  11.399  19.876  1.00  0.00    -0.021 C 
BRANCH   9  10
HETATM   10  C9  UNL     1      23.388  12.460  19.129  1.00  0.00     0.026 A 
HETATM   11  C10 UNL     1      24.618  12.335  18.469  1.00  0.00     0.045 A 
HETATM   12  N1  UNL     1      24.908  13.593  18.043  1.00  0.00    -0.264 N 
HETATM   13  O1  UNL     1      23.983  14.399  18.389  1.00  0.00    -0.242 OA
ATOM     14  H1  UNL     1      25.746  13.854  17.523  1.00  0.00     0.194 HD
HETATM   15  C13 UNL     1      23.024  13.778  19.055  1.00  0.00     0.085 A 
HETATM   16  C14 UNL     1      21.827  14.531  19.572  1.00  0.00     0.079 C 
BRANCH  11  17
HETATM   17  C11 UNL     1      25.449  11.176  18.170  1.00  0.00     0.055 C 
HETATM   18  C12 UNL     1      26.401  10.818  19.314  1.00  0.00     0.011 C 
ENDBRANCH  11  17
ENDBRANCH   9  10
ENDBRANCH   3   5
TORSDOF 3
ENDMDL
MODEL 4
REMARK VINA RESULT: -6.634081633      3.074      4.633
REMARK  3 active torsions:
REMARK  status: ('A' for Active; 'I' for Inactive)
REMARK    1  A    between atoms: C3_3  and  C5_5 
REMARK    2  A    between atoms: C8_9  and  C9_10 
REMARK    3  A    between atoms: C10_11  and  C11_12 
ROOT
HETATM    1  C1  UNL     1      25.159  11.766  18.358  1.00  0.00     0.102 C 
HETATM    2  C2  UNL     1      24.570  12.293  19.291  1.00  0.00    -0.150 C 
HETATM    3  C3  UNL     1      23.880  12.936  20.386  1.00  0.00     0.017 C 
HETATM    4  C4  UNL     1      24.664  13.570  21.236  1.00  0.00     0.031 C 
ENDROOT
BRANCH   3   5
HETATM    5  C5  UNL     1      22.421  12.882  20.546  1.00  0.00     0.161 C 
HETATM    6  F1  UNL     1      21.925  14.143  20.851  1.00  0.00    -0.232 F 
HETATM    7  C6  UNL     1      21.760  12.488  19.180  1.00  0.00     0.058 C 
HETATM    8  C7  UNL     1      21.487  11.131  19.807  1.00  0.00     0.043 C 
HETATM    9  C8  UNL     1      21.738  11.714  21.114  1.00  0.00    -0.021 C 
BRANCH   9  10
HETATM   10  C9  UNL     1      22.059  10.974  22.313  1.00  0.00     0.026 A 
HETATM   11  C10 UNL     1      21.523  11.246  23.578  1.00  0.00     0.045 A 
HETATM   12  N1  UNL     1      22.206  10.428  24.423  1.00  0.00    -0.264 N 
HETATM   13  O1  UNL     1      23.056   9.735  23.773  1.00  0.00    -0.242 OA
ATOM     14  H1  UNL     1      22.060  10.378  25.431  1.00  0.00     0.194 HD
HETATM   15  C13 UNL     1      23.023  10.016  22.481  1.00  0.00     0.085 A 
HETATM   16  C14 UNL     1      23.946   9.323  21.514  1.00  0.00     0.079 C 
BRANCH  11  17
HETATM   17  C11 UNL     1      20.435  12.114  24.010  1.00  0.00     0.055 C 
HETATM   18  C12 UNL     1      20.860  13.579  24.136  1.00  0.00     0.011 C 
ENDBRANCH  11  17
ENDBRANCH   9  10
ENDBRANCH   3   5
TORSDOF 3
ENDMDL
MODEL 5
REMARK VINA RESULT: -6.533660351      2.585      4.550
REMARK  3 active torsions:
REMARK  status: ('A' for Active; 'I' for Inactive)
REMARK    1  A    between atoms: C3_3  and  C5_5 
REMARK    2  A    between atoms: C8_9  and  C9_10 
REMARK    3  A    between atoms: C10_11  and  C11_12 
ROOT
HETATM    1  C1  UNL     1      25.582  13.374  22.017  1.00  0.00     0.102 C 
HETATM    2  C2  UNL     1      24.756  13.730  21.189  1.00  0.00    -0.150 C 
HETATM    3  C3  UNL     1      23.790  14.139  20.195  1.00  0.00     0.017 C 
HETATM    4  C4  UNL     1      24.268  14.932  19.256  1.00  0.00     0.031 C 
ENDROOT
BRANCH   3   5
HETATM    5  C5  UNL     1      22.385  13.713  20.231  1.00  0.00     0.161 C 
HETATM    6  F1  UNL     1      21.700  14.400  21.225  1.00  0.00    -0.232 F 
HETATM    7  C6  UNL     1      21.685  14.107  18.885  1.00  0.00     0.058 C 
HETATM    8  C7  UNL     1      21.719  12.628  18.540  1.00  0.00     0.043 C 
HETATM    9  C8  UNL     1      21.979  12.334  19.939  1.00  0.00    -0.021 C 
BRANCH   9  10
HETATM   10  C9  UNL     1      22.535  11.100  20.445  1.00  0.00     0.026 A 
HETATM   11  C10 UNL     1      22.064  10.426  21.579  1.00  0.00     0.045 A 
HETATM   12  N1  UNL     1      22.960   9.423  21.779  1.00  0.00    -0.264 N 
HETATM   13  O1  UNL     1      23.871   9.462  20.888  1.00  0.00    -0.242 OA
ATOM     14  H1  UNL     1      22.910   8.738  22.533  1.00  0.00     0.194 HD
HETATM   15  C13 UNL     1      23.677  10.460  20.042  1.00  0.00     0.085 A 
HETATM   16  C14 UNL     1      24.634  10.709  18.905  1.00  0.00     0.079 C 
BRANCH  11  17
HETATM   17  C11 UNL     1      20.868  10.605  22.392  1.00  0.00     0.055 C 
HETATM   18  C12 UNL     1      20.940  11.845  23.287  1.00  0.00     0.011 C 
ENDBRANCH  11  17
ENDBRANCH   9  10
ENDBRANCH   3   5
TORSDOF 3
ENDMDL
