MODEL 1
REMARK VINA RESULT: -5.855595497      0.000      0.000
REMARK  5 active torsions:
REMARK  status: ('A' for Active; 'I' for Inactive)
REMARK    1  A    between atoms: N1_4  and  O1_5 
REMARK    2  A    between atoms: C5_9  and  C6_11 
REMARK    3  A    between atoms: C6_11  and  C7_12 
REMARK    4  A    between atoms: C7_12  and  N2_13 
REMARK    5  A    between atoms: N2_13  and  N3_15 
ROOT
HETATM    1  C1  UNL     1      23.160  12.859  19.264  1.00  0.00     0.043 C 
HETATM    2  C2  UNL     1      22.917  11.605  20.056  1.00  0.00     0.086 C 
HETATM    3  C3  UNL     1      21.548  11.016  19.882  1.00  0.00     0.043 C 
HETATM    4  N1  UNL     1      23.922  10.600  19.699  1.00  0.00    -0.215 N 
HETATM    5  C4  UNL     1      23.901  10.197  21.059  1.00  0.00     0.270 C 
HETATM    6  O2  UNL     1      24.145   9.093  21.599  1.00  0.00    -0.269 OA
HETATM    7  C5  UNL     1      23.498  11.573  21.431  1.00  0.00     0.148 C 
HETATM    8 CL1  UNL     1      24.838  12.715  21.617  1.00  0.00    -0.106 Cl
ENDROOT
BRANCH   7   9
HETATM    9  C6  UNL     1      22.550  11.616  22.575  1.00  0.00     0.059 C 
BRANCH   9  10
HETATM   10  C7  UNL     1      23.115  12.265  23.818  1.00  0.00     0.143 C 
BRANCH  10  11
HETATM   11  N2  UNL     1      23.455  11.179  24.731  1.00  0.00    -0.323 N 
ATOM     12  H2  UNL     1      24.115  11.322  25.496  1.00  0.00     0.181 HD
BRANCH  11  13
HETATM   13  N3  UNL     1      22.918  10.078  24.550  1.00  0.00    -0.254 N 
HETATM   14  N4  UNL     1      22.153   9.144  24.788  1.00  0.00    -0.331 N 
ATOM     15  H42 UNL     1      21.713   9.509  25.633  1.00  0.00     0.178 HD
ATOM     16  H41 UNL     1      21.711   8.238  24.639  1.00  0.00     0.178 HD
ATOM     17  H3  UNL     1      23.385   9.755  23.702  1.00  0.00     0.207 HD
ENDBRANCH  11  13
ENDBRANCH  10  11
ENDBRANCH   9  10
ENDBRANCH   7   9
BRANCH   4  18
HETATM   18  O1  UNL     1      24.559  10.250  18.565  1.00  0.00    -0.284 OA
ATOM     19  H1  UNL     1      24.816   9.427  18.165  1.00  0.00     0.245 HD
ENDBRANCH   4  18
TORSDOF 5
ENDMDL
MODEL 2
REMARK VINA RESULT: -5.826827781      2.596      3.066
REMARK  5 active torsions:
REMARK  status: ('A' for Active; 'I' for Inactive)
REMARK    1  A    between atoms: N1_4  and  O1_5 
REMARK    2  A    between atoms: C5_9  and  C6_11 
REMARK    3  A    between atoms: C6_11  and  C7_12 
REMARK    4  A    between atoms: C7_12  and  N2_13 
REMARK    5  A    between atoms: N2_13  and  N3_15 
ROOT
HETATM    1  C1  UNL     1      22.045  13.393  18.597  1.00  0.00     0.043 C 
HETATM    2  C2  UNL     1      23.404  13.158  19.194  1.00  0.00     0.086 C 
HETATM    3  C3  UNL     1      24.330  12.352  18.332  1.00  0.00     0.043 C 
HETATM    4  N1  UNL     1      24.032  14.447  19.500  1.00  0.00    -0.215 N 
HETATM    5  C4  UNL     1      24.588  13.824  20.647  1.00  0.00     0.270 C 
HETATM    6  O2  UNL     1      25.636  14.062  21.292  1.00  0.00    -0.269 OA
HETATM    7  C5  UNL     1      23.439  12.889  20.662  1.00  0.00     0.148 C 
HETATM    8 CL1  UNL     1      21.997  13.498  21.489  1.00  0.00    -0.106 Cl
ENDROOT
BRANCH   7   9
HETATM    9  C6  UNL     1      23.808  11.516  21.097  1.00  0.00     0.059 C 
BRANCH   9  10
HETATM   10  C7  UNL     1      22.672  10.748  21.736  1.00  0.00     0.143 C 
BRANCH  10  11
HETATM   11  N2  UNL     1      23.288   9.756  22.611  1.00  0.00    -0.323 N 
ATOM     12  H2  UNL     1      24.029   9.144  22.271  1.00  0.00     0.181 HD
BRANCH  11  13
HETATM   13  N3  UNL     1      22.883   9.681  23.779  1.00  0.00    -0.254 N 
HETATM   14  N4  UNL     1      22.160   9.302  24.699  1.00  0.00    -0.331 N 
ATOM     15  H42 UNL     1      21.531   8.696  24.170  1.00  0.00     0.178 HD
ATOM     16  H41 UNL     1      21.826   9.241  25.660  1.00  0.00     0.178 HD
ATOM     17  H3  UNL     1      23.535  10.297  24.265  1.00  0.00     0.207 HD
ENDBRANCH  11  13
ENDBRANCH  10  11
ENDBRANCH   9  10
ENDBRANCH   7   9
BRANCH   4  18
HETATM   18  O1  UNL     1      24.045  15.662  18.920  1.00  0.00    -0.284 OA
ATOM     19  H1  UNL     1      24.396  16.017  18.111  1.00  0.00     0.245 HD
ENDBRANCH   4  18
TORSDOF 5
ENDMDL
MODEL 3
REMARK VINA RESULT: -5.821668978      3.013      5.008
REMARK  5 active torsions:
REMARK  status: ('A' for Active; 'I' for Inactive)
REMARK    1  A    between atoms: N1_4  and  O1_5 
REMARK    2  A    between atoms: C5_9  and  C6_11 
REMARK    3  A    between atoms: C6_11  and  C7_12 
REMARK    4  A    between atoms: C7_12  and  N2_13 
REMARK    5  A    between atoms: N2_13  and  N3_15 
ROOT
HETATM    1  C1  UNL     1      20.963  11.322  22.207  1.00  0.00     0.043 C 
HETATM    2  C2  UNL     1      22.063  12.304  21.922  1.00  0.00     0.086 C 
HETATM    3  C3  UNL     1      22.196  13.399  22.938  1.00  0.00     0.043 C 
HETATM    4  N1  UNL     1      23.339  11.590  21.814  1.00  0.00    -0.215 N 
HETATM    5  C4  UNL     1      23.692  12.516  20.799  1.00  0.00     0.270 C 
HETATM    6  O2  UNL     1      24.807  12.939  20.416  1.00  0.00    -0.269 OA
HETATM    7  C5  UNL     1      22.253  12.682  20.490  1.00  0.00     0.148 C 
HETATM    8 CL1  UNL     1      21.586  11.470  19.384  1.00  0.00    -0.106 Cl
ENDROOT
BRANCH   7   9
HETATM    9  C6  UNL     1      21.895  14.070  20.096  1.00  0.00     0.059 C 
BRANCH   9  10
HETATM   10  C7  UNL     1      21.702  14.257  18.608  1.00  0.00     0.143 C 
BRANCH  10  11
HETATM   11  N2  UNL     1      23.018  14.567  18.058  1.00  0.00    -0.323 N 
ATOM     12  H2  UNL     1      23.341  14.134  17.193  1.00  0.00     0.181 HD
BRANCH  11  13
HETATM   13  N3  UNL     1      23.730  15.371  18.673  1.00  0.00    -0.254 N 
HETATM   14  N4  UNL     1      24.779  15.910  19.022  1.00  0.00    -0.331 N 
ATOM     15  H42 UNL     1      25.435  15.357  18.470  1.00  0.00     0.178 HD
ATOM     16  H41 UNL     1      25.366  16.573  19.528  1.00  0.00     0.178 HD
ATOM     17  H3  UNL     1      23.037  15.897  19.206  1.00  0.00     0.207 HD
ENDBRANCH  11  13
ENDBRANCH  10  11
ENDBRANCH   9  10
ENDBRANCH   7   9
BRANCH   4  18
HETATM   18  O1  UNL     1      23.891  10.526  22.429  1.00  0.00    -0.284 OA
ATOM     19  H1  UNL     1      24.731  10.086  22.386  1.00  0.00     0.245 HD
ENDBRANCH   4  18
TORSDOF 5
ENDMDL
MODEL 4
REMARK VINA RESULT: -5.804022837      1.701      2.014
REMARK  5 active torsions:
REMARK  status: ('A' for Active; 'I' for Inactive)
REMARK    1  A    between atoms: N1_4  and  O1_5 
REMARK    2  A    between atoms: C5_9  and  C6_11 
REMARK    3  A    between atoms: C6_11  and  C7_12 
REMARK    4  A    between atoms: C7_12  and  N2_13 
REMARK    5  A    between atoms: N2_13  and  N3_15 
ROOT
HETATM    1  C1  UNL     1      22.219  13.706  20.598  1.00  0.00     0.043 C 
HETATM    2  C2  UNL     1      22.285  12.206  20.652  1.00  0.00     0.086 C 
HETATM    3  C3  UNL     1      21.682  11.515  19.466  1.00  0.00     0.043 C 
HETATM    4  N1  UNL     1      23.682  11.784  20.796  1.00  0.00    -0.215 N 
HETATM    5  C4  UNL     1      23.207  10.734  21.624  1.00  0.00     0.270 C 
HETATM    6  O2  UNL     1      23.669   9.595  21.865  1.00  0.00    -0.269 OA
HETATM    7  C5  UNL     1      22.050  11.586  21.989  1.00  0.00     0.148 C 
HETATM    8 CL1  UNL     1      22.352  12.719  23.316  1.00  0.00    -0.106 Cl
ENDROOT
BRANCH   7   9
HETATM    9  C6  UNL     1      20.792  10.815  22.174  1.00  0.00     0.059 C 
BRANCH   9  10
HETATM   10  C7  UNL     1      20.288  10.793  23.600  1.00  0.00     0.143 C 
BRANCH  10  11
HETATM   11  N2  UNL     1      20.538   9.446  24.103  1.00  0.00    -0.323 N 
ATOM     12  H2  UNL     1      19.815   8.728  24.063  1.00  0.00     0.181 HD
BRANCH  11  13
HETATM   13  N3  UNL     1      21.654   9.202  24.580  1.00  0.00    -0.254 N 
HETATM   14  N4  UNL     1      22.864   9.347  24.747  1.00  0.00    -0.331 N 
ATOM     15  H42 UNL     1      23.022  10.132  24.115  1.00  0.00     0.178 HD
ATOM     16  H41 UNL     1      23.784   9.146  25.140  1.00  0.00     0.178 HD
ATOM     17  H3  UNL     1      21.449   8.419  25.200  1.00  0.00     0.207 HD
ENDBRANCH  11  13
ENDBRANCH  10  11
ENDBRANCH   9  10
ENDBRANCH   7   9
BRANCH   4  18
HETATM   18  O1  UNL     1      24.865  12.228  20.329  1.00  0.00    -0.284 OA
ATOM     19  H1  UNL     1      25.652  12.583  20.724  1.00  0.00     0.245 HD
ENDBRANCH   4  18
TORSDOF 5
ENDMDL
MODEL 5
REMARK VINA RESULT: -5.795444758      2.827      4.710
REMARK  5 active torsions:
REMARK  status: ('A' for Active; 'I' for Inactive)
REMARK    1  A    between atoms: N1_4  and  O1_5 
REMARK    2  A    between atoms: C5_9  and  C6_11 
REMARK    3  A    between atoms: C6_11  and  C7_12 
REMARK    4  A    between atoms: C7_12  and  N2_13 
REMARK    5  A    between atoms: N2_13  and  N3_15 
ROOT
HETATM    1  C1  UNL     1      24.627  12.250  21.354  1.00  0.00     0.043 C 
HETATM    2  C2  UNL     1      23.617  11.477  20.554  1.00  0.00     0.086 C 
HETATM    3  C3  UNL     1      24.168  10.825  19.321  1.00  0.00     0.043 C 
HETATM    4  N1  UNL     1      23.000  10.454  21.405  1.00  0.00    -0.215 N 
HETATM    5  C4  UNL     1      21.790  10.704  20.708  1.00  0.00     0.270 C 
HETATM    6  O2  UNL     1      20.802   9.969  20.475  1.00  0.00    -0.269 OA
HETATM    7  C5  UNL     1      22.258  12.086  20.449  1.00  0.00     0.148 C 
HETATM    8 CL1  UNL     1      21.936  13.236  21.756  1.00  0.00    -0.106 Cl
ENDROOT
BRANCH   7   9
HETATM    9  C6  UNL     1      21.842  12.604  19.119  1.00  0.00     0.059 C 
BRANCH   9  10
HETATM   10  C7  UNL     1      21.829  14.113  19.024  1.00  0.00     0.143 C 
BRANCH  10  11
HETATM   11  N2  UNL     1      23.009  14.487  18.251  1.00  0.00    -0.323 N 
ATOM     12  H2  UNL     1      23.242  14.006  17.382  1.00  0.00     0.181 HD
BRANCH  11  13
HETATM   13  N3  UNL     1      23.718  15.406  18.681  1.00  0.00    -0.254 N 
HETATM   14  N4  UNL     1      24.768  15.995  18.935  1.00  0.00    -0.331 N 
ATOM     15  H42 UNL     1      25.430  15.310  18.571  1.00  0.00     0.178 HD
ATOM     16  H41 UNL     1      25.352  16.752  19.290  1.00  0.00     0.178 HD
ATOM     17  H3  UNL     1      23.020  16.062  19.032  1.00  0.00     0.207 HD
ENDBRANCH  11  13
ENDBRANCH  10  11
ENDBRANCH   9  10
ENDBRANCH   7   9
BRANCH   4  18
HETATM   18  O1  UNL     1      23.432   9.655  22.399  1.00  0.00    -0.284 OA
ATOM     19  H1  UNL     1      23.014   9.077  23.026  1.00  0.00     0.245 HD
ENDBRANCH   4  18
TORSDOF 5
ENDMDL
