MODEL 1
REMARK VINA RESULT: -5.310643093      0.000      0.000
REMARK  5 active torsions:
REMARK  status: ('A' for Active; 'I' for Inactive)
REMARK    1  A    between atoms: C2_2  and  C3_3 
REMARK    2  A    between atoms: C3_3  and  O1_5 
REMARK    3  A    between atoms: O1_5  and  C5_6 
REMARK    4  A    between atoms: C5_6  and  N2_10 
REMARK    5  A    between atoms: N2_10  and  C7_12 
ROOT
HETATM    1  C5  UNL     1      23.337  10.714  20.840  1.00  0.00     0.215 C 
HETATM    2  N1  UNL     1      24.591  10.552  21.099  1.00  0.00    -0.361 N 
ATOM      3  H1  UNL     1      24.896  10.036  21.925  1.00  0.00     0.162 HD
HETATM    4  C6  UNL     1      25.550  11.123  20.180  1.00  0.00     0.150 C 
ENDROOT
BRANCH   1   5
HETATM    5  O1  UNL     1      22.469  10.142  21.760  1.00  0.00    -0.317 OA
BRANCH   5   6
HETATM    6  C3  UNL     1      22.182  10.712  23.015  1.00  0.00     0.127 C 
HETATM    7  C4  UNL     1      22.609   9.874  24.171  1.00  0.00     0.040 C 
BRANCH   6   8
HETATM    8  C2  UNL     1      20.722  11.051  23.184  1.00  0.00     0.027 C 
HETATM    9  C1  UNL     1      20.663  12.382  23.920  1.00  0.00     0.007 C 
ENDBRANCH   6   8
ENDBRANCH   5   6
ENDBRANCH   1   5
BRANCH   1  10
HETATM   10  N2  UNL     1      22.848  11.420  19.707  1.00  0.00    -0.350 N 
ATOM     11  H2  UNL     1      23.141  11.130  18.773  1.00  0.00     0.163 HD
BRANCH  10  12
HETATM   12  C7  UNL     1      21.933  12.554  19.847  1.00  0.00     0.108 C 
HETATM   13  C8  UNL     1      22.437  13.613  20.829  1.00  0.00     0.029 C 
HETATM   14  C9  UNL     1      21.937  14.654  19.824  1.00  0.00     0.029 C 
HETATM   15  C10 UNL     1      22.115  13.600  18.753  1.00  0.00     0.054 C 
HETATM   16  C11 UNL     1      21.081  13.579  17.677  1.00  0.00     0.035 C 
HETATM   17 CL1  UNL     1      23.797  13.556  18.175  1.00  0.00    -0.117 Cl
ENDBRANCH  10  12
ENDBRANCH   1  10
TORSDOF 5
ENDMDL
MODEL 2
REMARK VINA RESULT: -5.271728551      2.363      4.571
REMARK  5 active torsions:
REMARK  status: ('A' for Active; 'I' for Inactive)
REMARK    1  A    between atoms: C2_2  and  C3_3 
REMARK    2  A    between atoms: C3_3  and  O1_5 
REMARK    3  A    between atoms: O1_5  and  C5_6 
REMARK    4  A    between atoms: C5_6  and  N2_10 
REMARK    5  A    between atoms: N2_10  and  C7_12 
ROOT
HETATM    1  C5  UNL     1      25.273  11.142  20.002  1.00  0.00     0.215 C 
HETATM    2  N1  UNL     1      25.153  10.258  20.934  1.00  0.00    -0.361 N 
ATOM      3  H1  UNL     1      25.970   9.886  21.417  1.00  0.00     0.162 HD
HETATM    4  C6  UNL     1      23.819   9.811  21.271  1.00  0.00     0.150 C 
ENDROOT
BRANCH   1   5
HETATM    5  O1  UNL     1      26.579  11.530  19.726  1.00  0.00    -0.317 OA
BRANCH   5   6
HETATM    6  C3  UNL     1      27.641  11.380  20.637  1.00  0.00     0.127 C 
HETATM    7  C4  UNL     1      28.432  12.624  20.854  1.00  0.00     0.040 C 
BRANCH   6   8
HETATM    8  C2  UNL     1      28.589  10.271  20.252  1.00  0.00     0.027 C 
HETATM    9  C1  UNL     1      28.576   9.266  21.396  1.00  0.00     0.007 C 
ENDBRANCH   6   8
ENDBRANCH   5   6
ENDBRANCH   1   5
BRANCH   1  10
HETATM   10  N2  UNL     1      24.175  11.700  19.292  1.00  0.00    -0.350 N 
ATOM     11  H2  UNL     1      23.732  11.155  18.552  1.00  0.00     0.163 HD
BRANCH  10  12
HETATM   12  C7  UNL     1      23.666  13.038  19.597  1.00  0.00     0.108 C 
HETATM   13  C8  UNL     1      23.179  13.790  18.357  1.00  0.00     0.029 C 
HETATM   14  C9  UNL     1      22.005  14.267  19.217  1.00  0.00     0.029 C 
HETATM   15  C10 UNL     1      22.213  13.027  20.059  1.00  0.00     0.054 C 
HETATM   16  C11 UNL     1      22.015  13.192  21.529  1.00  0.00     0.035 C 
HETATM   17 CL1  UNL     1      21.382  11.625  19.346  1.00  0.00    -0.117 Cl
ENDBRANCH  10  12
ENDBRANCH   1  10
TORSDOF 5
ENDMDL
MODEL 3
REMARK VINA RESULT: -5.234803231      1.823      4.349
REMARK  5 active torsions:
REMARK  status: ('A' for Active; 'I' for Inactive)
REMARK    1  A    between atoms: C2_2  and  C3_3 
REMARK    2  A    between atoms: C3_3  and  O1_5 
REMARK    3  A    between atoms: O1_5  and  C5_6 
REMARK    4  A    between atoms: C5_6  and  N2_10 
REMARK    5  A    between atoms: N2_10  and  C7_12 
ROOT
HETATM    1  C5  UNL     1      23.440  11.770  21.729  1.00  0.00     0.215 C 
HETATM    2  N1  UNL     1      22.673  11.454  22.718  1.00  0.00    -0.361 N 
ATOM      3  H1  UNL     1      21.930  12.079  23.030  1.00  0.00     0.162 HD
HETATM    4  C6  UNL     1      22.901  10.183  23.369  1.00  0.00     0.150 C 
ENDROOT
BRANCH   1   5
HETATM    5  O1  UNL     1      23.170  13.001  21.147  1.00  0.00    -0.317 OA
BRANCH   5   6
HETATM    6  C3  UNL     1      22.053  13.242  20.325  1.00  0.00     0.127 C 
HETATM    7  C4  UNL     1      21.758  12.138  19.368  1.00  0.00     0.040 C 
BRANCH   6   8
HETATM    8  C2  UNL     1      22.165  14.530  19.548  1.00  0.00     0.027 C 
HETATM    9  C1  UNL     1      21.909  14.185  18.087  1.00  0.00     0.007 C 
ENDBRANCH   6   8
ENDBRANCH   5   6
ENDBRANCH   1   5
BRANCH   1  10
HETATM   10  N2  UNL     1      24.492  10.943  21.246  1.00  0.00    -0.350 N 
ATOM     11  H2  UNL     1      24.407   9.930  21.330  1.00  0.00     0.163 HD
BRANCH  10  12
HETATM   12  C7  UNL     1      25.692  11.512  20.631  1.00  0.00     0.108 C 
HETATM   13  C8  UNL     1      26.841  10.507  20.520  1.00  0.00     0.029 C 
HETATM   14  C9  UNL     1      27.099  11.092  19.129  1.00  0.00     0.029 C 
HETATM   15  C10 UNL     1      25.641  11.496  19.107  1.00  0.00     0.054 C 
HETATM   16  C11 UNL     1      25.334  12.811  18.471  1.00  0.00     0.035 C 
HETATM   17 CL1  UNL     1      24.613  10.147  18.570  1.00  0.00    -0.117 Cl
ENDBRANCH  10  12
ENDBRANCH   1  10
TORSDOF 5
ENDMDL
MODEL 4
REMARK VINA RESULT: -5.153685978      2.262      4.955
REMARK  5 active torsions:
REMARK  status: ('A' for Active; 'I' for Inactive)
REMARK    1  A    between atoms: C2_2  and  C3_3 
REMARK    2  A    between atoms: C3_3  and  O1_5 
REMARK    3  A    between atoms: O1_5  and  C5_6 
REMARK    4  A    between atoms: C5_6  and  N2_10 
REMARK    5  A    between atoms: N2_10  and  C7_12 
ROOT
HETATM    1  C5  UNL     1      23.472  13.248  19.402  1.00  0.00     0.215 C 
HETATM    2  N1  UNL     1      23.407  13.948  18.319  1.00  0.00    -0.361 N 
ATOM      3  H1  UNL     1      24.251  14.231  17.822  1.00  0.00     0.162 HD
HETATM    4  C6  UNL     1      22.096  14.320  17.835  1.00  0.00     0.150 C 
ENDROOT
BRANCH   1   5
HETATM    5  O1  UNL     1      24.758  12.924  19.814  1.00  0.00    -0.317 OA
BRANCH   5   6
HETATM    6  C3  UNL     1      25.708  12.307  18.978  1.00  0.00     0.127 C 
HETATM    7  C4  UNL     1      25.239  11.030  18.369  1.00  0.00     0.040 C 
BRANCH   6   8
HETATM    8  C2  UNL     1      27.021  12.050  19.675  1.00  0.00     0.027 C 
HETATM    9  C1  UNL     1      27.233  10.542  19.671  1.00  0.00     0.007 C 
ENDBRANCH   6   8
ENDBRANCH   5   6
ENDBRANCH   1   5
BRANCH   1  10
HETATM   10  N2  UNL     1      22.334  12.823  20.140  1.00  0.00    -0.350 N 
ATOM     11  H2  UNL     1      21.402  13.021  19.777  1.00  0.00     0.163 HD
BRANCH  10  12
HETATM   12  C7  UNL     1      22.469  12.106  21.410  1.00  0.00     0.108 C 
HETATM   13  C8  UNL     1      21.182  12.106  22.237  1.00  0.00     0.029 C 
HETATM   14  C9  UNL     1      21.493  10.642  22.557  1.00  0.00     0.029 C 
HETATM   15  C10 UNL     1      22.277  10.601  21.263  1.00  0.00     0.054 C 
HETATM   16  C11 UNL     1      23.534   9.797  21.283  1.00  0.00     0.035 C 
HETATM   17 CL1  UNL     1      21.206  10.279  19.879  1.00  0.00    -0.117 Cl
ENDBRANCH  10  12
ENDBRANCH   1  10
TORSDOF 5
ENDMDL
MODEL 5
REMARK VINA RESULT: -5.126442607      2.586      4.793
REMARK  5 active torsions:
REMARK  status: ('A' for Active; 'I' for Inactive)
REMARK    1  A    between atoms: C2_2  and  C3_3 
REMARK    2  A    between atoms: C3_3  and  O1_5 
REMARK    3  A    between atoms: O1_5  and  C5_6 
REMARK    4  A    between atoms: C5_6  and  N2_10 
REMARK    5  A    between atoms: N2_10  and  C7_12 
ROOT
HETATM    1  C5  UNL     1      25.183  13.526  20.316  1.00  0.00     0.215 C 
HETATM    2  N1  UNL     1      25.877  14.469  19.771  1.00  0.00    -0.361 N 
ATOM      3  H1  UNL     1      26.883  14.372  19.637  1.00  0.00     0.162 HD
HETATM    4  C6  UNL     1      25.180  15.666  19.356  1.00  0.00     0.150 C 
ENDROOT
BRANCH   1   5
HETATM    5  O1  UNL     1      25.910  12.404  20.691  1.00  0.00    -0.317 OA
BRANCH   5   6
HETATM    6  C3  UNL     1      26.490  11.512  19.770  1.00  0.00     0.127 C 
HETATM    7  C4  UNL     1      25.564  11.072  18.689  1.00  0.00     0.040 C 
BRANCH   6   8
HETATM    8  C2  UNL     1      27.071  10.286  20.429  1.00  0.00     0.027 C 
HETATM    9  C1  UNL     1      28.416  10.025  19.764  1.00  0.00     0.007 C 
ENDBRANCH   6   8
ENDBRANCH   5   6
ENDBRANCH   1   5
BRANCH   1  10
HETATM   10  N2  UNL     1      23.779  13.599  20.530  1.00  0.00    -0.350 N 
ATOM     11  H2  UNL     1      23.207  14.163  19.901  1.00  0.00     0.163 HD
BRANCH  10  12
HETATM   12  C7  UNL     1      23.134  12.882  21.632  1.00  0.00     0.108 C 
HETATM   13  C8  UNL     1      21.746  13.429  21.970  1.00  0.00     0.029 C 
HETATM   14  C9  UNL     1      21.307  11.970  22.124  1.00  0.00     0.029 C 
HETATM   15  C10 UNL     1      22.431  11.608  21.178  1.00  0.00     0.054 C 
HETATM   16  C11 UNL     1      23.160  10.340  21.480  1.00  0.00     0.035 C 
HETATM   17 CL1  UNL     1      21.922  11.791  19.483  1.00  0.00    -0.117 Cl
ENDBRANCH  10  12
ENDBRANCH   1  10
TORSDOF 5
ENDMDL
