MODEL 1
REMARK VINA RESULT: -4.448738325      0.000      0.000
REMARK  3 active torsions:
REMARK  status: ('A' for Active; 'I' for Inactive)
REMARK    1  A    between atoms: C2_3  and  C3_4 
REMARK    2  A    between atoms: C2_3  and  C4_7 
REMARK    3  A    between atoms: C5_11  and  N4_12 
ROOT
HETATM    1  N1  UNL     1      20.210  15.580  57.205  1.00  0.00    -0.196 NA
HETATM    2  C1  UNL     1      19.242  15.598  56.571  1.00  0.00     0.077 C 
HETATM    3  C2  UNL     1      17.992  15.640  55.761  1.00  0.00     0.240 C 
ENDROOT
BRANCH   3   4
HETATM    4  C3  UNL     1      17.515  14.285  55.522  1.00  0.00     0.252 C 
HETATM    5  N2  UNL     1      18.317  13.363  54.806  1.00  0.00    -0.061 NA
HETATM    6  O1  UNL     1      16.408  13.883  55.928  1.00  0.00    -0.275 OA
ENDBRANCH   3   4
BRANCH   3   7
HETATM    7  C4  UNL     1      17.081  16.579  56.431  1.00  0.00     0.417 C 
HETATM    8  N3  UNL     1      17.662  17.667  57.170  1.00  0.00     0.010 N 
HETATM    9  C5  UNL     1      16.522  17.575  58.064  1.00  0.00     0.582 C 
ATOM     10  H32 UNL     1      18.618  17.615  57.525  1.00  0.00     0.284 HD
ATOM     11  H31 UNL     1      17.907  18.546  56.714  1.00  0.00     0.284 HD
HETATM   12  N5  UNL     1      16.319  16.226  57.567  1.00  0.00     0.010 N 
ATOM     13  H52 UNL     1      15.379  15.842  57.468  1.00  0.00     0.284 HD
ATOM     14  H51 UNL     1      16.571  15.417  58.134  1.00  0.00     0.284 HD
BRANCH   9  15
HETATM   15  N4  UNL     1      16.927  17.663  59.444  1.00  0.00    -0.025 N 
ATOM     16  H43 UNL     1      17.447  16.836  59.734  1.00  0.00     0.278 HD
ATOM     17  H42 UNL     1      17.658  18.363  59.575  1.00  0.00     0.278 HD
ATOM     18  H41 UNL     1      16.130  17.837  60.055  1.00  0.00     0.278 HD
ENDBRANCH   9  15
ENDBRANCH   3   7
TORSDOF 3
ENDMDL
MODEL 2
REMARK VINA RESULT: -4.187282085      1.591      3.403
REMARK  3 active torsions:
REMARK  status: ('A' for Active; 'I' for Inactive)
REMARK    1  A    between atoms: C2_3  and  C3_4 
REMARK    2  A    between atoms: C2_3  and  C4_7 
REMARK    3  A    between atoms: C5_11  and  N4_12 
ROOT
HETATM    1  N1  UNL     1      18.052  13.397  55.295  1.00  0.00    -0.196 NA
HETATM    2  C1  UNL     1      17.914  14.512  55.575  1.00  0.00     0.077 C 
HETATM    3  C2  UNL     1      17.755  15.952  55.929  1.00  0.00     0.240 C 
ENDROOT
BRANCH   3   4
HETATM    4  C3  UNL     1      16.793  16.088  57.013  1.00  0.00     0.252 C 
HETATM    5  N2  UNL     1      15.698  16.976  56.887  1.00  0.00    -0.061 NA
HETATM    6  O1  UNL     1      16.887  15.444  58.076  1.00  0.00    -0.275 OA
ENDBRANCH   3   4
BRANCH   3   7
HETATM    7  C4  UNL     1      19.107  16.490  56.139  1.00  0.00     0.417 C 
HETATM    8  N3  UNL     1      20.199  15.557  56.208  1.00  0.00     0.010 N 
HETATM    9  C5  UNL     1      20.835  16.481  57.130  1.00  0.00     0.582 C 
ATOM     10  H32 UNL     1      20.045  14.581  56.460  1.00  0.00     0.284 HD
ATOM     11  H31 UNL     1      20.676  15.238  55.365  1.00  0.00     0.284 HD
HETATM   12  N5  UNL     1      19.523  17.055  57.365  1.00  0.00     0.010 N 
ATOM     13  H52 UNL     1      19.414  18.053  57.544  1.00  0.00     0.284 HD
ATOM     14  H51 UNL     1      19.015  16.862  58.228  1.00  0.00     0.284 HD
BRANCH   9  15
HETATM   15  N4  UNL     1      21.410  15.788  58.255  1.00  0.00    -0.025 N 
ATOM     16  H43 UNL     1      21.042  14.841  58.338  1.00  0.00     0.278 HD
ATOM     17  H42 UNL     1      22.391  15.563  58.093  1.00  0.00     0.278 HD
ATOM     18  H41 UNL     1      21.285  16.315  59.119  1.00  0.00     0.278 HD
ENDBRANCH   9  15
ENDBRANCH   3   7
TORSDOF 3
ENDMDL
MODEL 3
REMARK VINA RESULT: -4.159223152      2.669      3.393
REMARK  3 active torsions:
REMARK  status: ('A' for Active; 'I' for Inactive)
REMARK    1  A    between atoms: C2_3  and  C3_4 
REMARK    2  A    between atoms: C2_3  and  C4_7 
REMARK    3  A    between atoms: C5_11  and  N4_12 
ROOT
HETATM    1  N1  UNL     1      20.008  16.842  58.803  1.00  0.00    -0.196 NA
HETATM    2  C1  UNL     1      19.001  17.309  58.475  1.00  0.00     0.077 C 
HETATM    3  C2  UNL     1      17.708  17.926  58.061  1.00  0.00     0.240 C 
ENDROOT
BRANCH   3   4
HETATM    4  C3  UNL     1      16.716  16.885  57.836  1.00  0.00     0.252 C 
HETATM    5  N2  UNL     1      15.650  17.100  56.929  1.00  0.00    -0.061 NA
HETATM    6  O1  UNL     1      16.758  15.783  58.416  1.00  0.00    -0.275 OA
ENDBRANCH   3   4
BRANCH   3   7
HETATM    7  C4  UNL     1      17.398  18.968  59.052  1.00  0.00     0.417 C 
HETATM    8  N3  UNL     1      17.857  18.770  60.400  1.00  0.00     0.010 N 
HETATM    9  C5  UNL     1      16.677  19.498  60.832  1.00  0.00     0.582 C 
ATOM     10  H32 UNL     1      18.063  17.838  60.758  1.00  0.00     0.284 HD
ATOM     11  H31 UNL     1      18.792  19.060  60.688  1.00  0.00     0.284 HD
HETATM   12  N5  UNL     1      16.091  19.194  59.539  1.00  0.00     0.010 N 
ATOM     13  H52 UNL     1      15.469  19.858  59.078  1.00  0.00     0.284 HD
ATOM     14  H51 UNL     1      15.369  18.480  59.447  1.00  0.00     0.284 HD
BRANCH   9  15
HETATM   15  N4  UNL     1      16.045  18.855  61.955  1.00  0.00    -0.025 N 
ATOM     16  H43 UNL     1      16.469  17.950  62.155  1.00  0.00     0.278 HD
ATOM     17  H42 UNL     1      16.266  19.330  62.831  1.00  0.00     0.278 HD
ATOM     18  H41 UNL     1      15.037  18.774  61.819  1.00  0.00     0.278 HD
ENDBRANCH   9  15
ENDBRANCH   3   7
TORSDOF 3
ENDMDL
MODEL 4
REMARK VINA RESULT: -4.141142317      1.597      3.811
REMARK  3 active torsions:
REMARK  status: ('A' for Active; 'I' for Inactive)
REMARK    1  A    between atoms: C2_3  and  C3_4 
REMARK    2  A    between atoms: C2_3  and  C4_7 
REMARK    3  A    between atoms: C5_11  and  N4_12 
ROOT
HETATM    1  N1  UNL     1      18.049  13.479  55.119  1.00  0.00    -0.196 NA
HETATM    2  C1  UNL     1      17.961  14.562  55.519  1.00  0.00     0.077 C 
HETATM    3  C2  UNL     1      17.866  15.959  56.029  1.00  0.00     0.240 C 
ENDROOT
BRANCH   3   4
HETATM    4  C3  UNL     1      16.798  16.052  57.014  1.00  0.00     0.252 C 
HETATM    5  N2  UNL     1      15.731  16.962  56.825  1.00  0.00    -0.061 NA
HETATM    6  O1  UNL     1      16.775  15.351  58.044  1.00  0.00    -0.275 OA
ENDBRANCH   3   4
BRANCH   3   7
HETATM    7  C4  UNL     1      19.220  16.353  56.446  1.00  0.00     0.417 C 
HETATM    8  N3  UNL     1      20.049  17.028  55.485  1.00  0.00     0.010 N 
HETATM    9  C5  UNL     1      21.186  16.387  56.122  1.00  0.00     0.582 C 
ATOM     10  H32 UNL     1      19.882  16.933  54.483  1.00  0.00     0.284 HD
ATOM     11  H31 UNL     1      20.009  18.041  55.369  1.00  0.00     0.284 HD
HETATM   12  N5  UNL     1      20.254  15.417  56.668  1.00  0.00     0.010 N 
ATOM     13  H52 UNL     1      20.404  15.012  57.592  1.00  0.00     0.284 HD
ATOM     14  H51 UNL     1      20.197  14.474  56.284  1.00  0.00     0.284 HD
BRANCH   9  15
HETATM   15  N4  UNL     1      22.109  15.866  55.148  1.00  0.00    -0.025 N 
ATOM     16  H43 UNL     1      21.711  15.077  54.639  1.00  0.00     0.278 HD
ATOM     17  H42 UNL     1      22.232  16.510  54.366  1.00  0.00     0.278 HD
ATOM     18  H41 UNL     1      23.003  15.623  55.574  1.00  0.00     0.278 HD
ENDBRANCH   9  15
ENDBRANCH   3   7
TORSDOF 3
ENDMDL
MODEL 5
REMARK VINA RESULT: -4.057580849      1.824      1.974
REMARK  3 active torsions:
REMARK  status: ('A' for Active; 'I' for Inactive)
REMARK    1  A    between atoms: C2_3  and  C3_4 
REMARK    2  A    between atoms: C2_3  and  C4_7 
REMARK    3  A    between atoms: C5_11  and  N4_12 
ROOT
HETATM    1  N1  UNL     1      20.207  16.594  56.842  1.00  0.00    -0.196 NA
HETATM    2  C1  UNL     1      19.058  16.722  56.794  1.00  0.00     0.077 C 
HETATM    3  C2  UNL     1      17.580  16.906  56.734  1.00  0.00     0.240 C 
ENDROOT
BRANCH   3   4
HETATM    4  C3  UNL     1      16.914  15.686  57.166  1.00  0.00     0.252 C 
HETATM    5  N2  UNL     1      16.604  14.672  56.228  1.00  0.00    -0.061 NA
HETATM    6  O1  UNL     1      16.595  15.482  58.353  1.00  0.00    -0.275 OA
ENDBRANCH   3   4
BRANCH   3   7
HETATM    7  C4  UNL     1      17.275  18.148  57.460  1.00  0.00     0.417 C 
HETATM    8  N3  UNL     1      17.993  18.406  58.679  1.00  0.00     0.010 N 
HETATM    9  C5  UNL     1      16.801  19.088  59.151  1.00  0.00     0.582 C 
ATOM     10  H32 UNL     1      18.415  17.648  59.215  1.00  0.00     0.284 HD
ATOM     11  H31 UNL     1      18.900  18.872  58.671  1.00  0.00     0.284 HD
HETATM   12  N5  UNL     1      16.056  18.355  58.143  1.00  0.00     0.010 N 
ATOM     13  H52 UNL     1      15.258  18.780  57.671  1.00  0.00     0.284 HD
ATOM     14  H51 UNL     1      15.462  17.568  58.401  1.00  0.00     0.284 HD
BRANCH   9  15
HETATM   15  N4  UNL     1      16.497  18.731  60.514  1.00  0.00    -0.025 N 
ATOM     16  H43 UNL     1      15.693  18.106  60.566  1.00  0.00     0.278 HD
ATOM     17  H42 UNL     1      17.205  18.110  60.904  1.00  0.00     0.278 HD
ATOM     18  H41 UNL     1      16.366  19.559  61.095  1.00  0.00     0.278 HD
ENDBRANCH   9  15
ENDBRANCH   3   7
TORSDOF 3
ENDMDL
