MODEL 1
REMARK VINA RESULT: -3.388847418      0.000      0.000
REMARK  5 active torsions:
REMARK  status: ('A' for Active; 'I' for Inactive)
REMARK    1  A    between atoms: C1_4  and  N2_5 
REMARK    2  A    between atoms: C1_4  and  C3_9 
REMARK    3  A    between atoms: N2_5  and  C2_7 
REMARK    4  A    between atoms: C3_9  and  N3_10 
REMARK    5  A    between atoms: C3_9  and  C4_14 
ROOT
HETATM    1  C3  UNL     1      16.352  17.531  56.782  1.00  0.00     0.282 C 
ENDROOT
BRANCH   1   2
HETATM    2  C1  UNL     1      16.545  16.387  57.681  1.00  0.00     0.110 C 
HETATM    3  N1  UNL     1      16.837  16.678  58.933  1.00  0.00    -0.387 N 
ATOM      4  H12 UNL     1      16.970  15.883  59.558  1.00  0.00     0.157 HD
ATOM      5  H11 UNL     1      16.875  17.676  59.143  1.00  0.00     0.157 HD
BRANCH   2   6
HETATM    6  N2  UNL     1      16.493  15.022  57.395  1.00  0.00    -0.323 N 
ATOM      7  H2  UNL     1      15.794  14.461  57.884  1.00  0.00     0.169 HD
BRANCH   6   8
HETATM    8  C2  UNL     1      17.328  14.368  56.487  1.00  0.00     0.354 C 
HETATM    9  O1  UNL     1      18.577  14.390  56.499  1.00  0.00    -0.283 OA
ENDBRANCH   6   8
ENDBRANCH   2   6
ENDBRANCH   1   2
BRANCH   1  10
HETATM   10  N3  UNL     1      15.613  18.538  57.602  1.00  0.00    -0.066 N 
ATOM     11  H33 UNL     1      14.637  18.296  57.775  1.00  0.00     0.275 HD
ATOM     12  H32 UNL     1      15.899  18.567  58.581  1.00  0.00     0.275 HD
ATOM     13  H31 UNL     1      15.741  19.420  57.106  1.00  0.00     0.275 HD
ENDBRANCH   1  10
BRANCH   1  14
HETATM   14  C4  UNL     1      17.627  18.237  56.387  1.00  0.00     0.249 A 
HETATM   15  C5  UNL     1      18.085  18.042  54.970  1.00  0.00     0.268 A 
HETATM   16  N4  UNL     1      18.824  17.514  56.098  1.00  0.00    -0.065 N 
ATOM     17  H42 UNL     1      19.791  17.609  56.408  1.00  0.00     0.277 HD
ATOM     18  H41 UNL     1      19.154  16.581  56.343  1.00  0.00     0.277 HD
ENDBRANCH   1  14
TORSDOF 5
ENDMDL
MODEL 2
REMARK VINA RESULT: -3.313521390      1.770      1.817
REMARK  5 active torsions:
REMARK  status: ('A' for Active; 'I' for Inactive)
REMARK    1  A    between atoms: C1_4  and  N2_5 
REMARK    2  A    between atoms: C1_4  and  C3_9 
REMARK    3  A    between atoms: N2_5  and  C2_7 
REMARK    4  A    between atoms: C3_9  and  N3_10 
REMARK    5  A    between atoms: C3_9  and  C4_14 
ROOT
HETATM    1  C3  UNL     1      17.827  16.694  56.400  1.00  0.00     0.282 C 
ENDROOT
BRANCH   1   2
HETATM    2  C1  UNL     1      16.933  15.751  57.082  1.00  0.00     0.110 C 
HETATM    3  N1  UNL     1      16.224  16.245  58.079  1.00  0.00    -0.387 N 
ATOM      4  H12 UNL     1      15.602  15.589  58.552  1.00  0.00     0.157 HD
ATOM      5  H11 UNL     1      16.363  17.240  58.250  1.00  0.00     0.157 HD
BRANCH   2   6
HETATM    6  N2  UNL     1      16.742  14.388  56.847  1.00  0.00    -0.323 N 
ATOM      7  H2  UNL     1      16.359  13.826  57.608  1.00  0.00     0.169 HD
BRANCH   6   8
HETATM    8  C2  UNL     1      17.036  13.740  55.646  1.00  0.00     0.354 C 
HETATM    9  O1  UNL     1      18.169  13.361  55.281  1.00  0.00    -0.283 OA
ENDBRANCH   6   8
ENDBRANCH   2   6
ENDBRANCH   1   2
BRANCH   1  10
HETATM   10  N3  UNL     1      17.419  18.039  56.908  1.00  0.00    -0.066 N 
ATOM     11  H33 UNL     1      16.503  18.052  57.356  1.00  0.00     0.275 HD
ATOM     12  H32 UNL     1      17.950  18.354  57.720  1.00  0.00     0.275 HD
ATOM     13  H31 UNL     1      17.495  18.655  56.098  1.00  0.00     0.275 HD
ENDBRANCH   1  10
BRANCH   1  14
HETATM   14  C4  UNL     1      19.280  16.572  56.793  1.00  0.00     0.249 A 
HETATM   15  C5  UNL     1      20.278  16.595  55.670  1.00  0.00     0.268 A 
HETATM   16  N4  UNL     1      20.047  15.411  56.473  1.00  0.00    -0.065 N 
ATOM     17  H42 UNL     1      20.659  14.805  57.018  1.00  0.00     0.277 HD
ATOM     18  H41 UNL     1      19.797  14.449  56.245  1.00  0.00     0.277 HD
ENDBRANCH   1  14
TORSDOF 5
ENDMDL
MODEL 3
REMARK VINA RESULT: -3.292264421      2.648      3.765
REMARK  5 active torsions:
REMARK  status: ('A' for Active; 'I' for Inactive)
REMARK    1  A    between atoms: C1_4  and  N2_5 
REMARK    2  A    between atoms: C1_4  and  C3_9 
REMARK    3  A    between atoms: N2_5  and  C2_7 
REMARK    4  A    between atoms: C3_9  and  N3_10 
REMARK    5  A    between atoms: C3_9  and  C4_14 
ROOT
HETATM    1  C3  UNL     1      18.683  15.707  54.808  1.00  0.00     0.282 C 
ENDROOT
BRANCH   1   2
HETATM    2  C1  UNL     1      17.971  14.582  55.424  1.00  0.00     0.110 C 
HETATM    3  N1  UNL     1      18.203  13.394  54.900  1.00  0.00    -0.387 N 
ATOM      4  H12 UNL     1      17.708  12.611  55.329  1.00  0.00     0.157 HD
ATOM      5  H11 UNL     1      18.875  13.389  54.132  1.00  0.00     0.157 HD
BRANCH   2   6
HETATM    6  N2  UNL     1      17.052  14.587  56.475  1.00  0.00    -0.323 N 
ATOM      7  H2  UNL     1      16.586  13.708  56.701  1.00  0.00     0.169 HD
BRANCH   6   8
HETATM    8  C2  UNL     1      16.725  15.710  57.238  1.00  0.00     0.354 C 
HETATM    9  O1  UNL     1      16.701  15.762  58.485  1.00  0.00    -0.283 OA
ENDBRANCH   6   8
ENDBRANCH   2   6
ENDBRANCH   1   2
BRANCH   1  10
HETATM   10  N3  UNL     1      20.098  15.558  55.266  1.00  0.00    -0.066 N 
ATOM     11  H33 UNL     1      20.572  14.738  54.886  1.00  0.00     0.275 HD
ATOM     12  H32 UNL     1      20.736  16.252  54.876  1.00  0.00     0.275 HD
ATOM     13  H31 UNL     1      20.043  15.571  56.284  1.00  0.00     0.275 HD
ENDBRANCH   1  10
BRANCH   1  14
HETATM   14  C4  UNL     1      18.771  15.642  53.302  1.00  0.00     0.249 A 
HETATM   15  C5  UNL     1      18.651  16.949  52.571  1.00  0.00     0.268 A 
HETATM   16  N4  UNL     1      17.640  15.916  52.474  1.00  0.00    -0.065 N 
ATOM     17  H42 UNL     1      17.213  15.426  51.689  1.00  0.00     0.277 HD
ATOM     18  H41 UNL     1      16.633  15.905  52.639  1.00  0.00     0.277 HD
ENDBRANCH   1  14
TORSDOF 5
ENDMDL
MODEL 4
REMARK VINA RESULT: -3.290155133      1.845      3.163
REMARK  5 active torsions:
REMARK  status: ('A' for Active; 'I' for Inactive)
REMARK    1  A    between atoms: C1_4  and  N2_5 
REMARK    2  A    between atoms: C1_4  and  C3_9 
REMARK    3  A    between atoms: N2_5  and  C2_7 
REMARK    4  A    between atoms: C3_9  and  N3_10 
REMARK    5  A    between atoms: C3_9  and  C4_14 
ROOT
HETATM    1  C3  UNL     1      18.815  16.584  57.083  1.00  0.00     0.282 C 
ENDROOT
BRANCH   1   2
HETATM    2  C1  UNL     1      19.166  15.491  56.169  1.00  0.00     0.110 C 
HETATM    3  N1  UNL     1      20.031  15.787  55.219  1.00  0.00    -0.387 N 
ATOM      4  H12 UNL     1      20.275  15.027  54.583  1.00  0.00     0.157 HD
ATOM      5  H11 UNL     1      20.378  16.746  55.241  1.00  0.00     0.157 HD
BRANCH   2   6
HETATM    6  N2  UNL     1      18.691  14.179  56.139  1.00  0.00    -0.323 N 
ATOM      7  H2  UNL     1      19.174  13.487  56.712  1.00  0.00     0.169 HD
BRANCH   6   8
HETATM    8  C2  UNL     1      17.602  13.745  55.381  1.00  0.00     0.354 C 
HETATM    9  O1  UNL     1      16.402  13.820  55.719  1.00  0.00    -0.283 OA
ENDBRANCH   6   8
ENDBRANCH   2   6
ENDBRANCH   1   2
BRANCH   1  10
HETATM   10  N3  UNL     1      19.457  17.796  56.490  1.00  0.00    -0.066 N 
ATOM     11  H33 UNL     1      19.652  17.715  55.492  1.00  0.00     0.275 HD
ATOM     12  H32 UNL     1      18.838  18.603  56.422  1.00  0.00     0.275 HD
ATOM     13  H31 UNL     1      20.286  17.956  57.063  1.00  0.00     0.275 HD
ENDBRANCH   1  10
BRANCH   1  14
HETATM   14  C4  UNL     1      17.343  16.922  57.118  1.00  0.00     0.249 A 
HETATM   15  C5  UNL     1      16.801  17.400  58.434  1.00  0.00     0.268 A 
HETATM   16  N4  UNL     1      16.411  16.130  57.854  1.00  0.00    -0.065 N 
ATOM     17  H42 UNL     1      15.510  15.715  57.622  1.00  0.00     0.277 HD
ATOM     18  H41 UNL     1      16.427  15.170  58.197  1.00  0.00     0.277 HD
ENDBRANCH   1  14
TORSDOF 5
ENDMDL
MODEL 5
REMARK VINA RESULT: -3.262652837      1.697      2.832
REMARK  5 active torsions:
REMARK  status: ('A' for Active; 'I' for Inactive)
REMARK    1  A    between atoms: C1_4  and  N2_5 
REMARK    2  A    between atoms: C1_4  and  C3_9 
REMARK    3  A    between atoms: N2_5  and  C2_7 
REMARK    4  A    between atoms: C3_9  and  N3_10 
REMARK    5  A    between atoms: C3_9  and  C4_14 
ROOT
HETATM    1  C3  UNL     1      18.188  16.984  56.618  1.00  0.00     0.282 C 
ENDROOT
BRANCH   1   2
HETATM    2  C1  UNL     1      18.691  15.612  56.473  1.00  0.00     0.110 C 
HETATM    3  N1  UNL     1      20.003  15.479  56.434  1.00  0.00    -0.387 N 
ATOM      4  H12 UNL     1      20.353  14.526  56.334  1.00  0.00     0.157 HD
ATOM      5  H11 UNL     1      20.525  16.350  56.533  1.00  0.00     0.157 HD
BRANCH   2   6
HETATM    6  N2  UNL     1      17.978  14.420  56.339  1.00  0.00    -0.323 N 
ATOM      7  H2  UNL     1      17.510  14.053  57.168  1.00  0.00     0.169 HD
BRANCH   6   8
HETATM    8  C2  UNL     1      17.859  13.695  55.152  1.00  0.00     0.354 C 
HETATM    9  O1  UNL     1      18.656  13.732  54.192  1.00  0.00    -0.283 OA
ENDBRANCH   6   8
ENDBRANCH   2   6
ENDBRANCH   1   2
BRANCH   1  10
HETATM   10  N3  UNL     1      17.847  17.411  55.227  1.00  0.00    -0.066 N 
ATOM     11  H33 UNL     1      17.527  18.377  55.157  1.00  0.00     0.275 HD
ATOM     12  H32 UNL     1      18.656  17.513  54.614  1.00  0.00     0.275 HD
ATOM     13  H31 UNL     1      17.166  16.724  54.905  1.00  0.00     0.275 HD
ENDBRANCH   1  10
BRANCH   1  14
HETATM   14  C4  UNL     1      16.885  17.095  57.372  1.00  0.00     0.249 A 
HETATM   15  C5  UNL     1      16.822  18.148  58.441  1.00  0.00     0.268 A 
HETATM   16  N4  UNL     1      16.784  16.733  58.749  1.00  0.00    -0.065 N 
ATOM     17  H42 UNL     1      16.134  16.148  59.273  1.00  0.00     0.277 HD
ATOM     18  H41 UNL     1      17.343  16.134  59.358  1.00  0.00     0.277 HD
ENDBRANCH   1  14
TORSDOF 5
ENDMDL
