MODEL 1
REMARK VINA RESULT: -3.796936701      0.000      0.000
REMARK  3 active torsions:
REMARK  status: ('A' for Active; 'I' for Inactive)
REMARK    1  A    between atoms: C1_2  and  C2_4 
REMARK    2  A    between atoms: C2_4  and  N2_5 
REMARK    3  A    between atoms: C2_4  and  C3_9 
ROOT
HETATM    1  C2  UNL     1      18.007  16.711  56.689  1.00  0.00     0.322 C 
ENDROOT
BRANCH   1   2
HETATM    2  C1  UNL     1      16.803  16.631  57.529  1.00  0.00     0.267 C 
HETATM    3  N1  UNL     1      15.700  17.472  57.225  1.00  0.00    -0.060 NA
HETATM    4  O1  UNL     1      16.660  15.862  58.523  1.00  0.00    -0.274 OA
ENDBRANCH   1   2
BRANCH   1   5
HETATM    5  N2  UNL     1      19.165  16.854  57.539  1.00  0.00    -0.061 N 
ATOM      6  H23 UNL     1      19.011  16.473  58.472  1.00  0.00     0.275 HD
ATOM      7  H22 UNL     1      19.931  16.241  57.259  1.00  0.00     0.275 HD
ATOM      8  H21 UNL     1      19.443  17.835  57.561  1.00  0.00     0.275 HD
ENDBRANCH   1   5
BRANCH   1   9
HETATM    9  C3  UNL     1      18.158  15.506  55.805  1.00  0.00     0.065 A 
HETATM   10  C4  UNL     1      18.787  15.475  54.588  1.00  0.00     0.116 A 
HETATM   11  N3  UNL     1      18.688  14.201  54.150  1.00  0.00    -0.360 N 
HETATM   12  C5  UNL     1      18.028  13.448  55.041  1.00  0.00     0.180 A 
ATOM     13  H3  UNL     1      19.063  13.860  53.265  1.00  0.00     0.166 HD
HETATM   14  N4  UNL     1      17.704  14.259  56.058  1.00  0.00    -0.352 N 
ATOM     15  H4  UNL     1      17.194  13.977  56.895  1.00  0.00     0.166 HD
ENDBRANCH   1   9
TORSDOF 3
ENDMDL
MODEL 2
REMARK VINA RESULT: -3.796146371      2.206      3.980
REMARK  3 active torsions:
REMARK  status: ('A' for Active; 'I' for Inactive)
REMARK    1  A    between atoms: C1_2  and  C2_4 
REMARK    2  A    between atoms: C2_4  and  N2_5 
REMARK    3  A    between atoms: C2_4  and  C3_9 
ROOT
HETATM    1  C2  UNL     1      18.640  15.038  55.461  1.00  0.00     0.322 C 
ENDROOT
BRANCH   1   2
HETATM    2  C1  UNL     1      18.425  15.131  54.010  1.00  0.00     0.267 C 
HETATM    3  N1  UNL     1      19.445  14.667  53.136  1.00  0.00    -0.060 NA
HETATM    4  O1  UNL     1      17.389  15.599  53.456  1.00  0.00    -0.274 OA
ENDBRANCH   1   2
BRANCH   1   5
HETATM    5  N2  UNL     1      19.961  15.529  55.773  1.00  0.00    -0.061 N 
ATOM      6  H23 UNL     1      20.394  16.008  54.984  1.00  0.00     0.275 HD
ATOM      7  H22 UNL     1      19.941  16.315  56.423  1.00  0.00     0.275 HD
ATOM      8  H21 UNL     1      20.530  14.756  56.118  1.00  0.00     0.275 HD
ENDBRANCH   1   5
BRANCH   1   9
HETATM    9  C3  UNL     1      17.606  15.805  56.233  1.00  0.00     0.065 A 
HETATM   10  C4  UNL     1      16.826  15.310  57.245  1.00  0.00     0.116 A 
HETATM   11  N3  UNL     1      16.046  16.335  57.651  1.00  0.00    -0.360 N 
HETATM   12  C5  UNL     1      16.310  17.437  56.935  1.00  0.00     0.180 A 
ATOM     13  H3  UNL     1      15.352  16.278  58.397  1.00  0.00     0.166 HD
HETATM   14  N4  UNL     1      17.272  17.103  56.064  1.00  0.00    -0.352 N 
ATOM     15  H4  UNL     1      17.689  17.733  55.378  1.00  0.00     0.166 HD
ENDBRANCH   1   9
TORSDOF 3
ENDMDL
MODEL 3
REMARK VINA RESULT: -3.778582231      2.047      3.799
REMARK  3 active torsions:
REMARK  status: ('A' for Active; 'I' for Inactive)
REMARK    1  A    between atoms: C1_2  and  C2_4 
REMARK    2  A    between atoms: C2_4  and  N2_5 
REMARK    3  A    between atoms: C2_4  and  C3_9 
ROOT
HETATM    1  C2  UNL     1      18.644  15.047  56.163  1.00  0.00     0.322 C 
ENDROOT
BRANCH   1   2
HETATM    2  C1  UNL     1      18.194  14.362  54.943  1.00  0.00     0.267 C 
HETATM    3  N1  UNL     1      17.604  15.131  53.904  1.00  0.00    -0.060 NA
HETATM    4  O1  UNL     1      18.284  13.118  54.730  1.00  0.00    -0.274 OA
ENDBRANCH   1   2
BRANCH   1   5
HETATM    5  N2  UNL     1      19.881  15.738  55.885  1.00  0.00    -0.061 N 
ATOM      6  H23 UNL     1      20.346  15.381  55.050  1.00  0.00     0.275 HD
ATOM      7  H22 UNL     1      19.729  16.694  55.567  1.00  0.00     0.275 HD
ATOM      8  H21 UNL     1      20.479  15.694  56.710  1.00  0.00     0.275 HD
ENDBRANCH   1   5
BRANCH   1   9
HETATM    9  C3  UNL     1      17.616  16.012  56.679  1.00  0.00     0.065 A 
HETATM   10  C4  UNL     1      16.707  15.763  57.674  1.00  0.00     0.116 A 
HETATM   11  N3  UNL     1      15.987  16.897  57.813  1.00  0.00    -0.360 N 
HETATM   12  C5  UNL     1      16.411  17.831  56.951  1.00  0.00     0.180 A 
ATOM     13  H3  UNL     1      15.227  17.025  58.481  1.00  0.00     0.166 HD
HETATM   14  N4  UNL     1      17.415  17.279  56.255  1.00  0.00    -0.352 N 
ATOM     15  H4  UNL     1      17.945  17.744  55.518  1.00  0.00     0.166 HD
ENDBRANCH   1   9
TORSDOF 3
ENDMDL
MODEL 4
REMARK VINA RESULT: -3.769106077      2.924      3.916
REMARK  3 active torsions:
REMARK  status: ('A' for Active; 'I' for Inactive)
REMARK    1  A    between atoms: C1_2  and  C2_4 
REMARK    2  A    between atoms: C2_4  and  N2_5 
REMARK    3  A    between atoms: C2_4  and  C3_9 
ROOT
HETATM    1  C2  UNL     1      17.365  17.868  58.515  1.00  0.00     0.322 C 
ENDROOT
BRANCH   1   2
HETATM    2  C1  UNL     1      16.623  16.766  57.887  1.00  0.00     0.267 C 
HETATM    3  N1  UNL     1      15.702  17.065  56.849  1.00  0.00    -0.060 NA
HETATM    4  O1  UNL     1      16.732  15.544  58.199  1.00  0.00    -0.274 OA
ENDBRANCH   1   2
BRANCH   1   5
HETATM    5  N2  UNL     1      16.743  18.198  59.775  1.00  0.00    -0.061 N 
ATOM      6  H23 UNL     1      16.205  19.064  59.727  1.00  0.00     0.275 HD
ATOM      7  H22 UNL     1      15.976  17.567  60.006  1.00  0.00     0.275 HD
ATOM      8  H21 UNL     1      17.457  18.223  60.502  1.00  0.00     0.275 HD
ENDBRANCH   1   5
BRANCH   1   9
HETATM    9  C3  UNL     1      18.811  17.524  58.725  1.00  0.00     0.065 A 
HETATM   10  C4  UNL     1      19.526  17.725  59.877  1.00  0.00     0.116 A 
HETATM   11  N3  UNL     1      20.774  17.273  59.625  1.00  0.00    -0.360 N 
HETATM   12  C5  UNL     1      20.859  16.804  58.372  1.00  0.00     0.180 A 
ATOM     13  H3  UNL     1      21.544  17.288  60.294  1.00  0.00     0.166 HD
HETATM   14  N4  UNL     1      19.646  16.961  57.824  1.00  0.00    -0.352 N 
ATOM     15  H4  UNL     1      19.392  16.697  56.872  1.00  0.00     0.166 HD
ENDBRANCH   1   9
TORSDOF 3
ENDMDL
MODEL 5
REMARK VINA RESULT: -3.704600979      0.819      1.234
REMARK  3 active torsions:
REMARK  status: ('A' for Active; 'I' for Inactive)
REMARK    1  A    between atoms: C1_2  and  C2_4 
REMARK    2  A    between atoms: C2_4  and  N2_5 
REMARK    3  A    between atoms: C2_4  and  C3_9 
ROOT
HETATM    1  C2  UNL     1      18.049  16.801  56.677  1.00  0.00     0.322 C 
ENDROOT
BRANCH   1   2
HETATM    2  C1  UNL     1      16.805  16.540  57.415  1.00  0.00     0.267 C 
HETATM    3  N1  UNL     1      15.591  17.089  56.926  1.00  0.00    -0.060 NA
HETATM    4  O1  UNL     1      16.719  15.854  58.475  1.00  0.00    -0.274 OA
ENDBRANCH   1   2
BRANCH   1   5
HETATM    5  N2  UNL     1      19.159  16.771  57.599  1.00  0.00    -0.061 N 
ATOM      6  H23 UNL     1      18.874  16.501  58.541  1.00  0.00     0.275 HD
ATOM      7  H22 UNL     1      19.796  15.995  57.416  1.00  0.00     0.275 HD
ATOM      8  H21 UNL     1      19.633  17.673  57.580  1.00  0.00     0.275 HD
ENDBRANCH   1   5
BRANCH   1   9
HETATM    9  C3  UNL     1      18.266  15.809  55.571  1.00  0.00     0.065 A 
HETATM   10  C4  UNL     1      18.236  14.445  55.697  1.00  0.00     0.116 A 
HETATM   11  N3  UNL     1      18.479  13.951  54.463  1.00  0.00    -0.360 N 
HETATM   12  C5  UNL     1      18.657  14.948  53.585  1.00  0.00     0.180 A 
ATOM     13  H3  UNL     1      18.521  12.958  54.232  1.00  0.00     0.166 HD
HETATM   14  N4  UNL     1      18.524  16.090  54.275  1.00  0.00    -0.352 N 
ATOM     15  H4  UNL     1      18.606  17.028  53.881  1.00  0.00     0.166 HD
ENDBRANCH   1   9
TORSDOF 3
ENDMDL
