MODEL 1
REMARK VINA RESULT: -3.973746079      0.000      0.000
REMARK  5 active torsions:
REMARK  status: ('A' for Active; 'I' for Inactive)
REMARK    1  A    between atoms: C2_2  and  N1_3 
REMARK    2  A    between atoms: C2_2  and  C3_8 
REMARK    3  A    between atoms: N1_3  and  N2_5 
REMARK       I    between atoms: C3_8  and  N3_10 
REMARK    4  A    between atoms: N3_10  and  N4_12 
REMARK    5  A    between atoms: N4_12  and  C4_14 
ROOT
HETATM    1  C3  UNL     1      11.726  20.968  57.055  1.00  0.00     0.260 C 
HETATM    2  O1  UNL     1      12.263  22.071  56.874  1.00  0.00    -0.269 OA
HETATM    3  N3  UNL     1      12.422  19.775  56.806  1.00  0.00    -0.266 N 
ATOM      4  H3  UNL     1      11.983  18.861  56.921  1.00  0.00     0.190 HD
ENDROOT
BRANCH   1   5
HETATM    5  C2  UNL     1      10.307  20.942  57.582  1.00  0.00     0.188 C 
HETATM    6  C1  UNL     1      10.241  22.286  58.376  1.00  0.00     0.044 C 
BRANCH   5   7
HETATM    7  N1  UNL     1      10.311  19.914  58.608  1.00  0.00    -0.329 N 
ATOM      8  H1  UNL     1      10.126  18.933  58.396  1.00  0.00     0.180 HD
BRANCH   7   9
HETATM    9  N2  UNL     1      10.570  20.335  59.840  1.00  0.00    -0.349 N 
ATOM     10  H22 UNL     1      10.414  21.306  60.113  1.00  0.00     0.176 HD
ATOM     11  H21 UNL     1      10.928  19.627  60.481  1.00  0.00     0.176 HD
ENDBRANCH   7   9
ENDBRANCH   5   7
ENDBRANCH   1   5
BRANCH   3  12
HETATM   12  N4  UNL     1      13.733  19.908  56.398  1.00  0.00    -0.275 N 
ATOM     13  H4  UNL     1      14.009  20.890  56.383  1.00  0.00     0.189 HD
BRANCH  12  14
HETATM   14  C4  UNL     1      14.786  19.099  56.003  1.00  0.00     0.368 C 
HETATM   15  O2  UNL     1      15.108  17.985  56.356  1.00  0.00    -0.282 OA
ENDBRANCH  12  14
ENDBRANCH   3  12
TORSDOF 5
ENDMDL
MODEL 2
REMARK VINA RESULT: -3.973628951      6.022      6.658
REMARK  5 active torsions:
REMARK  status: ('A' for Active; 'I' for Inactive)
REMARK    1  A    between atoms: C2_2  and  N1_3 
REMARK    2  A    between atoms: C2_2  and  C3_8 
REMARK    3  A    between atoms: N1_3  and  N2_5 
REMARK       I    between atoms: C3_8  and  N3_10 
REMARK    4  A    between atoms: N3_10  and  N4_12 
REMARK    5  A    between atoms: N4_12  and  C4_14 
ROOT
HETATM    1  C3  UNL     1      17.049  17.160  58.355  1.00  0.00     0.260 C 
HETATM    2  O1  UNL     1      18.159  16.701  58.661  1.00  0.00    -0.269 OA
HETATM    3  N3  UNL     1      16.100  16.374  57.685  1.00  0.00    -0.266 N 
ATOM      4  H3  UNL     1      15.195  16.748  57.399  1.00  0.00     0.190 HD
ENDROOT
BRANCH   1   5
HETATM    5  C2  UNL     1      16.734  18.587  58.750  1.00  0.00     0.188 C 
HETATM    6  C1  UNL     1      18.091  19.303  58.460  1.00  0.00     0.044 C 
BRANCH   5   7
HETATM    7  N1  UNL     1      16.640  18.559  60.199  1.00  0.00    -0.329 N 
ATOM      8  H1  UNL     1      15.750  18.456  60.686  1.00  0.00     0.180 HD
BRANCH   7   9
HETATM    9  N2  UNL     1      17.792  18.677  60.850  1.00  0.00    -0.349 N 
ATOM     10  H22 UNL     1      18.664  18.326  60.453  1.00  0.00     0.176 HD
ATOM     11  H21 UNL     1      17.739  19.136  61.759  1.00  0.00     0.176 HD
ENDBRANCH   7   9
ENDBRANCH   5   7
ENDBRANCH   1   5
BRANCH   3  12
HETATM   12  N4  UNL     1      16.459  15.065  57.436  1.00  0.00    -0.275 N 
ATOM     13  H4  UNL     1      16.055  14.440  58.134  1.00  0.00     0.189 HD
BRANCH  12  14
HETATM   14  C4  UNL     1      17.208  14.350  56.516  1.00  0.00     0.368 C 
HETATM   15  O2  UNL     1      18.377  14.033  56.518  1.00  0.00    -0.282 OA
ENDBRANCH  12  14
ENDBRANCH   3  12
TORSDOF 5
ENDMDL
MODEL 3
REMARK VINA RESULT: -3.973194740      5.547      6.270
REMARK  5 active torsions:
REMARK  status: ('A' for Active; 'I' for Inactive)
REMARK    1  A    between atoms: C2_2  and  N1_3 
REMARK    2  A    between atoms: C2_2  and  C3_8 
REMARK    3  A    between atoms: N1_3  and  N2_5 
REMARK       I    between atoms: C3_8  and  N3_10 
REMARK    4  A    between atoms: N3_10  and  N4_12 
REMARK    5  A    between atoms: N4_12  and  C4_14 
ROOT
HETATM    1  C3  UNL     1      16.350  17.199  57.354  1.00  0.00     0.260 C 
HETATM    2  O1  UNL     1      16.242  17.327  56.125  1.00  0.00    -0.269 OA
HETATM    3  N3  UNL     1      16.459  15.930  57.943  1.00  0.00    -0.266 N 
ATOM      4  H3  UNL     1      16.517  15.808  58.954  1.00  0.00     0.190 HD
ENDROOT
BRANCH   1   5
HETATM    5  C2  UNL     1      16.392  18.453  58.201  1.00  0.00     0.188 C 
HETATM    6  C1  UNL     1      17.633  19.193  57.608  1.00  0.00     0.044 C 
BRANCH   5   7
HETATM    7  N1  UNL     1      16.829  18.002  59.511  1.00  0.00    -0.329 N 
ATOM      8  H1  UNL     1      17.370  17.146  59.640  1.00  0.00     0.180 HD
BRANCH   7   9
HETATM    9  N2  UNL     1      16.479  18.778  60.530  1.00  0.00    -0.349 N 
ATOM     10  H22 UNL     1      17.021  18.796  61.393  1.00  0.00     0.176 HD
ATOM     11  H21 UNL     1      15.643  19.343  60.385  1.00  0.00     0.176 HD
ENDBRANCH   7   9
ENDBRANCH   5   7
ENDBRANCH   1   5
BRANCH   3  12
HETATM   12  N4  UNL     1      16.484  14.856  57.077  1.00  0.00    -0.275 N 
ATOM     13  H4  UNL     1      15.547  14.471  56.952  1.00  0.00     0.189 HD
BRANCH  12  14
HETATM   14  C4  UNL     1      17.407  14.147  56.326  1.00  0.00     0.368 C 
HETATM   15  O2  UNL     1      18.607  14.032  56.444  1.00  0.00    -0.282 OA
ENDBRANCH  12  14
ENDBRANCH   3  12
TORSDOF 5
ENDMDL
MODEL 4
REMARK VINA RESULT: -3.896228249      3.747      4.734
REMARK  5 active torsions:
REMARK  status: ('A' for Active; 'I' for Inactive)
REMARK    1  A    between atoms: C2_2  and  N1_3 
REMARK    2  A    between atoms: C2_2  and  C3_8 
REMARK    3  A    between atoms: N1_3  and  N2_5 
REMARK       I    between atoms: C3_8  and  N3_10 
REMARK    4  A    between atoms: N3_10  and  N4_12 
REMARK    5  A    between atoms: N4_12  and  C4_14 
ROOT
HETATM    1  C3  UNL     1      15.612  18.610  56.801  1.00  0.00     0.260 C 
HETATM    2  O1  UNL     1      15.428  18.119  55.678  1.00  0.00    -0.269 OA
HETATM    3  N3  UNL     1      15.922  17.799  57.903  1.00  0.00    -0.266 N 
ATOM      4  H3  UNL     1      16.046  18.186  58.839  1.00  0.00     0.190 HD
ENDROOT
BRANCH   1   5
HETATM    5  C2  UNL     1      15.524  20.114  56.946  1.00  0.00     0.188 C 
HETATM    6  C1  UNL     1      16.259  20.344  58.304  1.00  0.00     0.044 C 
BRANCH   5   7
HETATM    7  N1  UNL     1      14.126  20.377  57.240  1.00  0.00    -0.329 N 
ATOM      8  H1  UNL     1      13.836  21.019  57.978  1.00  0.00     0.180 HD
BRANCH   7   9
HETATM    9  N2  UNL     1      13.250  19.727  56.483  1.00  0.00    -0.349 N 
ATOM     10  H22 UNL     1      13.483  18.833  56.050  1.00  0.00     0.176 HD
ATOM     11  H21 UNL     1      12.343  20.180  56.371  1.00  0.00     0.176 HD
ENDBRANCH   7   9
ENDBRANCH   5   7
ENDBRANCH   1   5
BRANCH   3  12
HETATM   12  N4  UNL     1      16.051  16.449  57.650  1.00  0.00    -0.275 N 
ATOM     13  H4  UNL     1      15.199  15.950  57.906  1.00  0.00     0.189 HD
BRANCH  12  14
HETATM   14  C4  UNL     1      16.999  15.571  57.149  1.00  0.00     0.368 C 
HETATM   15  O2  UNL     1      17.058  14.362  57.182  1.00  0.00    -0.282 OA
ENDBRANCH  12  14
ENDBRANCH   3  12
TORSDOF 5
ENDMDL
MODEL 5
REMARK VINA RESULT: -3.895557871      6.044      7.009
REMARK  5 active torsions:
REMARK  status: ('A' for Active; 'I' for Inactive)
REMARK    1  A    between atoms: C2_2  and  N1_3 
REMARK    2  A    between atoms: C2_2  and  C3_8 
REMARK    3  A    between atoms: N1_3  and  N2_5 
REMARK       I    between atoms: C3_8  and  N3_10 
REMARK    4  A    between atoms: N3_10  and  N4_12 
REMARK    5  A    between atoms: N4_12  and  C4_14 
ROOT
HETATM    1  C3  UNL     1      17.037  16.555  57.636  1.00  0.00     0.260 C 
HETATM    2  O1  UNL     1      16.657  15.608  58.340  1.00  0.00    -0.269 OA
HETATM    3  N3  UNL     1      17.856  16.343  56.517  1.00  0.00    -0.266 N 
ATOM      4  H3  UNL     1      18.201  17.116  55.947  1.00  0.00     0.190 HD
ENDROOT
BRANCH   1   5
HETATM    5  C2  UNL     1      16.568  17.948  58.001  1.00  0.00     0.188 C 
HETATM    6  C1  UNL     1      17.692  18.833  57.374  1.00  0.00     0.044 C 
BRANCH   5   7
HETATM    7  N1  UNL     1      16.782  18.049  59.434  1.00  0.00    -0.329 N 
ATOM      8  H1  UNL     1      16.027  18.271  60.083  1.00  0.00     0.180 HD
BRANCH   7   9
HETATM    9  N2  UNL     1      18.026  17.833  59.843  1.00  0.00    -0.349 N 
ATOM     10  H22 UNL     1      18.768  17.595  59.185  1.00  0.00     0.176 HD
ATOM     11  H21 UNL     1      18.180  17.921  60.848  1.00  0.00     0.176 HD
ENDBRANCH   7   9
ENDBRANCH   5   7
ENDBRANCH   1   5
BRANCH   3  12
HETATM   12  N4  UNL     1      18.166  15.030  56.229  1.00  0.00    -0.275 N 
ATOM     13  H4  UNL     1      18.948  14.710  56.802  1.00  0.00     0.189 HD
BRANCH  12  14
HETATM   14  C4  UNL     1      17.728  14.017  55.392  1.00  0.00     0.368 C 
HETATM   15  O2  UNL     1      18.343  13.245  54.690  1.00  0.00    -0.282 OA
ENDBRANCH  12  14
ENDBRANCH   3  12
TORSDOF 5
ENDMDL
