MODEL 1
REMARK VINA RESULT: -4.391195865      0.000      0.000
REMARK  3 active torsions:
REMARK  status: ('A' for Active; 'I' for Inactive)
REMARK       I    between atoms: C1_4  and  N3_6 
REMARK    1  A    between atoms: N3_6  and  N4_8 
REMARK    2  A    between atoms: C2_10  and  C3_11 
REMARK       I    between atoms: C3_11  and  N5_13 
REMARK    3  A    between atoms: N5_13  and  N6_15 
ROOT
HETATM    1  N4  UNL     1      17.006  14.651  56.605  1.00  0.00    -0.304 N 
ATOM      2  H4  UNL     1      16.718  13.701  56.369  1.00  0.00     0.186 HD
HETATM    3  C2  UNL     1      17.910  15.182  55.887  1.00  0.00     0.182 C 
ENDROOT
BRANCH   1   4
HETATM    4  N3  UNL     1      16.381  15.253  57.678  1.00  0.00    -0.274 N 
HETATM    5  C1  UNL     1      16.345  16.652  57.831  1.00  0.00     0.200 C 
HETATM    6  N1  UNL     1      16.918  17.297  58.793  1.00  0.00    -0.372 N 
HETATM    7  N2  UNL     1      15.623  17.411  56.852  1.00  0.00    -0.062 NA
ATOM      8  H12 UNL     1      16.892  18.310  58.904  1.00  0.00     0.158 HD
ATOM      9  H11 UNL     1      17.431  16.756  59.490  1.00  0.00     0.158 HD
ATOM     10  H3  UNL     1      15.932  14.667  58.382  1.00  0.00     0.189 HD
ENDBRANCH   1   4
BRANCH   3  11
HETATM   11  C3  UNL     1      18.498  14.454  54.781  1.00  0.00     0.276 C 
HETATM   12  O1  UNL     1      18.333  13.233  54.678  1.00  0.00    -0.265 OA
HETATM   13  N5  UNL     1      19.282  15.099  53.776  1.00  0.00    -0.272 N 
ATOM     14  H5  UNL     1      19.428  16.106  53.847  1.00  0.00     0.189 HD
BRANCH  13  15
HETATM   15  N6  UNL     1      19.849  14.429  52.717  1.00  0.00    -0.342 N 
ATOM     16  H62 UNL     1      20.852  14.545  52.573  1.00  0.00     0.176 HD
ATOM     17  H61 UNL     1      19.317  13.833  52.083  1.00  0.00     0.176 HD
ENDBRANCH  13  15
ENDBRANCH   3  11
TORSDOF 3
ENDMDL
MODEL 2
REMARK VINA RESULT: -4.276402528      4.221      6.967
REMARK  3 active torsions:
REMARK  status: ('A' for Active; 'I' for Inactive)
REMARK       I    between atoms: C1_4  and  N3_6 
REMARK    1  A    between atoms: N3_6  and  N4_8 
REMARK    2  A    between atoms: C2_10  and  C3_11 
REMARK       I    between atoms: C3_11  and  N5_13 
REMARK    3  A    between atoms: N5_13  and  N6_15 
ROOT
HETATM    1  N4  UNL     1      16.808  17.811  59.554  1.00  0.00    -0.304 N 
ATOM      2  H4  UNL     1      16.394  17.209  60.266  1.00  0.00     0.186 HD
HETATM    3  C2  UNL     1      16.788  19.064  59.765  1.00  0.00     0.182 C 
ENDROOT
BRANCH   1   4
HETATM    4  N3  UNL     1      17.344  17.198  58.440  1.00  0.00    -0.274 N 
HETATM    5  C1  UNL     1      16.541  16.531  57.496  1.00  0.00     0.200 C 
HETATM    6  N1  UNL     1      16.588  15.261  57.263  1.00  0.00    -0.372 N 
HETATM    7  N2  UNL     1      15.608  17.317  56.742  1.00  0.00    -0.062 NA
ATOM      8  H12 UNL     1      16.006  14.778  56.578  1.00  0.00     0.158 HD
ATOM      9  H11 UNL     1      17.253  14.702  57.799  1.00  0.00     0.158 HD
ATOM     10  H3  UNL     1      18.354  17.228  58.297  1.00  0.00     0.189 HD
ENDBRANCH   1   4
BRANCH   3  11
HETATM   11  C3  UNL     1      16.196  19.600  60.975  1.00  0.00     0.276 C 
HETATM   12  O1  UNL     1      15.781  20.764  61.004  1.00  0.00    -0.265 OA
HETATM   13  N5  UNL     1      16.068  18.825  62.168  1.00  0.00    -0.272 N 
ATOM     14  H5  UNL     1      16.407  17.863  62.160  1.00  0.00     0.189 HD
BRANCH  13  15
HETATM   15  N6  UNL     1      15.509  19.312  63.326  1.00  0.00    -0.342 N 
ATOM     16  H62 UNL     1      14.538  19.621  63.284  1.00  0.00     0.176 HD
ATOM     17  H61 UNL     1      16.018  19.375  64.208  1.00  0.00     0.176 HD
ENDBRANCH  13  15
ENDBRANCH   3  11
TORSDOF 3
ENDMDL
MODEL 3
REMARK VINA RESULT: -4.247128581      5.032      5.602
REMARK  3 active torsions:
REMARK  status: ('A' for Active; 'I' for Inactive)
REMARK       I    between atoms: C1_4  and  N3_6 
REMARK    1  A    between atoms: N3_6  and  N4_8 
REMARK    2  A    between atoms: C2_10  and  C3_11 
REMARK       I    between atoms: C3_11  and  N5_13 
REMARK    3  A    between atoms: N5_13  and  N6_15 
ROOT
HETATM    1  N4  UNL     1      14.422  18.921  53.334  1.00  0.00    -0.304 N 
ATOM      2  H4  UNL     1      13.491  18.531  53.188  1.00  0.00     0.186 HD
HETATM    3  C2  UNL     1      15.313  18.645  52.470  1.00  0.00     0.182 C 
ENDROOT
BRANCH   1   4
HETATM    4  N3  UNL     1      14.612  19.704  54.454  1.00  0.00    -0.274 N 
HETATM    5  C1  UNL     1      14.379  19.217  55.754  1.00  0.00     0.200 C 
HETATM    6  N1  UNL     1      13.461  19.662  56.547  1.00  0.00    -0.372 N 
HETATM    7  N2  UNL     1      15.217  18.155  56.228  1.00  0.00    -0.062 NA
ATOM      8  H12 UNL     1      13.293  19.309  57.489  1.00  0.00     0.158 HD
ATOM      9  H11 UNL     1      12.865  20.418  56.210  1.00  0.00     0.158 HD
ATOM     10  H3  UNL     1      14.931  20.666  54.336  1.00  0.00     0.189 HD
ENDBRANCH   1   4
BRANCH   3  11
HETATM   11  C3  UNL     1      15.001  17.809  51.328  1.00  0.00     0.276 C 
HETATM   12  O1  UNL     1      15.731  16.855  51.035  1.00  0.00    -0.265 OA
HETATM   13  N5  UNL     1      13.859  18.041  50.503  1.00  0.00    -0.272 N 
ATOM     14  H5  UNL     1      13.247  18.825  50.732  1.00  0.00     0.189 HD
BRANCH  13  15
HETATM   15  N6  UNL     1      13.543  17.261  49.416  1.00  0.00    -0.342 N 
ATOM     16  H62 UNL     1      12.737  16.642  49.502  1.00  0.00     0.176 HD
ATOM     17  H61 UNL     1      14.072  17.276  48.544  1.00  0.00     0.176 HD
ENDBRANCH  13  15
ENDBRANCH   3  11
TORSDOF 3
ENDMDL
MODEL 4
REMARK VINA RESULT: -4.236140542      2.505      5.113
REMARK  3 active torsions:
REMARK  status: ('A' for Active; 'I' for Inactive)
REMARK       I    between atoms: C1_4  and  N3_6 
REMARK    1  A    between atoms: N3_6  and  N4_8 
REMARK    2  A    between atoms: C2_10  and  C3_11 
REMARK       I    between atoms: C3_11  and  N5_13 
REMARK    3  A    between atoms: N5_13  and  N6_15 
ROOT
HETATM    1  N4  UNL     1      16.431  15.530  57.238  1.00  0.00    -0.304 N 
ATOM      2  H4  UNL     1      15.777  15.470  58.019  1.00  0.00     0.186 HD
HETATM    3  C2  UNL     1      16.658  16.683  56.754  1.00  0.00     0.182 C 
ENDROOT
BRANCH   1   4
HETATM    4  N3  UNL     1      16.997  14.352  56.794  1.00  0.00    -0.274 N 
HETATM    5  C1  UNL     1      18.170  14.334  56.017  1.00  0.00     0.200 C 
HETATM    6  N1  UNL     1      18.230  13.922  54.794  1.00  0.00    -0.372 N 
HETATM    7  N2  UNL     1      19.380  14.806  56.626  1.00  0.00    -0.062 NA
ATOM      8  H12 UNL     1      19.081  13.908  54.231  1.00  0.00     0.158 HD
ATOM      9  H11 UNL     1      17.370  13.586  54.361  1.00  0.00     0.158 HD
ATOM     10  H3  UNL     1      16.550  13.468  57.036  1.00  0.00     0.189 HD
ENDBRANCH   1   4
BRANCH   3  11
HETATM   11  C3  UNL     1      16.006  17.856  57.301  1.00  0.00     0.276 C 
HETATM   12  O1  UNL     1      15.107  18.422  56.669  1.00  0.00    -0.265 OA
HETATM   13  N5  UNL     1      16.364  18.404  58.571  1.00  0.00    -0.272 N 
ATOM     14  H5  UNL     1      17.105  17.948  59.104  1.00  0.00     0.189 HD
BRANCH  13  15
HETATM   15  N6  UNL     1      15.759  19.514  59.110  1.00  0.00    -0.342 N 
ATOM     16  H62 UNL     1      14.743  19.500  59.194  1.00  0.00     0.176 HD
ATOM     17  H61 UNL     1      16.276  20.336  59.423  1.00  0.00     0.176 HD
ENDBRANCH  13  15
ENDBRANCH   3  11
TORSDOF 3
ENDMDL
MODEL 5
REMARK VINA RESULT: -4.208671692      2.608      5.186
REMARK  3 active torsions:
REMARK  status: ('A' for Active; 'I' for Inactive)
REMARK       I    between atoms: C1_4  and  N3_6 
REMARK    1  A    between atoms: N3_6  and  N4_8 
REMARK    2  A    between atoms: C2_10  and  C3_11 
REMARK       I    between atoms: C3_11  and  N5_13 
REMARK    3  A    between atoms: N5_13  and  N6_15 
ROOT
HETATM    1  N4  UNL     1      18.242  16.534  56.381  1.00  0.00    -0.304 N 
ATOM      2  H4  UNL     1      18.596  17.490  56.404  1.00  0.00     0.186 HD
HETATM    3  C2  UNL     1      17.200  16.282  57.064  1.00  0.00     0.182 C 
ENDROOT
BRANCH   1   4
HETATM    4  N3  UNL     1      18.934  15.620  55.613  1.00  0.00    -0.274 N 
HETATM    5  C1  UNL     1      18.288  14.785  54.683  1.00  0.00     0.200 C 
HETATM    6  N1  UNL     1      18.226  13.498  54.775  1.00  0.00    -0.372 N 
HETATM    7  N2  UNL     1      17.654  15.408  53.557  1.00  0.00    -0.062 NA
ATOM      8  H12 UNL     1      17.758  12.893  54.101  1.00  0.00     0.158 HD
ATOM      9  H11 UNL     1      18.677  13.055  55.576  1.00  0.00     0.158 HD
ATOM     10  H3  UNL     1      19.946  15.547  55.724  1.00  0.00     0.189 HD
ENDBRANCH   1   4
BRANCH   3  11
HETATM   11  C3  UNL     1      16.552  17.322  57.836  1.00  0.00     0.276 C 
HETATM   12  O1  UNL     1      15.644  17.996  57.338  1.00  0.00    -0.265 OA
HETATM   13  N5  UNL     1      16.925  17.614  59.184  1.00  0.00    -0.272 N 
ATOM     14  H5  UNL     1      17.674  17.067  59.609  1.00  0.00     0.189 HD
BRANCH  13  15
HETATM   15  N6  UNL     1      16.324  18.595  59.937  1.00  0.00    -0.342 N 
ATOM     16  H62 UNL     1      15.306  18.639  59.923  1.00  0.00     0.176 HD
ATOM     17  H61 UNL     1      16.847  19.269  60.497  1.00  0.00     0.176 HD
ENDBRANCH  13  15
ENDBRANCH   3  11
TORSDOF 3
ENDMDL
