MODEL 1
REMARK VINA RESULT: -3.918898727      0.000      0.000
REMARK  4 active torsions:
REMARK  status: ('A' for Active; 'I' for Inactive)
REMARK    1  A    between atoms: N1_1  and  C1_5 
REMARK    2  A    between atoms: C3_7  and  N2_8 
REMARK    3  A    between atoms: C4_12  and  N3_13 
REMARK    4  A    between atoms: N3_13  and  C5_15 
ROOT
HETATM    1  C1  UNL     1      17.236  15.865  57.206  1.00  0.00     0.385 C 
HETATM    2  C2  UNL     1      16.946  14.449  56.684  1.00  0.00     0.099 C 
HETATM    3  C3  UNL     1      18.282  14.115  56.057  1.00  0.00     0.237 C 
HETATM    4  C4  UNL     1      18.876  15.463  55.733  1.00  0.00     0.319 C 
HETATM    5  N4  UNL     1      17.836  16.449  56.017  1.00  0.00    -0.023 N 
ATOM      6  H41 UNL     1      18.155  17.413  56.112  1.00  0.00     0.282 HD
ATOM      7  H42 UNL     1      17.193  16.647  55.251  1.00  0.00     0.282 HD
ENDROOT
BRANCH   1   8
HETATM    8  N1  UNL     1      16.066  16.535  57.650  1.00  0.00    -0.050 N 
ATOM      9  H13 UNL     1      16.085  17.519  57.386  1.00  0.00     0.276 HD
ATOM     10  H12 UNL     1      15.249  16.237  57.117  1.00  0.00     0.276 HD
ATOM     11  H11 UNL     1      15.909  16.428  58.652  1.00  0.00     0.276 HD
ENDBRANCH   1   8
BRANCH   3  12
HETATM   12  N2  UNL     1      18.177  13.245  54.929  1.00  0.00    -0.071 N 
ATOM     13  H23 UNL     1      17.275  13.359  54.466  1.00  0.00     0.274 HD
ATOM     14  H22 UNL     1      18.793  13.552  54.176  1.00  0.00     0.274 HD
ATOM     15  H21 UNL     1      18.345  12.265  55.157  1.00  0.00     0.274 HD
ENDBRANCH   3  12
BRANCH   4  16
HETATM   16  N3  UNL     1      19.381  15.570  54.412  1.00  0.00    -0.339 N 
ATOM     17  H3  UNL     1      20.299  15.190  54.185  1.00  0.00     0.164 HD
BRANCH  16  18
HETATM   18  C5  UNL     1      18.610  16.206  53.408  1.00  0.00     0.350 C 
HETATM   19  O1  UNL     1      17.467  15.777  53.076  1.00  0.00    -0.284 OA
ENDBRANCH  16  18
ENDBRANCH   4  16
TORSDOF 4
ENDMDL
MODEL 2
REMARK VINA RESULT: -3.495822797      2.427      3.706
REMARK  4 active torsions:
REMARK  status: ('A' for Active; 'I' for Inactive)
REMARK    1  A    between atoms: N1_1  and  C1_5 
REMARK    2  A    between atoms: C3_7  and  N2_8 
REMARK    3  A    between atoms: C4_12  and  N3_13 
REMARK    4  A    between atoms: N3_13  and  C5_15 
ROOT
HETATM    1  C1  UNL     1      17.965  14.475  55.377  1.00  0.00     0.385 C 
HETATM    2  C2  UNL     1      16.838  14.485  56.420  1.00  0.00     0.099 C 
HETATM    3  C3  UNL     1      16.916  15.923  56.886  1.00  0.00     0.237 C 
HETATM    4  C4  UNL     1      18.339  16.322  56.589  1.00  0.00     0.319 C 
HETATM    5  N4  UNL     1      19.023  15.108  56.148  1.00  0.00    -0.023 N 
ATOM      6  H41 UNL     1      19.903  15.251  55.654  1.00  0.00     0.282 HD
ATOM      7  H42 UNL     1      19.431  14.537  56.887  1.00  0.00     0.282 HD
ENDROOT
BRANCH   1   8
HETATM    8  N1  UNL     1      18.283  13.167  54.926  1.00  0.00    -0.050 N 
ATOM      9  H13 UNL     1      18.343  12.515  55.708  1.00  0.00     0.276 HD
ATOM     10  H12 UNL     1      17.498  12.752  54.425  1.00  0.00     0.276 HD
ATOM     11  H11 UNL     1      19.133  13.141  54.363  1.00  0.00     0.276 HD
ENDBRANCH   1   8
BRANCH   3  12
HETATM   12  N2  UNL     1      16.542  16.096  58.254  1.00  0.00    -0.071 N 
ATOM     13  H23 UNL     1      15.654  16.594  58.326  1.00  0.00     0.274 HD
ATOM     14  H22 UNL     1      16.271  15.206  58.671  1.00  0.00     0.274 HD
ATOM     15  H21 UNL     1      17.260  16.555  58.815  1.00  0.00     0.274 HD
ENDBRANCH   3  12
BRANCH   4  16
HETATM   16  N3  UNL     1      19.001  16.956  57.672  1.00  0.00    -0.339 N 
ATOM     17  H3  UNL     1      18.469  17.519  58.335  1.00  0.00     0.164 HD
BRANCH  16  18
HETATM   18  C5  UNL     1      20.400  16.807  57.832  1.00  0.00     0.350 C 
HETATM   19  O1  UNL     1      20.906  15.752  58.314  1.00  0.00    -0.284 OA
ENDBRANCH  16  18
ENDBRANCH   4  16
TORSDOF 4
ENDMDL
MODEL 3
REMARK VINA RESULT: -3.483292533      2.028      2.851
REMARK  4 active torsions:
REMARK  status: ('A' for Active; 'I' for Inactive)
REMARK    1  A    between atoms: N1_1  and  C1_5 
REMARK    2  A    between atoms: C3_7  and  N2_8 
REMARK    3  A    between atoms: C4_12  and  N3_13 
REMARK    4  A    between atoms: N3_13  and  C5_15 
ROOT
HETATM    1  C1  UNL     1      16.847  17.521  58.202  1.00  0.00     0.385 C 
HETATM    2  C2  UNL     1      18.371  17.416  58.036  1.00  0.00     0.099 C 
HETATM    3  C3  UNL     1      18.446  16.529  56.811  1.00  0.00     0.237 C 
HETATM    4  C4  UNL     1      17.142  15.773  56.833  1.00  0.00     0.319 C 
HETATM    5  N4  UNL     1      16.488  16.117  58.094  1.00  0.00    -0.023 N 
ATOM      6  H41 UNL     1      15.491  15.911  58.145  1.00  0.00     0.282 HD
ATOM      7  H42 UNL     1      16.736  15.535  58.893  1.00  0.00     0.282 HD
ENDROOT
BRANCH   1   8
HETATM    8  N1  UNL     1      16.472  18.119  59.434  1.00  0.00    -0.050 N 
ATOM      9  H13 UNL     1      17.290  18.448  59.946  1.00  0.00     0.276 HD
ATOM     10  H12 UNL     1      16.004  19.012  59.280  1.00  0.00     0.276 HD
ATOM     11  H11 UNL     1      15.901  17.503  60.013  1.00  0.00     0.276 HD
ENDBRANCH   1   8
BRANCH   3  12
HETATM   12  N2  UNL     1      19.600  15.688  56.791  1.00  0.00    -0.071 N 
ATOM     13  H23 UNL     1      20.256  15.991  56.070  1.00  0.00     0.274 HD
ATOM     14  H22 UNL     1      20.175  15.842  57.618  1.00  0.00     0.274 HD
ATOM     15  H21 UNL     1      19.378  14.698  56.684  1.00  0.00     0.274 HD
ENDBRANCH   3  12
BRANCH   4  16
HETATM   16  N3  UNL     1      17.282  14.372  56.657  1.00  0.00    -0.339 N 
ATOM     17  H3  UNL     1      17.363  13.762  57.471  1.00  0.00     0.164 HD
BRANCH  16  18
HETATM   18  C5  UNL     1      17.310  13.821  55.354  1.00  0.00     0.350 C 
HETATM   19  O1  UNL     1      18.398  13.607  54.744  1.00  0.00    -0.284 OA
ENDBRANCH  16  18
ENDBRANCH   4  16
TORSDOF 4
ENDMDL
MODEL 4
REMARK VINA RESULT: -3.424784900      1.956      1.978
REMARK  4 active torsions:
REMARK  status: ('A' for Active; 'I' for Inactive)
REMARK    1  A    between atoms: N1_1  and  C1_5 
REMARK    2  A    between atoms: C3_7  and  N2_8 
REMARK    3  A    between atoms: C4_12  and  N3_13 
REMARK    4  A    between atoms: N3_13  and  C5_15 
ROOT
HETATM    1  C1  UNL     1      17.136  15.676  57.411  1.00  0.00     0.385 C 
HETATM    2  C2  UNL     1      16.815  14.497  56.480  1.00  0.00     0.099 C 
HETATM    3  C3  UNL     1      18.215  14.082  56.080  1.00  0.00     0.237 C 
HETATM    4  C4  UNL     1      19.029  15.338  56.261  1.00  0.00     0.319 C 
HETATM    5  N4  UNL     1      18.078  16.402  56.575  1.00  0.00    -0.023 N 
ATOM      6  H41 UNL     1      18.477  17.244  56.990  1.00  0.00     0.282 HD
ATOM      7  H42 UNL     1      17.675  16.885  55.773  1.00  0.00     0.282 HD
ENDROOT
BRANCH   1   8
HETATM    8  N1  UNL     1      15.982  16.424  57.764  1.00  0.00    -0.050 N 
ATOM      9  H13 UNL     1      15.354  15.874  58.350  1.00  0.00     0.276 HD
ATOM     10  H12 UNL     1      16.214  17.166  58.423  1.00  0.00     0.276 HD
ATOM     11  H11 UNL     1      15.491  16.796  56.951  1.00  0.00     0.276 HD
ENDBRANCH   1   8
BRANCH   3  12
HETATM   12  N2  UNL     1      18.289  13.531  54.764  1.00  0.00    -0.071 N 
ATOM     13  H23 UNL     1      19.127  13.859  54.282  1.00  0.00     0.274 HD
ATOM     14  H22 UNL     1      18.495  12.533  54.801  1.00  0.00     0.274 HD
ATOM     15  H21 UNL     1      17.456  13.709  54.204  1.00  0.00     0.274 HD
ENDBRANCH   3  12
BRANCH   4  16
HETATM   16  N3  UNL     1      19.856  15.657  55.153  1.00  0.00    -0.339 N 
ATOM     17  H3  UNL     1      19.566  15.399  54.211  1.00  0.00     0.164 HD
BRANCH  16  18
HETATM   18  C5  UNL     1      21.083  16.334  55.356  1.00  0.00     0.350 C 
HETATM   19  O1  UNL     1      22.191  15.723  55.334  1.00  0.00    -0.284 OA
ENDBRANCH  16  18
ENDBRANCH   4  16
TORSDOF 4
ENDMDL
MODEL 5
REMARK VINA RESULT: -3.300738262      3.111      4.579
REMARK  4 active torsions:
REMARK  status: ('A' for Active; 'I' for Inactive)
REMARK    1  A    between atoms: N1_1  and  C1_5 
REMARK    2  A    between atoms: C3_7  and  N2_8 
REMARK    3  A    between atoms: C4_12  and  N3_13 
REMARK    4  A    between atoms: N3_13  and  C5_15 
ROOT
HETATM    1  C1  UNL     1      19.213  16.435  56.016  1.00  0.00     0.385 C 
HETATM    2  C2  UNL     1      17.862  15.724  56.185  1.00  0.00     0.099 C 
HETATM    3  C3  UNL     1      17.159  16.700  57.105  1.00  0.00     0.237 C 
HETATM    4  C4  UNL     1      18.288  17.410  57.808  1.00  0.00     0.319 C 
HETATM    5  N4  UNL     1      19.516  16.727  57.407  1.00  0.00    -0.023 N 
ATOM      6  H41 UNL     1      20.381  17.241  57.571  1.00  0.00     0.282 HD
ATOM      7  H42 UNL     1      19.783  15.926  57.978  1.00  0.00     0.282 HD
ENDROOT
BRANCH   1   8
HETATM    8  N1  UNL     1      20.182  15.621  55.373  1.00  0.00    -0.050 N 
ATOM      9  H13 UNL     1      21.016  16.159  55.139  1.00  0.00     0.276 HD
ATOM     10  H12 UNL     1      20.593  14.956  56.027  1.00  0.00     0.276 HD
ATOM     11  H11 UNL     1      19.812  15.145  54.550  1.00  0.00     0.276 HD
ENDBRANCH   1   8
BRANCH   3  12
HETATM   12  N2  UNL     1      16.230  16.075  57.992  1.00  0.00    -0.071 N 
ATOM     13  H23 UNL     1      16.427  15.078  58.078  1.00  0.00     0.274 HD
ATOM     14  H22 UNL     1      16.398  16.364  58.955  1.00  0.00     0.274 HD
ATOM     15  H21 UNL     1      15.256  16.230  57.732  1.00  0.00     0.274 HD
ENDBRANCH   3  12
BRANCH   4  16
HETATM   16  N3  UNL     1      18.140  17.480  59.217  1.00  0.00    -0.339 N 
ATOM     17  H3  UNL     1      17.213  17.409  59.636  1.00  0.00     0.164 HD
BRANCH  16  18
HETATM   18  C5  UNL     1      19.279  17.649  60.042  1.00  0.00     0.350 C 
HETATM   19  O1  UNL     1      20.045  16.682  60.323  1.00  0.00    -0.284 OA
ENDBRANCH  16  18
ENDBRANCH   4  16
TORSDOF 4
ENDMDL
