MODEL 1
REMARK VINA RESULT: -6.679084155      0.000      0.000
REMARK  8 active torsions:
REMARK  status: ('A' for Active; 'I' for Inactive)
REMARK    1  A    between atoms: C3_3  and  C4_4 
REMARK    2  A    between atoms: C4_4  and  C5_5 
REMARK    3  A    between atoms: C5_5  and  C6_6 
REMARK    4  A    between atoms: C6_6  and  N1_7 
REMARK    5  A    between atoms: N3_14  and  C10_15 
REMARK    6  A    between atoms: C10_15  and  C11_16 
REMARK    7  A    between atoms: C11_16  and  C12_17 
REMARK    8  A    between atoms: C12_17  and  N4_18 
REMARK       I    between atoms: N4_18  and  C13_20 
ROOT
HETATM    1  C1  UNL     1      95.792  72.512  33.868  1.00  0.00     0.012 C 
HETATM    2  C2  UNL     1      95.289  71.710  33.124  1.00  0.00    -0.117 C 
HETATM    3  C3  UNL     1      94.699  70.731  32.207  1.00  0.00     0.093 C 
ENDROOT
BRANCH   3   4
HETATM    4  C4  UNL     1      95.230  71.003  30.786  1.00  0.00     0.017 C 
BRANCH   4   5
HETATM    5  C5  UNL     1      94.076  71.205  29.861  1.00  0.00     0.046 C 
BRANCH   5   6
HETATM    6  C6  UNL     1      93.208  72.377  30.087  1.00  0.00     0.063 C 
BRANCH   6   7
HETATM    7  N1  UNL     1      91.911  72.214  30.597  1.00  0.00    -0.371 N 
HETATM    8  C7  UNL     1      91.368  70.961  30.847  1.00  0.00     0.082 C 
HETATM    9  C8  UNL     1      90.660  70.750  32.164  1.00  0.00     0.169 C 
HETATM   10  N2  UNL     1      89.264  71.205  32.084  1.00  0.00    -0.338 N 
HETATM   11  C9  UNL     1      88.606  72.233  31.329  1.00  0.00     0.318 C 
ATOM     12  H2  UNL     1      88.632  70.681  32.689  1.00  0.00     0.164 HD
HETATM   13  O1  UNL     1      87.360  72.063  31.301  1.00  0.00    -0.247 OA
HETATM   14  N3  UNL     1      89.057  73.384  30.618  1.00  0.00    -0.333 N 
HETATM   15  C14 UNL     1      90.309  74.097  30.608  1.00  0.00     0.147 C 
HETATM   16  C15 UNL     1      91.401  73.324  31.349  1.00  0.00     0.147 C 
BRANCH  14  17
HETATM   17  C10 UNL     1      88.095  73.905  29.719  1.00  0.00     0.129 C 
BRANCH  17  18
HETATM   18  C11 UNL     1      87.452  75.195  30.014  1.00  0.00     0.039 C 
BRANCH  18  19
HETATM   19  C12 UNL     1      85.989  75.256  30.189  1.00  0.00     0.123 C 
BRANCH  19  20
HETATM   20  N4  UNL     1      85.648  74.897  31.549  1.00  0.00    -0.365 N 
HETATM   21  C13 UNL     1      84.466  74.204  31.840  1.00  0.00     0.181 C 
HETATM   22  N5  UNL     1      83.508  74.908  32.380  1.00  0.00    -0.374 N 
HETATM   23  N6  UNL     1      84.185  72.845  31.631  1.00  0.00    -0.064 NA
ATOM     24  H52 UNL     1      83.712  75.896  32.532  1.00  0.00     0.158 HD
ATOM     25  H51 UNL     1      82.647  74.403  32.592  1.00  0.00     0.158 HD
ATOM     26  H4  UNL     1      86.279  75.152  32.308  1.00  0.00     0.162 HD
ENDBRANCH  19  20
ENDBRANCH  18  19
ENDBRANCH  17  18
ENDBRANCH  14  17
ENDBRANCH   6   7
ENDBRANCH   5   6
ENDBRANCH   4   5
ENDBRANCH   3   4
TORSDOF 8
ENDMDL
MODEL 2
REMARK VINA RESULT: -6.642588237      3.649      5.001
REMARK  8 active torsions:
REMARK  status: ('A' for Active; 'I' for Inactive)
REMARK    1  A    between atoms: C3_3  and  C4_4 
REMARK    2  A    between atoms: C4_4  and  C5_5 
REMARK    3  A    between atoms: C5_5  and  C6_6 
REMARK    4  A    between atoms: C6_6  and  N1_7 
REMARK    5  A    between atoms: N3_14  and  C10_15 
REMARK    6  A    between atoms: C10_15  and  C11_16 
REMARK    7  A    between atoms: C11_16  and  C12_17 
REMARK    8  A    between atoms: C12_17  and  N4_18 
REMARK       I    between atoms: N4_18  and  C13_20 
ROOT
HETATM    1  C1  UNL     1      96.105  71.348  34.147  1.00  0.00     0.012 C 
HETATM    2  C2  UNL     1      96.082  71.001  32.994  1.00  0.00    -0.117 C 
HETATM    3  C3  UNL     1      96.034  70.592  31.587  1.00  0.00     0.093 C 
ENDROOT
BRANCH   3   4
HETATM    4  C4  UNL     1      94.563  70.358  31.192  1.00  0.00     0.017 C 
BRANCH   4   5
HETATM    5  C5  UNL     1      94.056  71.555  30.456  1.00  0.00     0.046 C 
BRANCH   5   6
HETATM    6  C6  UNL     1      93.220  72.517  31.199  1.00  0.00     0.063 C 
BRANCH   6   7
HETATM    7  N1  UNL     1      91.929  72.833  30.751  1.00  0.00    -0.371 N 
HETATM    8  C7  UNL     1      91.034  73.558  31.529  1.00  0.00     0.082 C 
HETATM    9  C8  UNL     1      90.283  74.689  30.868  1.00  0.00     0.169 C 
HETATM   10  N2  UNL     1      89.086  74.186  30.177  1.00  0.00    -0.338 N 
HETATM   11  C9  UNL     1      88.772  72.943  29.532  1.00  0.00     0.318 C 
ATOM     12  H2  UNL     1      88.321  74.860  30.150  1.00  0.00     0.164 HD
HETATM   13  O1  UNL     1      87.532  72.804  29.371  1.00  0.00    -0.247 OA
HETATM   14  N3  UNL     1      89.553  71.853  29.046  1.00  0.00    -0.333 N 
HETATM   15  C14 UNL     1      90.960  71.703  28.778  1.00  0.00     0.147 C 
HETATM   16  C15 UNL     1      91.765  72.882  29.327  1.00  0.00     0.147 C 
BRANCH  14  17
HETATM   17  C10 UNL     1      88.799  70.677  28.817  1.00  0.00     0.129 C 
BRANCH  17  18
HETATM   18  C11 UNL     1      89.207  69.751  27.750  1.00  0.00     0.039 C 
BRANCH  18  19
HETATM   19  C12 UNL     1      88.191  68.917  27.080  1.00  0.00     0.123 C 
BRANCH  19  20
HETATM   20  N4  UNL     1      87.719  69.592  25.888  1.00  0.00    -0.365 N 
HETATM   21  C13 UNL     1      88.254  69.294  24.628  1.00  0.00     0.181 C 
HETATM   22  N5  UNL     1      89.071  70.183  24.130  1.00  0.00    -0.374 N 
HETATM   23  N6  UNL     1      88.016  68.165  23.832  1.00  0.00    -0.064 NA
ATOM     24  H52 UNL     1      89.244  71.004  24.709  1.00  0.00     0.158 HD
ATOM     25  H51 UNL     1      89.460  69.966  23.212  1.00  0.00     0.158 HD
ATOM     26  H4  UNL     1      86.985  70.295  25.968  1.00  0.00     0.162 HD
ENDBRANCH  19  20
ENDBRANCH  18  19
ENDBRANCH  17  18
ENDBRANCH  14  17
ENDBRANCH   6   7
ENDBRANCH   5   6
ENDBRANCH   4   5
ENDBRANCH   3   4
TORSDOF 8
ENDMDL
MODEL 3
REMARK VINA RESULT: -6.638090476      1.642      1.876
REMARK  8 active torsions:
REMARK  status: ('A' for Active; 'I' for Inactive)
REMARK    1  A    between atoms: C3_3  and  C4_4 
REMARK    2  A    between atoms: C4_4  and  C5_5 
REMARK    3  A    between atoms: C5_5  and  C6_6 
REMARK    4  A    between atoms: C6_6  and  N1_7 
REMARK    5  A    between atoms: N3_14  and  C10_15 
REMARK    6  A    between atoms: C10_15  and  C11_16 
REMARK    7  A    between atoms: C11_16  and  C12_17 
REMARK    8  A    between atoms: C12_17  and  N4_18 
REMARK       I    between atoms: N4_18  and  C13_20 
ROOT
HETATM    1  C1  UNL     1      96.174  72.120  33.964  1.00  0.00     0.012 C 
HETATM    2  C2  UNL     1      95.259  72.117  33.180  1.00  0.00    -0.117 C 
HETATM    3  C3  UNL     1      94.153  72.092  32.220  1.00  0.00     0.093 C 
ENDROOT
BRANCH   3   4
HETATM    4  C4  UNL     1      94.615  71.343  30.954  1.00  0.00     0.017 C 
BRANCH   4   5
HETATM    5  C5  UNL     1      94.031  72.004  29.750  1.00  0.00     0.046 C 
BRANCH   5   6
HETATM    6  C6  UNL     1      92.773  72.757  29.920  1.00  0.00     0.063 C 
BRANCH   6   7
HETATM    7  N1  UNL     1      91.546  72.185  29.554  1.00  0.00    -0.371 N 
HETATM    8  C7  UNL     1      91.234  71.888  28.233  1.00  0.00     0.082 C 
HETATM    9  C8  UNL     1      90.630  70.536  27.940  1.00  0.00     0.169 C 
HETATM   10  N2  UNL     1      89.174  70.559  28.150  1.00  0.00    -0.338 N 
HETATM   11  C9  UNL     1      88.320  71.299  29.033  1.00  0.00     0.318 C 
ATOM     12  H2  UNL     1      88.667  69.916  27.542  1.00  0.00     0.164 HD
HETATM   13  O1  UNL     1      87.121  71.266  28.655  1.00  0.00    -0.247 OA
HETATM   14  N3  UNL     1      88.539  72.050  30.226  1.00  0.00    -0.333 N 
HETATM   15  C14 UNL     1      89.650  72.131  31.139  1.00  0.00     0.147 C 
HETATM   16  C15 UNL     1      90.888  71.429  30.580  1.00  0.00     0.147 C 
BRANCH  14  17
HETATM   17  C10 UNL     1      87.464  72.912  30.555  1.00  0.00     0.129 C 
BRANCH  17  18
HETATM   18  C11 UNL     1      87.542  74.336  30.191  1.00  0.00     0.039 C 
BRANCH  18  19
HETATM   19  C12 UNL     1      86.299  75.099  29.968  1.00  0.00     0.123 C 
BRANCH  19  20
HETATM   20  N4  UNL     1      85.671  75.387  31.240  1.00  0.00    -0.365 N 
HETATM   21  C13 UNL     1      84.469  74.772  31.610  1.00  0.00     0.181 C 
HETATM   22  N5  UNL     1      83.401  75.520  31.548  1.00  0.00    -0.374 N 
HETATM   23  N6  UNL     1      84.269  73.453  32.046  1.00  0.00    -0.064 NA
ATOM     24  H52 UNL     1      83.546  76.479  31.231  1.00  0.00     0.158 HD
ATOM     25  H51 UNL     1      82.525  75.072  31.818  1.00  0.00     0.158 HD
ATOM     26  H4  UNL     1      86.112  76.049  31.878  1.00  0.00     0.162 HD
ENDBRANCH  19  20
ENDBRANCH  18  19
ENDBRANCH  17  18
ENDBRANCH  14  17
ENDBRANCH   6   7
ENDBRANCH   5   6
ENDBRANCH   4   5
ENDBRANCH   3   4
TORSDOF 8
ENDMDL
MODEL 4
REMARK VINA RESULT: -6.534663118      3.744      8.171
REMARK  8 active torsions:
REMARK  status: ('A' for Active; 'I' for Inactive)
REMARK    1  A    between atoms: C3_3  and  C4_4 
REMARK    2  A    between atoms: C4_4  and  C5_5 
REMARK    3  A    between atoms: C5_5  and  C6_6 
REMARK    4  A    between atoms: C6_6  and  N1_7 
REMARK    5  A    between atoms: N3_14  and  C10_15 
REMARK    6  A    between atoms: C10_15  and  C11_16 
REMARK    7  A    between atoms: C11_16  and  C12_17 
REMARK    8  A    between atoms: C12_17  and  N4_18 
REMARK       I    between atoms: N4_18  and  C13_20 
ROOT
HETATM    1  C1  UNL     1      79.930  71.704  32.802  1.00  0.00     0.012 C 
HETATM    2  C2  UNL     1      81.070  72.090  32.750  1.00  0.00    -0.117 C 
HETATM    3  C3  UNL     1      82.449  72.580  32.675  1.00  0.00     0.093 C 
ENDROOT
BRANCH   3   4
HETATM    4  C4  UNL     1      82.667  73.231  31.294  1.00  0.00     0.017 C 
BRANCH   4   5
HETATM    5  C5  UNL     1      83.561  74.416  31.446  1.00  0.00     0.046 C 
BRANCH   5   6
HETATM    6  C6  UNL     1      84.364  74.828  30.278  1.00  0.00     0.063 C 
BRANCH   6   7
HETATM    7  N1  UNL     1      85.718  74.475  30.184  1.00  0.00    -0.371 N 
HETATM    8  C7  UNL     1      86.661  75.313  29.601  1.00  0.00     0.082 C 
HETATM    9  C8  UNL     1      87.964  75.523  30.333  1.00  0.00     0.169 C 
HETATM   10  N2  UNL     1      88.914  74.442  30.027  1.00  0.00    -0.338 N 
HETATM   11  C9  UNL     1      88.753  73.056  29.695  1.00  0.00     0.318 C 
ATOM     12  H2  UNL     1      89.889  74.740  30.055  1.00  0.00     0.164 HD
HETATM   13  O1  UNL     1      89.795  72.578  29.179  1.00  0.00    -0.247 OA
HETATM   14  N3  UNL     1      87.681  72.123  29.825  1.00  0.00    -0.333 N 
HETATM   15  C14 UNL     1      86.451  72.147  30.574  1.00  0.00     0.147 C 
HETATM   16  C15 UNL     1      86.179  73.532  31.162  1.00  0.00     0.147 C 
BRANCH  14  17
HETATM   17  C10 UNL     1      87.844  70.963  29.030  1.00  0.00     0.129 C 
BRANCH  17  18
HETATM   18  C11 UNL     1      87.872  69.641  29.676  1.00  0.00     0.039 C 
BRANCH  18  19
HETATM   19  C12 UNL     1      88.977  69.300  30.591  1.00  0.00     0.123 C 
BRANCH  19  20
HETATM   20  N4  UNL     1      88.443  68.977  31.898  1.00  0.00    -0.365 N 
HETATM   21  C13 UNL     1      89.097  69.383  33.068  1.00  0.00     0.181 C 
HETATM   22  N5  UNL     1      89.738  68.450  33.718  1.00  0.00    -0.374 N 
HETATM   23  N6  UNL     1      89.143  70.666  33.633  1.00  0.00    -0.064 NA
ATOM     24  H52 UNL     1      89.705  67.517  33.306  1.00  0.00     0.158 HD
ATOM     25  H51 UNL     1      90.214  68.746  34.570  1.00  0.00     0.158 HD
ATOM     26  H4  UNL     1      87.576  68.445  31.967  1.00  0.00     0.162 HD
ENDBRANCH  19  20
ENDBRANCH  18  19
ENDBRANCH  17  18
ENDBRANCH  14  17
ENDBRANCH   6   7
ENDBRANCH   5   6
ENDBRANCH   4   5
ENDBRANCH   3   4
TORSDOF 8
ENDMDL
MODEL 5
REMARK VINA RESULT: -6.436567249      3.807      7.913
REMARK  8 active torsions:
REMARK  status: ('A' for Active; 'I' for Inactive)
REMARK    1  A    between atoms: C3_3  and  C4_4 
REMARK    2  A    between atoms: C4_4  and  C5_5 
REMARK    3  A    between atoms: C5_5  and  C6_6 
REMARK    4  A    between atoms: C6_6  and  N1_7 
REMARK    5  A    between atoms: N3_14  and  C10_15 
REMARK    6  A    between atoms: C10_15  and  C11_16 
REMARK    7  A    between atoms: C11_16  and  C12_17 
REMARK    8  A    between atoms: C12_17  and  N4_18 
REMARK       I    between atoms: N4_18  and  C13_20 
ROOT
HETATM    1  C1  UNL     1      82.230  72.139  32.857  1.00  0.00     0.012 C 
HETATM    2  C2  UNL     1      82.729  73.104  32.338  1.00  0.00    -0.117 C 
HETATM    3  C3  UNL     1      83.354  74.265  31.698  1.00  0.00     0.093 C 
ENDROOT
BRANCH   3   4
HETATM    4  C4  UNL     1      84.882  74.162  31.874  1.00  0.00     0.017 C 
BRANCH   4   5
HETATM    5  C5  UNL     1      85.503  73.796  30.566  1.00  0.00     0.046 C 
BRANCH   5   6
HETATM    6  C6  UNL     1      86.411  72.633  30.537  1.00  0.00     0.063 C 
BRANCH   6   7
HETATM    7  N1  UNL     1      87.783  72.807  30.302  1.00  0.00    -0.371 N 
HETATM    8  C7  UNL     1      88.353  74.065  30.151  1.00  0.00     0.082 C 
HETATM    9  C8  UNL     1      89.628  74.355  30.905  1.00  0.00     0.169 C 
HETATM   10  N2  UNL     1      90.798  73.869  30.157  1.00  0.00    -0.338 N 
HETATM   11  C9  UNL     1      91.001  72.778  29.249  1.00  0.00     0.318 C 
ATOM     12  H2  UNL     1      91.640  74.423  30.318  1.00  0.00     0.164 HD
HETATM   13  O1  UNL     1      92.055  72.922  28.578  1.00  0.00    -0.247 OA
HETATM   14  N3  UNL     1      90.274  71.587  28.951  1.00  0.00    -0.333 N 
HETATM   15  C14 UNL     1      89.206  70.900  29.630  1.00  0.00     0.147 C 
HETATM   16  C15 UNL     1      88.628  71.744  30.766  1.00  0.00     0.147 C 
BRANCH  14  17
HETATM   17  C10 UNL     1      90.654  70.986  27.727  1.00  0.00     0.129 C 
BRANCH  17  18
HETATM   18  C11 UNL     1      90.888  69.534  27.675  1.00  0.00     0.039 C 
BRANCH  18  19
HETATM   19  C12 UNL     1      89.951  68.671  26.933  1.00  0.00     0.123 C 
BRANCH  19  20
HETATM   20  N4  UNL     1      88.968  69.491  26.256  1.00  0.00    -0.365 N 
HETATM   21  C13 UNL     1      88.741  69.361  24.880  1.00  0.00     0.181 C 
HETATM   22  N5  UNL     1      89.230  70.310  24.127  1.00  0.00    -0.374 N 
HETATM   23  N6  UNL     1      88.048  68.343  24.209  1.00  0.00    -0.064 NA
ATOM     24  H52 UNL     1      89.734  71.051  24.615  1.00  0.00     0.158 HD
ATOM     25  H51 UNL     1      89.064  70.216  23.125  1.00  0.00     0.158 HD
ATOM     26  H4  UNL     1      88.433  70.175  26.790  1.00  0.00     0.162 HD
ENDBRANCH  19  20
ENDBRANCH  18  19
ENDBRANCH  17  18
ENDBRANCH  14  17
ENDBRANCH   6   7
ENDBRANCH   5   6
ENDBRANCH   4   5
ENDBRANCH   3   4
TORSDOF 8
ENDMDL
