MODEL 1
REMARK VINA RESULT: -6.906205263      0.000      0.000
REMARK  8 active torsions:
REMARK  status: ('A' for Active; 'I' for Inactive)
REMARK    1  A    between atoms: C2_2  and  N1_3 
REMARK    2  A    between atoms: C5_6  and  O1_7 
REMARK    3  A    between atoms: O1_7  and  C6_8 
REMARK    4  A    between atoms: C6_8  and  C7_9 
REMARK    5  A    between atoms: C7_9  and  N2_10 
REMARK       I    between atoms: N2_10  and  C8_12 
REMARK       I    between atoms: C8_12  and  N4_16 
REMARK    6  A    between atoms: N4_16  and  C9_18 
REMARK    7  A    between atoms: C9_18  and  C10_19 
REMARK    8  A    between atoms: C10_19  and  N5_20 
ROOT
HETATM    1  N2  UNL     1      89.041  73.403  29.455  1.00  0.00    -0.225 N 
ATOM      2  H2  UNL     1      88.685  73.888  28.631  1.00  0.00     0.177 HD
HETATM    3  C8  UNL     1      88.575  73.760  30.743  1.00  0.00     0.667 C 
HETATM    4  N3  UNL     1      88.967  73.241  31.856  1.00  0.00    -0.235 N 
ATOM      5  H31 UNL     1      88.630  73.498  32.783  1.00  0.00     0.174 HD
ATOM      6  H32 UNL     1      89.701  72.539  31.760  1.00  0.00     0.174 HD
HETATM    7  N4  UNL     1      87.544  74.747  30.878  1.00  0.00    -0.225 N 
ATOM      8  H4  UNL     1      87.427  75.238  31.765  1.00  0.00     0.177 HD
ENDROOT
BRANCH   1   9
HETATM    9  C7  UNL     1      90.010  72.363  29.308  1.00  0.00     0.164 C 
BRANCH   9  10
HETATM   10  C6  UNL     1      91.394  72.873  29.301  1.00  0.00     0.188 C 
BRANCH  10  11
HETATM   11  O1  UNL     1      91.763  73.348  30.587  1.00  0.00    -0.384 OA
BRANCH  11  12
HETATM   12  C5  UNL     1      92.935  72.641  30.916  1.00  0.00     0.131 C 
HETATM   13  C4  UNL     1      92.481  71.476  31.832  1.00  0.00     0.077 C 
HETATM   14  C3  UNL     1      93.654  70.665  32.248  1.00  0.00     0.065 C 
HETATM   15  N1  UNL     1      94.877  70.887  31.590  1.00  0.00    -0.374 N 
HETATM   16  C16 UNL     1      94.920  71.366  30.282  1.00  0.00     0.065 C 
HETATM   17  C15 UNL     1      93.683  72.061  29.792  1.00  0.00     0.077 C 
BRANCH  15  18
HETATM   18  C2  UNL     1      96.039  70.998  32.386  1.00  0.00     0.122 C 
HETATM   19  C1  UNL     1      95.951  71.956  33.539  1.00  0.00     0.027 C 
ENDBRANCH  15  18
ENDBRANCH  11  12
ENDBRANCH  10  11
ENDBRANCH   9  10
ENDBRANCH   1   9
BRANCH   7  20
HETATM   20  C9  UNL     1      86.685  75.048  29.791  1.00  0.00     0.157 C 
BRANCH  20  21
HETATM   21  C10 UNL     1      85.316  75.498  30.123  1.00  0.00     0.142 C 
BRANCH  21  22
HETATM   22  N5  UNL     1      84.469  74.448  30.577  1.00  0.00    -0.392 N 
HETATM   23  C11 UNL     1      83.457  74.683  31.335  1.00  0.00     0.058 C 
HETATM   24  C12 UNL     1      82.719  73.448  31.683  1.00  0.00     0.046 C 
HETATM   25  C13 UNL     1      83.665  72.349  31.287  1.00  0.00     0.025 C 
HETATM   26  C14 UNL     1      84.574  73.073  30.288  1.00  0.00     0.122 C 
ENDBRANCH  21  22
ENDBRANCH  20  21
ENDBRANCH   7  20
TORSDOF 8
ENDMDL
MODEL 2
REMARK VINA RESULT: -6.780029708      2.194      9.176
REMARK  8 active torsions:
REMARK  status: ('A' for Active; 'I' for Inactive)
REMARK    1  A    between atoms: C2_2  and  N1_3 
REMARK    2  A    between atoms: C5_6  and  O1_7 
REMARK    3  A    between atoms: O1_7  and  C6_8 
REMARK    4  A    between atoms: C6_8  and  C7_9 
REMARK    5  A    between atoms: C7_9  and  N2_10 
REMARK       I    between atoms: N2_10  and  C8_12 
REMARK       I    between atoms: C8_12  and  N4_16 
REMARK    6  A    between atoms: N4_16  and  C9_18 
REMARK    7  A    between atoms: C9_18  and  C10_19 
REMARK    8  A    between atoms: C10_19  and  N5_20 
ROOT
HETATM    1  N2  UNL     1      88.295  74.884  30.444  1.00  0.00    -0.225 N 
ATOM      2  H2  UNL     1      88.248  73.871  30.556  1.00  0.00     0.177 HD
HETATM    3  C8  UNL     1      89.447  75.590  30.866  1.00  0.00     0.667 C 
HETATM    4  N3  UNL     1      89.612  76.867  30.801  1.00  0.00    -0.235 N 
ATOM      5  H31 UNL     1      90.442  77.375  31.106  1.00  0.00     0.174 HD
ATOM      6  H32 UNL     1      88.808  77.380  30.439  1.00  0.00     0.174 HD
HETATM    7  N4  UNL     1      90.576  74.869  31.376  1.00  0.00    -0.225 N 
ATOM      8  H4  UNL     1      91.258  75.348  31.966  1.00  0.00     0.177 HD
ENDROOT
BRANCH   1   9
HETATM    9  C7  UNL     1      87.198  75.589  29.860  1.00  0.00     0.164 C 
BRANCH   9  10
HETATM   10  C6  UNL     1      85.891  75.101  30.337  1.00  0.00     0.188 C 
BRANCH  10  11
HETATM   11  O1  UNL     1      85.573  73.848  29.748  1.00  0.00    -0.384 OA
BRANCH  11  12
HETATM   12  C5  UNL     1      84.396  73.428  30.394  1.00  0.00     0.131 C 
HETATM   13  C4  UNL     1      84.454  71.879  30.408  1.00  0.00     0.077 C 
HETATM   14  C3  UNL     1      83.241  71.328  31.066  1.00  0.00     0.065 C 
HETATM   15  N1  UNL     1      82.408  72.217  31.768  1.00  0.00    -0.374 N 
HETATM   16  C16 UNL     1      82.911  73.387  32.333  1.00  0.00     0.065 C 
HETATM   17  C15 UNL     1      84.216  73.881  31.781  1.00  0.00     0.077 C 
BRANCH  15  18
HETATM   18  C2  UNL     1      81.015  72.116  31.554  1.00  0.00     0.122 C 
HETATM   19  C1  UNL     1      80.193  71.763  32.760  1.00  0.00     0.027 C 
ENDBRANCH  15  18
ENDBRANCH  11  12
ENDBRANCH  10  11
ENDBRANCH   9  10
ENDBRANCH   1   9
BRANCH   7  20
HETATM   20  C9  UNL     1      90.756  73.497  31.070  1.00  0.00     0.157 C 
BRANCH  20  21
HETATM   21  C10 UNL     1      91.637  73.176  29.926  1.00  0.00     0.142 C 
BRANCH  21  22
HETATM   22  N5  UNL     1      92.780  72.409  30.288  1.00  0.00    -0.392 N 
HETATM   23  C11 UNL     1      93.364  72.572  31.421  1.00  0.00     0.058 C 
HETATM   24  C12 UNL     1      94.527  71.672  31.586  1.00  0.00     0.046 C 
HETATM   25  C13 UNL     1      94.776  71.160  30.195  1.00  0.00     0.025 C 
HETATM   26  C14 UNL     1      93.417  71.407  29.531  1.00  0.00     0.122 C 
ENDBRANCH  21  22
ENDBRANCH  20  21
ENDBRANCH   7  20
TORSDOF 8
ENDMDL
MODEL 3
REMARK VINA RESULT: -6.779745690      1.327      1.785
REMARK  8 active torsions:
REMARK  status: ('A' for Active; 'I' for Inactive)
REMARK    1  A    between atoms: C2_2  and  N1_3 
REMARK    2  A    between atoms: C5_6  and  O1_7 
REMARK    3  A    between atoms: O1_7  and  C6_8 
REMARK    4  A    between atoms: C6_8  and  C7_9 
REMARK    5  A    between atoms: C7_9  and  N2_10 
REMARK       I    between atoms: N2_10  and  C8_12 
REMARK       I    between atoms: C8_12  and  N4_16 
REMARK    6  A    between atoms: N4_16  and  C9_18 
REMARK    7  A    between atoms: C9_18  and  C10_19 
REMARK    8  A    between atoms: C10_19  and  N5_20 
ROOT
HETATM    1  N2  UNL     1      87.405  73.718  29.955  1.00  0.00    -0.225 N 
ATOM      2  H2  UNL     1      86.620  73.080  30.085  1.00  0.00     0.177 HD
HETATM    3  C8  UNL     1      87.281  75.077  30.329  1.00  0.00     0.667 C 
HETATM    4  N3  UNL     1      88.189  75.982  30.189  1.00  0.00    -0.235 N 
ATOM      5  H31 UNL     1      88.099  76.961  30.459  1.00  0.00     0.174 HD
ATOM      6  H32 UNL     1      89.043  75.657  29.737  1.00  0.00     0.174 HD
HETATM    7  N4  UNL     1      86.079  75.533  30.965  1.00  0.00    -0.225 N 
ATOM      8  H4  UNL     1      85.843  76.526  30.947  1.00  0.00     0.177 HD
ENDROOT
BRANCH   1   9
HETATM    9  C7  UNL     1      88.630  73.239  29.395  1.00  0.00     0.164 C 
BRANCH   9  10
HETATM   10  C6  UNL     1      89.621  72.877  30.424  1.00  0.00     0.188 C 
BRANCH  10  11
HETATM   11  O1  UNL     1      90.622  73.879  30.536  1.00  0.00    -0.384 OA
BRANCH  11  12
HETATM   12  C5  UNL     1      91.825  73.174  30.729  1.00  0.00     0.131 C 
HETATM   13  C4  UNL     1      91.460  71.952  31.611  1.00  0.00     0.077 C 
HETATM   14  C3  UNL     1      92.673  71.140  31.886  1.00  0.00     0.065 C 
HETATM   15  N1  UNL     1      93.837  71.418  31.146  1.00  0.00    -0.374 N 
HETATM   16  C16 UNL     1      93.767  71.969  29.868  1.00  0.00     0.065 C 
HETATM   17  C15 UNL     1      92.487  72.670  29.518  1.00  0.00     0.077 C 
BRANCH  15  18
HETATM   18  C2  UNL     1      95.057  71.503  31.852  1.00  0.00     0.122 C 
HETATM   19  C1  UNL     1      95.028  72.324  33.110  1.00  0.00     0.027 C 
ENDBRANCH  15  18
ENDBRANCH  11  12
ENDBRANCH  10  11
ENDBRANCH   9  10
ENDBRANCH   1   9
BRANCH   7  20
HETATM   20  C9  UNL     1      85.216  74.620  31.618  1.00  0.00     0.157 C 
BRANCH  20  21
HETATM   21  C10 UNL     1      83.881  74.410  31.016  1.00  0.00     0.142 C 
BRANCH  21  22
HETATM   22  N5  UNL     1      83.209  73.258  31.515  1.00  0.00    -0.392 N 
HETATM   23  C11 UNL     1      82.406  73.331  32.515  1.00  0.00     0.058 C 
HETATM   24  C12 UNL     1      81.821  72.017  32.861  1.00  0.00     0.046 C 
HETATM   25  C13 UNL     1      82.680  71.040  32.109  1.00  0.00     0.025 C 
HETATM   26  C14 UNL     1      83.290  71.939  31.028  1.00  0.00     0.122 C 
ENDBRANCH  21  22
ENDBRANCH  20  21
ENDBRANCH   7  20
TORSDOF 8
ENDMDL
MODEL 4
REMARK VINA RESULT: -6.739448331      1.153      1.596
REMARK  8 active torsions:
REMARK  status: ('A' for Active; 'I' for Inactive)
REMARK    1  A    between atoms: C2_2  and  N1_3 
REMARK    2  A    between atoms: C5_6  and  O1_7 
REMARK    3  A    between atoms: O1_7  and  C6_8 
REMARK    4  A    between atoms: C6_8  and  C7_9 
REMARK    5  A    between atoms: C7_9  and  N2_10 
REMARK       I    between atoms: N2_10  and  C8_12 
REMARK       I    between atoms: C8_12  and  N4_16 
REMARK    6  A    between atoms: N4_16  and  C9_18 
REMARK    7  A    between atoms: C9_18  and  C10_19 
REMARK    8  A    between atoms: C10_19  and  N5_20 
ROOT
HETATM    1  N2  UNL     1      89.234  74.678  30.628  1.00  0.00    -0.225 N 
ATOM      2  H2  UNL     1      88.716  73.840  30.361  1.00  0.00     0.177 HD
HETATM    3  C8  UNL     1      88.718  75.958  30.317  1.00  0.00     0.667 C 
HETATM    4  N3  UNL     1      89.291  77.083  30.576  1.00  0.00    -0.235 N 
ATOM      5  H31 UNL     1      88.918  78.006  30.352  1.00  0.00     0.174 HD
ATOM      6  H32 UNL     1      90.208  77.000  31.014  1.00  0.00     0.174 HD
HETATM    7  N4  UNL     1      87.429  76.075  29.700  1.00  0.00    -0.225 N 
ATOM      8  H4  UNL     1      87.187  76.925  29.190  1.00  0.00     0.177 HD
ENDROOT
BRANCH   1   9
HETATM    9  C7  UNL     1      90.482  74.557  31.315  1.00  0.00     0.164 C 
BRANCH   9  10
HETATM   10  C6  UNL     1      91.098  73.228  31.142  1.00  0.00     0.188 C 
BRANCH  10  11
HETATM   11  O1  UNL     1      92.087  73.259  30.123  1.00  0.00    -0.384 OA
BRANCH  11  12
HETATM   12  C5  UNL     1      93.179  72.546  30.651  1.00  0.00     0.131 C 
HETATM   13  C4  UNL     1      92.575  71.534  31.658  1.00  0.00     0.077 C 
HETATM   14  C3  UNL     1      93.654  70.729  32.285  1.00  0.00     0.065 C 
HETATM   15  N1  UNL     1      94.943  70.804  31.728  1.00  0.00    -0.374 N 
HETATM   16  C16 UNL     1      95.133  71.104  30.381  1.00  0.00     0.065 C 
HETATM   17  C15 UNL     1      93.990  71.788  29.688  1.00  0.00     0.077 C 
BRANCH  15  18
HETATM   18  C2  UNL     1      96.032  70.962  32.614  1.00  0.00     0.122 C 
HETATM   19  C1  UNL     1      95.937  72.120  33.565  1.00  0.00     0.027 C 
ENDBRANCH  15  18
ENDBRANCH  11  12
ENDBRANCH  10  11
ENDBRANCH   9  10
ENDBRANCH   1   9
BRANCH   7  20
HETATM   20  C9  UNL     1      86.485  75.021  29.793  1.00  0.00     0.157 C 
BRANCH  20  21
HETATM   21  C10 UNL     1      85.072  75.403  29.998  1.00  0.00     0.142 C 
BRANCH  21  22
HETATM   22  N5  UNL     1      84.304  74.401  30.656  1.00  0.00    -0.392 N 
HETATM   23  C11 UNL     1      84.502  73.151  30.433  1.00  0.00     0.058 C 
HETATM   24  C12 UNL     1      83.594  72.290  31.223  1.00  0.00     0.046 C 
HETATM   25  C13 UNL     1      82.547  73.246  31.721  1.00  0.00     0.025 C 
HETATM   26  C14 UNL     1      83.278  74.588  31.603  1.00  0.00     0.122 C 
ENDBRANCH  21  22
ENDBRANCH  20  21
ENDBRANCH   7  20
TORSDOF 8
ENDMDL
MODEL 5
REMARK VINA RESULT: -6.736428212      0.837      1.443
REMARK  8 active torsions:
REMARK  status: ('A' for Active; 'I' for Inactive)
REMARK    1  A    between atoms: C2_2  and  N1_3 
REMARK    2  A    between atoms: C5_6  and  O1_7 
REMARK    3  A    between atoms: O1_7  and  C6_8 
REMARK    4  A    between atoms: C6_8  and  C7_9 
REMARK    5  A    between atoms: C7_9  and  N2_10 
REMARK       I    between atoms: N2_10  and  C8_12 
REMARK       I    between atoms: C8_12  and  N4_16 
REMARK    6  A    between atoms: N4_16  and  C9_18 
REMARK    7  A    between atoms: C9_18  and  C10_19 
REMARK    8  A    between atoms: C10_19  and  N5_20 
ROOT
HETATM    1  N2  UNL     1      89.196  73.378  29.418  1.00  0.00    -0.225 N 
ATOM      2  H2  UNL     1      88.807  73.782  28.566  1.00  0.00     0.177 HD
HETATM    3  C8  UNL     1      88.751  73.831  30.683  1.00  0.00     0.667 C 
HETATM    4  N3  UNL     1      89.185  73.418  31.825  1.00  0.00    -0.235 N 
ATOM      5  H31 UNL     1      88.864  73.744  32.736  1.00  0.00     0.174 HD
ATOM      6  H32 UNL     1      89.936  72.730  31.768  1.00  0.00     0.174 HD
HETATM    7  N4  UNL     1      87.696  74.798  30.761  1.00  0.00    -0.225 N 
ATOM      8  H4  UNL     1      87.587  75.360  31.607  1.00  0.00     0.177 HD
ENDROOT
BRANCH   1   9
HETATM    9  C7  UNL     1      90.190  72.354  29.333  1.00  0.00     0.164 C 
BRANCH   9  10
HETATM   10  C6  UNL     1      91.558  72.898  29.247  1.00  0.00     0.188 C 
BRANCH  10  11
HETATM   11  O1  UNL     1      92.051  73.234  30.536  1.00  0.00    -0.384 OA
BRANCH  11  12
HETATM   12  C5  UNL     1      92.994  72.236  30.839  1.00  0.00     0.131 C 
HETATM   13  C4  UNL     1      93.882  72.096  29.576  1.00  0.00     0.077 C 
HETATM   14  C3  UNL     1      94.915  71.050  29.789  1.00  0.00     0.065 C 
HETATM   15  N1  UNL     1      95.101  70.562  31.095  1.00  0.00    -0.374 N 
HETATM   16  C16 UNL     1      94.811  71.346  32.209  1.00  0.00     0.065 C 
HETATM   17  C15 UNL     1      93.881  72.502  31.981  1.00  0.00     0.077 C 
BRANCH  15  18
HETATM   18  C2  UNL     1      95.203  69.163  31.262  1.00  0.00     0.122 C 
HETATM   19  C1  UNL     1      94.355  68.572  32.352  1.00  0.00     0.027 C 
ENDBRANCH  15  18
ENDBRANCH  11  12
ENDBRANCH  10  11
ENDBRANCH   9  10
ENDBRANCH   1   9
BRANCH   7  20
HETATM   20  C9  UNL     1      86.803  74.983  29.677  1.00  0.00     0.157 C 
BRANCH  20  21
HETATM   21  C10 UNL     1      85.451  75.488  30.000  1.00  0.00     0.142 C 
BRANCH  21  22
HETATM   22  N5  UNL     1      84.568  74.479  30.478  1.00  0.00    -0.392 N 
HETATM   23  C11 UNL     1      83.550  74.770  31.206  1.00  0.00     0.058 C 
HETATM   24  C12 UNL     1      82.773  73.569  31.587  1.00  0.00     0.046 C 
HETATM   25  C13 UNL     1      83.697  72.432  31.253  1.00  0.00     0.025 C 
HETATM   26  C14 UNL     1      84.643  73.092  30.244  1.00  0.00     0.122 C 
ENDBRANCH  21  22
ENDBRANCH  20  21
ENDBRANCH   7  20
TORSDOF 8
ENDMDL
