MODEL 1
REMARK VINA RESULT: -6.343290092      0.000      0.000
REMARK  9 active torsions:
REMARK  status: ('A' for Active; 'I' for Inactive)
REMARK    1  A    between atoms: N1_3  and  C3_4 
REMARK    2  A    between atoms: N1_3  and  C7_12 
REMARK    3  A    between atoms: C3_4  and  C4_5 
REMARK    4  A    between atoms: C4_5  and  C5_6 
REMARK    5  A    between atoms: C5_6  and  C6_7 
REMARK    6  A    between atoms: C6_7  and  N2_8 
REMARK    7  A    between atoms: C7_12  and  C8_13 
REMARK    8  A    between atoms: C13_19  and  C14_20 
REMARK    9  A    between atoms: C16_22  and  C17_23 
ROOT
HETATM    1  C1  UNL     1      86.155  71.020  30.198  1.00  0.00     0.116 C 
HETATM    2  C2  UNL     1      86.766  72.080  30.295  1.00  0.00    -0.102 C 
HETATM    3  N1  UNL     1      87.448  73.330  30.424  1.00  0.00    -0.254 NA
ENDROOT
BRANCH   3   4
HETATM    4  C3  UNL     1      86.487  74.295  30.986  1.00  0.00     0.104 C 
BRANCH   4   5
HETATM    5  C4  UNL     1      86.180  75.440  30.096  1.00  0.00     0.017 C 
BRANCH   5   6
HETATM    6  C5  UNL     1      84.717  75.450  29.664  1.00  0.00     0.028 C 
BRANCH   6   7
HETATM    7  C6  UNL     1      83.814  74.771  30.675  1.00  0.00     0.229 C 
BRANCH   7   8
HETATM    8  N2  UNL     1      83.126  75.746  31.488  1.00  0.00    -0.079 N 
ATOM      9  H23 UNL     1      82.951  75.396  32.431  1.00  0.00     0.274 HD
ATOM     10  H22 UNL     1      83.731  76.533  31.727  1.00  0.00     0.274 HD
ATOM     11  H21 UNL     1      82.266  76.056  31.035  1.00  0.00     0.274 HD
ENDBRANCH   7   8
ENDBRANCH   6   7
ENDBRANCH   5   6
ENDBRANCH   4   5
ENDBRANCH   3   4
BRANCH   3  12
HETATM   12  C7  UNL     1      88.449  73.159  31.436  1.00  0.00     0.109 C 
BRANCH  12  13
HETATM   13  C8  UNL     1      89.802  72.788  31.020  1.00  0.00     0.014 C 
HETATM   14  C9  UNL     1      90.818  73.833  30.767  1.00  0.00     0.014 C 
HETATM   15  C10 UNL     1      92.063  72.964  30.577  1.00  0.00     0.023 C 
HETATM   16  C11 UNL     1      92.202  72.612  29.134  1.00  0.00     0.034 C 
HETATM   17  C13 UNL     1      91.794  71.643  31.271  1.00  0.00     0.074 C 
HETATM   18  C12 UNL     1      92.079  71.109  29.116  1.00  0.00     0.169 C 
HETATM   19  O1  UNL     1      91.503  70.722  30.313  1.00  0.00    -0.379 OA
HETATM   20  C16 UNL     1      90.530  71.916  32.077  1.00  0.00     0.090 C 
BRANCH  17  21
HETATM   21  C14 UNL     1      92.968  71.215  32.092  1.00  0.00     0.035 C 
HETATM   22  C15 UNL     1      94.056  72.230  32.247  1.00  0.00     0.008 C 
ENDBRANCH  17  21
BRANCH  20  23
HETATM   23  C17 UNL     1      89.733  70.703  32.335  1.00  0.00     0.094 C 
HETATM   24  N3  UNL     1      89.474  69.897  31.355  1.00  0.00    -0.391 N 
ATOM     25  H32 UNL     1      89.807  70.090  30.411  1.00  0.00     0.157 HD
ATOM     26  H31 UNL     1      88.923  69.058  31.534  1.00  0.00     0.157 HD
HETATM   27  N4  UNL     1      89.270  70.435  33.648  1.00  0.00    -0.088 NA
ENDBRANCH  20  23
ENDBRANCH  12  13
ENDBRANCH   3  12
TORSDOF 9
ENDMDL
MODEL 2
REMARK VINA RESULT: -6.311949013      1.625      2.338
REMARK  9 active torsions:
REMARK  status: ('A' for Active; 'I' for Inactive)
REMARK    1  A    between atoms: N1_3  and  C3_4 
REMARK    2  A    between atoms: N1_3  and  C7_12 
REMARK    3  A    between atoms: C3_4  and  C4_5 
REMARK    4  A    between atoms: C4_5  and  C5_6 
REMARK    5  A    between atoms: C5_6  and  C6_7 
REMARK    6  A    between atoms: C6_7  and  N2_8 
REMARK    7  A    between atoms: C7_12  and  C8_13 
REMARK    8  A    between atoms: C13_19  and  C14_20 
REMARK    9  A    between atoms: C16_22  and  C17_23 
ROOT
HETATM    1  C1  UNL     1      87.622  70.380  30.956  1.00  0.00     0.116 C 
HETATM    2  C2  UNL     1      87.443  71.422  30.333  1.00  0.00    -0.102 C 
HETATM    3  N1  UNL     1      87.222  72.652  29.638  1.00  0.00    -0.254 NA
ENDROOT
BRANCH   3   4
HETATM    4  C3  UNL     1      86.609  73.589  30.595  1.00  0.00     0.104 C 
BRANCH   4   5
HETATM    5  C4  UNL     1      86.567  74.997  30.132  1.00  0.00     0.017 C 
BRANCH   5   6
HETATM    6  C5  UNL     1      85.157  75.427  29.741  1.00  0.00     0.028 C 
BRANCH   6   7
HETATM    7  C6  UNL     1      84.095  74.744  30.580  1.00  0.00     0.229 C 
BRANCH   7   8
HETATM    8  N2  UNL     1      83.259  75.718  31.244  1.00  0.00    -0.079 N 
ATOM      9  H23 UNL     1      83.349  75.662  32.259  1.00  0.00     0.274 HD
ATOM     10  H22 UNL     1      83.607  76.667  31.110  1.00  0.00     0.274 HD
ATOM     11  H21 UNL     1      82.287  75.627  30.946  1.00  0.00     0.274 HD
ENDBRANCH   7   8
ENDBRANCH   6   7
ENDBRANCH   5   6
ENDBRANCH   4   5
ENDBRANCH   3   4
BRANCH   3  12
HETATM   12  C7  UNL     1      88.512  73.203  29.341  1.00  0.00     0.109 C 
BRANCH  12  13
HETATM   13  C8  UNL     1      89.698  72.411  29.666  1.00  0.00     0.014 C 
HETATM   14  C9  UNL     1      90.384  71.627  28.615  1.00  0.00     0.014 C 
HETATM   15  C10 UNL     1      91.627  71.171  29.381  1.00  0.00     0.023 C 
HETATM   16  C11 UNL     1      91.348  69.864  30.041  1.00  0.00     0.034 C 
HETATM   17  C13 UNL     1      91.828  72.146  30.524  1.00  0.00     0.074 C 
HETATM   18  C12 UNL     1      91.483  70.166  31.513  1.00  0.00     0.169 C 
HETATM   19  O1  UNL     1      91.401  71.539  31.666  1.00  0.00    -0.379 OA
HETATM   20  C16 UNL     1      90.867  73.283  30.196  1.00  0.00     0.090 C 
BRANCH  17  21
HETATM   21  C14 UNL     1      93.259  72.561  30.636  1.00  0.00     0.035 C 
HETATM   22  C15 UNL     1      94.188  71.968  29.625  1.00  0.00     0.008 C 
ENDBRANCH  17  21
BRANCH  20  23
HETATM   23  C17 UNL     1      90.416  74.024  31.387  1.00  0.00     0.094 C 
HETATM   24  N3  UNL     1      89.699  73.414  32.277  1.00  0.00    -0.391 N 
ATOM     25  H32 UNL     1      89.438  72.435  32.164  1.00  0.00     0.157 HD
ATOM     26  H31 UNL     1      89.387  73.928  33.101  1.00  0.00     0.157 HD
HETATM   27  N4  UNL     1      90.779  75.386  31.544  1.00  0.00    -0.088 NA
ENDBRANCH  20  23
ENDBRANCH  12  13
ENDBRANCH   3  12
TORSDOF 9
ENDMDL
MODEL 3
REMARK VINA RESULT: -6.025497618      1.472      1.940
REMARK  9 active torsions:
REMARK  status: ('A' for Active; 'I' for Inactive)
REMARK    1  A    between atoms: N1_3  and  C3_4 
REMARK    2  A    between atoms: N1_3  and  C7_12 
REMARK    3  A    between atoms: C3_4  and  C4_5 
REMARK    4  A    between atoms: C4_5  and  C5_6 
REMARK    5  A    between atoms: C5_6  and  C6_7 
REMARK    6  A    between atoms: C6_7  and  N2_8 
REMARK    7  A    between atoms: C7_12  and  C8_13 
REMARK    8  A    between atoms: C13_19  and  C14_20 
REMARK    9  A    between atoms: C16_22  and  C17_23 
ROOT
HETATM    1  C1  UNL     1      85.900  69.268  28.766  1.00  0.00     0.116 C 
HETATM    2  C2  UNL     1      85.956  70.444  29.112  1.00  0.00    -0.102 C 
HETATM    3  N1  UNL     1      85.987  71.811  29.532  1.00  0.00    -0.254 NA
ENDROOT
BRANCH   3   4
HETATM    4  C3  UNL     1      84.706  72.091  30.201  1.00  0.00     0.104 C 
BRANCH   4   5
HETATM    5  C4  UNL     1      84.745  73.232  31.146  1.00  0.00     0.017 C 
BRANCH   5   6
HETATM    6  C5  UNL     1      84.043  74.464  30.583  1.00  0.00     0.028 C 
BRANCH   6   7
HETATM    7  C6  UNL     1      85.024  75.516  30.106  1.00  0.00     0.229 C 
BRANCH   7   8
HETATM    8  N2  UNL     1      86.156  75.608  30.998  1.00  0.00    -0.079 N 
ATOM      9  H23 UNL     1      86.440  74.690  31.344  1.00  0.00     0.274 HD
ATOM     10  H22 UNL     1      87.011  75.855  30.500  1.00  0.00     0.274 HD
ATOM     11  H21 UNL     1      85.965  76.256  31.763  1.00  0.00     0.274 HD
ENDBRANCH   7   8
ENDBRANCH   6   7
ENDBRANCH   5   6
ENDBRANCH   4   5
ENDBRANCH   3   4
BRANCH   3  12
HETATM   12  C7  UNL     1      86.981  71.910  30.560  1.00  0.00     0.109 C 
BRANCH  12  13
HETATM   13  C8  UNL     1      88.389  71.785  30.180  1.00  0.00     0.014 C 
HETATM   14  C9  UNL     1      89.060  72.870  29.431  1.00  0.00     0.014 C 
HETATM   15  C10 UNL     1      90.506  72.371  29.465  1.00  0.00     0.023 C 
HETATM   16  C11 UNL     1      90.761  71.516  28.270  1.00  0.00     0.034 C 
HETATM   17  C13 UNL     1      90.625  71.428  30.646  1.00  0.00     0.074 C 
HETATM   18  C12 UNL     1      91.082  70.164  28.855  1.00  0.00     0.169 C 
HETATM   19  O1  UNL     1      90.627  70.156  30.162  1.00  0.00    -0.379 OA
HETATM   20  C16 UNL     1      89.326  71.650  31.411  1.00  0.00     0.090 C 
BRANCH  17  21
HETATM   21  C14 UNL     1      91.862  71.707  31.438  1.00  0.00     0.035 C 
HETATM   22  C15 UNL     1      92.715  72.828  30.936  1.00  0.00     0.008 C 
ENDBRANCH  17  21
BRANCH  20  23
HETATM   23  C17 UNL     1      88.913  70.481  32.207  1.00  0.00     0.094 C 
HETATM   24  N3  UNL     1      88.369  69.470  31.608  1.00  0.00    -0.391 N 
ATOM     25  H32 UNL     1      88.216  69.472  30.600  1.00  0.00     0.157 HD
ATOM     26  H31 UNL     1      88.084  68.660  32.160  1.00  0.00     0.157 HD
HETATM   27  N4  UNL     1      89.125  70.478  33.609  1.00  0.00    -0.088 NA
ENDBRANCH  20  23
ENDBRANCH  12  13
ENDBRANCH   3  12
TORSDOF 9
ENDMDL
MODEL 4
REMARK VINA RESULT: -5.988988912      2.906      4.530
REMARK  9 active torsions:
REMARK  status: ('A' for Active; 'I' for Inactive)
REMARK    1  A    between atoms: N1_3  and  C3_4 
REMARK    2  A    between atoms: N1_3  and  C7_12 
REMARK    3  A    between atoms: C3_4  and  C4_5 
REMARK    4  A    between atoms: C4_5  and  C5_6 
REMARK    5  A    between atoms: C5_6  and  C6_7 
REMARK    6  A    between atoms: C6_7  and  N2_8 
REMARK    7  A    between atoms: C7_12  and  C8_13 
REMARK    8  A    between atoms: C13_19  and  C14_20 
REMARK    9  A    between atoms: C16_22  and  C17_23 
ROOT
HETATM    1  C1  UNL     1      91.801  68.711  28.999  1.00  0.00     0.116 C 
HETATM    2  C2  UNL     1      91.872  69.894  28.684  1.00  0.00    -0.102 C 
HETATM    3  N1  UNL     1      91.918  71.277  28.323  1.00  0.00    -0.254 NA
ENDROOT
BRANCH   3   4
HETATM    4  C3  UNL     1      90.534  71.781  28.352  1.00  0.00     0.104 C 
BRANCH   4   5
HETATM    5  C4  UNL     1      90.296  72.862  29.338  1.00  0.00     0.017 C 
BRANCH   5   6
HETATM    6  C5  UNL     1      88.851  72.883  29.824  1.00  0.00     0.028 C 
BRANCH   6   7
HETATM    7  C6  UNL     1      88.743  73.245  31.292  1.00  0.00     0.229 C 
BRANCH   7   8
HETATM    8  N2  UNL     1      89.689  74.282  31.637  1.00  0.00    -0.079 N 
ATOM      9  H23 UNL     1      90.602  73.894  31.878  1.00  0.00     0.274 HD
ATOM     10  H22 UNL     1      89.965  74.828  30.820  1.00  0.00     0.274 HD
ATOM     11  H21 UNL     1      89.322  74.875  32.381  1.00  0.00     0.274 HD
ENDBRANCH   7   8
ENDBRANCH   6   7
ENDBRANCH   5   6
ENDBRANCH   4   5
ENDBRANCH   3   4
BRANCH   3  12
HETATM   12  C7  UNL     1      92.594  71.965  29.384  1.00  0.00     0.109 C 
BRANCH  12  13
HETATM   13  C8  UNL     1      93.530  71.210  30.217  1.00  0.00     0.014 C 
HETATM   14  C9  UNL     1      94.957  71.117  29.840  1.00  0.00     0.014 C 
HETATM   15  C10 UNL     1      95.525  70.433  31.086  1.00  0.00     0.023 C 
HETATM   16  C11 UNL     1      95.477  68.954  30.902  1.00  0.00     0.034 C 
HETATM   17  C13 UNL     1      94.563  70.712  32.224  1.00  0.00     0.074 C 
HETATM   18  C12 UNL     1      94.550  68.484  31.996  1.00  0.00     0.169 C 
HETATM   19  O1  UNL     1      93.833  69.583  32.436  1.00  0.00    -0.379 OA
HETATM   20  C16 UNL     1      93.639  71.782  31.655  1.00  0.00     0.090 C 
BRANCH  17  21
HETATM   21  C14 UNL     1      95.293  71.122  33.462  1.00  0.00     0.035 C 
HETATM   22  C15 UNL     1      95.675  72.566  33.542  1.00  0.00     0.008 C 
ENDBRANCH  17  21
BRANCH  20  23
HETATM   23  C17 UNL     1      92.303  71.787  32.277  1.00  0.00     0.094 C 
HETATM   24  N3  UNL     1      91.502  70.793  32.060  1.00  0.00    -0.391 N 
ATOM     25  H32 UNL     1      91.778  70.013  31.463  1.00  0.00     0.157 HD
ATOM     26  H31 UNL     1      90.577  70.796  32.490  1.00  0.00     0.157 HD
HETATM   27  N4  UNL     1      91.919  72.871  33.106  1.00  0.00    -0.088 NA
ENDBRANCH  20  23
ENDBRANCH  12  13
ENDBRANCH   3  12
TORSDOF 9
ENDMDL
MODEL 5
REMARK VINA RESULT: -5.958935228      2.053      3.433
REMARK  9 active torsions:
REMARK  status: ('A' for Active; 'I' for Inactive)
REMARK    1  A    between atoms: N1_3  and  C3_4 
REMARK    2  A    between atoms: N1_3  and  C7_12 
REMARK    3  A    between atoms: C3_4  and  C4_5 
REMARK    4  A    between atoms: C4_5  and  C5_6 
REMARK    5  A    between atoms: C5_6  and  C6_7 
REMARK    6  A    between atoms: C6_7  and  N2_8 
REMARK    7  A    between atoms: C7_12  and  C8_13 
REMARK    8  A    between atoms: C13_19  and  C14_20 
REMARK    9  A    between atoms: C16_22  and  C17_23 
ROOT
HETATM    1  C1  UNL     1      86.332  68.490  28.296  1.00  0.00     0.116 C 
HETATM    2  C2  UNL     1      86.315  69.641  28.720  1.00  0.00    -0.102 C 
HETATM    3  N1  UNL     1      86.257  70.981  29.216  1.00  0.00    -0.254 NA
ENDROOT
BRANCH   3   4
HETATM    4  C3  UNL     1      84.835  71.351  29.309  1.00  0.00     0.104 C 
BRANCH   4   5
HETATM    5  C4  UNL     1      84.461  72.035  30.570  1.00  0.00     0.017 C 
BRANCH   5   6
HETATM    6  C5  UNL     1      84.099  73.499  30.340  1.00  0.00     0.028 C 
BRANCH   6   7
HETATM    7  C6  UNL     1      83.706  74.202  31.624  1.00  0.00     0.229 C 
BRANCH   7   8
HETATM    8  N2  UNL     1      83.322  75.570  31.365  1.00  0.00    -0.079 N 
ATOM      9  H23 UNL     1      83.267  76.116  32.226  1.00  0.00     0.274 HD
ATOM     10  H22 UNL     1      84.066  76.090  30.900  1.00  0.00     0.274 HD
ATOM     11  H21 UNL     1      82.449  75.610  30.838  1.00  0.00     0.274 HD
ENDBRANCH   7   8
ENDBRANCH   6   7
ENDBRANCH   5   6
ENDBRANCH   4   5
ENDBRANCH   3   4
BRANCH   3  12
HETATM   12  C7  UNL     1      86.729  70.948  30.569  1.00  0.00     0.109 C 
BRANCH  12  13
HETATM   13  C8  UNL     1      88.141  71.240  30.821  1.00  0.00     0.014 C 
HETATM   14  C9  UNL     1      89.175  70.217  30.553  1.00  0.00     0.014 C 
HETATM   15  C10 UNL     1      90.443  71.046  30.764  1.00  0.00     0.023 C 
HETATM   16  C11 UNL     1      90.858  70.957  32.194  1.00  0.00     0.034 C 
HETATM   17  C13 UNL     1      90.062  72.500  30.564  1.00  0.00     0.074 C 
HETATM   18  C12 UNL     1      90.758  72.378  32.689  1.00  0.00     0.169 C 
HETATM   19  O1  UNL     1      89.969  73.077  31.793  1.00  0.00    -0.379 OA
HETATM   20  C16 UNL     1      88.664  72.422  29.962  1.00  0.00     0.090 C 
BRANCH  17  21
HETATM   21  C14 UNL     1      91.063  73.209  29.710  1.00  0.00     0.035 C 
HETATM   22  C15 UNL     1      91.603  72.424  28.557  1.00  0.00     0.008 C 
ENDBRANCH  17  21
BRANCH  20  23
HETATM   23  C17 UNL     1      87.847  73.618  30.235  1.00  0.00     0.094 C 
HETATM   24  N3  UNL     1      87.513  73.889  31.457  1.00  0.00    -0.391 N 
ATOM     25  H32 UNL     1      87.801  73.288  32.229  1.00  0.00     0.157 HD
ATOM     26  H31 UNL     1      86.947  74.716  31.645  1.00  0.00     0.157 HD
HETATM   27  N4  UNL     1      87.446  74.453  29.162  1.00  0.00    -0.088 NA
ENDBRANCH  20  23
ENDBRANCH  12  13
ENDBRANCH   3  12
TORSDOF 9
ENDMDL
