MODEL 1
REMARK VINA RESULT: -7.859545851      0.000      0.000
REMARK  9 active torsions:
REMARK  status: ('A' for Active; 'I' for Inactive)
REMARK    1  A    between atoms: C2_2  and  C3_3 
REMARK    2  A    between atoms: C3_3  and  C4_4 
REMARK    3  A    between atoms: C7_7  and  C8_8 
REMARK    4  A    between atoms: C8_8  and  N3_13 
REMARK    5  A    between atoms: N3_13  and  C10_15 
REMARK    6  A    between atoms: C10_15  and  C11_16 
REMARK    7  A    between atoms: C11_16  and  C12_17 
REMARK    8  A    between atoms: C12_17  and  C13_18 
REMARK    9  A    between atoms: C13_18  and  N4_19 
ROOT
HETATM    1  C8  UNL     1      89.754  74.318  30.908  1.00  0.00     0.109 C 
HETATM    2  N1  UNL     1      90.190  75.474  31.111  1.00  0.00    -0.281 N 
ATOM      3  H1  UNL     1      91.089  75.497  31.593  1.00  0.00     0.179 HD
HETATM    4  C9  UNL     1      89.704  76.682  30.817  1.00  0.00     0.183 C 
HETATM    5  N2  UNL     1      89.301  77.759  30.577  1.00  0.00    -0.172 NA
ENDROOT
BRANCH   1   6
HETATM    6  C7  UNL     1      88.498  73.912  30.242  1.00  0.00     0.152 C 
HETATM    7  C6  UNL     1      87.773  72.857  30.975  1.00  0.00     0.034 C 
HETATM    8  C5  UNL     1      86.257  72.885  30.602  1.00  0.00     0.017 C 
HETATM    9  C4  UNL     1      85.779  74.188  31.212  1.00  0.00     0.081 C 
HETATM   10  C15 UNL     1      86.367  75.272  30.391  1.00  0.00     0.222 C 
HETATM   11  N7  UNL     1      87.658  75.025  29.845  1.00  0.00    -0.349 N 
HETATM   12  O1  UNL     1      85.742  76.348  30.199  1.00  0.00    -0.273 OA
ATOM     13  H7  UNL     1      88.012  75.666  29.136  1.00  0.00     0.163 HD
BRANCH   9  14
HETATM   14  C3  UNL     1      84.300  74.276  31.377  1.00  0.00     0.040 C 
BRANCH  14  15
HETATM   15  C2  UNL     1      83.663  73.006  31.763  1.00  0.00    -0.036 C 
HETATM   16  C1  UNL     1      82.480  72.981  32.342  1.00  0.00     0.007 C 
ENDBRANCH  14  15
ENDBRANCH   9  14
ENDBRANCH   1   6
BRANCH   1  17
HETATM   17  N3  UNL     1      90.602  73.237  31.444  1.00  0.00    -0.378 N 
ATOM     18  H3  UNL     1      90.613  73.053  32.447  1.00  0.00     0.160 HD
BRANCH  17  19
HETATM   19  C10 UNL     1      91.412  72.444  30.565  1.00  0.00     0.121 C 
BRANCH  19  20
HETATM   20  C11 UNL     1      92.852  72.826  30.504  1.00  0.00     0.021 C 
BRANCH  20  21
HETATM   21  C12 UNL     1      93.748  71.657  30.152  1.00  0.00     0.021 C 
BRANCH  21  22
HETATM   22  C13 UNL     1      94.658  71.295  31.313  1.00  0.00     0.122 C 
BRANCH  22  23
HETATM   23  N4  UNL     1      94.397  72.148  32.458  1.00  0.00    -0.367 N 
HETATM   24  C14 UNL     1      95.267  72.305  33.399  1.00  0.00     0.196 C 
HETATM   25  N5  UNL     1      96.520  71.641  33.342  1.00  0.00    -0.067 NA
HETATM   26  N6  UNL     1      95.027  73.135  34.528  1.00  0.00    -0.067 NA
ATOM     27  H4  UNL     1      93.503  72.636  32.521  1.00  0.00     0.161 HD
ENDBRANCH  22  23
ENDBRANCH  21  22
ENDBRANCH  20  21
ENDBRANCH  19  20
ENDBRANCH  17  19
ENDBRANCH   1  17
TORSDOF 9
ENDMDL
MODEL 2
REMARK VINA RESULT: -7.660734935      1.608      2.533
REMARK  9 active torsions:
REMARK  status: ('A' for Active; 'I' for Inactive)
REMARK    1  A    between atoms: C2_2  and  C3_3 
REMARK    2  A    between atoms: C3_3  and  C4_4 
REMARK    3  A    between atoms: C7_7  and  C8_8 
REMARK    4  A    between atoms: C8_8  and  N3_13 
REMARK    5  A    between atoms: N3_13  and  C10_15 
REMARK    6  A    between atoms: C10_15  and  C11_16 
REMARK    7  A    between atoms: C11_16  and  C12_17 
REMARK    8  A    between atoms: C12_17  and  C13_18 
REMARK    9  A    between atoms: C13_18  and  N4_19 
ROOT
HETATM    1  C8  UNL     1      90.000  73.272  29.661  1.00  0.00     0.109 C 
HETATM    2  N1  UNL     1      90.945  72.686  29.085  1.00  0.00    -0.281 N 
ATOM      3  H1  UNL     1      91.868  72.959  29.424  1.00  0.00     0.179 HD
HETATM    4  C9  UNL     1      90.976  71.772  28.112  1.00  0.00     0.183 C 
HETATM    5  N2  UNL     1      91.037  70.973  27.254  1.00  0.00    -0.172 NA
ENDROOT
BRANCH   1   6
HETATM    6  C7  UNL     1      88.548  73.122  29.431  1.00  0.00     0.152 C 
HETATM    7  C6  UNL     1      87.902  72.222  30.405  1.00  0.00     0.034 C 
HETATM    8  C5  UNL     1      86.378  72.545  30.511  1.00  0.00     0.017 C 
HETATM    9  C4  UNL     1      86.363  73.911  31.169  1.00  0.00     0.081 C 
HETATM   10  C15 UNL     1      86.861  74.868  30.153  1.00  0.00     0.222 C 
HETATM   11  N7  UNL     1      87.849  74.380  29.253  1.00  0.00    -0.349 N 
HETATM   12  O1  UNL     1      86.419  76.046  30.104  1.00  0.00    -0.273 OA
ATOM     13  H7  UNL     1      88.080  74.946  28.437  1.00  0.00     0.163 HD
BRANCH   9  14
HETATM   14  C3  UNL     1      85.052  74.283  31.772  1.00  0.00     0.040 C 
BRANCH  14  15
HETATM   15  C2  UNL     1      83.927  73.447  31.321  1.00  0.00    -0.036 C 
HETATM   16  C1  UNL     1      82.920  73.163  32.123  1.00  0.00     0.007 C 
ENDBRANCH  14  15
ENDBRANCH   9  14
ENDBRANCH   1   6
BRANCH   1  17
HETATM   17  N3  UNL     1      90.415  74.262  30.672  1.00  0.00    -0.378 N 
ATOM     18  H3  UNL     1      90.088  75.225  30.601  1.00  0.00     0.160 HD
BRANCH  17  19
HETATM   19  C10 UNL     1      91.276  73.879  31.755  1.00  0.00     0.121 C 
BRANCH  19  20
HETATM   20  C11 UNL     1      91.038  72.516  32.309  1.00  0.00     0.021 C 
BRANCH  20  21
HETATM   21  C12 UNL     1      92.261  71.629  32.213  1.00  0.00     0.021 C 
BRANCH  21  22
HETATM   22  C13 UNL     1      93.484  72.425  31.790  1.00  0.00     0.122 C 
BRANCH  22  23
HETATM   23  N4  UNL     1      94.703  71.712  32.122  1.00  0.00    -0.367 N 
HETATM   24  C14 UNL     1      95.380  71.986  33.188  1.00  0.00     0.196 C 
HETATM   25  N5  UNL     1      94.947  73.005  34.076  1.00  0.00    -0.067 NA
HETATM   26  N6  UNL     1      96.577  71.299  33.527  1.00  0.00    -0.067 NA
ATOM     27  H4  UNL     1      95.034  70.976  31.499  1.00  0.00     0.161 HD
ENDBRANCH  22  23
ENDBRANCH  21  22
ENDBRANCH  20  21
ENDBRANCH  19  20
ENDBRANCH  17  19
ENDBRANCH   1  17
TORSDOF 9
ENDMDL
MODEL 3
REMARK VINA RESULT: -7.653321665      2.366      3.036
REMARK  9 active torsions:
REMARK  status: ('A' for Active; 'I' for Inactive)
REMARK    1  A    between atoms: C2_2  and  C3_3 
REMARK    2  A    between atoms: C3_3  and  C4_4 
REMARK    3  A    between atoms: C7_7  and  C8_8 
REMARK    4  A    between atoms: C8_8  and  N3_13 
REMARK    5  A    between atoms: N3_13  and  C10_15 
REMARK    6  A    between atoms: C10_15  and  C11_16 
REMARK    7  A    between atoms: C11_16  and  C12_17 
REMARK    8  A    between atoms: C12_17  and  C13_18 
REMARK    9  A    between atoms: C13_18  and  N4_19 
ROOT
HETATM    1  C8  UNL     1      89.651  74.395  31.049  1.00  0.00     0.109 C 
HETATM    2  N1  UNL     1      90.097  75.555  31.204  1.00  0.00    -0.281 N 
ATOM      3  H1  UNL     1      90.953  75.596  31.758  1.00  0.00     0.179 HD
HETATM    4  C9  UNL     1      89.667  76.747  30.784  1.00  0.00     0.183 C 
HETATM    5  N2  UNL     1      89.312  77.810  30.434  1.00  0.00    -0.172 NA
ENDROOT
BRANCH   1   6
HETATM    6  C7  UNL     1      88.446  73.964  30.309  1.00  0.00     0.152 C 
HETATM    7  C6  UNL     1      87.709  72.883  30.991  1.00  0.00     0.034 C 
HETATM    8  C5  UNL     1      86.216  72.875  30.534  1.00  0.00     0.017 C 
HETATM    9  C4  UNL     1      85.670  74.158  31.129  1.00  0.00     0.081 C 
HETATM   10  C15 UNL     1      86.274  75.267  30.354  1.00  0.00     0.222 C 
HETATM   11  N7  UNL     1      87.599  75.059  29.878  1.00  0.00    -0.349 N 
HETATM   12  O1  UNL     1      85.632  76.328  30.138  1.00  0.00    -0.273 OA
ATOM     13  H7  UNL     1      87.975  75.718  29.196  1.00  0.00     0.163 HD
BRANCH   9  14
HETATM   14  C3  UNL     1      84.182  74.205  31.212  1.00  0.00     0.040 C 
BRANCH  14  15
HETATM   15  C2  UNL     1      83.568  72.950  31.677  1.00  0.00    -0.036 C 
HETATM   16  C1  UNL     1      82.492  72.955  32.437  1.00  0.00     0.007 C 
ENDBRANCH  14  15
ENDBRANCH   9  14
ENDBRANCH   1   6
BRANCH   1  17
HETATM   17  N3  UNL     1      90.424  73.341  31.732  1.00  0.00    -0.378 N 
ATOM     18  H3  UNL     1      90.197  73.089  32.693  1.00  0.00     0.160 HD
BRANCH  17  19
HETATM   19  C10 UNL     1      91.495  72.669  31.053  1.00  0.00     0.121 C 
BRANCH  19  20
HETATM   20  C11 UNL     1      91.086  71.514  30.203  1.00  0.00     0.021 C 
BRANCH  20  21
HETATM   21  C12 UNL     1      91.725  70.214  30.645  1.00  0.00     0.021 C 
BRANCH  21  22
HETATM   22  C13 UNL     1      91.573  70.009  32.143  1.00  0.00     0.122 C 
BRANCH  22  23
HETATM   23  N4  UNL     1      90.532  69.039  32.427  1.00  0.00    -0.367 N 
HETATM   24  C14 UNL     1      89.452  69.367  33.054  1.00  0.00     0.196 C 
HETATM   25  N5  UNL     1      89.247  70.702  33.489  1.00  0.00    -0.067 NA
HETATM   26  N6  UNL     1      88.424  68.428  33.341  1.00  0.00    -0.067 NA
ATOM     27  H4  UNL     1      90.657  68.073  32.123  1.00  0.00     0.161 HD
ENDBRANCH  22  23
ENDBRANCH  21  22
ENDBRANCH  20  21
ENDBRANCH  19  20
ENDBRANCH  17  19
ENDBRANCH   1  17
TORSDOF 9
ENDMDL
MODEL 4
REMARK VINA RESULT: -7.652608738      2.357      3.967
REMARK  9 active torsions:
REMARK  status: ('A' for Active; 'I' for Inactive)
REMARK    1  A    between atoms: C2_2  and  C3_3 
REMARK    2  A    between atoms: C3_3  and  C4_4 
REMARK    3  A    between atoms: C7_7  and  C8_8 
REMARK    4  A    between atoms: C8_8  and  N3_13 
REMARK    5  A    between atoms: N3_13  and  C10_15 
REMARK    6  A    between atoms: C10_15  and  C11_16 
REMARK    7  A    between atoms: C11_16  and  C12_17 
REMARK    8  A    between atoms: C12_17  and  C13_18 
REMARK    9  A    between atoms: C13_18  and  N4_19 
ROOT
HETATM    1  C8  UNL     1      89.766  74.456  31.022  1.00  0.00     0.109 C 
HETATM    2  N1  UNL     1      90.166  75.635  31.151  1.00  0.00    -0.281 N 
ATOM      3  H1  UNL     1      91.050  75.718  31.654  1.00  0.00     0.179 HD
HETATM    4  C9  UNL     1      89.658  76.805  30.757  1.00  0.00     0.183 C 
HETATM    5  N2  UNL     1      89.235  77.850  30.429  1.00  0.00    -0.172 NA
ENDROOT
BRANCH   1   6
HETATM    6  C7  UNL     1      88.541  73.968  30.353  1.00  0.00     0.152 C 
HETATM    7  C6  UNL     1      87.835  72.932  31.131  1.00  0.00     0.034 C 
HETATM    8  C5  UNL     1      86.328  72.884  30.725  1.00  0.00     0.017 C 
HETATM    9  C4  UNL     1      85.791  74.202  31.249  1.00  0.00     0.081 C 
HETATM   10  C15 UNL     1      86.361  75.259  30.380  1.00  0.00     0.222 C 
HETATM   11  N7  UNL     1      87.672  75.026  29.876  1.00  0.00    -0.349 N 
HETATM   12  O1  UNL     1      85.704  76.298  30.113  1.00  0.00    -0.273 OA
ATOM     13  H7  UNL     1      88.020  75.639  29.139  1.00  0.00     0.163 HD
BRANCH   9  14
HETATM   14  C3  UNL     1      84.307  74.247  31.377  1.00  0.00     0.040 C 
BRANCH  14  15
HETATM   15  C2  UNL     1      83.698  72.955  31.735  1.00  0.00    -0.036 C 
HETATM   16  C1  UNL     1      82.464  72.883  32.192  1.00  0.00     0.007 C 
ENDBRANCH  14  15
ENDBRANCH   9  14
ENDBRANCH   1   6
BRANCH   1  17
HETATM   17  N3  UNL     1      90.626  73.441  31.658  1.00  0.00    -0.378 N 
ATOM     18  H3  UNL     1      90.714  73.417  32.673  1.00  0.00     0.160 HD
BRANCH  17  19
HETATM   19  C10 UNL     1      91.338  72.486  30.858  1.00  0.00     0.121 C 
BRANCH  19  20
HETATM   20  C11 UNL     1      91.842  72.998  29.551  1.00  0.00     0.021 C 
BRANCH  20  21
HETATM   21  C12 UNL     1      91.318  72.200  28.375  1.00  0.00     0.021 C 
BRANCH  21  22
HETATM   22  C13 UNL     1      90.445  71.048  28.840  1.00  0.00     0.122 C 
BRANCH  22  23
HETATM   23  N4  UNL     1      89.152  71.083  28.181  1.00  0.00    -0.367 N 
HETATM   24  C14 UNL     1      88.161  70.365  28.594  1.00  0.00     0.196 C 
HETATM   25  N5  UNL     1      88.307  69.510  29.717  1.00  0.00    -0.067 NA
HETATM   26  N6  UNL     1      86.889  70.386  27.959  1.00  0.00    -0.067 NA
ATOM     27  H4  UNL     1      89.023  71.690  27.372  1.00  0.00     0.161 HD
ENDBRANCH  22  23
ENDBRANCH  21  22
ENDBRANCH  20  21
ENDBRANCH  19  20
ENDBRANCH  17  19
ENDBRANCH   1  17
TORSDOF 9
ENDMDL
MODEL 5
REMARK VINA RESULT: -7.625266714      2.979      4.205
REMARK  9 active torsions:
REMARK  status: ('A' for Active; 'I' for Inactive)
REMARK    1  A    between atoms: C2_2  and  C3_3 
REMARK    2  A    between atoms: C3_3  and  C4_4 
REMARK    3  A    between atoms: C7_7  and  C8_8 
REMARK    4  A    between atoms: C8_8  and  N3_13 
REMARK    5  A    between atoms: N3_13  and  C10_15 
REMARK    6  A    between atoms: C10_15  and  C11_16 
REMARK    7  A    between atoms: C11_16  and  C12_17 
REMARK    8  A    between atoms: C12_17  and  C13_18 
REMARK    9  A    between atoms: C13_18  and  N4_19 
ROOT
HETATM    1  C8  UNL     1      90.068  73.100  29.596  1.00  0.00     0.109 C 
HETATM    2  N1  UNL     1      90.972  72.428  29.050  1.00  0.00    -0.281 N 
ATOM      3  H1  UNL     1      91.907  72.623  29.411  1.00  0.00     0.179 HD
HETATM    4  C9  UNL     1      90.949  71.505  28.086  1.00  0.00     0.183 C 
HETATM    5  N2  UNL     1      90.961  70.695  27.236  1.00  0.00    -0.172 NA
ENDROOT
BRANCH   1   6
HETATM    6  C7  UNL     1      88.614  73.075  29.330  1.00  0.00     0.152 C 
HETATM    7  C6  UNL     1      87.883  72.149  30.215  1.00  0.00     0.034 C 
HETATM    8  C5  UNL     1      86.384  72.573  30.320  1.00  0.00     0.017 C 
HETATM    9  C4  UNL     1      86.451  73.878  31.088  1.00  0.00     0.081 C 
HETATM   10  C15 UNL     1      87.039  74.875  30.162  1.00  0.00     0.222 C 
HETATM   11  N7  UNL     1      88.012  74.390  29.242  1.00  0.00    -0.349 N 
HETATM   12  O1  UNL     1      86.683  76.082  30.203  1.00  0.00    -0.273 OA
ATOM     13  H7  UNL     1      88.301  75.003  28.480  1.00  0.00     0.163 HD
BRANCH   9  14
HETATM   14  C3  UNL     1      85.156  74.295  31.696  1.00  0.00     0.040 C 
BRANCH  14  15
HETATM   15  C2  UNL     1      83.990  73.552  31.188  1.00  0.00    -0.036 C 
HETATM   16  C1  UNL     1      82.953  73.295  31.960  1.00  0.00     0.007 C 
ENDBRANCH  14  15
ENDBRANCH   9  14
ENDBRANCH   1   6
BRANCH   1  17
HETATM   17  N3  UNL     1      90.542  74.060  30.610  1.00  0.00    -0.378 N 
ATOM     18  H3  UNL     1      90.984  74.930  30.315  1.00  0.00     0.160 HD
BRANCH  17  19
HETATM   19  C10 UNL     1      90.385  73.778  32.008  1.00  0.00     0.121 C 
BRANCH  19  20
HETATM   20  C11 UNL     1      90.981  72.493  32.472  1.00  0.00     0.021 C 
BRANCH  20  21
HETATM   21  C12 UNL     1      89.934  71.499  32.929  1.00  0.00     0.021 C 
BRANCH  21  22
HETATM   22  C13 UNL     1      90.181  70.126  32.328  1.00  0.00     0.122 C 
BRANCH  22  23
HETATM   23  N4  UNL     1      89.071  69.234  32.609  1.00  0.00    -0.367 N 
HETATM   24  C14 UNL     1      89.185  68.252  33.440  1.00  0.00     0.196 C 
HETATM   25  N5  UNL     1      90.412  68.013  34.112  1.00  0.00    -0.067 NA
HETATM   26  N6  UNL     1      88.109  67.367  33.725  1.00  0.00    -0.067 NA
ATOM     27  H4  UNL     1      88.180  69.386  32.138  1.00  0.00     0.161 HD
ENDBRANCH  22  23
ENDBRANCH  21  22
ENDBRANCH  20  21
ENDBRANCH  19  20
ENDBRANCH  17  19
ENDBRANCH   1  17
TORSDOF 9
ENDMDL
