MODEL 1
REMARK VINA RESULT: -6.086176834      0.000      0.000
REMARK  1 active torsions:
REMARK  status: ('A' for Active; 'I' for Inactive)
REMARK    1  A    between atoms: C2_2  and  N1_3 
ROOT
HETATM    1  N1  UNL     1      38.882 -10.976  -3.707  1.00  0.00    -0.344 N 
HETATM    2  C3  UNL     1      39.018 -11.217  -5.125  1.00  0.00     0.048 A 
HETATM    3  C4  UNL     1      37.932 -11.049  -5.922  1.00  0.00     0.057 A 
HETATM    4  C5  UNL     1      38.057 -11.281  -7.274  1.00  0.00     0.054 A 
HETATM    5  N2  UNL     1      36.958 -11.119  -8.136  1.00  0.00    -0.102 NA
HETATM    6  C6  UNL     1      39.281 -11.677  -7.793  1.00  0.00    -0.037 A 
HETATM    7  C7  UNL     1      39.395 -11.922  -9.253  1.00  0.00     0.050 C 
HETATM    8  C8  UNL     1      40.377 -11.845  -6.990  1.00  0.00     0.026 A 
HETATM    9  C9  UNL     1      40.247 -11.612  -5.644  1.00  0.00     0.039 A 
HETATM   10  C10 UNL     1      41.316 -11.752  -4.692  1.00  0.00     0.185 C 
HETATM   11  O1  UNL     1      42.230 -12.582  -4.949  1.00  0.00    -0.290 OA
HETATM   12  C11 UNL     1      41.340 -10.946  -3.454  1.00  0.00     0.216 C 
HETATM   13 CL1  UNL     1      42.230 -11.868  -2.223  1.00  0.00    -0.111 Cl
HETATM   14  C12 UNL     1      40.000 -10.585  -2.906  1.00  0.00     0.212 C 
HETATM   15 CL2  UNL     1      39.840 -11.327  -1.269  1.00  0.00    -0.075 Cl
HETATM   16 CL3  UNL     1      40.054  -8.807  -2.595  1.00  0.00    -0.075 Cl
ENDROOT
BRANCH   1  17
HETATM   17  C2  UNL     1      37.584 -11.152  -3.117  1.00  0.00     0.122 C 
HETATM   18  C1  UNL     1      37.107 -12.550  -2.975  1.00  0.00     0.026 C 
ENDBRANCH   1  17
TORSDOF 1
ENDMDL
MODEL 2
REMARK VINA RESULT: -6.035169699      1.197      1.317
REMARK  1 active torsions:
REMARK  status: ('A' for Active; 'I' for Inactive)
REMARK    1  A    between atoms: C2_2  and  N1_3 
ROOT
HETATM    1  N1  UNL     1      38.075 -12.116  -4.222  1.00  0.00    -0.344 N 
HETATM    2  C3  UNL     1      38.487 -11.725  -5.550  1.00  0.00     0.048 A 
HETATM    3  C4  UNL     1      37.536 -11.549  -6.502  1.00  0.00     0.057 A 
HETATM    4  C5  UNL     1      37.926 -11.179  -7.770  1.00  0.00     0.054 A 
HETATM    5  N2  UNL     1      36.974 -10.986  -8.788  1.00  0.00    -0.102 NA
HETATM    6  C6  UNL     1      39.272 -10.992  -8.048  1.00  0.00    -0.037 A 
HETATM    7  C7  UNL     1      39.671 -10.593  -9.422  1.00  0.00     0.050 C 
HETATM    8  C8  UNL     1      40.231 -11.168  -7.088  1.00  0.00     0.026 A 
HETATM    9  C9  UNL     1      39.838 -11.536  -5.826  1.00  0.00     0.039 A 
HETATM   10  C10 UNL     1      40.741 -11.754  -4.728  1.00  0.00     0.185 C 
HETATM   11  O1  UNL     1      41.913 -12.135  -4.995  1.00  0.00    -0.290 OA
HETATM   12  C11 UNL     1      40.307 -11.535  -3.333  1.00  0.00     0.216 C 
HETATM   13 CL1  UNL     1      41.276 -12.597  -2.289  1.00  0.00    -0.111 Cl
HETATM   14  C12 UNL     1      38.862 -11.795  -3.071  1.00  0.00     0.212 C 
HETATM   15 CL2  UNL     1      38.737 -13.142  -1.877  1.00  0.00    -0.075 Cl
HETATM   16 CL3  UNL     1      38.250 -10.345  -2.185  1.00  0.00    -0.075 Cl
ENDROOT
BRANCH   1  17
HETATM   17  C2  UNL     1      36.849 -12.852  -4.088  1.00  0.00     0.122 C 
HETATM   18  C1  UNL     1      35.709 -12.131  -3.468  1.00  0.00     0.026 C 
ENDBRANCH   1  17
TORSDOF 1
ENDMDL
MODEL 3
REMARK VINA RESULT: -6.019880300      2.186      3.365
REMARK  1 active torsions:
REMARK  status: ('A' for Active; 'I' for Inactive)
REMARK    1  A    between atoms: C2_2  and  N1_3 
ROOT
HETATM    1  N1  UNL     1      39.454 -10.920  -3.762  1.00  0.00    -0.344 N 
HETATM    2  C3  UNL     1      38.954 -11.063  -5.110  1.00  0.00     0.048 A 
HETATM    3  C4  UNL     1      39.703 -10.586  -6.137  1.00  0.00     0.057 A 
HETATM    4  C5  UNL     1      39.227 -10.718  -7.423  1.00  0.00     0.054 A 
HETATM    5  N2  UNL     1      39.971 -10.240  -8.517  1.00  0.00    -0.102 NA
HETATM    6  C6  UNL     1      38.003 -11.331  -7.644  1.00  0.00    -0.037 A 
HETATM    7  C7  UNL     1      37.508 -11.463  -9.038  1.00  0.00     0.050 C 
HETATM    8  C8  UNL     1      37.248 -11.813  -6.609  1.00  0.00     0.026 A 
HETATM    9  C9  UNL     1      37.726 -11.679  -5.329  1.00  0.00     0.039 A 
HETATM   10  C10 UNL     1      37.034 -12.140  -4.155  1.00  0.00     0.185 C 
HETATM   11  O1  UNL     1      35.775 -12.188  -4.194  1.00  0.00    -0.290 OA
HETATM   12  C11 UNL     1      37.779 -12.543  -2.945  1.00  0.00     0.216 C 
HETATM   13 CL1  UNL     1      36.724 -12.271  -1.541  1.00  0.00    -0.111 Cl
HETATM   14  C12 UNL     1      39.067 -11.823  -2.723  1.00  0.00     0.212 C 
HETATM   15 CL2  UNL     1      38.945 -10.915  -1.168  1.00  0.00    -0.075 Cl
HETATM   16 CL3  UNL     1      40.302 -13.101  -2.407  1.00  0.00    -0.075 Cl
ENDROOT
BRANCH   1  17
HETATM   17  C2  UNL     1      40.350  -9.831  -3.489  1.00  0.00     0.122 C 
HETATM   18  C1  UNL     1      41.764 -10.191  -3.215  1.00  0.00     0.026 C 
ENDBRANCH   1  17
TORSDOF 1
ENDMDL
MODEL 4
REMARK VINA RESULT: -5.975225014      2.186      3.487
REMARK  1 active torsions:
REMARK  status: ('A' for Active; 'I' for Inactive)
REMARK    1  A    between atoms: C2_2  and  N1_3 
ROOT
HETATM    1  N1  UNL     1      39.694 -10.285  -3.389  1.00  0.00    -0.344 N 
HETATM    2  C3  UNL     1      39.034 -10.769  -4.579  1.00  0.00     0.048 A 
HETATM    3  C4  UNL     1      39.716 -10.758  -5.753  1.00  0.00     0.057 A 
HETATM    4  C5  UNL     1      39.087 -11.215  -6.890  1.00  0.00     0.054 A 
HETATM    5  N2  UNL     1      39.756 -11.222  -8.128  1.00  0.00    -0.102 NA
HETATM    6  C6  UNL     1      37.782 -11.676  -6.816  1.00  0.00    -0.037 A 
HETATM    7  C7  UNL     1      37.123 -12.165  -8.055  1.00  0.00     0.050 C 
HETATM    8  C8  UNL     1      37.095 -11.689  -5.633  1.00  0.00     0.026 A 
HETATM    9  C9  UNL     1      37.724 -11.233  -4.502  1.00  0.00     0.039 A 
HETATM   10  C10 UNL     1      37.117 -11.191  -3.199  1.00  0.00     0.185 C 
HETATM   11  O1  UNL     1      35.865 -11.061  -3.136  1.00  0.00    -0.290 OA
HETATM   12  C11 UNL     1      37.938 -11.300  -1.976  1.00  0.00     0.216 C 
HETATM   13 CL1  UNL     1      37.086 -10.445  -0.672  1.00  0.00    -0.111 Cl
HETATM   14  C12 UNL     1      39.319 -10.747  -2.088  1.00  0.00     0.212 C 
HETATM   15 CL2  UNL     1      39.481  -9.388  -0.912  1.00  0.00    -0.075 Cl
HETATM   16 CL3  UNL     1      40.421 -12.030  -1.454  1.00  0.00    -0.075 Cl
ENDROOT
BRANCH   1  17
HETATM   17  C2  UNL     1      40.739  -9.312  -3.547  1.00  0.00     0.122 C 
HETATM   18  C1  UNL     1      42.109  -9.747  -3.175  1.00  0.00     0.026 C 
ENDBRANCH   1  17
TORSDOF 1
ENDMDL
MODEL 5
REMARK VINA RESULT: -5.653293626      2.128      2.844
REMARK  1 active torsions:
REMARK  status: ('A' for Active; 'I' for Inactive)
REMARK    1  A    between atoms: C2_2  and  N1_3 
ROOT
HETATM    1  N1  UNL     1      36.703 -12.197  -3.299  1.00  0.00    -0.344 N 
HETATM    2  C3  UNL     1      37.457 -11.742  -4.445  1.00  0.00     0.048 A 
HETATM    3  C4  UNL     1      36.999 -12.042  -5.687  1.00  0.00     0.057 A 
HETATM    4  C5  UNL     1      37.717 -11.611  -6.781  1.00  0.00     0.054 A 
HETATM    5  N2  UNL     1      37.280 -11.899  -8.086  1.00  0.00    -0.102 NA
HETATM    6  C6  UNL     1      38.884 -10.884  -6.595  1.00  0.00    -0.037 A 
HETATM    7  C7  UNL     1      39.642 -10.430  -7.789  1.00  0.00     0.050 C 
HETATM    8  C8  UNL     1      39.344 -10.580  -5.344  1.00  0.00     0.026 A 
HETATM    9  C9  UNL     1      38.626 -11.011  -4.256  1.00  0.00     0.039 A 
HETATM   10  C10 UNL     1      38.999 -10.761  -2.890  1.00  0.00     0.185 C 
HETATM   11  O1  UNL     1      40.224 -10.620  -2.629  1.00  0.00    -0.290 OA
HETATM   12  C11 UNL     1      37.975 -10.671  -1.828  1.00  0.00     0.216 C 
HETATM   13 CL1  UNL     1      38.735 -11.159  -0.298  1.00  0.00    -0.111 Cl
HETATM   14  C12 UNL     1      36.759 -11.507  -2.047  1.00  0.00     0.212 C 
HETATM   15 CL2  UNL     1      36.652 -12.711  -0.707  1.00  0.00    -0.075 Cl
HETATM   16 CL3  UNL     1      35.349 -10.411  -1.786  1.00  0.00    -0.075 Cl
ENDROOT
BRANCH   1  17
HETATM   17  C2  UNL     1      35.899 -13.377  -3.450  1.00  0.00     0.122 C 
HETATM   18  C1  UNL     1      36.602 -14.678  -3.318  1.00  0.00     0.026 C 
ENDBRANCH   1  17
TORSDOF 1
ENDMDL
