MODEL 1
REMARK VINA RESULT: -5.678826094      0.000      0.000
REMARK  2 active torsions:
REMARK  status: ('A' for Active; 'I' for Inactive)
REMARK    1  A    between atoms: C1_2  and  N1_3 
REMARK    2  A    between atoms: N1_3  and  C2_5 
ROOT
HETATM    1  C2  UNL     1      39.152 -11.488  -6.197  1.00  0.00     0.142 C 
HETATM    2  C3  UNL     1      39.917 -11.205  -4.930  1.00  0.00     0.098 C 
HETATM    3  C4  UNL     1      40.158  -9.754  -4.739  1.00  0.00     0.074 C 
HETATM    4 BR1  UNL     1      40.578  -9.168  -2.966  1.00  0.00    -0.035 Br
HETATM    5  N2  UNL     1      40.102  -8.890  -5.669  1.00  0.00    -0.297 N 
ATOM      6  H2  UNL     1      40.281  -7.912  -5.441  1.00  0.00     0.187 HD
HETATM    7  N3  UNL     1      39.803  -9.227  -6.989  1.00  0.00    -0.300 N 
ATOM      8  H3  UNL     1      39.767  -8.508  -7.711  1.00  0.00     0.186 HD
HETATM    9  C5  UNL     1      39.553 -10.574  -7.310  1.00  0.00     0.082 C 
HETATM   10  C6  UNL     1      39.671 -11.021  -8.560  1.00  0.00     0.129 C 
HETATM   11 CL1  UNL     1      39.358 -12.699  -8.956  1.00  0.00    -0.069 Cl
HETATM   12 CL2  UNL     1      40.145  -9.878  -9.792  1.00  0.00    -0.069 Cl
ENDROOT
BRANCH   1  13
HETATM   13  N1  UNL     1      37.738 -11.283  -5.952  1.00  0.00    -0.380 N 
ATOM     14  H1  UNL     1      37.269 -10.528  -6.451  1.00  0.00     0.160 HD
BRANCH  13  15
HETATM   15  C1  UNL     1      37.049 -11.987  -5.153  1.00  0.00     0.166 C 
HETATM   16  S1  UNL     1      36.576 -12.895  -3.910  1.00  0.00    -0.075 SA
ENDBRANCH  13  15
ENDBRANCH   1  13
TORSDOF 2
ENDMDL
MODEL 2
REMARK VINA RESULT: -5.115579995      3.266      3.846
REMARK  2 active torsions:
REMARK  status: ('A' for Active; 'I' for Inactive)
REMARK    1  A    between atoms: C1_2  and  N1_3 
REMARK    2  A    between atoms: N1_3  and  C2_5 
ROOT
HETATM    1  C2  UNL     1      38.266 -10.657  -5.699  1.00  0.00     0.142 C 
HETATM    2  C3  UNL     1      38.157  -9.778  -6.919  1.00  0.00     0.098 C 
HETATM    3  C4  UNL     1      38.990 -10.279  -8.039  1.00  0.00     0.074 C 
HETATM    4 BR1  UNL     1      38.548  -9.660  -9.796  1.00  0.00    -0.035 Br
HETATM    5  N2  UNL     1      39.965 -11.082  -7.904  1.00  0.00    -0.297 N 
ATOM      6  H2  UNL     1      40.480 -11.373  -8.735  1.00  0.00     0.187 HD
HETATM    7  N3  UNL     1      40.358 -11.583  -6.662  1.00  0.00    -0.300 N 
ATOM      8  H3  UNL     1      41.146 -12.226  -6.590  1.00  0.00     0.186 HD
HETATM    9  C5  UNL     1      39.651 -11.187  -5.512  1.00  0.00     0.082 C 
HETATM   10  C6  UNL     1      40.194 -11.280  -4.299  1.00  0.00     0.129 C 
HETATM   11 CL1  UNL     1      39.311 -10.786  -2.869  1.00  0.00    -0.069 Cl
HETATM   12 CL2  UNL     1      41.819 -11.912  -4.181  1.00  0.00    -0.069 Cl
ENDROOT
BRANCH   1  13
HETATM   13  N1  UNL     1      37.380 -11.793  -5.854  1.00  0.00    -0.380 N 
ATOM     14  H1  UNL     1      37.245 -12.172  -6.791  1.00  0.00     0.160 HD
BRANCH  13  15
HETATM   15  C1  UNL     1      36.761 -12.345  -4.893  1.00  0.00     0.166 C 
HETATM   16  S1  UNL     1      36.407 -13.153  -3.547  1.00  0.00    -0.075 SA
ENDBRANCH  13  15
ENDBRANCH   1  13
TORSDOF 2
ENDMDL
MODEL 3
REMARK VINA RESULT: -4.806138961      4.064      4.760
REMARK  2 active torsions:
REMARK  status: ('A' for Active; 'I' for Inactive)
REMARK    1  A    between atoms: C1_2  and  N1_3 
REMARK    2  A    between atoms: N1_3  and  C2_5 
ROOT
HETATM    1  C2  UNL     1      40.105 -11.260  -4.609  1.00  0.00     0.142 C 
HETATM    2  C3  UNL     1      39.282 -11.256  -5.872  1.00  0.00     0.098 C 
HETATM    3  C4  UNL     1      39.523 -10.042  -6.688  1.00  0.00     0.074 C 
HETATM    4 BR1  UNL     1      39.039 -10.126  -8.539  1.00  0.00    -0.035 Br
HETATM    5  N2  UNL     1      40.025  -8.964  -6.239  1.00  0.00    -0.297 N 
ATOM      6  H2  UNL     1      40.155  -8.180  -6.878  1.00  0.00     0.187 HD
HETATM    7  N3  UNL     1      40.405  -8.813  -4.905  1.00  0.00    -0.300 N 
ATOM      8  H3  UNL     1      40.804  -7.934  -4.577  1.00  0.00     0.186 HD
HETATM    9  C5  UNL     1      40.230  -9.892  -4.019  1.00  0.00     0.082 C 
HETATM   10  C6  UNL     1      40.177  -9.704  -2.701  1.00  0.00     0.129 C 
HETATM   11 CL1  UNL     1      39.959 -11.050  -1.600  1.00  0.00    -0.069 Cl
HETATM   12 CL2  UNL     1      40.333  -8.069  -2.105  1.00  0.00    -0.069 Cl
ENDROOT
BRANCH   1  13
HETATM   13  N1  UNL     1      41.442 -11.728  -4.916  1.00  0.00    -0.380 N 
ATOM     14  H1  UNL     1      41.877 -11.402  -5.779  1.00  0.00     0.160 HD
BRANCH  13  15
HETATM   15  C1  UNL     1      42.103 -12.518  -4.176  1.00  0.00     0.166 C 
HETATM   16  S1  UNL     1      42.521 -13.695  -3.161  1.00  0.00    -0.075 SA
ENDBRANCH  13  15
ENDBRANCH   1  13
TORSDOF 2
ENDMDL
MODEL 4
REMARK VINA RESULT: -4.752661753      3.732      4.593
REMARK  2 active torsions:
REMARK  status: ('A' for Active; 'I' for Inactive)
REMARK    1  A    between atoms: C1_2  and  N1_3 
REMARK    2  A    between atoms: N1_3  and  C2_5 
ROOT
HETATM    1  C2  UNL     1      38.050 -10.549 -10.162  1.00  0.00     0.142 C 
HETATM    2  C3  UNL     1      37.145 -10.984  -9.038  1.00  0.00     0.098 C 
HETATM    3  C4  UNL     1      37.829 -11.910  -8.103  1.00  0.00     0.074 C 
HETATM    4 BR1  UNL     1      37.068 -12.101  -6.356  1.00  0.00    -0.035 Br
HETATM    5  N2  UNL     1      38.874 -12.575  -8.388  1.00  0.00    -0.297 N 
ATOM      6  H2  UNL     1      39.274 -13.187  -7.677  1.00  0.00     0.187 HD
HETATM    7  N3  UNL     1      39.494 -12.498  -9.635  1.00  0.00    -0.300 N 
ATOM      8  H3  UNL     1      40.332 -13.046  -9.831  1.00  0.00     0.186 HD
HETATM    9  C5  UNL     1      38.948 -11.654 -10.619  1.00  0.00     0.082 C 
HETATM   10  C6  UNL     1      39.217 -11.832 -11.912  1.00  0.00     0.129 C 
HETATM   11 CL1  UNL     1      38.535 -10.779 -13.135  1.00  0.00    -0.069 Cl
HETATM   12 CL2  UNL     1      40.277 -13.151 -12.348  1.00  0.00    -0.069 Cl
ENDROOT
BRANCH   1  13
HETATM   13  N1  UNL     1      38.893  -9.465  -9.699  1.00  0.00    -0.380 N 
ATOM     14  H1  UNL     1      39.484  -8.992 -10.383  1.00  0.00     0.160 HD
BRANCH  13  15
HETATM   15  C1  UNL     1      38.939  -9.068  -8.495  1.00  0.00     0.166 C 
HETATM   16  S1  UNL     1      39.277  -8.930  -6.927  1.00  0.00    -0.075 SA
ENDBRANCH  13  15
ENDBRANCH   1  13
TORSDOF 2
ENDMDL
MODEL 5
REMARK VINA RESULT: -4.712997307      3.791      4.662
REMARK  2 active torsions:
REMARK  status: ('A' for Active; 'I' for Inactive)
REMARK    1  A    between atoms: C1_2  and  N1_3 
REMARK    2  A    between atoms: N1_3  and  C2_5 
ROOT
HETATM    1  C2  UNL     1      39.687 -11.320  -5.765  1.00  0.00     0.142 C 
HETATM    2  C3  UNL     1      40.043 -11.728  -7.172  1.00  0.00     0.098 C 
HETATM    3  C4  UNL     1      38.934 -11.469  -8.122  1.00  0.00     0.074 C 
HETATM    4 BR1  UNL     1      39.385 -11.373  -9.980  1.00  0.00    -0.035 Br
HETATM    5  N2  UNL     1      37.721 -11.308  -7.781  1.00  0.00    -0.297 N 
ATOM      6  H2  UNL     1      37.026 -11.132  -8.507  1.00  0.00     0.187 HD
HETATM    7  N3  UNL     1      37.302 -11.363  -6.451  1.00  0.00    -0.300 N 
ATOM      8  H3  UNL     1      36.319 -11.230  -6.213  1.00  0.00     0.186 HD
HETATM    9  C5  UNL     1      38.254 -11.603  -5.445  1.00  0.00     0.082 C 
HETATM   10  C6  UNL     1      37.896 -12.068  -4.248  1.00  0.00     0.129 C 
HETATM   11 CL1  UNL     1      39.086 -12.367  -2.997  1.00  0.00    -0.069 Cl
HETATM   12 CL2  UNL     1      36.198 -12.369  -3.968  1.00  0.00    -0.069 Cl
ENDROOT
BRANCH   1  13
HETATM   13  N1  UNL     1      39.893  -9.893  -5.620  1.00  0.00    -0.380 N 
ATOM     14  H1  UNL     1      39.743  -9.301  -6.437  1.00  0.00     0.160 HD
BRANCH  13  15
HETATM   15  C1  UNL     1      40.249  -9.335  -4.538  1.00  0.00     0.166 C 
HETATM   16  S1  UNL     1      40.822  -9.060  -3.058  1.00  0.00    -0.075 SA
ENDBRANCH  13  15
ENDBRANCH   1  13
TORSDOF 2
ENDMDL
