MODEL 1
REMARK VINA RESULT: -7.483155939      0.000      0.000
REMARK  1 active torsions:
REMARK  status: ('A' for Active; 'I' for Inactive)
REMARK    1  A    between atoms: C2_2  and  O1_3 
ROOT
HETATM    1  C1  UNL     1      39.171 -12.288  -8.515  1.00  0.00     0.084 C 
HETATM    2  C2  UNL     1      39.675 -11.072  -9.301  1.00  0.00     0.206 C 
HETATM    3  O2  UNL     1      40.503 -11.614 -10.332  1.00  0.00    -0.308 OA
HETATM    4  C3  UNL     1      40.009 -11.954 -11.582  1.00  0.00     0.109 A 
HETATM    5  C4  UNL     1      40.437 -13.009 -12.329  1.00  0.00     0.041 A 
HETATM    6  C5  UNL     1      39.900 -13.295 -13.576  1.00  0.00     0.030 A 
HETATM    7  C6  UNL     1      38.901 -12.482 -14.069  1.00  0.00     0.075 A 
HETATM    8 CL1  UNL     1      38.164 -12.771 -15.638  1.00  0.00    -0.081 Cl
HETATM    9  C7  UNL     1      38.462 -11.399 -13.299  1.00  0.00     0.174 A 
HETATM   10  F1  UNL     1      37.479 -10.579 -13.759  1.00  0.00    -0.201 F 
HETATM   11  C8  UNL     1      38.997 -11.129 -12.079  1.00  0.00     0.144 A 
HETATM   12  O3  UNL     1      38.620 -10.078 -11.256  1.00  0.00    -0.317 OA
HETATM   13  C9  UNL     1      38.562 -10.235  -9.830  1.00  0.00     0.177 C 
HETATM   14  C10 UNL     1      38.517  -8.851  -9.246  1.00  0.00     0.065 C 
HETATM   15 BR1  UNL     1      36.887 -11.117  -9.343  1.00  0.00    -0.048 Br
ENDROOT
BRANCH   2  16
HETATM   16  O1  UNL     1      40.446 -10.323  -8.405  1.00  0.00    -0.362 OA
ATOM     17  H1  UNL     1      39.848  -9.713  -7.990  1.00  0.00     0.213 HD
ENDBRANCH   2  16
TORSDOF 1
ENDMDL
MODEL 2
REMARK VINA RESULT: -7.055133190      4.776      6.617
REMARK  1 active torsions:
REMARK  status: ('A' for Active; 'I' for Inactive)
REMARK    1  A    between atoms: C2_2  and  O1_3 
ROOT
HETATM    1  C1  UNL     1      37.040 -11.083  -9.265  1.00  0.00     0.084 C 
HETATM    2  C2  UNL     1      38.147 -10.087  -8.898  1.00  0.00     0.206 C 
HETATM    3  O2  UNL     1      37.834  -9.656  -7.571  1.00  0.00    -0.308 OA
HETATM    4  C3  UNL     1      38.326 -10.298  -6.444  1.00  0.00     0.109 A 
HETATM    5  C4  UNL     1      37.645 -10.453  -5.276  1.00  0.00     0.041 A 
HETATM    6  C5  UNL     1      38.197 -11.106  -4.184  1.00  0.00     0.030 A 
HETATM    7  C6  UNL     1      39.475 -11.613  -4.290  1.00  0.00     0.075 A 
HETATM    8 CL1  UNL     1      40.250 -12.453  -2.956  1.00  0.00    -0.081 Cl
HETATM    9  C7  UNL     1      40.173 -11.451  -5.493  1.00  0.00     0.174 A 
HETATM   10  F1  UNL     1      41.435 -11.939  -5.628  1.00  0.00    -0.201 F 
HETATM   11  C8  UNL     1      39.621 -10.809  -6.556  1.00  0.00     0.144 A 
HETATM   12  O3  UNL     1      40.244 -10.608  -7.779  1.00  0.00    -0.317 OA
HETATM   13  C9  UNL     1      39.507 -10.683  -9.009  1.00  0.00     0.177 C 
HETATM   14  C10 UNL     1      40.364 -10.040 -10.064  1.00  0.00     0.065 C 
HETATM   15 BR1  UNL     1      39.284 -12.557  -9.517  1.00  0.00    -0.048 Br
ENDROOT
BRANCH   2  16
HETATM   16  O1  UNL     1      38.022  -9.021  -9.794  1.00  0.00    -0.362 OA
ATOM     17  H1  UNL     1      37.232  -8.557  -9.543  1.00  0.00     0.213 HD
ENDBRANCH   2  16
TORSDOF 1
ENDMDL
MODEL 3
REMARK VINA RESULT: -5.654475960      5.226      6.755
REMARK  1 active torsions:
REMARK  status: ('A' for Active; 'I' for Inactive)
REMARK    1  A    between atoms: C2_2  and  O1_3 
ROOT
HETATM    1  C1  UNL     1      38.760 -12.693  -2.272  1.00  0.00     0.084 C 
HETATM    2  C2  UNL     1      37.891 -11.541  -2.791  1.00  0.00     0.206 C 
HETATM    3  O2  UNL     1      38.739 -10.805  -3.674  1.00  0.00    -0.308 OA
HETATM    4  C3  UNL     1      38.818 -11.080  -5.032  1.00  0.00     0.109 A 
HETATM    5  C4  UNL     1      39.949 -10.981  -5.783  1.00  0.00     0.041 A 
HETATM    6  C5  UNL     1      39.960 -11.271  -7.140  1.00  0.00     0.030 A 
HETATM    7  C6  UNL     1      38.785 -11.671  -7.741  1.00  0.00     0.075 A 
HETATM    8 CL1  UNL     1      38.708 -12.057  -9.454  1.00  0.00    -0.081 Cl
HETATM    9  C7  UNL     1      37.624 -11.772  -6.966  1.00  0.00     0.174 A 
HETATM   10  F1  UNL     1      36.450 -12.163  -7.531  1.00  0.00    -0.201 F 
HETATM   11  C8  UNL     1      37.626 -11.485  -5.637  1.00  0.00     0.144 A 
HETATM   12  O3  UNL     1      36.522 -11.559  -4.802  1.00  0.00    -0.317 OA
HETATM   13  C9  UNL     1      36.644 -12.021  -3.448  1.00  0.00     0.177 C 
HETATM   14  C10 UNL     1      35.387 -11.606  -2.736  1.00  0.00     0.065 C 
HETATM   15 BR1  UNL     1      36.691 -13.976  -3.433  1.00  0.00    -0.048 Br
ENDROOT
BRANCH   2  16
HETATM   16  O1  UNL     1      37.568 -10.765  -1.673  1.00  0.00    -0.362 OA
ATOM     17  H1  UNL     1      36.863 -10.190  -1.946  1.00  0.00     0.213 HD
ENDBRANCH   2  16
TORSDOF 1
ENDMDL
MODEL 4
REMARK VINA RESULT: -5.641536823      5.536      7.038
REMARK  1 active torsions:
REMARK  status: ('A' for Active; 'I' for Inactive)
REMARK    1  A    between atoms: C2_2  and  O1_3 
ROOT
HETATM    1  C1  UNL     1      41.767 -10.809  -3.421  1.00  0.00     0.084 C 
HETATM    2  C2  UNL     1      40.480  -9.989  -3.267  1.00  0.00     0.206 C 
HETATM    3  O2  UNL     1      40.220  -9.459  -4.569  1.00  0.00    -0.308 OA
HETATM    4  C3  UNL     1      39.437 -10.124  -5.501  1.00  0.00     0.109 A 
HETATM    5  C4  UNL     1      39.652 -10.120  -6.845  1.00  0.00     0.041 A 
HETATM    6  C5  UNL     1      38.828 -10.808  -7.724  1.00  0.00     0.030 A 
HETATM    7  C6  UNL     1      37.760 -11.516  -7.216  1.00  0.00     0.075 A 
HETATM    8 CL1  UNL     1      36.666 -12.414  -8.257  1.00  0.00    -0.081 Cl
HETATM    9  C7  UNL     1      37.542 -11.518  -5.833  1.00  0.00     0.174 A 
HETATM   10  F1  UNL     1      36.496 -12.207  -5.302  1.00  0.00    -0.201 F 
HETATM   11  C8  UNL     1      38.356 -10.840  -4.982  1.00  0.00     0.144 A 
HETATM   12  O3  UNL     1      38.208 -10.792  -3.604  1.00  0.00    -0.317 OA
HETATM   13  C9  UNL     1      39.351 -10.798  -2.733  1.00  0.00     0.177 C 
HETATM   14  C10 UNL     1      38.867 -10.345  -1.384  1.00  0.00     0.065 C 
HETATM   15 BR1  UNL     1      39.994 -12.633  -2.524  1.00  0.00    -0.048 Br
ENDROOT
BRANCH   2  16
HETATM   16  O1  UNL     1      40.784  -8.954  -2.377  1.00  0.00    -0.362 OA
ATOM     17  H1  UNL     1      40.300  -8.195  -2.680  1.00  0.00     0.213 HD
ENDBRANCH   2  16
TORSDOF 1
ENDMDL
MODEL 5
REMARK VINA RESULT: -5.367636472      5.609      7.398
REMARK  1 active torsions:
REMARK  status: ('A' for Active; 'I' for Inactive)
REMARK    1  A    between atoms: C2_2  and  O1_3 
ROOT
HETATM    1  C1  UNL     1      40.110 -10.442  -8.518  1.00  0.00     0.084 C 
HETATM    2  C2  UNL     1      39.416 -11.663  -7.904  1.00  0.00     0.206 C 
HETATM    3  O2  UNL     1      40.284 -12.094  -6.854  1.00  0.00    -0.308 OA
HETATM    4  C3  UNL     1      40.164 -11.633  -5.552  1.00  0.00     0.109 A 
HETATM    5  C4  UNL     1      41.205 -11.406  -4.705  1.00  0.00     0.041 A 
HETATM    6  C5  UNL     1      41.015 -10.943  -3.411  1.00  0.00     0.030 A 
HETATM    7  C6  UNL     1      39.729 -10.706  -2.974  1.00  0.00     0.075 A 
HETATM    8 CL1  UNL     1      39.398 -10.120  -1.351  1.00  0.00    -0.081 Cl
HETATM    9  C7  UNL     1      38.660 -10.940  -3.847  1.00  0.00     0.174 A 
HETATM   10  F1  UNL     1      37.380 -10.716  -3.444  1.00  0.00    -0.201 F 
HETATM   11  C8  UNL     1      38.859 -11.394  -5.112  1.00  0.00     0.144 A 
HETATM   12  O3  UNL     1      37.857 -11.650  -6.036  1.00  0.00    -0.317 OA
HETATM   13  C9  UNL     1      38.038 -11.356  -7.430  1.00  0.00     0.177 C 
HETATM   14  C10 UNL     1      36.964 -12.101  -8.170  1.00  0.00     0.065 C 
HETATM   15 BR1  UNL     1      37.728  -9.450  -7.735  1.00  0.00    -0.048 Br
ENDROOT
BRANCH   2  16
HETATM   16  O1  UNL     1      39.364 -12.629  -8.915  1.00  0.00    -0.362 OA
ATOM     17  H1  UNL     1      38.972 -13.400  -8.523  1.00  0.00     0.213 HD
ENDBRANCH   2  16
TORSDOF 1
ENDMDL
