MODEL 1
REMARK VINA RESULT: -7.856014120      0.000      0.000
REMARK  3 active torsions:
REMARK  status: ('A' for Active; 'I' for Inactive)
REMARK    1  A    between atoms: N1_1  and  C1_5 
REMARK    2  A    between atoms: C5_10  and  O1_11 
REMARK    3  A    between atoms: C5_10  and  C6_13 
ROOT
HETATM    1  C1  UNL     1      37.665 -10.838  -8.277  1.00  0.00     0.185 C 
HETATM    2  C2  UNL     1      38.553 -12.004  -7.966  1.00  0.00     0.034 C 
HETATM    3  C3  UNL     1      39.179 -12.631  -9.157  1.00  0.00     0.022 C 
HETATM    4  C4  UNL     1      40.069 -11.579  -9.838  1.00  0.00     0.125 C 
HETATM    5  N2  UNL     1      39.275 -10.812 -10.706  1.00  0.00    -0.360 N 
HETATM    6  C5  UNL     1      39.014 -11.055 -12.020  1.00  0.00     0.174 C 
HETATM    7  C10 UNL     1      38.589  -9.553 -10.238  1.00  0.00     0.127 C 
HETATM    8  C11 UNL     1      38.374  -9.635  -8.781  1.00  0.00     0.052 C 
ENDROOT
BRANCH   6   9
HETATM    9  O1  UNL     1      38.195 -10.065 -12.509  1.00  0.00    -0.344 OA
ATOM     10  H1  UNL     1      37.707 -10.402 -13.252  1.00  0.00     0.219 HD
ENDBRANCH   6   9
BRANCH   6  11
HETATM   11  C6  UNL     1      39.316 -12.002 -13.047  1.00  0.00     0.151 A 
HETATM   12  O2  UNL     1      40.131 -13.054 -12.737  1.00  0.00    -0.291 OA
HETATM   13  C7  UNL     1      40.340 -13.838 -13.711  1.00  0.00     0.169 A 
HETATM   14 CL1  UNL     1      41.330 -15.293 -13.695  1.00  0.00    -0.055 Cl
HETATM   15  C8  UNL     1      39.662 -13.359 -14.779  1.00  0.00     0.104 A 
HETATM   16 CL2  UNL     1      39.565 -14.012 -16.407  1.00  0.00    -0.078 Cl
HETATM   17  C9  UNL     1      39.016 -12.188 -14.333  1.00  0.00     0.097 A 
HETATM   18 CL3  UNL     1      38.030 -11.276 -15.437  1.00  0.00    -0.079 Cl
ENDBRANCH   6  11
BRANCH   1  19
HETATM   19  N1  UNL     1      36.556 -11.221  -9.114  1.00  0.00    -0.075 N 
ATOM     20  H13 UNL     1      36.866 -11.782  -9.908  1.00  0.00     0.274 HD
ATOM     21  H12 UNL     1      35.963 -11.911  -8.653  1.00  0.00     0.274 HD
ATOM     22  H11 UNL     1      36.017 -10.411  -9.418  1.00  0.00     0.274 HD
ENDBRANCH   1  19
TORSDOF 3
ENDMDL
MODEL 2
REMARK VINA RESULT: -7.375199985      1.301      1.386
REMARK  3 active torsions:
REMARK  status: ('A' for Active; 'I' for Inactive)
REMARK    1  A    between atoms: N1_1  and  C1_5 
REMARK    2  A    between atoms: C5_10  and  O1_11 
REMARK    3  A    between atoms: C5_10  and  C6_13 
ROOT
HETATM    1  C1  UNL     1      38.134 -10.176  -7.853  1.00  0.00     0.185 C 
HETATM    2  C2  UNL     1      37.560 -11.558  -7.781  1.00  0.00     0.034 C 
HETATM    3  C3  UNL     1      37.820 -12.392  -8.982  1.00  0.00     0.022 C 
HETATM    4  C4  UNL     1      39.341 -12.562  -9.124  1.00  0.00     0.125 C 
HETATM    5  N2  UNL     1      39.855 -11.459  -9.825  1.00  0.00    -0.360 N 
HETATM    6  C5  UNL     1      40.011 -11.335 -11.172  1.00  0.00     0.174 C 
HETATM    7  C10 UNL     1      40.322 -10.219  -9.106  1.00  0.00     0.127 C 
HETATM    8  C11 UNL     1      39.618 -10.118  -7.813  1.00  0.00     0.052 C 
ENDROOT
BRANCH   6   9
HETATM    9  O1  UNL     1      40.548 -10.101 -11.453  1.00  0.00    -0.344 OA
ATOM     10  H1  UNL     1      40.745 -10.050 -12.381  1.00  0.00     0.219 HD
ENDBRANCH   6   9
BRANCH   6  11
HETATM   11  C6  UNL     1      39.797 -12.069 -12.379  1.00  0.00     0.151 A 
HETATM   12  O2  UNL     1      40.539 -13.198 -12.588  1.00  0.00    -0.291 OA
HETATM   13  C7  UNL     1      40.279 -13.780 -13.684  1.00  0.00     0.169 A 
HETATM   14 CL1  UNL     1      41.025 -15.252 -14.295  1.00  0.00    -0.055 Cl
HETATM   15  C8  UNL     1      39.316 -13.066 -14.311  1.00  0.00     0.104 A 
HETATM   16 CL2  UNL     1      38.548 -13.375 -15.861  1.00  0.00    -0.078 Cl
HETATM   17  C9  UNL     1      39.024 -11.980 -13.462  1.00  0.00     0.097 A 
HETATM   18 CL3  UNL     1      37.816 -10.822 -13.930  1.00  0.00    -0.079 Cl
ENDBRANCH   6  11
BRANCH   1  19
HETATM   19  N1  UNL     1      37.579  -9.423  -8.947  1.00  0.00    -0.075 N 
ATOM     20  H13 UNL     1      36.574  -9.579  -9.034  1.00  0.00     0.274 HD
ATOM     21  H12 UNL     1      37.569  -8.424  -8.744  1.00  0.00     0.274 HD
ATOM     22  H11 UNL     1      38.062  -9.620  -9.824  1.00  0.00     0.274 HD
ENDBRANCH   1  19
TORSDOF 3
ENDMDL
MODEL 3
REMARK VINA RESULT: -7.125384852      5.460      7.411
REMARK  3 active torsions:
REMARK  status: ('A' for Active; 'I' for Inactive)
REMARK    1  A    between atoms: N1_1  and  C1_5 
REMARK    2  A    between atoms: C5_10  and  O1_11 
REMARK    3  A    between atoms: C5_10  and  C6_13 
ROOT
HETATM    1  C1  UNL     1      39.721 -10.744 -11.156  1.00  0.00     0.185 C 
HETATM    2  C2  UNL     1      39.595 -12.188 -10.774  1.00  0.00     0.034 C 
HETATM    3  C3  UNL     1      39.376 -12.420  -9.324  1.00  0.00     0.022 C 
HETATM    4  C4  UNL     1      38.050 -11.750  -8.930  1.00  0.00     0.125 C 
HETATM    5  N2  UNL     1      38.297 -10.399  -8.637  1.00  0.00    -0.360 N 
HETATM    6  C5  UNL     1      38.621  -9.860  -7.429  1.00  0.00     0.174 C 
HETATM    7  C10 UNL     1      38.216  -9.337  -9.704  1.00  0.00     0.127 C 
HETATM    8  C11 UNL     1      38.470  -9.954 -11.019  1.00  0.00     0.052 C 
ENDROOT
BRANCH   6   9
HETATM    9  O1  UNL     1      38.778  -8.501  -7.568  1.00  0.00    -0.344 OA
ATOM     10  H1  UNL     1      38.067  -8.057  -7.122  1.00  0.00     0.219 HD
ENDBRANCH   6   9
BRANCH   6  11
HETATM   11  C6  UNL     1      38.850 -10.250  -6.074  1.00  0.00     0.151 A 
HETATM   12  O2  UNL     1      39.881  -9.660  -5.397  1.00  0.00    -0.291 OA
HETATM   13  C7  UNL     1      40.004 -10.069  -4.204  1.00  0.00     0.169 A 
HETATM   14 CL1  UNL     1      41.208  -9.545  -3.032  1.00  0.00    -0.055 Cl
HETATM   15  C8  UNL     1      39.039 -10.990  -3.982  1.00  0.00     0.104 A 
HETATM   16 CL2  UNL     1      38.704 -11.906  -2.520  1.00  0.00    -0.078 Cl
HETATM   17  C9  UNL     1      38.314 -11.089  -5.187  1.00  0.00     0.097 A 
HETATM   18 CL3  UNL     1      36.972 -12.188  -5.296  1.00  0.00    -0.079 Cl
ENDBRANCH   6  11
BRANCH   1  19
HETATM   19  N1  UNL     1      40.846 -10.118 -10.511  1.00  0.00    -0.075 N 
ATOM     20  H13 UNL     1      40.954 -10.445  -9.551  1.00  0.00     0.274 HD
ATOM     21  H12 UNL     1      41.730 -10.454 -10.895  1.00  0.00     0.274 HD
ATOM     22  H11 UNL     1      40.787  -9.101 -10.553  1.00  0.00     0.274 HD
ENDBRANCH   1  19
TORSDOF 3
ENDMDL
MODEL 4
REMARK VINA RESULT: -7.004131938      1.560      2.777
REMARK  3 active torsions:
REMARK  status: ('A' for Active; 'I' for Inactive)
REMARK    1  A    between atoms: N1_1  and  C1_5 
REMARK    2  A    between atoms: C5_10  and  O1_11 
REMARK    3  A    between atoms: C5_10  and  C6_13 
ROOT
HETATM    1  C1  UNL     1      38.056 -10.387  -6.956  1.00  0.00     0.185 C 
HETATM    2  C2  UNL     1      37.270 -11.645  -7.167  1.00  0.00     0.034 C 
HETATM    3  C3  UNL     1      37.409 -12.233  -8.524  1.00  0.00     0.022 C 
HETATM    4  C4  UNL     1      38.885 -12.604  -8.734  1.00  0.00     0.125 C 
HETATM    5  N2  UNL     1      39.574 -11.471  -9.196  1.00  0.00    -0.360 N 
HETATM    6  C5  UNL     1      39.762 -11.088 -10.489  1.00  0.00     0.174 C 
HETATM    7  C10 UNL     1      40.222 -10.501  -8.241  1.00  0.00     0.127 C 
HETATM    8  C11 UNL     1      39.530 -10.570  -6.940  1.00  0.00     0.052 C 
ENDROOT
BRANCH   6   9
HETATM    9  O1  UNL     1      40.489  -9.921 -10.514  1.00  0.00    -0.344 OA
ATOM     10  H1  UNL     1      40.042  -9.286 -11.060  1.00  0.00     0.219 HD
ENDBRANCH   6   9
BRANCH   6  11
HETATM   11  C6  UNL     1      39.448 -11.505 -11.819  1.00  0.00     0.151 A 
HETATM   12  O2  UNL     1      38.601 -10.726 -12.557  1.00  0.00    -0.291 OA
HETATM   13  C7  UNL     1      38.384 -11.177 -13.722  1.00  0.00     0.169 A 
HETATM   14 CL1  UNL     1      37.355 -10.455 -14.953  1.00  0.00    -0.055 Cl
HETATM   15  C8  UNL     1      39.088 -12.324 -13.859  1.00  0.00     0.104 A 
HETATM   16 CL2  UNL     1      39.189 -13.397 -15.246  1.00  0.00    -0.078 Cl
HETATM   17  C9  UNL     1      39.760 -12.513 -12.634  1.00  0.00     0.097 A 
HETATM   18 CL3  UNL     1      40.784 -13.901 -12.420  1.00  0.00    -0.079 Cl
ENDBRANCH   6  11
BRANCH   1  19
HETATM   19  N1  UNL     1      37.637  -9.340  -7.853  1.00  0.00    -0.075 N 
ATOM     20  H13 UNL     1      38.293  -9.229  -8.627  1.00  0.00     0.274 HD
ATOM     21  H12 UNL     1      36.810  -9.614  -8.384  1.00  0.00     0.274 HD
ATOM     22  H11 UNL     1      37.488  -8.459  -7.361  1.00  0.00     0.274 HD
ENDBRANCH   1  19
TORSDOF 3
ENDMDL
MODEL 5
REMARK VINA RESULT: -6.938884122      5.632      7.480
REMARK  3 active torsions:
REMARK  status: ('A' for Active; 'I' for Inactive)
REMARK    1  A    between atoms: N1_1  and  C1_5 
REMARK    2  A    between atoms: C5_10  and  O1_11 
REMARK    3  A    between atoms: C5_10  and  C6_13 
ROOT
HETATM    1  C1  UNL     1      39.545 -10.598 -10.753  1.00  0.00     0.185 C 
HETATM    2  C2  UNL     1      39.438 -12.082 -10.581  1.00  0.00     0.034 C 
HETATM    3  C3  UNL     1      39.374 -12.531  -9.168  1.00  0.00     0.022 C 
HETATM    4  C4  UNL     1      38.110 -11.930  -8.533  1.00  0.00     0.125 C 
HETATM    5  N2  UNL     1      38.409 -10.638  -8.069  1.00  0.00    -0.360 N 
HETATM    6  C5  UNL     1      38.871 -10.288  -6.838  1.00  0.00     0.174 C 
HETATM    7  C10 UNL     1      38.230  -9.426  -8.949  1.00  0.00     0.127 C 
HETATM    8  C11 UNL     1      38.330  -9.838 -10.362  1.00  0.00     0.052 C 
ENDROOT
BRANCH   6   9
HETATM    9  O1  UNL     1      39.035  -8.924  -6.787  1.00  0.00    -0.344 OA
ATOM     10  H1  UNL     1      38.281  -8.535  -6.358  1.00  0.00     0.219 HD
ENDBRANCH   6   9
BRANCH   6  11
HETATM   11  C6  UNL     1      39.239 -10.879  -5.589  1.00  0.00     0.151 A 
HETATM   12  O2  UNL     1      40.540 -11.263  -5.415  1.00  0.00    -0.291 OA
HETATM   13  C7  UNL     1      40.769 -11.774  -4.278  1.00  0.00     0.169 A 
HETATM   14 CL1  UNL     1      42.312 -12.383  -3.692  1.00  0.00    -0.055 Cl
HETATM   15  C8  UNL     1      39.608 -11.773  -3.584  1.00  0.00     0.104 A 
HETATM   16 CL2  UNL     1      39.298 -12.351  -1.954  1.00  0.00    -0.078 Cl
HETATM   17  C9  UNL     1      38.647 -11.197  -4.438  1.00  0.00     0.097 A 
HETATM   18 CL3  UNL     1      37.007 -11.017  -3.891  1.00  0.00    -0.079 Cl
ENDBRANCH   6  11
BRANCH   1  19
HETATM   19  N1  UNL     1      40.744 -10.076 -10.149  1.00  0.00    -0.075 N 
ATOM     20  H13 UNL     1      41.578 -10.527 -10.526  1.00  0.00     0.274 HD
ATOM     21  H12 UNL     1      40.929  -9.120 -10.453  1.00  0.00     0.274 HD
ATOM     22  H11 UNL     1      40.714 -10.142  -9.132  1.00  0.00     0.274 HD
ENDBRANCH   1  19
TORSDOF 3
ENDMDL
