MODEL 1
REMARK VINA RESULT: -5.877571449      0.000      0.000
REMARK  6 active torsions:
REMARK  status: ('A' for Active; 'I' for Inactive)
REMARK    1  A    between atoms: C2_2  and  N1_3 
REMARK    2  A    between atoms: N1_3  and  C3_5 
REMARK    3  A    between atoms: C4_10  and  N4_11 
REMARK    4  A    between atoms: N4_11  and  C5_13 
REMARK    5  A    between atoms: C5_13  and  C6_14 
REMARK    6  A    between atoms: C6_14  and  N5_15 
ROOT
HETATM    1  C3  UNL     1      26.339 -10.293  -3.712  1.00  0.00     0.707 A 
HETATM    2  N2  UNL     1      25.707 -10.467  -2.537  1.00  0.00    -0.117 N 
ATOM      3  H2  UNL     1      25.734  -9.819  -1.751  1.00  0.00     0.206 HD
HETATM    4  N3  UNL     1      25.054 -11.599  -2.561  1.00  0.00    -0.117 N 
ATOM      5  H3  UNL     1      24.490 -11.971  -1.796  1.00  0.00     0.206 HD
HETATM    6  C4  UNL     1      25.241 -12.195  -3.752  1.00  0.00     0.707 A 
HETATM    7  N6  UNL     1      26.040 -11.369  -4.454  1.00  0.00    -0.020 N 
ATOM      8  H6  UNL     1      26.368 -11.537  -5.405  1.00  0.00     0.203 HD
ENDROOT
BRANCH   6   9
HETATM    9  N4  UNL     1      24.743 -13.339  -4.140  1.00  0.00    -0.223 N 
ATOM     10  H4  UNL     1      23.861 -13.678  -3.756  1.00  0.00     0.177 HD
BRANCH   9  11
HETATM   11  C5  UNL     1      25.454 -14.110  -5.111  1.00  0.00     0.165 C 
BRANCH  11  12
HETATM   12  C6  UNL     1      25.115 -15.585  -5.038  1.00  0.00     0.249 C 
BRANCH  12  13
HETATM   13  N5  UNL     1      23.843 -15.689  -4.330  1.00  0.00    -0.078 N 
ATOM     14  H53 UNL     1      23.421 -16.615  -4.396  1.00  0.00     0.274 HD
ATOM     15  H52 UNL     1      23.946 -15.667  -3.315  1.00  0.00     0.274 HD
ATOM     16  H51 UNL     1      23.245 -14.947  -4.691  1.00  0.00     0.274 HD
ENDBRANCH  12  13
ENDBRANCH  11  12
ENDBRANCH   9  11
ENDBRANCH   6   9
BRANCH   1  17
HETATM   17  N1  UNL     1      27.081  -9.283  -4.043  1.00  0.00    -0.225 N 
ATOM     18  H1  UNL     1      27.750  -8.897  -3.378  1.00  0.00     0.177 HD
BRANCH  17  19
HETATM   19  C2  UNL     1      26.951  -8.709  -5.366  1.00  0.00     0.134 C 
HETATM   20  C1  UNL     1      25.603  -8.023  -5.450  1.00  0.00     0.027 C 
ENDBRANCH  17  19
ENDBRANCH   1  17
TORSDOF 6
ENDMDL
MODEL 2
REMARK VINA RESULT: -5.811858080      1.070      1.172
REMARK  6 active torsions:
REMARK  status: ('A' for Active; 'I' for Inactive)
REMARK    1  A    between atoms: C2_2  and  N1_3 
REMARK    2  A    between atoms: N1_3  and  C3_5 
REMARK    3  A    between atoms: C4_10  and  N4_11 
REMARK    4  A    between atoms: N4_11  and  C5_13 
REMARK    5  A    between atoms: C5_13  and  C6_14 
REMARK    6  A    between atoms: C6_14  and  N5_15 
ROOT
HETATM    1  C3  UNL     1      26.378 -10.386  -3.585  1.00  0.00     0.707 A 
HETATM    2  N2  UNL     1      25.618 -10.527  -2.484  1.00  0.00    -0.117 N 
ATOM      3  H2  UNL     1      25.600  -9.883  -1.693  1.00  0.00     0.206 HD
HETATM    4  N3  UNL     1      24.907 -11.619  -2.586  1.00  0.00    -0.117 N 
ATOM      5  H3  UNL     1      24.247 -11.960  -1.887  1.00  0.00     0.206 HD
HETATM    6  C4  UNL     1      25.183 -12.221  -3.756  1.00  0.00     0.707 A 
HETATM    7  N6  UNL     1      26.097 -11.441  -4.364  1.00  0.00    -0.020 N 
ATOM      8  H6  UNL     1      26.513 -11.625  -5.277  1.00  0.00     0.203 HD
ENDROOT
BRANCH   6   9
HETATM    9  N4  UNL     1      24.665 -13.334  -4.204  1.00  0.00    -0.223 N 
ATOM     10  H4  UNL     1      23.731 -13.624  -3.914  1.00  0.00     0.177 HD
BRANCH   9  11
HETATM   11  C5  UNL     1      25.426 -14.138  -5.108  1.00  0.00     0.165 C 
BRANCH  11  12
HETATM   12  C6  UNL     1      25.097 -15.613  -4.985  1.00  0.00     0.249 C 
BRANCH  12  13
HETATM   13  N5  UNL     1      23.789 -15.700  -4.344  1.00  0.00    -0.078 N 
ATOM     14  H53 UNL     1      23.813 -15.475  -3.349  1.00  0.00     0.274 HD
ATOM     15  H52 UNL     1      23.152 -14.955  -4.629  1.00  0.00     0.274 HD
ATOM     16  H51 UNL     1      23.430 -16.634  -4.538  1.00  0.00     0.274 HD
ENDBRANCH  12  13
ENDBRANCH  11  12
ENDBRANCH   9  11
ENDBRANCH   6   9
BRANCH   1  17
HETATM   17  N1  UNL     1      27.206  -9.420  -3.828  1.00  0.00    -0.225 N 
ATOM     18  H1  UNL     1      26.917  -8.450  -3.700  1.00  0.00     0.177 HD
BRANCH  17  19
HETATM   19  C2  UNL     1      28.546  -9.728  -4.283  1.00  0.00     0.134 C 
HETATM   20  C1  UNL     1      28.927  -8.716  -5.343  1.00  0.00     0.027 C 
ENDBRANCH  17  19
ENDBRANCH   1  17
TORSDOF 6
ENDMDL
MODEL 3
REMARK VINA RESULT: -5.596213105      0.927      5.253
REMARK  6 active torsions:
REMARK  status: ('A' for Active; 'I' for Inactive)
REMARK    1  A    between atoms: C2_2  and  N1_3 
REMARK    2  A    between atoms: N1_3  and  C3_5 
REMARK    3  A    between atoms: C4_10  and  N4_11 
REMARK    4  A    between atoms: N4_11  and  C5_13 
REMARK    5  A    between atoms: C5_13  and  C6_14 
REMARK    6  A    between atoms: C6_14  and  N5_15 
ROOT
HETATM    1  C3  UNL     1      25.241 -12.115  -3.737  1.00  0.00     0.707 A 
HETATM    2  N2  UNL     1      25.104 -11.528  -2.533  1.00  0.00    -0.117 N 
ATOM      3  H2  UNL     1      24.561 -11.901  -1.754  1.00  0.00     0.206 HD
HETATM    4  N3  UNL     1      25.775 -10.407  -2.519  1.00  0.00    -0.117 N 
ATOM      5  H3  UNL     1      25.838  -9.767  -1.727  1.00  0.00     0.206 HD
HETATM    6  C4  UNL     1      26.368 -10.230  -3.712  1.00  0.00     0.707 A 
HETATM    7  N6  UNL     1      26.027 -11.299  -4.455  1.00  0.00    -0.020 N 
ATOM      8  H6  UNL     1      26.322 -11.465  -5.417  1.00  0.00     0.203 HD
ENDROOT
BRANCH   6   9
HETATM    9  N4  UNL     1      27.121  -9.222  -4.069  1.00  0.00    -0.223 N 
ATOM     10  H4  UNL     1      27.826  -8.851  -3.432  1.00  0.00     0.177 HD
BRANCH   9  11
HETATM   11  C5  UNL     1      26.943  -8.649  -5.365  1.00  0.00     0.165 C 
BRANCH  11  12
HETATM   12  C6  UNL     1      25.733  -7.738  -5.432  1.00  0.00     0.249 C 
BRANCH  12  13
HETATM   13  N5  UNL     1      26.189  -6.405  -5.054  1.00  0.00    -0.078 N 
ATOM     14  H53 UNL     1      25.493  -5.679  -5.223  1.00  0.00     0.274 HD
ATOM     15  H52 UNL     1      26.266  -6.278  -4.045  1.00  0.00     0.274 HD
ATOM     16  H51 UNL     1      27.066  -6.244  -5.548  1.00  0.00     0.274 HD
ENDBRANCH  12  13
ENDBRANCH  11  12
ENDBRANCH   9  11
ENDBRANCH   6   9
BRANCH   1  17
HETATM   17  N1  UNL     1      24.715 -13.239  -4.108  1.00  0.00    -0.225 N 
ATOM     18  H1  UNL     1      23.823 -13.542  -3.718  1.00  0.00     0.177 HD
BRANCH  17  19
HETATM   19  C2  UNL     1      25.404 -14.059  -5.082  1.00  0.00     0.134 C 
HETATM   20  C1  UNL     1      24.992 -15.499  -4.859  1.00  0.00     0.027 C 
ENDBRANCH  17  19
ENDBRANCH   1  17
TORSDOF 6
ENDMDL
MODEL 4
REMARK VINA RESULT: -5.579744199      0.988      1.154
REMARK  6 active torsions:
REMARK  status: ('A' for Active; 'I' for Inactive)
REMARK    1  A    between atoms: C2_2  and  N1_3 
REMARK    2  A    between atoms: N1_3  and  C3_5 
REMARK    3  A    between atoms: C4_10  and  N4_11 
REMARK    4  A    between atoms: N4_11  and  C5_13 
REMARK    5  A    between atoms: C5_13  and  C6_14 
REMARK    6  A    between atoms: C6_14  and  N5_15 
ROOT
HETATM    1  C3  UNL     1      24.896 -10.118  -4.070  1.00  0.00     0.707 A 
HETATM    2  N2  UNL     1      25.321 -10.647  -2.908  1.00  0.00    -0.117 N 
ATOM      3  H2  UNL     1      25.694 -10.117  -2.120  1.00  0.00     0.206 HD
HETATM    4  N3  UNL     1      25.181 -11.945  -2.947  1.00  0.00    -0.117 N 
ATOM      5  H3  UNL     1      25.427 -12.588  -2.193  1.00  0.00     0.206 HD
HETATM    6  C4  UNL     1      24.661 -12.301  -4.135  1.00  0.00     0.707 A 
HETATM    7  N6  UNL     1      24.490 -11.154  -4.818  1.00  0.00    -0.020 N 
ATOM      8  H6  UNL     1      24.109 -11.083  -5.762  1.00  0.00     0.203 HD
ENDROOT
BRANCH   6   9
HETATM    9  N4  UNL     1      24.382 -13.514  -4.535  1.00  0.00    -0.223 N 
ATOM     10  H4  UNL     1      23.426 -13.867  -4.490  1.00  0.00     0.177 HD
BRANCH   9  11
HETATM   11  C5  UNL     1      25.436 -14.338  -5.035  1.00  0.00     0.165 C 
BRANCH  11  12
HETATM   12  C6  UNL     1      25.068 -15.808  -5.038  1.00  0.00     0.249 C 
BRANCH  12  13
HETATM   13  N5  UNL     1      23.790 -15.922  -4.344  1.00  0.00    -0.078 N 
ATOM     14  H53 UNL     1      23.887 -15.992  -3.331  1.00  0.00     0.274 HD
ATOM     15  H52 UNL     1      23.244 -15.060  -4.362  1.00  0.00     0.274 HD
ATOM     16  H51 UNL     1      23.302 -16.716  -4.757  1.00  0.00     0.274 HD
ENDBRANCH  12  13
ENDBRANCH  11  12
ENDBRANCH   9  11
ENDBRANCH   6   9
BRANCH   1  17
HETATM   17  N1  UNL     1      24.887  -8.861  -4.384  1.00  0.00    -0.225 N 
ATOM     18  H1  UNL     1      24.400  -8.187  -3.794  1.00  0.00     0.177 HD
BRANCH  17  19
HETATM   19  C2  UNL     1      25.575  -8.422  -5.580  1.00  0.00     0.134 C 
HETATM   20  C1  UNL     1      27.063  -8.578  -5.350  1.00  0.00     0.027 C 
ENDBRANCH  17  19
ENDBRANCH   1  17
TORSDOF 6
ENDMDL
MODEL 5
REMARK VINA RESULT: -5.570430573      1.403      1.646
REMARK  6 active torsions:
REMARK  status: ('A' for Active; 'I' for Inactive)
REMARK    1  A    between atoms: C2_2  and  N1_3 
REMARK    2  A    between atoms: N1_3  and  C3_5 
REMARK    3  A    between atoms: C4_10  and  N4_11 
REMARK    4  A    between atoms: N4_11  and  C5_13 
REMARK    5  A    between atoms: C5_13  and  C6_14 
REMARK    6  A    between atoms: C6_14  and  N5_15 
ROOT
HETATM    1  C3  UNL     1      27.694 -10.020  -3.340  1.00  0.00     0.707 A 
HETATM    2  N2  UNL     1      27.336 -10.068  -2.044  1.00  0.00    -0.117 N 
ATOM      3  H2  UNL     1      27.808  -9.580  -1.283  1.00  0.00     0.206 HD
HETATM    4  N3  UNL     1      26.289 -10.839  -1.913  1.00  0.00    -0.117 N 
ATOM      5  H3  UNL     1      25.815 -11.046  -1.033  1.00  0.00     0.206 HD
HETATM    6  C4  UNL     1      25.934 -11.316  -3.119  1.00  0.00     0.707 A 
HETATM    7  N6  UNL     1      26.817 -10.796  -3.993  1.00  0.00    -0.020 N 
ATOM      8  H6  UNL     1      26.818 -10.967  -4.999  1.00  0.00     0.203 HD
ENDROOT
BRANCH   6   9
HETATM    9  N4  UNL     1      24.936 -12.118  -3.380  1.00  0.00    -0.223 N 
ATOM     10  H4  UNL     1      24.296 -12.406  -2.640  1.00  0.00     0.177 HD
BRANCH   9  11
HETATM   11  C5  UNL     1      24.754 -12.586  -4.718  1.00  0.00     0.165 C 
BRANCH  11  12
HETATM   12  C6  UNL     1      25.213 -14.019  -4.896  1.00  0.00     0.249 C 
BRANCH  12  13
HETATM   13  N5  UNL     1      24.109 -14.870  -4.466  1.00  0.00    -0.078 N 
ATOM     14  H53 UNL     1      23.356 -14.929  -5.153  1.00  0.00     0.274 HD
ATOM     15  H52 UNL     1      24.348 -15.862  -4.450  1.00  0.00     0.274 HD
ATOM     16  H51 UNL     1      23.800 -14.516  -3.561  1.00  0.00     0.274 HD
ENDBRANCH  12  13
ENDBRANCH  11  12
ENDBRANCH   9  11
ENDBRANCH   6   9
BRANCH   1  17
HETATM   17  N1  UNL     1      28.686  -9.353  -3.838  1.00  0.00    -0.225 N 
ATOM     18  H1  UNL     1      29.364  -8.903  -3.223  1.00  0.00     0.177 HD
BRANCH  17  19
HETATM   19  C2  UNL     1      28.825  -9.252  -5.276  1.00  0.00     0.134 C 
HETATM   20  C1  UNL     1      28.298  -7.899  -5.706  1.00  0.00     0.027 C 
ENDBRANCH  17  19
ENDBRANCH   1  17
TORSDOF 6
ENDMDL
