MODEL 1
REMARK VINA RESULT: -6.245143272      0.000      0.000
REMARK  7 active torsions:
REMARK  status: ('A' for Active; 'I' for Inactive)
REMARK    1  A    between atoms: N1_1  and  C1_4 
REMARK    2  A    between atoms: N3_8  and  C3_9 
REMARK    3  A    between atoms: C3_9  and  C4_10 
REMARK    4  A    between atoms: C4_10  and  C5_11 
REMARK    5  A    between atoms: C4_10  and  C6_16 
REMARK    6  A    between atoms: C5_11  and  N4_12 
REMARK    7  A    between atoms: C6_16  and  N5_17 
ROOT
HETATM    1  C3  UNL     1      25.254 -11.656  -4.816  1.00  0.00     0.158 C 
ENDROOT
BRANCH   1   2
HETATM    2  N3  UNL     1      25.183 -13.085  -4.964  1.00  0.00    -0.273 N 
HETATM    3  C2  UNL     1      25.987 -13.915  -5.676  1.00  0.00     0.218 A 
HETATM    4  N2  UNL     1      25.578 -15.188  -5.552  1.00  0.00    -0.185 N 
HETATM    5  C1  UNL     1      24.499 -15.180  -4.751  1.00  0.00     0.691 A 
ATOM      6  H2  UNL     1      26.006 -16.008  -5.984  1.00  0.00     0.185 HD
HETATM    7  N6  UNL     1      24.278 -13.908  -4.410  1.00  0.00    -0.129 N 
ATOM      8  H6  UNL     1      23.517 -13.600  -3.804  1.00  0.00     0.206 HD
BRANCH   5   9
HETATM    9  N1  UNL     1      23.801 -16.228  -4.381  1.00  0.00    -0.233 N 
ATOM     10  H12 UNL     1      24.166 -17.112  -4.025  1.00  0.00     0.174 HD
ATOM     11  H11 UNL     1      22.785 -16.309  -4.395  1.00  0.00     0.174 HD
ENDBRANCH   5   9
ENDBRANCH   1   2
BRANCH   1  12
HETATM   12  C4  UNL     1      25.867 -11.109  -3.594  1.00  0.00     0.056 C 
BRANCH  12  13
HETATM   13  C5  UNL     1      24.777 -10.441  -2.732  1.00  0.00     0.237 C 
BRANCH  13  14
HETATM   14  N4  UNL     1      24.418 -11.230  -1.595  1.00  0.00    -0.079 N 
ATOM     15  H43 UNL     1      24.864 -12.146  -1.629  1.00  0.00     0.274 HD
ATOM     16  H42 UNL     1      24.850 -10.868  -0.746  1.00  0.00     0.274 HD
ATOM     17  H41 UNL     1      23.408 -11.317  -1.484  1.00  0.00     0.274 HD
ENDBRANCH  13  14
ENDBRANCH  12  13
BRANCH  12  18
HETATM   18  C6  UNL     1      26.954 -10.098  -3.728  1.00  0.00     0.237 C 
BRANCH  18  19
HETATM   19  N5  UNL     1      27.756  -9.904  -2.572  1.00  0.00    -0.079 N 
ATOM     20  H53 UNL     1      27.767  -8.917  -2.317  1.00  0.00     0.274 HD
ATOM     21  H52 UNL     1      27.291 -10.298  -1.755  1.00  0.00     0.274 HD
ATOM     22  H51 UNL     1      28.711 -10.259  -2.634  1.00  0.00     0.274 HD
ENDBRANCH  18  19
ENDBRANCH  12  18
ENDBRANCH   1  12
TORSDOF 7
ENDMDL
MODEL 2
REMARK VINA RESULT: -6.111048628      1.559      2.028
REMARK  7 active torsions:
REMARK  status: ('A' for Active; 'I' for Inactive)
REMARK    1  A    between atoms: N1_1  and  C1_4 
REMARK    2  A    between atoms: N3_8  and  C3_9 
REMARK    3  A    between atoms: C3_9  and  C4_10 
REMARK    4  A    between atoms: C4_10  and  C5_11 
REMARK    5  A    between atoms: C4_10  and  C6_16 
REMARK    6  A    between atoms: C5_11  and  N4_12 
REMARK    7  A    between atoms: C6_16  and  N5_17 
ROOT
HETATM    1  C3  UNL     1      24.688 -11.041  -5.191  1.00  0.00     0.158 C 
ENDROOT
BRANCH   1   2
HETATM    2  N3  UNL     1      25.014 -12.442  -5.209  1.00  0.00    -0.273 N 
HETATM    3  C2  UNL     1      25.978 -13.090  -5.911  1.00  0.00     0.218 A 
HETATM    4  N2  UNL     1      25.951 -14.406  -5.644  1.00  0.00    -0.185 N 
HETATM    5  C1  UNL     1      24.959 -14.610  -4.762  1.00  0.00     0.691 A 
ATOM      6  H2  UNL     1      26.568 -15.117  -6.038  1.00  0.00     0.185 HD
HETATM    7  N6  UNL     1      24.408 -13.419  -4.514  1.00  0.00    -0.129 N 
ATOM      8  H6  UNL     1      23.626 -13.269  -3.877  1.00  0.00     0.206 HD
BRANCH   5   9
HETATM    9  N1  UNL     1      24.605 -15.764  -4.248  1.00  0.00    -0.233 N 
ATOM     10  H12 UNL     1      25.201 -16.417  -3.738  1.00  0.00     0.174 HD
ATOM     11  H11 UNL     1      23.673 -16.178  -4.282  1.00  0.00     0.174 HD
ENDBRANCH   5   9
ENDBRANCH   1   2
BRANCH   1  12
HETATM   12  C4  UNL     1      24.107 -10.475  -3.962  1.00  0.00     0.056 C 
BRANCH  12  13
HETATM   13  C5  UNL     1      23.682  -9.016  -4.224  1.00  0.00     0.237 C 
BRANCH  13  14
HETATM   14  N4  UNL     1      22.262  -8.849  -4.216  1.00  0.00    -0.079 N 
ATOM     15  H43 UNL     1      21.843  -9.236  -5.062  1.00  0.00     0.274 HD
ATOM     16  H42 UNL     1      21.825  -9.458  -3.524  1.00  0.00     0.274 HD
ATOM     17  H41 UNL     1      21.983  -7.878  -4.079  1.00  0.00     0.274 HD
ENDBRANCH  13  14
ENDBRANCH  12  13
BRANCH  12  18
HETATM   18  C6  UNL     1      24.940 -10.438  -2.726  1.00  0.00     0.237 C 
BRANCH  18  19
HETATM   19  N5  UNL     1      24.475 -11.238  -1.649  1.00  0.00    -0.079 N 
ATOM     20  H53 UNL     1      23.628 -11.734  -1.925  1.00  0.00     0.274 HD
ATOM     21  H52 UNL     1      25.106 -12.025  -1.501  1.00  0.00     0.274 HD
ATOM     22  H51 UNL     1      24.320 -10.746  -0.770  1.00  0.00     0.274 HD
ENDBRANCH  18  19
ENDBRANCH  12  18
ENDBRANCH   1  12
TORSDOF 7
ENDMDL
MODEL 3
REMARK VINA RESULT: -6.109660167      0.705      1.929
REMARK  7 active torsions:
REMARK  status: ('A' for Active; 'I' for Inactive)
REMARK    1  A    between atoms: N1_1  and  C1_4 
REMARK    2  A    between atoms: N3_8  and  C3_9 
REMARK    3  A    between atoms: C3_9  and  C4_10 
REMARK    4  A    between atoms: C4_10  and  C5_11 
REMARK    5  A    between atoms: C4_10  and  C6_16 
REMARK    6  A    between atoms: C5_11  and  N4_12 
REMARK    7  A    between atoms: C6_16  and  N5_17 
ROOT
HETATM    1  C3  UNL     1      24.927 -11.022  -4.811  1.00  0.00     0.158 C 
ENDROOT
BRANCH   1   2
HETATM    2  N3  UNL     1      25.143 -12.432  -5.003  1.00  0.00    -0.273 N 
HETATM    3  C2  UNL     1      26.051 -13.061  -5.791  1.00  0.00     0.218 A 
HETATM    4  N2  UNL     1      25.924 -14.394  -5.685  1.00  0.00    -0.185 N 
HETATM    5  C1  UNL     1      24.922 -14.627  -4.820  1.00  0.00     0.691 A 
ATOM      6  H2  UNL     1      26.482 -15.097  -6.170  1.00  0.00     0.185 HD
HETATM    7  N6  UNL     1      24.467 -13.436  -4.423  1.00  0.00    -0.129 N 
ATOM      8  H6  UNL     1      23.701 -13.306  -3.762  1.00  0.00     0.206 HD
BRANCH   5   9
HETATM    9  N1  UNL     1      24.482 -15.805  -4.444  1.00  0.00    -0.233 N 
ATOM     10  H12 UNL     1      24.867 -16.714  -4.702  1.00  0.00     0.174 HD
ATOM     11  H11 UNL     1      23.684 -15.982  -3.834  1.00  0.00     0.174 HD
ENDBRANCH   5   9
ENDBRANCH   1   2
BRANCH   1  12
HETATM   12  C4  UNL     1      25.542 -10.374  -3.641  1.00  0.00     0.056 C 
BRANCH  12  13
HETATM   13  C5  UNL     1      26.994  -9.981  -3.981  1.00  0.00     0.237 C 
BRANCH  13  14
HETATM   14  N4  UNL     1      27.822  -9.886  -2.819  1.00  0.00    -0.079 N 
ATOM     15  H43 UNL     1      28.249  -8.963  -2.748  1.00  0.00     0.274 HD
ATOM     16  H42 UNL     1      27.261  -9.873  -1.968  1.00  0.00     0.274 HD
ATOM     17  H41 UNL     1      28.528 -10.621  -2.781  1.00  0.00     0.274 HD
ENDBRANCH  13  14
ENDBRANCH  12  13
BRANCH  12  18
HETATM   18  C6  UNL     1      25.617 -11.131  -2.358  1.00  0.00     0.237 C 
BRANCH  18  19
HETATM   19  N5  UNL     1      24.403 -11.218  -1.627  1.00  0.00    -0.079 N 
ATOM     20  H53 UNL     1      24.482 -10.694  -0.756  1.00  0.00     0.274 HD
ATOM     21  H52 UNL     1      23.674 -10.681  -2.096  1.00  0.00     0.274 HD
ATOM     22  H51 UNL     1      24.071 -12.163  -1.436  1.00  0.00     0.274 HD
ENDBRANCH  18  19
ENDBRANCH  12  18
ENDBRANCH   1  12
TORSDOF 7
ENDMDL
MODEL 4
REMARK VINA RESULT: -6.056129740      1.212      1.212
REMARK  7 active torsions:
REMARK  status: ('A' for Active; 'I' for Inactive)
REMARK    1  A    between atoms: N1_1  and  C1_4 
REMARK    2  A    between atoms: N3_8  and  C3_9 
REMARK    3  A    between atoms: C3_9  and  C4_10 
REMARK    4  A    between atoms: C4_10  and  C5_11 
REMARK    5  A    between atoms: C4_10  and  C6_16 
REMARK    6  A    between atoms: C5_11  and  N4_12 
REMARK    7  A    between atoms: C6_16  and  N5_17 
ROOT
HETATM    1  C3  UNL     1      24.417 -11.975  -4.582  1.00  0.00     0.158 C 
ENDROOT
BRANCH   1   2
HETATM    2  N3  UNL     1      24.755 -13.346  -4.856  1.00  0.00    -0.273 N 
HETATM    3  C2  UNL     1      25.821 -13.849  -5.529  1.00  0.00     0.218 A 
HETATM    4  N2  UNL     1      25.767 -15.191  -5.564  1.00  0.00    -0.185 N 
HETATM    5  C1  UNL     1      24.653 -15.557  -4.908  1.00  0.00     0.691 A 
ATOM      6  H2  UNL     1      26.443 -15.814  -6.006  1.00  0.00     0.185 HD
HETATM    7  N6  UNL     1      24.060 -14.436  -4.491  1.00  0.00    -0.129 N 
ATOM      8  H6  UNL     1      23.188 -14.409  -3.962  1.00  0.00     0.206 HD
BRANCH   5   9
HETATM    9  N1  UNL     1      24.236 -16.787  -4.717  1.00  0.00    -0.233 N 
ATOM     10  H12 UNL     1      24.552 -17.436  -3.997  1.00  0.00     0.174 HD
ATOM     11  H11 UNL     1      23.528 -17.274  -5.267  1.00  0.00     0.174 HD
ENDBRANCH   5   9
ENDBRANCH   1   2
BRANCH   1  12
HETATM   12  C4  UNL     1      25.418 -11.130  -3.908  1.00  0.00     0.056 C 
BRANCH  12  13
HETATM   13  C5  UNL     1      24.858 -10.662  -2.551  1.00  0.00     0.237 C 
BRANCH  13  14
HETATM   14  N4  UNL     1      25.148 -11.578  -1.492  1.00  0.00    -0.079 N 
ATOM     15  H43 UNL     1      25.426 -12.487  -1.861  1.00  0.00     0.274 HD
ATOM     16  H42 UNL     1      26.012 -11.324  -1.013  1.00  0.00     0.274 HD
ATOM     17  H41 UNL     1      24.376 -11.669  -0.832  1.00  0.00     0.274 HD
ENDBRANCH  13  14
ENDBRANCH  12  13
BRANCH  12  18
HETATM   18  C6  UNL     1      25.896  -9.897  -4.597  1.00  0.00     0.237 C 
BRANCH  18  19
HETATM   19  N5  UNL     1      25.044  -8.766  -4.489  1.00  0.00    -0.079 N 
ATOM     20  H53 UNL     1      25.010  -8.271  -5.380  1.00  0.00     0.274 HD
ATOM     21  H52 UNL     1      24.073  -9.067  -4.411  1.00  0.00     0.274 HD
ATOM     22  H51 UNL     1      25.269  -8.116  -3.737  1.00  0.00     0.274 HD
ENDBRANCH  18  19
ENDBRANCH  12  18
ENDBRANCH   1  12
TORSDOF 7
ENDMDL
MODEL 5
REMARK VINA RESULT: -6.020416793      0.831      1.255
REMARK  7 active torsions:
REMARK  status: ('A' for Active; 'I' for Inactive)
REMARK    1  A    between atoms: N1_1  and  C1_4 
REMARK    2  A    between atoms: N3_8  and  C3_9 
REMARK    3  A    between atoms: C3_9  and  C4_10 
REMARK    4  A    between atoms: C4_10  and  C5_11 
REMARK    5  A    between atoms: C4_10  and  C6_16 
REMARK    6  A    between atoms: C5_11  and  N4_12 
REMARK    7  A    between atoms: C6_16  and  N5_17 
ROOT
HETATM    1  C3  UNL     1      25.646 -11.940  -4.884  1.00  0.00     0.158 C 
ENDROOT
BRANCH   1   2
HETATM    2  N3  UNL     1      25.238 -13.320  -4.883  1.00  0.00    -0.273 N 
HETATM    3  C2  UNL     1      24.146 -13.892  -4.315  1.00  0.00     0.218 A 
HETATM    4  N2  UNL     1      24.133 -15.215  -4.546  1.00  0.00    -0.185 N 
HETATM    5  C1  UNL     1      25.229 -15.500  -5.269  1.00  0.00     0.691 A 
ATOM      6  H2  UNL     1      23.425 -15.879  -4.231  1.00  0.00     0.185 HD
HETATM    7  N6  UNL     1      25.879 -14.349  -5.460  1.00  0.00    -0.129 N 
ATOM      8  H6  UNL     1      26.753 -14.263  -5.979  1.00  0.00     0.206 HD
BRANCH   5   9
HETATM    9  N1  UNL     1      25.585 -16.687  -5.701  1.00  0.00    -0.233 N 
ATOM     10  H12 UNL     1      26.053 -16.903  -6.582  1.00  0.00     0.174 HD
ATOM     11  H11 UNL     1      25.444 -17.572  -5.214  1.00  0.00     0.174 HD
ENDBRANCH   5   9
ENDBRANCH   1   2
BRANCH   1  12
HETATM   12  C4  UNL     1      25.993 -11.314  -3.597  1.00  0.00     0.056 C 
BRANCH  12  13
HETATM   13  C5  UNL     1      24.735 -10.658  -2.994  1.00  0.00     0.237 C 
BRANCH  13  14
HETATM   14  N4  UNL     1      24.381 -11.215  -1.725  1.00  0.00    -0.079 N 
ATOM     15  H43 UNL     1      23.777 -10.581  -1.203  1.00  0.00     0.274 HD
ATOM     16  H42 UNL     1      23.739 -12.000  -1.835  1.00  0.00     0.274 HD
ATOM     17  H41 UNL     1      25.197 -11.483  -1.175  1.00  0.00     0.274 HD
ENDBRANCH  13  14
ENDBRANCH  12  13
BRANCH  12  18
HETATM   18  C6  UNL     1      27.049 -10.262  -3.573  1.00  0.00     0.237 C 
BRANCH  18  19
HETATM   19  N5  UNL     1      27.577  -9.953  -2.292  1.00  0.00    -0.079 N 
ATOM     20  H53 UNL     1      28.406  -9.366  -2.389  1.00  0.00     0.274 HD
ATOM     21  H52 UNL     1      26.956  -9.308  -1.805  1.00  0.00     0.274 HD
ATOM     22  H51 UNL     1      27.785 -10.754  -1.697  1.00  0.00     0.274 HD
ENDBRANCH  18  19
ENDBRANCH  12  18
ENDBRANCH   1  12
TORSDOF 7
ENDMDL
