MODEL 1
REMARK VINA RESULT: -6.382807932      0.000      0.000
REMARK  6 active torsions:
REMARK  status: ('A' for Active; 'I' for Inactive)
REMARK    1  A    between atoms: N1_1  and  C1_4 
REMARK    2  A    between atoms: N2_6  and  C3_7 
REMARK    3  A    between atoms: C3_7  and  C4_8 
REMARK    4  A    between atoms: C4_8  and  C5_9 
REMARK    5  A    between atoms: C5_9  and  N3_10 
REMARK    6  A    between atoms: C6_16  and  N5_17 
ROOT
HETATM    1  C1  UNL     1      26.382 -10.091  -4.161  1.00  0.00     0.132 A 
HETATM    2  C2  UNL     1      26.415 -11.242  -4.928  1.00  0.00     0.159 A 
HETATM    3  N2  UNL     1      25.732 -12.336  -4.543  1.00  0.00    -0.285 N 
HETATM    4  N4  UNL     1      25.032 -12.288  -3.422  1.00  0.00    -0.131 N 
ATOM      5  H4  UNL     1      24.514 -13.117  -3.130  1.00  0.00     0.206 HD
HETATM    6  C6  UNL     1      24.978 -11.185  -2.652  1.00  0.00     0.692 A 
HETATM    7  N6  UNL     1      25.656 -10.087  -3.028  1.00  0.00    -0.175 N 
ATOM      8  H6  UNL     1      25.620  -9.246  -2.451  1.00  0.00     0.186 HD
ENDROOT
BRANCH   3   9
HETATM    9  C3  UNL     1      25.798 -13.523  -5.382  1.00  0.00     0.150 C 
BRANCH   9  10
HETATM   10  C4  UNL     1      24.833 -14.575  -4.871  1.00  0.00     0.049 C 
BRANCH  10  11
HETATM   11  C5  UNL     1      25.318 -15.928  -5.282  1.00  0.00     0.231 C 
BRANCH  11  12
HETATM   12  N3  UNL     1      24.369 -16.975  -4.964  1.00  0.00    -0.079 N 
ATOM     13  H33 UNL     1      23.708 -16.668  -4.250  1.00  0.00     0.274 HD
ATOM     14  H32 UNL     1      23.717 -17.128  -5.734  1.00  0.00     0.274 HD
ATOM     15  H31 UNL     1      24.827 -17.845  -4.691  1.00  0.00     0.274 HD
ENDBRANCH  11  12
ENDBRANCH  10  11
ENDBRANCH   9  10
ENDBRANCH   3   9
BRANCH   1  16
HETATM   16  N1  UNL     1      27.027  -9.028  -4.508  1.00  0.00    -0.384 N 
ATOM     17  H12 UNL     1      28.044  -9.060  -4.592  1.00  0.00     0.157 HD
ATOM     18  H11 UNL     1      26.546  -8.149  -4.700  1.00  0.00     0.157 HD
ENDBRANCH   1  16
BRANCH   6  19
HETATM   19  N5  UNL     1      24.278 -11.158  -1.544  1.00  0.00    -0.233 N 
ATOM     20  H52 UNL     1      23.369 -11.621  -1.517  1.00  0.00     0.174 HD
ATOM     21  H51 UNL     1      24.621 -10.684  -0.708  1.00  0.00     0.174 HD
ENDBRANCH   6  19
TORSDOF 6
ENDMDL
MODEL 2
REMARK VINA RESULT: -6.050271197      0.600      2.299
REMARK  6 active torsions:
REMARK  status: ('A' for Active; 'I' for Inactive)
REMARK    1  A    between atoms: N1_1  and  C1_4 
REMARK    2  A    between atoms: N2_6  and  C3_7 
REMARK    3  A    between atoms: C3_7  and  C4_8 
REMARK    4  A    between atoms: C4_8  and  C5_9 
REMARK    5  A    between atoms: C5_9  and  N3_10 
REMARK    6  A    between atoms: C6_16  and  N5_17 
ROOT
HETATM    1  C1  UNL     1      25.038 -11.076  -2.712  1.00  0.00     0.132 A 
HETATM    2  C2  UNL     1      25.083 -12.208  -3.508  1.00  0.00     0.159 A 
HETATM    3  N2  UNL     1      25.826 -12.221  -4.630  1.00  0.00    -0.285 N 
HETATM    4  N4  UNL     1      26.508 -11.136  -4.955  1.00  0.00    -0.131 N 
ATOM      5  H4  UNL     1      27.072 -11.146  -5.805  1.00  0.00     0.206 HD
HETATM    6  C6  UNL     1      26.487 -10.019  -4.205  1.00  0.00     0.692 A 
HETATM    7  N6  UNL     1      25.749  -9.995  -3.081  1.00  0.00    -0.175 N 
ATOM      8  H6  UNL     1      25.727  -9.153  -2.505  1.00  0.00     0.186 HD
ENDROOT
BRANCH   3   9
HETATM    9  C3  UNL     1      25.842 -13.434  -5.434  1.00  0.00     0.150 C 
BRANCH   9  10
HETATM   10  C4  UNL     1      24.886 -14.457  -4.851  1.00  0.00     0.049 C 
BRANCH  10  11
HETATM   11  C5  UNL     1      25.333 -15.827  -5.247  1.00  0.00     0.231 C 
BRANCH  11  12
HETATM   12  N3  UNL     1      24.340 -16.839  -4.946  1.00  0.00    -0.079 N 
ATOM     13  H33 UNL     1      23.576 -16.451  -4.394  1.00  0.00     0.274 HD
ATOM     14  H32 UNL     1      23.819 -17.103  -5.783  1.00  0.00     0.274 HD
ATOM     15  H31 UNL     1      24.745 -17.658  -4.491  1.00  0.00     0.274 HD
ENDBRANCH  11  12
ENDBRANCH  10  11
ENDBRANCH   9  10
ENDBRANCH   3   9
BRANCH   1  16
HETATM   16  N1  UNL     1      24.334 -11.038  -1.631  1.00  0.00    -0.384 N 
ATOM     17  H12 UNL     1      23.770 -10.213  -1.425  1.00  0.00     0.157 HD
ATOM     18  H11 UNL     1      24.327 -11.815  -0.970  1.00  0.00     0.157 HD
ENDBRANCH   1  16
BRANCH   6  19
HETATM   19  N5  UNL     1      27.171  -8.953  -4.544  1.00  0.00    -0.233 N 
ATOM     20  H52 UNL     1      26.672  -8.098  -4.788  1.00  0.00     0.174 HD
ATOM     21  H51 UNL     1      28.191  -8.960  -4.568  1.00  0.00     0.174 HD
ENDBRANCH   6  19
TORSDOF 6
ENDMDL
MODEL 3
REMARK VINA RESULT: -5.784479593      1.409      1.767
REMARK  6 active torsions:
REMARK  status: ('A' for Active; 'I' for Inactive)
REMARK    1  A    between atoms: N1_1  and  C1_4 
REMARK    2  A    between atoms: N2_6  and  C3_7 
REMARK    3  A    between atoms: C3_7  and  C4_8 
REMARK    4  A    between atoms: C4_8  and  C5_9 
REMARK    5  A    between atoms: C5_9  and  N3_10 
REMARK    6  A    between atoms: C6_16  and  N5_17 
ROOT
HETATM    1  C1  UNL     1      24.208 -10.121  -4.305  1.00  0.00     0.132 A 
HETATM    2  C2  UNL     1      24.380 -11.335  -4.946  1.00  0.00     0.159 A 
HETATM    3  N2  UNL     1      25.432 -12.120  -4.645  1.00  0.00    -0.285 N 
HETATM    4  N4  UNL     1      26.291 -11.709  -3.728  1.00  0.00    -0.131 N 
ATOM      5  H4  UNL     1      27.087 -12.305  -3.499  1.00  0.00     0.206 HD
HETATM    6  C6  UNL     1      26.154 -10.535  -3.085  1.00  0.00     0.692 A 
HETATM    7  N6  UNL     1      25.107  -9.744  -3.378  1.00  0.00    -0.175 N 
ATOM      8  H6  UNL     1      24.993  -8.852  -2.894  1.00  0.00     0.186 HD
ENDROOT
BRANCH   3   9
HETATM    9  C3  UNL     1      25.571 -13.388  -5.346  1.00  0.00     0.150 C 
BRANCH   9  10
HETATM   10  C4  UNL     1      24.734 -14.453  -4.665  1.00  0.00     0.049 C 
BRANCH  10  11
HETATM   11  C5  UNL     1      25.252 -15.803  -5.046  1.00  0.00     0.231 C 
BRANCH  11  12
HETATM   12  N3  UNL     1      24.233 -16.829  -4.961  1.00  0.00    -0.079 N 
ATOM     13  H33 UNL     1      24.491 -17.548  -4.285  1.00  0.00     0.274 HD
ATOM     14  H32 UNL     1      23.390 -16.474  -4.508  1.00  0.00     0.274 HD
ATOM     15  H31 UNL     1      24.017 -17.239  -5.870  1.00  0.00     0.274 HD
ENDBRANCH  11  12
ENDBRANCH  10  11
ENDBRANCH   9  10
ENDBRANCH   3   9
BRANCH   1  16
HETATM   16  N1  UNL     1      23.208  -9.350  -4.575  1.00  0.00    -0.384 N 
ATOM     17  H12 UNL     1      23.118  -8.949  -5.508  1.00  0.00     0.157 HD
ATOM     18  H11 UNL     1      22.501  -9.126  -3.874  1.00  0.00     0.157 HD
ENDBRANCH   1  16
BRANCH   6  19
HETATM   19  N5  UNL     1      27.016 -10.146  -2.178  1.00  0.00    -0.233 N 
ATOM     20  H52 UNL     1      28.014 -10.214  -2.378  1.00  0.00     0.174 HD
ATOM     21  H51 UNL     1      26.712  -9.776  -1.277  1.00  0.00     0.174 HD
ENDBRANCH   6  19
TORSDOF 6
ENDMDL
MODEL 4
REMARK VINA RESULT: -5.653439728      2.726      3.820
REMARK  6 active torsions:
REMARK  status: ('A' for Active; 'I' for Inactive)
REMARK    1  A    between atoms: N1_1  and  C1_4 
REMARK    2  A    between atoms: N2_6  and  C3_7 
REMARK    3  A    between atoms: C3_7  and  C4_8 
REMARK    4  A    between atoms: C4_8  and  C5_9 
REMARK    5  A    between atoms: C5_9  and  N3_10 
REMARK    6  A    between atoms: C6_16  and  N5_17 
ROOT
HETATM    1  C1  UNL     1      22.794  -8.777  -4.177  1.00  0.00     0.132 A 
HETATM    2  C2  UNL     1      23.632  -9.877  -4.239  1.00  0.00     0.159 A 
HETATM    3  N2  UNL     1      24.937  -9.722  -4.531  1.00  0.00    -0.285 N 
HETATM    4  N4  UNL     1      25.399  -8.503  -4.755  1.00  0.00    -0.131 N 
ATOM      5  H4  UNL     1      26.388  -8.385  -4.976  1.00  0.00     0.206 HD
HETATM    6  C6  UNL     1      24.613  -7.412  -4.703  1.00  0.00     0.692 A 
HETATM    7  N6  UNL     1      23.308  -7.555  -4.411  1.00  0.00    -0.175 N 
ATOM      8  H6  UNL     1      22.705  -6.734  -4.368  1.00  0.00     0.186 HD
ENDROOT
BRANCH   3   9
HETATM    9  C3  UNL     1      25.779 -10.908  -4.586  1.00  0.00     0.150 C 
BRANCH   9  10
HETATM   10  C4  UNL     1      24.981 -12.130  -4.173  1.00  0.00     0.049 C 
BRANCH  10  11
HETATM   11  C5  UNL     1      25.430 -13.304  -4.982  1.00  0.00     0.231 C 
BRANCH  11  12
HETATM   12  N3  UNL     1      24.818 -14.542  -4.543  1.00  0.00    -0.079 N 
ATOM     13  H33 UNL     1      24.888 -14.648  -3.531  1.00  0.00     0.274 HD
ATOM     14  H32 UNL     1      23.802 -14.503  -4.633  1.00  0.00     0.274 HD
ATOM     15  H31 UNL     1      25.199 -15.356  -5.026  1.00  0.00     0.274 HD
ENDBRANCH  11  12
ENDBRANCH  10  11
ENDBRANCH   9  10
ENDBRANCH   3   9
BRANCH   1  16
HETATM   16  N1  UNL     1      21.540  -8.898  -3.898  1.00  0.00    -0.384 N 
ATOM     17  H12 UNL     1      20.841  -8.617  -4.586  1.00  0.00     0.157 HD
ATOM     18  H11 UNL     1      21.224  -9.267  -3.001  1.00  0.00     0.157 HD
ENDBRANCH   1  16
BRANCH   6  19
HETATM   19  N5  UNL     1      25.091  -6.212  -4.928  1.00  0.00    -0.233 N 
ATOM     20  H52 UNL     1      25.238  -5.907  -5.890  1.00  0.00     0.174 HD
ATOM     21  H51 UNL     1      25.317  -5.577  -4.162  1.00  0.00     0.174 HD
ENDBRANCH   6  19
TORSDOF 6
ENDMDL
MODEL 5
REMARK VINA RESULT: -5.631686385      1.438      1.676
REMARK  6 active torsions:
REMARK  status: ('A' for Active; 'I' for Inactive)
REMARK    1  A    between atoms: N1_1  and  C1_4 
REMARK    2  A    between atoms: N2_6  and  C3_7 
REMARK    3  A    between atoms: C3_7  and  C4_8 
REMARK    4  A    between atoms: C4_8  and  C5_9 
REMARK    5  A    between atoms: C5_9  and  N3_10 
REMARK    6  A    between atoms: C6_16  and  N5_17 
ROOT
HETATM    1  C1  UNL     1      26.003 -10.483  -3.207  1.00  0.00     0.132 A 
HETATM    2  C2  UNL     1      26.174 -11.697  -3.848  1.00  0.00     0.159 A 
HETATM    3  N2  UNL     1      25.276 -12.118  -4.759  1.00  0.00    -0.285 N 
HETATM    4  N4  UNL     1      24.234 -11.350  -5.027  1.00  0.00    -0.131 N 
ATOM      5  H4  UNL     1      23.553 -11.669  -5.717  1.00  0.00     0.206 HD
HETATM    6  C6  UNL     1      24.036 -10.164  -4.422  1.00  0.00     0.692 A 
HETATM    7  N6  UNL     1      24.927  -9.735  -3.511  1.00  0.00    -0.175 N 
ATOM      8  H6  UNL     1      24.786  -8.836  -3.049  1.00  0.00     0.186 HD
ENDROOT
BRANCH   3   9
HETATM    9  C3  UNL     1      25.499 -13.402  -5.407  1.00  0.00     0.150 C 
BRANCH   9  10
HETATM   10  C4  UNL     1      24.726 -14.489  -4.685  1.00  0.00     0.049 C 
BRANCH  10  11
HETATM   11  C5  UNL     1      25.274 -15.824  -5.077  1.00  0.00     0.231 C 
BRANCH  11  12
HETATM   12  N3  UNL     1      24.288 -16.879  -4.967  1.00  0.00    -0.079 N 
ATOM     13  H33 UNL     1      24.281 -17.280  -4.029  1.00  0.00     0.274 HD
ATOM     14  H32 UNL     1      23.340 -16.500  -4.989  1.00  0.00     0.274 HD
ATOM     15  H31 UNL     1      24.411 -17.602  -5.677  1.00  0.00     0.274 HD
ENDBRANCH  11  12
ENDBRANCH  10  11
ENDBRANCH   9  10
ENDBRANCH   3   9
BRANCH   1  16
HETATM   16  N1  UNL     1      26.849 -10.056  -2.330  1.00  0.00    -0.384 N 
ATOM     17  H12 UNL     1      27.847 -10.204  -2.479  1.00  0.00     0.157 HD
ATOM     18  H11 UNL     1      26.544  -9.573  -1.484  1.00  0.00     0.157 HD
ENDBRANCH   1  16
BRANCH   6  19
HETATM   19  N5  UNL     1      22.996  -9.418  -4.702  1.00  0.00    -0.233 N 
ATOM     20  H52 UNL     1      22.059  -9.787  -4.539  1.00  0.00     0.174 HD
ATOM     21  H51 UNL     1      23.102  -8.476  -5.079  1.00  0.00     0.174 HD
ENDBRANCH   6  19
TORSDOF 6
ENDMDL
