MODEL 1
REMARK VINA RESULT: -6.263434680      0.000      0.000
REMARK  3 active torsions:
REMARK  status: ('A' for Active; 'I' for Inactive)
REMARK    1  A    between atoms: N1_2  and  C2_5 
REMARK    2  A    between atoms: C4_10  and  N3_11 
REMARK       I    between atoms: N3_11  and  C5_13 
REMARK       I    between atoms: C5_13  and  N5_17 
REMARK    3  A    between atoms: N5_17  and  C6_19 
ROOT
HETATM    1  C2  UNL     1      24.887 -10.373  -3.679  1.00  0.00     0.261 C 
HETATM    2  C3  UNL     1      25.324 -10.572  -2.213  1.00  0.00     0.271 C 
HETATM    3  N2  UNL     1      24.766 -11.934  -2.423  1.00  0.00    -0.050 N 
ATOM      4  H21 UNL     1      23.779 -12.154  -2.285  1.00  0.00     0.279 HD
ATOM      5  H22 UNL     1      24.967 -12.715  -1.798  1.00  0.00     0.279 HD
HETATM    6  C4  UNL     1      25.373 -11.804  -3.751  1.00  0.00     0.331 C 
ENDROOT
BRANCH   6   7
HETATM    7  N3  UNL     1      24.887 -12.647  -4.771  1.00  0.00    -0.195 N 
HETATM    8  C5  UNL     1      25.733 -13.372  -5.639  1.00  0.00     0.675 C 
HETATM    9  N4  UNL     1      26.482 -12.719  -6.475  1.00  0.00    -0.235 N 
HETATM   10  N5  UNL     1      25.773 -14.796  -5.612  1.00  0.00    -0.168 N 
ATOM     11  H42 UNL     1      26.454 -11.700  -6.495  1.00  0.00     0.174 HD
ATOM     12  H41 UNL     1      27.093 -13.243  -7.102  1.00  0.00     0.174 HD
ATOM     13  H5  UNL     1      26.402 -15.304  -6.233  1.00  0.00     0.186 HD
ATOM     14  H3  UNL     1      23.878 -12.737  -4.887  1.00  0.00     0.180 HD
BRANCH  10  15
HETATM   15  C6  UNL     1      24.937 -15.493  -4.724  1.00  0.00     0.368 C 
HETATM   16  O1  UNL     1      25.317 -16.168  -3.747  1.00  0.00    -0.283 OA
ENDBRANCH  10  15
ENDBRANCH   6   7
BRANCH   1  17
HETATM   17  N1  UNL     1      25.741  -9.380  -4.274  1.00  0.00    -0.069 N 
HETATM   18  C1  UNL     1      27.109  -9.912  -4.205  1.00  0.00     0.267 C 
ATOM     19  H12 UNL     1      25.644  -8.458  -3.850  1.00  0.00     0.277 HD
ATOM     20  H11 UNL     1      25.457  -9.116  -5.217  1.00  0.00     0.277 HD
ENDBRANCH   1  17
TORSDOF 3
ENDMDL
MODEL 2
REMARK VINA RESULT: -6.062364099      3.699      5.556
REMARK  3 active torsions:
REMARK  status: ('A' for Active; 'I' for Inactive)
REMARK    1  A    between atoms: N1_2  and  C2_5 
REMARK    2  A    between atoms: C4_10  and  N3_11 
REMARK       I    between atoms: N3_11  and  C5_13 
REMARK       I    between atoms: C5_13  and  N5_17 
REMARK    3  A    between atoms: N5_17  and  C6_19 
ROOT
HETATM    1  C2  UNL     1      25.323 -11.490  -3.817  1.00  0.00     0.261 C 
HETATM    2  C3  UNL     1      25.511 -11.395  -2.289  1.00  0.00     0.271 C 
HETATM    3  N2  UNL     1      25.276  -9.948  -2.533  1.00  0.00    -0.050 N 
ATOM      4  H21 UNL     1      26.023  -9.301  -2.787  1.00  0.00     0.279 HD
ATOM      5  H22 UNL     1      25.042  -9.293  -1.787  1.00  0.00     0.279 HD
HETATM    6  C4  UNL     1      24.286 -10.435  -3.499  1.00  0.00     0.331 C 
ENDROOT
BRANCH   6   7
HETATM    7  N3  UNL     1      23.875  -9.545  -4.511  1.00  0.00    -0.195 N 
HETATM    8  C5  UNL     1      22.830  -8.609  -4.336  1.00  0.00     0.675 C 
HETATM    9  N4  UNL     1      21.620  -9.045  -4.166  1.00  0.00    -0.235 N 
HETATM   10  N5  UNL     1      23.086  -7.208  -4.346  1.00  0.00    -0.168 N 
ATOM     11  H42 UNL     1      21.436 -10.048  -4.159  1.00  0.00     0.174 HD
ATOM     12  H41 UNL     1      20.866  -8.369  -4.040  1.00  0.00     0.174 HD
ATOM     13  H5  UNL     1      22.325  -6.545  -4.200  1.00  0.00     0.186 HD
ATOM     14  H3  UNL     1      24.353  -9.577  -5.411  1.00  0.00     0.180 HD
BRANCH  10  15
HETATM   15  C6  UNL     1      24.396  -6.746  -4.559  1.00  0.00     0.368 C 
HETATM   16  O1  UNL     1      24.793  -6.126  -5.565  1.00  0.00    -0.283 OA
ENDBRANCH  10  15
ENDBRANCH   6   7
BRANCH   1  17
HETATM   17  N1  UNL     1      24.822 -12.801  -4.130  1.00  0.00    -0.069 N 
HETATM   18  C1  UNL     1      25.665 -13.323  -5.214  1.00  0.00     0.267 C 
ATOM     19  H12 UNL     1      23.827 -12.811  -4.352  1.00  0.00     0.277 HD
ATOM     20  H11 UNL     1      24.776 -13.420  -3.320  1.00  0.00     0.277 HD
ENDBRANCH   1  17
TORSDOF 3
ENDMDL
MODEL 3
REMARK VINA RESULT: -6.057244198      2.289      4.879
REMARK  3 active torsions:
REMARK  status: ('A' for Active; 'I' for Inactive)
REMARK    1  A    between atoms: N1_2  and  C2_5 
REMARK    2  A    between atoms: C4_10  and  N3_11 
REMARK       I    between atoms: N3_11  and  C5_13 
REMARK       I    between atoms: C5_13  and  N5_17 
REMARK    3  A    between atoms: N5_17  and  C6_19 
ROOT
HETATM    1  C2  UNL     1      24.806 -13.882  -4.843  1.00  0.00     0.261 C 
HETATM    2  C3  UNL     1      25.987 -13.713  -5.821  1.00  0.00     0.271 C 
HETATM    3  N2  UNL     1      25.737 -12.266  -5.586  1.00  0.00    -0.050 N 
ATOM      4  H21 UNL     1      25.057 -11.729  -6.124  1.00  0.00     0.279 HD
ATOM      5  H22 UNL     1      26.413 -11.542  -5.828  1.00  0.00     0.279 HD
HETATM    6  C4  UNL     1      25.495 -12.696  -4.205  1.00  0.00     0.331 C 
ENDROOT
BRANCH   6   7
HETATM    7  N3  UNL     1      24.753 -11.830  -3.377  1.00  0.00    -0.195 N 
HETATM    8  C5  UNL     1      25.209 -10.547  -2.998  1.00  0.00     0.675 C 
HETATM    9  N4  UNL     1      26.254 -10.454  -2.234  1.00  0.00    -0.235 N 
HETATM   10  N5  UNL     1      24.543  -9.367  -3.437  1.00  0.00    -0.168 N 
ATOM     11  H42 UNL     1      26.732 -11.298  -1.919  1.00  0.00     0.174 HD
ATOM     12  H41 UNL     1      26.584  -9.528  -1.960  1.00  0.00     0.174 HD
ATOM     13  H5  UNL     1      24.895  -8.448  -3.170  1.00  0.00     0.186 HD
ATOM     14  H3  UNL     1      23.844 -12.143  -3.036  1.00  0.00     0.180 HD
BRANCH  10  15
HETATM   15  C6  UNL     1      23.396  -9.481  -4.241  1.00  0.00     0.368 C 
HETATM   16  O1  UNL     1      23.325 -10.094  -5.324  1.00  0.00    -0.283 OA
ENDBRANCH  10  15
ENDBRANCH   6   7
BRANCH   1  17
HETATM   17  N1  UNL     1      24.956 -15.143  -4.168  1.00  0.00    -0.069 N 
HETATM   18  C1  UNL     1      25.146 -16.157  -5.216  1.00  0.00     0.267 C 
ATOM     19  H12 UNL     1      24.186 -15.357  -3.534  1.00  0.00     0.277 HD
ATOM     20  H11 UNL     1      25.699 -15.142  -3.469  1.00  0.00     0.277 HD
ENDBRANCH   1  17
TORSDOF 3
ENDMDL
MODEL 4
REMARK VINA RESULT: -5.754787074      3.007      5.123
REMARK  3 active torsions:
REMARK  status: ('A' for Active; 'I' for Inactive)
REMARK    1  A    between atoms: N1_2  and  C2_5 
REMARK    2  A    between atoms: C4_10  and  N3_11 
REMARK       I    between atoms: N3_11  and  C5_13 
REMARK       I    between atoms: C5_13  and  N5_17 
REMARK    3  A    between atoms: N5_17  and  C6_19 
ROOT
HETATM    1  C2  UNL     1      25.492 -11.647  -3.710  1.00  0.00     0.261 C 
HETATM    2  C3  UNL     1      25.616 -11.412  -2.191  1.00  0.00     0.271 C 
HETATM    3  N2  UNL     1      25.568  -9.982  -2.592  1.00  0.00    -0.050 N 
ATOM      4  H21 UNL     1      26.399  -9.456  -2.864  1.00  0.00     0.279 HD
ATOM      5  H22 UNL     1      25.379  -9.228  -1.931  1.00  0.00     0.279 HD
HETATM    6  C4  UNL     1      24.575 -10.453  -3.563  1.00  0.00     0.331 C 
ENDROOT
BRANCH   6   7
HETATM    7  N3  UNL     1      24.323  -9.634  -4.682  1.00  0.00    -0.195 N 
HETATM    8  C5  UNL     1      23.803  -8.324  -4.576  1.00  0.00     0.675 C 
HETATM    9  N4  UNL     1      22.595  -8.163  -4.130  1.00  0.00    -0.235 N 
HETATM   10  N5  UNL     1      24.579  -7.190  -4.951  1.00  0.00    -0.168 N 
ATOM     11  H42 UNL     1      22.038  -8.975  -3.861  1.00  0.00     0.174 HD
ATOM     12  H41 UNL     1      22.219  -7.217  -4.054  1.00  0.00     0.174 HD
ATOM     13  H5  UNL     1      24.197  -6.249  -4.852  1.00  0.00     0.186 HD
ATOM     14  H3  UNL     1      24.525 -10.004  -5.610  1.00  0.00     0.180 HD
BRANCH  10  15
HETATM   15  C6  UNL     1      25.875  -7.377  -5.459  1.00  0.00     0.368 C 
HETATM   16  O1  UNL     1      26.713  -8.194  -5.029  1.00  0.00    -0.283 OA
ENDBRANCH  10  15
ENDBRANCH   6   7
BRANCH   1  17
HETATM   17  N1  UNL     1      24.852 -12.918  -3.920  1.00  0.00    -0.069 N 
HETATM   18  C1  UNL     1      25.518 -13.534  -5.076  1.00  0.00     0.267 C 
ATOM     19  H12 UNL     1      23.840 -12.848  -4.026  1.00  0.00     0.277 HD
ATOM     20  H11 UNL     1      24.852 -13.512  -3.090  1.00  0.00     0.277 HD
ENDBRANCH   1  17
TORSDOF 3
ENDMDL
MODEL 5
REMARK VINA RESULT: -5.586083239      2.466      4.802
REMARK  3 active torsions:
REMARK  status: ('A' for Active; 'I' for Inactive)
REMARK    1  A    between atoms: N1_2  and  C2_5 
REMARK    2  A    between atoms: C4_10  and  N3_11 
REMARK       I    between atoms: N3_11  and  C5_13 
REMARK       I    between atoms: C5_13  and  N5_17 
REMARK    3  A    between atoms: N5_17  and  C6_19 
ROOT
HETATM    1  C2  UNL     1      25.687 -13.015  -5.821  1.00  0.00     0.261 C 
HETATM    2  C3  UNL     1      26.999 -12.263  -6.130  1.00  0.00     0.271 C 
HETATM    3  N2  UNL     1      26.295 -11.134  -5.466  1.00  0.00    -0.050 N 
ATOM      4  H21 UNL     1      25.672 -10.501  -5.968  1.00  0.00     0.279 HD
ATOM      5  H22 UNL     1      26.779 -10.301  -5.133  1.00  0.00     0.279 HD
HETATM    6  C4  UNL     1      25.804 -12.180  -4.564  1.00  0.00     0.331 C 
ENDROOT
BRANCH   6   7
HETATM    7  N3  UNL     1      24.645 -11.897  -3.813  1.00  0.00    -0.195 N 
HETATM    8  C5  UNL     1      24.653 -11.075  -2.664  1.00  0.00     0.675 C 
HETATM    9  N4  UNL     1      25.292 -11.479  -1.608  1.00  0.00    -0.235 N 
HETATM   10  N5  UNL     1      23.975  -9.823  -2.648  1.00  0.00    -0.168 N 
ATOM     11  H42 UNL     1      25.778 -12.376  -1.620  1.00  0.00     0.174 HD
ATOM     12  H41 UNL     1      25.297 -10.886  -0.778  1.00  0.00     0.174 HD
ATOM     13  H5  UNL     1      24.005  -9.232  -1.817  1.00  0.00     0.186 HD
ATOM     14  H3  UNL     1      23.760 -12.305  -4.114  1.00  0.00     0.180 HD
BRANCH  10  15
HETATM   15  C6  UNL     1      23.263  -9.409  -3.786  1.00  0.00     0.368 C 
HETATM   16  O1  UNL     1      23.726  -9.318  -4.940  1.00  0.00    -0.283 OA
ENDBRANCH  10  15
ENDBRANCH   6   7
BRANCH   1  17
HETATM   17  N1  UNL     1      25.989 -14.414  -5.686  1.00  0.00    -0.069 N 
HETATM   18  C1  UNL     1      24.923 -14.993  -4.857  1.00  0.00     0.267 C 
ATOM     19  H12 UNL     1      26.925 -14.592  -5.322  1.00  0.00     0.277 HD
ATOM     20  H11 UNL     1      26.109 -14.889  -6.580  1.00  0.00     0.277 HD
ENDBRANCH   1  17
TORSDOF 3
ENDMDL
