MODEL 1
REMARK VINA RESULT: -6.867036002      0.000      0.000
REMARK  4 active torsions:
REMARK  status: ('A' for Active; 'I' for Inactive)
REMARK    1  A    between atoms: N1_2  and  C2_3 
REMARK    2  A    between atoms: N1_2  and  C7_11 
REMARK    3  A    between atoms: C2_3  and  C3_4 
REMARK    4  A    between atoms: N2_8  and  O1_9 
ROOT
HETATM    1  C7  UNL     1      -3.904   3.995  13.835  1.00  0.00     0.118 A 
HETATM    2  C8  UNL     1      -2.757   4.575  14.273  1.00  0.00     0.126 A 
HETATM    3  N3  UNL     1      -1.583   4.481  13.571  1.00  0.00    -0.340 N 
ATOM      4  H3  UNL     1      -0.737   4.928  13.926  1.00  0.00     0.167 HD
HETATM    5  C9  UNL     1      -1.548   3.807  12.431  1.00  0.00     0.181 A 
HETATM    6 CL1  UNL     1      -0.038   3.693  11.532  1.00  0.00    -0.045 Cl
HETATM    7  N4  UNL     1      -2.668   3.227  11.983  1.00  0.00    -0.298 N 
ATOM      8  H4  UNL     1      -2.624   2.711  11.104  1.00  0.00     0.171 HD
HETATM    9  C10 UNL     1      -3.837   3.285  12.622  1.00  0.00     0.276 A 
HETATM   10  O2  UNL     1      -4.877   2.726  12.169  1.00  0.00    -0.266 OA
ENDROOT
BRANCH   1  11
HETATM   11  N1  UNL     1      -5.133   4.118  14.482  1.00  0.00    -0.353 N 
HETATM   12  C1  UNL     1      -5.489   5.572  14.719  1.00  0.00     0.156 C 
BRANCH  11  13
HETATM   13  C2  UNL     1      -6.134   3.218  14.871  1.00  0.00     0.122 C 
BRANCH  13  14
HETATM   14  C3  UNL     1      -6.133   2.514  16.133  1.00  0.00     0.073 A 
HETATM   15  C4  UNL     1      -6.628   3.079  17.261  1.00  0.00     0.012 A 
HETATM   16  C5  UNL     1      -6.480   2.131  18.364  1.00  0.00     0.077 A 
HETATM   17  C6  UNL     1      -5.811   0.987  17.713  1.00  0.00     0.100 A 
HETATM   18  N2  UNL     1      -5.633   1.233  16.459  1.00  0.00    -0.239 N 
BRANCH  18  19
HETATM   19  O1  UNL     1      -4.987   0.334  15.603  1.00  0.00    -0.283 OA
ATOM     20  H1  UNL     1      -4.531  -0.463  15.846  1.00  0.00     0.245 HD
ENDBRANCH  18  19
ENDBRANCH  13  14
ENDBRANCH  11  13
ENDBRANCH   1  11
TORSDOF 4
ENDMDL
MODEL 2
REMARK VINA RESULT: -6.800402523      2.509      3.167
REMARK  4 active torsions:
REMARK  status: ('A' for Active; 'I' for Inactive)
REMARK    1  A    between atoms: N1_2  and  C2_3 
REMARK    2  A    between atoms: N1_2  and  C7_11 
REMARK    3  A    between atoms: C2_3  and  C3_4 
REMARK    4  A    between atoms: N2_8  and  O1_9 
ROOT
HETATM    1  C7  UNL     1      -3.368   4.882  13.587  1.00  0.00     0.118 A 
HETATM    2  C8  UNL     1      -3.829   6.019  13.004  1.00  0.00     0.126 A 
HETATM    3  N3  UNL     1      -3.433   7.262  13.426  1.00  0.00    -0.340 N 
ATOM      4  H3  UNL     1      -3.796   8.098  12.967  1.00  0.00     0.167 HD
HETATM    5  C9  UNL     1      -2.577   7.376  14.431  1.00  0.00     0.181 A 
HETATM    6 CL1  UNL     1      -2.069   8.976  14.965  1.00  0.00    -0.045 Cl
HETATM    7  N4  UNL     1      -2.113   6.268  15.020  1.00  0.00    -0.298 N 
ATOM      8  H4  UNL     1      -1.455   6.373  15.793  1.00  0.00     0.171 HD
HETATM    9  C10 UNL     1      -2.461   5.034  14.653  1.00  0.00     0.276 A 
HETATM   10  O2  UNL     1      -2.002   4.008  15.231  1.00  0.00    -0.266 OA
ENDROOT
BRANCH   1  11
HETATM   11  N1  UNL     1      -3.693   3.598  13.152  1.00  0.00    -0.353 N 
HETATM   12  C1  UNL     1      -2.835   3.181  11.973  1.00  0.00     0.156 C 
BRANCH  11  13
HETATM   13  C2  UNL     1      -4.556   2.593  13.609  1.00  0.00     0.122 C 
BRANCH  13  14
HETATM   14  C3  UNL     1      -5.115   2.563  14.942  1.00  0.00     0.073 A 
HETATM   15  C4  UNL     1      -6.142   3.372  15.299  1.00  0.00     0.012 A 
HETATM   16  C5  UNL     1      -6.476   3.114  16.699  1.00  0.00     0.077 A 
HETATM   17  C6  UNL     1      -5.484   2.088  17.080  1.00  0.00     0.100 A 
HETATM   18  N2  UNL     1      -4.737   1.799  16.069  1.00  0.00    -0.239 N 
BRANCH  18  19
HETATM   19  O1  UNL     1      -3.685   0.880  16.153  1.00  0.00    -0.283 OA
ATOM     20  H1  UNL     1      -3.407   0.263  15.486  1.00  0.00     0.245 HD
ENDBRANCH  18  19
ENDBRANCH  13  14
ENDBRANCH  11  13
ENDBRANCH   1  11
TORSDOF 4
ENDMDL
MODEL 3
REMARK VINA RESULT: -6.781589065      3.119      5.436
REMARK  4 active torsions:
REMARK  status: ('A' for Active; 'I' for Inactive)
REMARK    1  A    between atoms: N1_2  and  C2_3 
REMARK    2  A    between atoms: N1_2  and  C7_11 
REMARK    3  A    between atoms: C2_3  and  C3_4 
REMARK    4  A    between atoms: N2_8  and  O1_9 
ROOT
HETATM    1  C7  UNL     1      -4.775   2.414  14.377  1.00  0.00     0.118 A 
HETATM    2  C8  UNL     1      -4.393   1.376  15.165  1.00  0.00     0.126 A 
HETATM    3  N3  UNL     1      -4.999   1.119  16.369  1.00  0.00    -0.340 N 
ATOM      4  H3  UNL     1      -4.690   0.330  16.938  1.00  0.00     0.167 HD
HETATM    5  C9  UNL     1      -5.987   1.895  16.789  1.00  0.00     0.181 A 
HETATM    6 CL1  UNL     1      -6.763   1.557  18.333  1.00  0.00    -0.045 Cl
HETATM    7  N4  UNL     1      -6.376   2.924  16.027  1.00  0.00    -0.298 N 
ATOM      8  H4  UNL     1      -7.137   3.512  16.366  1.00  0.00     0.171 HD
HETATM    9  C10 UNL     1      -5.825   3.222  14.850  1.00  0.00     0.276 A 
HETATM   10  O2  UNL     1      -6.219   4.202  14.154  1.00  0.00    -0.266 OA
ENDROOT
BRANCH   1  11
HETATM   11  N1  UNL     1      -4.231   2.675  13.120  1.00  0.00    -0.353 N 
HETATM   12  C1  UNL     1      -4.814   1.756  12.064  1.00  0.00     0.156 C 
BRANCH  11  13
HETATM   13  C2  UNL     1      -3.352   3.640  12.610  1.00  0.00     0.122 C 
BRANCH  13  14
HETATM   14  C3  UNL     1      -3.034   4.874  13.291  1.00  0.00     0.073 A 
HETATM   15  C4  UNL     1      -3.526   6.065  12.870  1.00  0.00     0.012 A 
HETATM   16  C5  UNL     1      -3.023   7.117  13.751  1.00  0.00     0.077 A 
HETATM   17  C6  UNL     1      -2.164   6.366  14.688  1.00  0.00     0.100 A 
HETATM   18  N2  UNL     1      -2.195   5.108  14.404  1.00  0.00    -0.239 N 
BRANCH  18  19
HETATM   19  O1  UNL     1      -1.444   4.162  15.110  1.00  0.00    -0.283 OA
ATOM     20  H1  UNL     1      -0.514   4.193  15.299  1.00  0.00     0.245 HD
ENDBRANCH  18  19
ENDBRANCH  13  14
ENDBRANCH  11  13
ENDBRANCH   1  11
TORSDOF 4
ENDMDL
MODEL 4
REMARK VINA RESULT: -6.750174374      2.285      2.886
REMARK  4 active torsions:
REMARK  status: ('A' for Active; 'I' for Inactive)
REMARK    1  A    between atoms: N1_2  and  C2_3 
REMARK    2  A    between atoms: N1_2  and  C7_11 
REMARK    3  A    between atoms: C2_3  and  C3_4 
REMARK    4  A    between atoms: N2_8  and  O1_9 
ROOT
HETATM    1  C7  UNL     1      -3.455   4.659  13.501  1.00  0.00     0.118 A 
HETATM    2  C8  UNL     1      -2.235   4.817  14.077  1.00  0.00     0.126 A 
HETATM    3  N3  UNL     1      -1.828   6.020  14.594  1.00  0.00    -0.340 N 
ATOM      4  H3  UNL     1      -0.905   6.107  15.021  1.00  0.00     0.167 HD
HETATM    5  C9  UNL     1      -2.635   7.070  14.536  1.00  0.00     0.181 A 
HETATM    6 CL1  UNL     1      -2.106   8.611  15.205  1.00  0.00    -0.045 Cl
HETATM    7  N4  UNL     1      -3.840   6.935  13.971  1.00  0.00    -0.298 N 
ATOM      8  H4  UNL     1      -4.448   7.753  13.935  1.00  0.00     0.171 HD
HETATM    9  C10 UNL     1      -4.290   5.791  13.454  1.00  0.00     0.276 A 
HETATM   10  O2  UNL     1      -5.436   5.698  12.928  1.00  0.00    -0.266 OA
ENDROOT
BRANCH   1  11
HETATM   11  N1  UNL     1      -3.936   3.442  13.020  1.00  0.00    -0.353 N 
HETATM   12  C1  UNL     1      -3.524   3.216  11.578  1.00  0.00     0.156 C 
BRANCH  11  13
HETATM   13  C2  UNL     1      -4.621   2.361  13.590  1.00  0.00     0.122 C 
BRANCH  13  14
HETATM   14  C3  UNL     1      -5.162   2.372  14.931  1.00  0.00     0.073 A 
HETATM   15  C4  UNL     1      -6.195   3.180  15.273  1.00  0.00     0.012 A 
HETATM   16  C5  UNL     1      -6.505   2.969  16.686  1.00  0.00     0.077 A 
HETATM   17  C6  UNL     1      -5.495   1.971  17.090  1.00  0.00     0.100 A 
HETATM   18  N2  UNL     1      -4.758   1.654  16.080  1.00  0.00    -0.239 N 
BRANCH  18  19
HETATM   19  O1  UNL     1      -3.693   0.753  16.182  1.00  0.00    -0.283 OA
ATOM     20  H1  UNL     1      -2.875   0.881  16.649  1.00  0.00     0.245 HD
ENDBRANCH  18  19
ENDBRANCH  13  14
ENDBRANCH  11  13
ENDBRANCH   1  11
TORSDOF 4
ENDMDL
MODEL 5
REMARK VINA RESULT: -6.698728461      1.371      1.668
REMARK  4 active torsions:
REMARK  status: ('A' for Active; 'I' for Inactive)
REMARK    1  A    between atoms: N1_2  and  C2_3 
REMARK    2  A    between atoms: N1_2  and  C7_11 
REMARK    3  A    between atoms: C2_3  and  C3_4 
REMARK    4  A    between atoms: N2_8  and  O1_9 
ROOT
HETATM    1  C7  UNL     1      -3.578   4.421  13.473  1.00  0.00     0.118 A 
HETATM    2  C8  UNL     1      -3.514   4.704  12.146  1.00  0.00     0.126 A 
HETATM    3  N3  UNL     1      -2.316   4.806  11.484  1.00  0.00    -0.340 N 
ATOM      4  H3  UNL     1      -2.300   5.019  10.486  1.00  0.00     0.167 HD
HETATM    5  C9  UNL     1      -1.181   4.627  12.143  1.00  0.00     0.181 A 
HETATM    6 CL1  UNL     1       0.353   4.755  11.287  1.00  0.00    -0.045 Cl
HETATM    7  N4  UNL     1      -1.224   4.349  13.451  1.00  0.00    -0.298 N 
ATOM      8  H4  UNL     1      -0.341   4.215  13.944  1.00  0.00     0.171 HD
HETATM    9  C10 UNL     1      -2.357   4.237  14.146  1.00  0.00     0.276 A 
HETATM   10  O2  UNL     1      -2.361   3.972  15.383  1.00  0.00    -0.266 OA
ENDROOT
BRANCH   1  11
HETATM   11  N1  UNL     1      -4.772   4.245  14.172  1.00  0.00    -0.353 N 
HETATM   12  C1  UNL     1      -5.340   5.573  14.635  1.00  0.00     0.156 C 
BRANCH  11  13
HETATM   13  C2  UNL     1      -5.593   3.146  14.456  1.00  0.00     0.122 C 
BRANCH  13  14
HETATM   14  C3  UNL     1      -5.753   2.586  15.779  1.00  0.00     0.073 A 
HETATM   15  C4  UNL     1      -6.799   2.925  16.572  1.00  0.00     0.012 A 
HETATM   16  C5  UNL     1      -6.679   2.205  17.838  1.00  0.00     0.077 A 
HETATM   17  C6  UNL     1      -5.420   1.455  17.661  1.00  0.00     0.100 A 
HETATM   18  N2  UNL     1      -4.927   1.688  16.492  1.00  0.00    -0.239 N 
BRANCH  18  19
HETATM   19  O1  UNL     1      -3.715   1.135  16.066  1.00  0.00    -0.283 OA
ATOM     20  H1  UNL     1      -3.369   0.276  16.280  1.00  0.00     0.245 HD
ENDBRANCH  18  19
ENDBRANCH  13  14
ENDBRANCH  11  13
ENDBRANCH   1  11
TORSDOF 4
ENDMDL
