MODEL 1
REMARK VINA RESULT: -9.333456773      0.000      0.000
REMARK  7 active torsions:
REMARK  status: ('A' for Active; 'I' for Inactive)
REMARK    1  A    between atoms: C3_3  and  C4_4 
REMARK    2  A    between atoms: C4_4  and  C15_18 
REMARK    3  A    between atoms: C5_5  and  C6_6 
REMARK    4  A    between atoms: C6_6  and  C7_7 
REMARK    5  A    between atoms: C8_9  and  C9_10 
REMARK    6  A    between atoms: C14_15  and  O2_16 
REMARK    7  A    between atoms: C18_21  and  C19_22 
ROOT
HETATM    1  C4  UNL     1      -3.902   5.984  14.151  1.00  0.00    -0.025 C 
HETATM    2  C5  UNL     1      -3.556   4.720  14.224  1.00  0.00     0.026 C 
ENDROOT
BRANCH   1   3
HETATM    3  C3  UNL     1      -3.391   6.855  15.233  1.00  0.00     0.008 C 
HETATM    4  C2  UNL     1      -2.487   7.732  15.277  1.00  0.00    -0.030 C 
HETATM    5  C1  UNL     1      -1.560   8.254  14.277  1.00  0.00     0.036 C 
ENDBRANCH   1   3
BRANCH   1   6
HETATM    6  C15 UNL     1      -4.575   6.553  13.031  1.00  0.00    -0.026 A 
HETATM    7  C16 UNL     1      -5.968   6.708  13.132  1.00  0.00     0.013 A 
HETATM    8  C17 UNL     1      -6.644   7.323  12.106  1.00  0.00     0.013 A 
HETATM    9  C18 UNL     1      -6.054   7.801  10.979  1.00  0.00    -0.026 A 
HETATM   10  C24 UNL     1      -4.684   7.658  10.863  1.00  0.00     0.013 A 
HETATM   11  C25 UNL     1      -3.970   7.046  11.872  1.00  0.00     0.013 A 
BRANCH   9  12
HETATM   12  C19 UNL     1      -6.818   8.453   9.897  1.00  0.00    -0.030 A 
HETATM   13  C20 UNL     1      -6.698   9.720   9.552  1.00  0.00    -0.011 A 
HETATM   14  C21 UNL     1      -7.621  10.000   8.436  1.00  0.00     0.055 A 
HETATM   15  C22 UNL     1      -8.286   8.709   8.191  1.00  0.00    -0.022 A 
HETATM   16  C23 UNL     1      -7.800   7.838   9.051  1.00  0.00     0.008 A 
ENDBRANCH   9  12
ENDBRANCH   1   6
BRANCH   2  17
HETATM   17  C6  UNL     1      -3.794   3.554  13.478  1.00  0.00     0.003 C 
HETATM   18  C8  UNL     1      -4.560   2.562  13.972  1.00  0.00     0.028 C 
BRANCH  17  19
HETATM   19  C7  UNL     1      -3.375   3.368  12.091  1.00  0.00     0.269 C 
HETATM   20  O1  UNL     1      -2.383   2.558  11.907  1.00  0.00    -0.301 OA
ENDBRANCH  17  19
BRANCH  18  21
HETATM   21  C9  UNL     1      -5.210   2.544  15.239  1.00  0.00    -0.002 A 
HETATM   22  C10 UNL     1      -6.213   3.435  15.548  1.00  0.00     0.014 A 
HETATM   23  C11 UNL     1      -6.811   3.396  16.785  1.00  0.00     0.001 A 
HETATM   24  C12 UNL     1      -6.454   2.491  17.759  1.00  0.00     0.003 A 
HETATM   25  C13 UNL     1      -5.454   1.602  17.449  1.00  0.00     0.037 A 
HETATM   26  C14 UNL     1      -4.834   1.613  16.223  1.00  0.00     0.075 A 
BRANCH  26  27
HETATM   27  O2  UNL     1      -3.824   0.721  15.898  1.00  0.00    -0.360 OA
ATOM     28  H2  UNL     1      -3.061   0.704  16.463  1.00  0.00     0.217 HD
ENDBRANCH  26  27
ENDBRANCH  18  21
ENDBRANCH   2  17
TORSDOF 7
ENDMDL
MODEL 2
REMARK VINA RESULT: -8.576178396      1.453      4.897
REMARK  7 active torsions:
REMARK  status: ('A' for Active; 'I' for Inactive)
REMARK    1  A    between atoms: C3_3  and  C4_4 
REMARK    2  A    between atoms: C4_4  and  C15_18 
REMARK    3  A    between atoms: C5_5  and  C6_6 
REMARK    4  A    between atoms: C6_6  and  C7_7 
REMARK    5  A    between atoms: C8_9  and  C9_10 
REMARK    6  A    between atoms: C14_15  and  O2_16 
REMARK    7  A    between atoms: C18_21  and  C19_22 
ROOT
HETATM    1  C4  UNL     1      -5.202   5.873  13.466  1.00  0.00    -0.025 C 
HETATM    2  C5  UNL     1      -5.214   4.567  13.345  1.00  0.00     0.026 C 
ENDROOT
BRANCH   1   3
HETATM    3  C3  UNL     1      -6.529   6.530  13.488  1.00  0.00     0.008 C 
HETATM    4  C2  UNL     1      -7.104   7.336  12.709  1.00  0.00    -0.030 C 
HETATM    5  C1  UNL     1      -6.699   7.964  11.455  1.00  0.00     0.036 C 
ENDBRANCH   1   3
BRANCH   1   6
HETATM    6  C15 UNL     1      -4.025   6.629  13.737  1.00  0.00    -0.026 A 
HETATM    7  C16 UNL     1      -3.431   7.300  12.654  1.00  0.00     0.013 A 
HETATM    8  C17 UNL     1      -2.340   8.101  12.887  1.00  0.00     0.013 A 
HETATM    9  C18 UNL     1      -1.781   8.297  14.110  1.00  0.00    -0.026 A 
HETATM   10  C24 UNL     1      -2.352   7.645  15.187  1.00  0.00     0.013 A 
HETATM   11  C25 UNL     1      -3.449   6.831  14.994  1.00  0.00     0.013 A 
BRANCH   9  12
HETATM   12  C19 UNL     1      -0.605   9.164  14.318  1.00  0.00    -0.030 A 
HETATM   13  C20 UNL     1       0.452   9.196  13.531  1.00  0.00    -0.011 A 
HETATM   14  C21 UNL     1       1.414  10.182  14.062  1.00  0.00     0.055 A 
HETATM   15  C22 UNL     1       0.752  10.710  15.268  1.00  0.00    -0.022 A 
HETATM   16  C23 UNL     1      -0.410  10.102  15.387  1.00  0.00     0.008 A 
ENDBRANCH   9  12
ENDBRANCH   1   6
BRANCH   2  17
HETATM   17  C6  UNL     1      -4.256   3.543  13.264  1.00  0.00     0.003 C 
HETATM   18  C8  UNL     1      -4.188   2.583  14.208  1.00  0.00     0.028 C 
BRANCH  17  19
HETATM   19  C7  UNL     1      -3.369   3.337  12.122  1.00  0.00     0.269 C 
HETATM   20  O1  UNL     1      -2.689   2.237  12.128  1.00  0.00    -0.301 OA
ENDBRANCH  17  19
BRANCH  18  21
HETATM   21  C9  UNL     1      -5.025   2.461  15.353  1.00  0.00    -0.002 A 
HETATM   22  C10 UNL     1      -6.043   3.355  15.603  1.00  0.00     0.014 A 
HETATM   23  C11 UNL     1      -6.823   3.214  16.725  1.00  0.00     0.001 A 
HETATM   24  C12 UNL     1      -6.641   2.200  17.639  1.00  0.00     0.003 A 
HETATM   25  C13 UNL     1      -5.626   1.309  17.389  1.00  0.00     0.037 A 
HETATM   26  C14 UNL     1      -4.826   1.421  16.277  1.00  0.00     0.075 A 
BRANCH  26  27
HETATM   27  O2  UNL     1      -3.799   0.527  16.013  1.00  0.00    -0.360 OA
ATOM     28  H2  UNL     1      -3.172   0.368  16.709  1.00  0.00     0.217 HD
ENDBRANCH  26  27
ENDBRANCH  18  21
ENDBRANCH   2  17
TORSDOF 7
ENDMDL
MODEL 3
REMARK VINA RESULT: -8.396243584      1.120      1.707
REMARK  7 active torsions:
REMARK  status: ('A' for Active; 'I' for Inactive)
REMARK    1  A    between atoms: C3_3  and  C4_4 
REMARK    2  A    between atoms: C4_4  and  C15_18 
REMARK    3  A    between atoms: C5_5  and  C6_6 
REMARK    4  A    between atoms: C6_6  and  C7_7 
REMARK    5  A    between atoms: C8_9  and  C9_10 
REMARK    6  A    between atoms: C14_15  and  O2_16 
REMARK    7  A    between atoms: C18_21  and  C19_22 
ROOT
HETATM    1  C4  UNL     1      -3.744   6.101  13.737  1.00  0.00    -0.025 C 
HETATM    2  C5  UNL     1      -3.404   4.840  13.604  1.00  0.00     0.026 C 
ENDROOT
BRANCH   1   3
HETATM    3  C3  UNL     1      -3.065   6.840  14.825  1.00  0.00     0.008 C 
HETATM    4  C2  UNL     1      -2.082   7.628  14.847  1.00  0.00    -0.030 C 
HETATM    5  C1  UNL     1      -1.195   8.138  13.807  1.00  0.00     0.036 C 
ENDBRANCH   1   3
BRANCH   1   6
HETATM    6  C15 UNL     1      -4.575   6.794  12.810  1.00  0.00    -0.026 A 
HETATM    7  C16 UNL     1      -3.949   7.351  11.681  1.00  0.00     0.013 A 
HETATM    8  C17 UNL     1      -4.723   7.961  10.725  1.00  0.00     0.013 A 
HETATM    9  C18 UNL     1      -6.076   8.068  10.791  1.00  0.00    -0.026 A 
HETATM   10  C24 UNL     1      -6.709   7.526  11.893  1.00  0.00     0.013 A 
HETATM   11  C25 UNL     1      -5.966   6.905  12.876  1.00  0.00     0.013 A 
BRANCH   9  12
HETATM   12  C19 UNL     1      -6.873   8.735   9.742  1.00  0.00    -0.030 A 
HETATM   13  C20 UNL     1      -6.721   9.990   9.368  1.00  0.00    -0.011 A 
HETATM   14  C21 UNL     1      -7.694  10.292   8.301  1.00  0.00     0.055 A 
HETATM   15  C22 UNL     1      -8.427   9.027   8.119  1.00  0.00    -0.022 A 
HETATM   16  C23 UNL     1      -7.929   8.149   8.965  1.00  0.00     0.008 A 
ENDBRANCH   9  12
ENDBRANCH   1   6
BRANCH   2  17
HETATM   17  C6  UNL     1      -3.763   3.770  12.768  1.00  0.00     0.003 C 
HETATM   18  C8  UNL     1      -4.471   2.728  13.246  1.00  0.00     0.028 C 
BRANCH  17  19
HETATM   19  C7  UNL     1      -3.544   3.747  11.325  1.00  0.00     0.269 C 
HETATM   20  O1  UNL     1      -3.757   2.613  10.741  1.00  0.00    -0.301 OA
ENDBRANCH  17  19
BRANCH  18  21
HETATM   21  C9  UNL     1      -4.940   2.563  14.581  1.00  0.00    -0.002 A 
HETATM   22  C10 UNL     1      -4.313   1.715  15.466  1.00  0.00     0.014 A 
HETATM   23  C11 UNL     1      -4.800   1.571  16.743  1.00  0.00     0.001 A 
HETATM   24  C12 UNL     1      -5.910   2.246  17.200  1.00  0.00     0.003 A 
HETATM   25  C13 UNL     1      -6.534   3.092  16.316  1.00  0.00     0.037 A 
HETATM   26  C14 UNL     1      -6.075   3.259  15.032  1.00  0.00     0.075 A 
BRANCH  26  27
HETATM   27  O2  UNL     1      -6.696   4.111  14.130  1.00  0.00    -0.360 OA
ATOM     28  H2  UNL     1      -7.153   4.862  14.488  1.00  0.00     0.217 HD
ENDBRANCH  26  27
ENDBRANCH  18  21
ENDBRANCH   2  17
TORSDOF 7
ENDMDL
MODEL 4
REMARK VINA RESULT: -8.352473196      2.030      6.902
REMARK  7 active torsions:
REMARK  status: ('A' for Active; 'I' for Inactive)
REMARK    1  A    between atoms: C3_3  and  C4_4 
REMARK    2  A    between atoms: C4_4  and  C15_18 
REMARK    3  A    between atoms: C5_5  and  C6_6 
REMARK    4  A    between atoms: C6_6  and  C7_7 
REMARK    5  A    between atoms: C8_9  and  C9_10 
REMARK    6  A    between atoms: C14_15  and  O2_16 
REMARK    7  A    between atoms: C18_21  and  C19_22 
ROOT
HETATM    1  C4  UNL     1      -4.072   5.790  11.839  1.00  0.00    -0.025 C 
HETATM    2  C5  UNL     1      -2.854   5.856  11.355  1.00  0.00     0.026 C 
ENDROOT
BRANCH   1   3
HETATM    3  C3  UNL     1      -5.106   6.532  11.083  1.00  0.00     0.008 C 
HETATM    4  C2  UNL     1      -5.254   7.750  10.794  1.00  0.00    -0.030 C 
HETATM    5  C1  UNL     1      -4.467   8.943  11.090  1.00  0.00     0.036 C 
ENDBRANCH   1   3
BRANCH   1   6
HETATM    6  C15 UNL     1      -4.448   4.933  12.913  1.00  0.00    -0.026 A 
HETATM    7  C16 UNL     1      -5.171   5.509  13.971  1.00  0.00     0.013 A 
HETATM    8  C17 UNL     1      -5.619   4.702  14.988  1.00  0.00     0.013 A 
HETATM    9  C18 UNL     1      -5.410   3.361  15.048  1.00  0.00    -0.026 A 
HETATM   10  C24 UNL     1      -4.701   2.776  14.016  1.00  0.00     0.013 A 
HETATM   11  C25 UNL     1      -4.234   3.553  12.976  1.00  0.00     0.013 A 
BRANCH   9  12
HETATM   12  C19 UNL     1      -5.906   2.528  16.162  1.00  0.00    -0.030 A 
HETATM   13  C20 UNL     1      -6.759   2.934  17.080  1.00  0.00    -0.011 A 
HETATM   14  C21 UNL     1      -7.012   1.825  18.020  1.00  0.00     0.055 A 
HETATM   15  C22 UNL     1      -6.179   0.725  17.506  1.00  0.00    -0.022 A 
HETATM   16  C23 UNL     1      -5.553   1.163  16.433  1.00  0.00     0.008 A 
ENDBRANCH   9  12
ENDBRANCH   1   6
BRANCH   2  17
HETATM   17  C6  UNL     1      -1.589   5.358  11.709  1.00  0.00     0.003 C 
HETATM   18  C8  UNL     1      -0.847   5.965  12.655  1.00  0.00     0.028 C 
BRANCH  17  19
HETATM   19  C7  UNL     1      -1.036   4.100  11.213  1.00  0.00     0.269 C 
HETATM   20  O1  UNL     1      -1.036   3.116  12.052  1.00  0.00    -0.301 OA
ENDBRANCH  17  19
BRANCH  18  21
HETATM   21  C9  UNL     1      -1.206   7.124  13.400  1.00  0.00    -0.002 A 
HETATM   22  C10 UNL     1      -1.932   7.036  14.567  1.00  0.00     0.014 A 
HETATM   23  C11 UNL     1      -2.271   8.176  15.254  1.00  0.00     0.001 A 
HETATM   24  C12 UNL     1      -1.916   9.438  14.830  1.00  0.00     0.003 A 
HETATM   25  C13 UNL     1      -1.192   9.524  13.667  1.00  0.00     0.037 A 
HETATM   26  C14 UNL     1      -0.836   8.405  12.954  1.00  0.00     0.075 A 
BRANCH  26  27
HETATM   27  O2  UNL     1      -0.105   8.479  11.777  1.00  0.00    -0.360 OA
ATOM     28  H2  UNL     1       0.081   9.345  11.436  1.00  0.00     0.217 HD
ENDBRANCH  26  27
ENDBRANCH  18  21
ENDBRANCH   2  17
TORSDOF 7
ENDMDL
MODEL 5
REMARK VINA RESULT: -8.312409920      2.468      7.246
REMARK  7 active torsions:
REMARK  status: ('A' for Active; 'I' for Inactive)
REMARK    1  A    between atoms: C3_3  and  C4_4 
REMARK    2  A    between atoms: C4_4  and  C15_18 
REMARK    3  A    between atoms: C5_5  and  C6_6 
REMARK    4  A    between atoms: C6_6  and  C7_7 
REMARK    5  A    between atoms: C8_9  and  C9_10 
REMARK    6  A    between atoms: C14_15  and  O2_16 
REMARK    7  A    between atoms: C18_21  and  C19_22 
ROOT
HETATM    1  C4  UNL     1      -4.418   6.707  12.558  1.00  0.00    -0.025 C 
HETATM    2  C5  UNL     1      -3.259   7.308  12.692  1.00  0.00     0.026 C 
ENDROOT
BRANCH   1   3
HETATM    3  C3  UNL     1      -5.163   7.014  11.316  1.00  0.00     0.008 C 
HETATM    4  C2  UNL     1      -6.266   7.581  11.091  1.00  0.00    -0.030 C 
HETATM    5  C1  UNL     1      -7.276   8.170  11.965  1.00  0.00     0.036 C 
ENDBRANCH   1   3
BRANCH   1   6
HETATM    6  C15 UNL     1      -4.884   5.688  13.439  1.00  0.00    -0.026 A 
HETATM    7  C16 UNL     1      -4.360   4.397  13.258  1.00  0.00     0.013 A 
HETATM    8  C17 UNL     1      -4.724   3.403  14.133  1.00  0.00     0.013 A 
HETATM    9  C18 UNL     1      -5.570   3.580  15.182  1.00  0.00    -0.026 A 
HETATM   10  C24 UNL     1      -6.095   4.844  15.376  1.00  0.00     0.013 A 
HETATM   11  C25 UNL     1      -5.753   5.868  14.518  1.00  0.00     0.013 A 
BRANCH   9  12
HETATM   12  C19 UNL     1      -5.940   2.483  16.099  1.00  0.00    -0.030 A 
HETATM   13  C20 UNL     1      -5.186   1.432  16.354  1.00  0.00    -0.011 A 
HETATM   14  C21 UNL     1      -5.891   0.561  17.314  1.00  0.00     0.055 A 
HETATM   15  C22 UNL     1      -7.158   1.267  17.572  1.00  0.00    -0.022 A 
HETATM   16  C23 UNL     1      -7.154   2.372  16.855  1.00  0.00     0.008 A 
ENDBRANCH   9  12
ENDBRANCH   1   6
BRANCH   2  17
HETATM   17  C6  UNL     1      -2.239   7.349  13.657  1.00  0.00     0.003 C 
HETATM   18  C8  UNL     1      -1.022   6.833  13.396  1.00  0.00     0.028 C 
BRANCH  17  19
HETATM   19  C7  UNL     1      -2.341   8.056  14.931  1.00  0.00     0.269 C 
HETATM   20  O1  UNL     1      -1.235   8.535  15.400  1.00  0.00    -0.301 OA
ENDBRANCH  17  19
BRANCH  18  21
HETATM   21  C9  UNL     1      -0.605   6.214  12.184  1.00  0.00    -0.002 A 
HETATM   22  C10 UNL     1      -0.186   6.955  11.101  1.00  0.00     0.014 A 
HETATM   23  C11 UNL     1       0.198   6.325   9.943  1.00  0.00     0.001 A 
HETATM   24  C12 UNL     1       0.188   4.955   9.798  1.00  0.00     0.003 A 
HETATM   25  C13 UNL     1      -0.230   4.217  10.878  1.00  0.00     0.037 A 
HETATM   26  C14 UNL     1      -0.622   4.814  12.052  1.00  0.00     0.075 A 
BRANCH  26  27
HETATM   27  O2  UNL     1      -1.045   4.080  13.150  1.00  0.00    -0.360 OA
ATOM     28  H2  UNL     1      -1.982   3.960  13.256  1.00  0.00     0.217 HD
ENDBRANCH  26  27
ENDBRANCH  18  21
ENDBRANCH   2  17
TORSDOF 7
ENDMDL
