MODEL 1
REMARK VINA RESULT: -7.605748411      0.000      0.000
REMARK  6 active torsions:
REMARK  status: ('A' for Active; 'I' for Inactive)
REMARK    1  A    between atoms: C3_3  and  C5_5 
REMARK    2  A    between atoms: C5_5  and  C6_6 
REMARK    3  A    between atoms: C6_6  and  C7_7 
REMARK    4  A    between atoms: C7_7  and  C8_8 
REMARK    5  A    between atoms: C13_13  and  C14_14 
REMARK    6  A    between atoms: C14_14  and  C15_15 
ROOT
HETATM    1  C14 UNL     1      -4.065   5.646  11.747  1.00  0.00    -0.116 C 
ENDROOT
BRANCH   1   2
HETATM    2  C13 UNL     1      -4.086   6.853  11.147  1.00  0.00     0.064 C 
HETATM    3  C12 UNL     1      -5.165   7.680  11.120  1.00  0.00    -0.044 C 
HETATM    4  C8  UNL     1      -5.168   8.979  10.471  1.00  0.00    -0.055 C 
HETATM    5  C11 UNL     1      -6.501   7.465  11.687  1.00  0.00     0.043 C 
HETATM    6  C9  UNL     1      -6.267   9.640  10.781  1.00  0.00    -0.019 C 
HETATM    7  C10 UNL     1      -7.119   8.837  11.687  1.00  0.00     0.032 C 
BRANCH   4   8
HETATM    8  C7  UNL     1      -4.080   9.500   9.569  1.00  0.00     0.039 C 
BRANCH   8   9
HETATM    9  C6  UNL     1      -4.056   8.682   8.335  1.00  0.00     0.009 C 
BRANCH   9  10
HETATM   10  C5  UNL     1      -5.395   8.653   7.626  1.00  0.00     0.034 C 
BRANCH  10  11
HETATM   11  C3  UNL     1      -5.927   7.304   7.464  1.00  0.00    -0.088 C 
HETATM   12  C2  UNL     1      -7.180   7.039   7.748  1.00  0.00    -0.029 C 
HETATM   13  C1  UNL     1      -8.055   8.129   8.247  1.00  0.00     0.036 C 
HETATM   14  C4  UNL     1      -5.075   6.188   6.965  1.00  0.00     0.043 C 
ENDBRANCH  10  11
ENDBRANCH   9  10
ENDBRANCH   8   9
ENDBRANCH   4   8
ENDBRANCH   1   2
BRANCH   1  15
HETATM   15  C15 UNL     1      -4.044   4.479  12.328  1.00  0.00     0.045 C 
HETATM   16  C16 UNL     1      -4.585   4.593  13.753  1.00  0.00     0.091 C 
HETATM   17  C17 UNL     1      -4.802   3.319  14.435  1.00  0.00    -0.038 A 
HETATM   18  C18 UNL     1      -5.440   3.406  15.689  1.00  0.00     0.015 A 
HETATM   19  C23 UNL     1      -4.428   2.074  14.031  1.00  0.00     0.025 A 
HETATM   20  C19 UNL     1      -5.666   2.299  16.457  1.00  0.00    -0.061 A 
HETATM   21  C20 UNL     1      -6.348   2.447  17.784  1.00  0.00     0.048 C 
HETATM   22  C21 UNL     1      -5.282   1.041  16.041  1.00  0.00     0.007 A 
HETATM   23  C22 UNL     1      -4.662   0.952  14.819  1.00  0.00     0.017 A 
HETATM   24  C24 UNL     1      -3.812   1.949  12.718  1.00  0.00     0.233 C 
HETATM   25  O1  UNL     1      -3.442   0.834  12.298  1.00  0.00    -0.283 OA
HETATM   26  C25 UNL     1      -3.640   3.179  11.905  1.00  0.00     0.236 C 
HETATM   27  O2  UNL     1      -3.092   3.038  10.761  1.00  0.00    -0.283 OA
ENDBRANCH   1  15
TORSDOF 6
ENDMDL
MODEL 2
REMARK VINA RESULT: -7.604281874      1.312      2.255
REMARK  6 active torsions:
REMARK  status: ('A' for Active; 'I' for Inactive)
REMARK    1  A    between atoms: C3_3  and  C5_5 
REMARK    2  A    between atoms: C5_5  and  C6_6 
REMARK    3  A    between atoms: C6_6  and  C7_7 
REMARK    4  A    between atoms: C7_7  and  C8_8 
REMARK    5  A    between atoms: C13_13  and  C14_14 
REMARK    6  A    between atoms: C14_14  and  C15_15 
ROOT
HETATM    1  C14 UNL     1      -3.994   5.509  12.022  1.00  0.00    -0.116 C 
ENDROOT
BRANCH   1   2
HETATM    2  C13 UNL     1      -3.942   6.712  11.416  1.00  0.00     0.064 C 
HETATM    3  C12 UNL     1      -3.320   7.806  11.931  1.00  0.00    -0.044 C 
HETATM    4  C8  UNL     1      -3.270   9.094  11.261  1.00  0.00    -0.055 C 
HETATM    5  C11 UNL     1      -2.612   7.945  13.208  1.00  0.00     0.043 C 
HETATM    6  C9  UNL     1      -2.433   9.900  11.886  1.00  0.00    -0.019 C 
HETATM    7  C10 UNL     1      -1.826   9.218  13.051  1.00  0.00     0.032 C 
BRANCH   4   8
HETATM    8  C7  UNL     1      -4.061   9.464  10.034  1.00  0.00     0.039 C 
BRANCH   8   9
HETATM    9  C6  UNL     1      -5.223  10.284  10.448  1.00  0.00     0.009 C 
BRANCH   9  10
HETATM   10  C5  UNL     1      -6.529   9.788   9.862  1.00  0.00     0.034 C 
BRANCH  10  11
HETATM   11  C3  UNL     1      -6.914   8.470  10.357  1.00  0.00    -0.088 C 
HETATM   12  C2  UNL     1      -7.089   7.467   9.528  1.00  0.00    -0.029 C 
HETATM   13  C1  UNL     1      -6.899   7.690   8.073  1.00  0.00     0.036 C 
HETATM   14  C4  UNL     1      -7.111   8.214  11.811  1.00  0.00     0.043 C 
ENDBRANCH  10  11
ENDBRANCH   9  10
ENDBRANCH   8   9
ENDBRANCH   4   8
ENDBRANCH   1   2
BRANCH   1  15
HETATM   15  C15 UNL     1      -4.045   4.346  12.609  1.00  0.00     0.045 C 
HETATM   16  C16 UNL     1      -4.553   4.504  14.042  1.00  0.00     0.091 C 
HETATM   17  C17 UNL     1      -4.846   3.251  14.734  1.00  0.00    -0.038 A 
HETATM   18  C18 UNL     1      -5.455   3.388  15.998  1.00  0.00     0.015 A 
HETATM   19  C23 UNL     1      -4.566   1.982  14.332  1.00  0.00     0.025 A 
HETATM   20  C19 UNL     1      -5.745   2.303  16.776  1.00  0.00    -0.061 A 
HETATM   21  C20 UNL     1      -6.392   2.504  18.113  1.00  0.00     0.048 C 
HETATM   22  C21 UNL     1      -5.456   1.019  16.361  1.00  0.00     0.007 A 
HETATM   23  C22 UNL     1      -4.864   0.881  15.129  1.00  0.00     0.017 A 
HETATM   24  C24 UNL     1      -3.981   1.807  13.009  1.00  0.00     0.233 C 
HETATM   25  O1  UNL     1      -3.697   0.669  12.590  1.00  0.00    -0.283 OA
HETATM   26  C25 UNL     1      -3.739   3.019  12.187  1.00  0.00     0.236 C 
HETATM   27  O2  UNL     1      -3.221   2.835  11.034  1.00  0.00    -0.283 OA
ENDBRANCH   1  15
TORSDOF 6
ENDMDL
MODEL 3
REMARK VINA RESULT: -7.578893450      1.126      2.108
REMARK  6 active torsions:
REMARK  status: ('A' for Active; 'I' for Inactive)
REMARK    1  A    between atoms: C3_3  and  C5_5 
REMARK    2  A    between atoms: C5_5  and  C6_6 
REMARK    3  A    between atoms: C6_6  and  C7_7 
REMARK    4  A    between atoms: C7_7  and  C8_8 
REMARK    5  A    between atoms: C13_13  and  C14_14 
REMARK    6  A    between atoms: C14_14  and  C15_15 
ROOT
HETATM    1  C14 UNL     1      -5.083   6.587  11.942  1.00  0.00    -0.116 C 
ENDROOT
BRANCH   1   2
HETATM    2  C13 UNL     1      -5.428   7.772  11.400  1.00  0.00     0.064 C 
HETATM    3  C12 UNL     1      -4.549   8.764  11.097  1.00  0.00    -0.044 C 
HETATM    4  C8  UNL     1      -4.938  10.034  10.510  1.00  0.00    -0.055 C 
HETATM    5  C11 UNL     1      -3.095   8.795  11.294  1.00  0.00     0.043 C 
HETATM    6  C9  UNL     1      -3.868  10.710  10.135  1.00  0.00    -0.019 C 
HETATM    7  C10 UNL     1      -2.638   9.943  10.436  1.00  0.00     0.032 C 
BRANCH   4   8
HETATM    8  C7  UNL     1      -6.356  10.518  10.353  1.00  0.00     0.039 C 
BRANCH   8   9
HETATM    9  C6  UNL     1      -6.583  10.863   8.931  1.00  0.00     0.009 C 
BRANCH   9  10
HETATM   10  C5  UNL     1      -6.347   9.691   7.999  1.00  0.00     0.034 C 
BRANCH  10  11
HETATM   11  C3  UNL     1      -7.427   8.710   8.030  1.00  0.00    -0.088 C 
HETATM   12  C2  UNL     1      -7.166   7.424   7.994  1.00  0.00    -0.029 C 
HETATM   13  C1  UNL     1      -5.754   6.974   7.913  1.00  0.00     0.036 C 
HETATM   14  C4  UNL     1      -8.854   9.129   8.111  1.00  0.00     0.043 C 
ENDBRANCH  10  11
ENDBRANCH   9  10
ENDBRANCH   8   9
ENDBRANCH   4   8
ENDBRANCH   1   2
BRANCH   1  15
HETATM   15  C15 UNL     1      -4.750   5.440  12.466  1.00  0.00     0.045 C 
HETATM   16  C16 UNL     1      -5.422   5.272  13.829  1.00  0.00     0.091 C 
HETATM   17  C17 UNL     1      -5.288   3.944  14.423  1.00  0.00    -0.038 A 
HETATM   18  C18 UNL     1      -6.029   3.733  15.603  1.00  0.00     0.015 A 
HETATM   19  C23 UNL     1      -4.511   2.909  14.004  1.00  0.00     0.025 A 
HETATM   20  C19 UNL     1      -5.964   2.553  16.290  1.00  0.00    -0.061 A 
HETATM   21  C20 UNL     1      -6.771   2.382  17.541  1.00  0.00     0.048 C 
HETATM   22  C21 UNL     1      -5.171   1.510  15.859  1.00  0.00     0.007 A 
HETATM   23  C22 UNL     1      -4.449   1.710  14.708  1.00  0.00     0.017 A 
HETATM   24  C24 UNL     1      -3.773   3.081  12.760  1.00  0.00     0.233 C 
HETATM   25  O1  UNL     1      -3.038   2.170  12.330  1.00  0.00    -0.283 OA
HETATM   26  C25 UNL     1      -3.924   4.364  12.029  1.00  0.00     0.236 C 
HETATM   27  O2  UNL     1      -3.261   4.487  10.944  1.00  0.00    -0.283 OA
ENDBRANCH   1  15
TORSDOF 6
ENDMDL
MODEL 4
REMARK VINA RESULT: -7.575039248      1.370      2.814
REMARK  6 active torsions:
REMARK  status: ('A' for Active; 'I' for Inactive)
REMARK    1  A    between atoms: C3_3  and  C5_5 
REMARK    2  A    between atoms: C5_5  and  C6_6 
REMARK    3  A    between atoms: C6_6  and  C7_7 
REMARK    4  A    between atoms: C7_7  and  C8_8 
REMARK    5  A    between atoms: C13_13  and  C14_14 
REMARK    6  A    between atoms: C14_14  and  C15_15 
ROOT
HETATM    1  C14 UNL     1      -5.212   6.707  12.100  1.00  0.00    -0.116 C 
ENDROOT
BRANCH   1   2
HETATM    2  C13 UNL     1      -5.594   7.900  11.601  1.00  0.00     0.064 C 
HETATM    3  C12 UNL     1      -6.179   8.073  10.386  1.00  0.00    -0.044 C 
HETATM    4  C8  UNL     1      -6.587   9.367   9.866  1.00  0.00    -0.055 C 
HETATM    5  C11 UNL     1      -6.502   7.066   9.369  1.00  0.00     0.043 C 
HETATM    6  C9  UNL     1      -7.308   9.211   8.772  1.00  0.00    -0.019 C 
HETATM    7  C10 UNL     1      -7.459   7.774   8.449  1.00  0.00     0.032 C 
BRANCH   4   8
HETATM    8  C7  UNL     1      -6.237  10.697  10.479  1.00  0.00     0.039 C 
BRANCH   8   9
HETATM    9  C6  UNL     1      -5.037  11.233   9.796  1.00  0.00     0.009 C 
BRANCH   9  10
HETATM   10  C5  UNL     1      -3.761  10.983  10.573  1.00  0.00     0.034 C 
BRANCH  10  11
HETATM   11  C3  UNL     1      -2.972   9.878  10.036  1.00  0.00    -0.088 C 
HETATM   12  C2  UNL     1      -2.197   9.165  10.820  1.00  0.00    -0.029 C 
HETATM   13  C1  UNL     1      -2.123   9.500  12.264  1.00  0.00     0.036 C 
HETATM   14  C4  UNL     1      -3.026   9.516   8.593  1.00  0.00     0.043 C 
ENDBRANCH  10  11
ENDBRANCH   9  10
ENDBRANCH   8   9
ENDBRANCH   4   8
ENDBRANCH   1   2
BRANCH   1  15
HETATM   15  C15 UNL     1      -4.843   5.554  12.583  1.00  0.00     0.045 C 
HETATM   16  C16 UNL     1      -5.509   5.315  13.937  1.00  0.00     0.091 C 
HETATM   17  C17 UNL     1      -5.333   3.971  14.483  1.00  0.00    -0.038 A 
HETATM   18  C18 UNL     1      -6.066   3.694  15.654  1.00  0.00     0.015 A 
HETATM   19  C23 UNL     1      -4.524   2.977  14.027  1.00  0.00     0.025 A 
HETATM   20  C19 UNL     1      -5.965   2.493  16.298  1.00  0.00    -0.061 A 
HETATM   21  C20 UNL     1      -6.766   2.251  17.542  1.00  0.00     0.048 C 
HETATM   22  C21 UNL     1      -5.140   1.492  15.830  1.00  0.00     0.007 A 
HETATM   23  C22 UNL     1      -4.425   1.756  14.687  1.00  0.00     0.017 A 
HETATM   24  C24 UNL     1      -3.792   3.217  12.791  1.00  0.00     0.233 C 
HETATM   25  O1  UNL     1      -3.029   2.346  12.329  1.00  0.00    -0.283 OA
HETATM   26  C25 UNL     1      -3.984   4.520  12.107  1.00  0.00     0.236 C 
HETATM   27  O2  UNL     1      -3.325   4.704  11.028  1.00  0.00    -0.283 OA
ENDBRANCH   1  15
TORSDOF 6
ENDMDL
MODEL 5
REMARK VINA RESULT: -7.483785495      1.870      2.630
REMARK  6 active torsions:
REMARK  status: ('A' for Active; 'I' for Inactive)
REMARK    1  A    between atoms: C3_3  and  C5_5 
REMARK    2  A    between atoms: C5_5  and  C6_6 
REMARK    3  A    between atoms: C6_6  and  C7_7 
REMARK    4  A    between atoms: C7_7  and  C8_8 
REMARK    5  A    between atoms: C13_13  and  C14_14 
REMARK    6  A    between atoms: C14_14  and  C15_15 
ROOT
HETATM    1  C14 UNL     1      -4.951   7.102  12.352  1.00  0.00    -0.116 C 
ENDROOT
BRANCH   1   2
HETATM    2  C13 UNL     1      -5.455   8.045  11.531  1.00  0.00     0.064 C 
HETATM    3  C12 UNL     1      -4.721   9.035  10.956  1.00  0.00    -0.044 C 
HETATM    4  C8  UNL     1      -5.281  10.042  10.071  1.00  0.00    -0.055 C 
HETATM    5  C11 UNL     1      -3.288   9.316  11.095  1.00  0.00     0.043 C 
HETATM    6  C9  UNL     1      -4.314  10.737   9.503  1.00  0.00    -0.019 C 
HETATM    7  C10 UNL     1      -2.990  10.253   9.956  1.00  0.00     0.032 C 
BRANCH   4   8
HETATM    8  C7  UNL     1      -6.751  10.267   9.835  1.00  0.00     0.039 C 
BRANCH   8   9
HETATM    9  C6  UNL     1      -6.947  10.673   8.424  1.00  0.00     0.009 C 
BRANCH   9  10
HETATM   10  C5  UNL     1      -7.019   9.491   7.479  1.00  0.00     0.034 C 
BRANCH  10  11
HETATM   11  C3  UNL     1      -7.800   8.380   8.014  1.00  0.00    -0.088 C 
HETATM   12  C2  UNL     1      -7.243   7.210   8.227  1.00  0.00    -0.029 C 
HETATM   13  C1  UNL     1      -5.805   7.025   7.909  1.00  0.00     0.036 C 
HETATM   14  C4  UNL     1      -9.245   8.533   8.343  1.00  0.00     0.043 C 
ENDBRANCH  10  11
ENDBRANCH   9  10
ENDBRANCH   8   9
ENDBRANCH   4   8
ENDBRANCH   1   2
BRANCH   1  15
HETATM   15  C15 UNL     1      -4.464   6.189  13.146  1.00  0.00     0.045 C 
HETATM   16  C16 UNL     1      -5.586   5.558  13.969  1.00  0.00     0.091 C 
HETATM   17  C17 UNL     1      -5.195   4.384  14.747  1.00  0.00    -0.038 A 
HETATM   18  C18 UNL     1      -6.251   3.706  15.388  1.00  0.00     0.015 A 
HETATM   19  C23 UNL     1      -3.944   3.895  14.961  1.00  0.00     0.025 A 
HETATM   20  C19 UNL     1      -6.027   2.619  16.185  1.00  0.00    -0.061 A 
HETATM   21  C20 UNL     1      -7.186   1.935  16.845  1.00  0.00     0.048 C 
HETATM   22  C21 UNL     1      -4.755   2.131  16.398  1.00  0.00     0.007 A 
HETATM   23  C22 UNL     1      -3.723   2.787  15.773  1.00  0.00     0.017 A 
HETATM   24  C24 UNL     1      -2.839   4.545  14.271  1.00  0.00     0.233 C 
HETATM   25  O1  UNL     1      -1.669   4.146  14.434  1.00  0.00    -0.283 OA
HETATM   26  C25 UNL     1      -3.149   5.688  13.376  1.00  0.00     0.236 C 
HETATM   27  O2  UNL     1      -2.159   6.242  12.789  1.00  0.00    -0.283 OA
ENDBRANCH   1  15
TORSDOF 6
ENDMDL
