MODEL 1
REMARK VINA RESULT: -7.980180081      0.000      0.000
REMARK  7 active torsions:
REMARK  status: ('A' for Active; 'I' for Inactive)
REMARK    1  A    between atoms: C2_2  and  C3_3 
REMARK    2  A    between atoms: C5_5  and  C6_6 
REMARK    3  A    between atoms: C11_11  and  O1_12 
REMARK    4  A    between atoms: O1_12  and  C12_13 
REMARK    5  A    between atoms: C12_13  and  C15_16 
REMARK    6  A    between atoms: C18_19  and  C19_20 
REMARK    7  A    between atoms: C19_20  and  O2_22 
ROOT
HETATM    1  C3  UNL     1      -4.882   8.758  10.904  1.00  0.00    -0.052 A 
HETATM    2  C4  UNL     1      -3.548   8.414  10.858  1.00  0.00     0.022 A 
HETATM    3  C5  UNL     1      -3.051   7.259  11.475  1.00  0.00     0.008 A 
HETATM    4  C11 UNL     1      -3.926   6.441  12.139  1.00  0.00     0.082 A 
HETATM    5  C23 UNL     1      -5.288   6.769  12.205  1.00  0.00     0.045 A 
HETATM    6  C24 UNL     1      -5.721   7.917  11.585  1.00  0.00    -0.053 A 
HETATM    7  C25 UNL     1      -7.175   8.223  11.665  1.00  0.00     0.049 C 
ENDROOT
BRANCH   4   8
HETATM    8  O1  UNL     1      -3.502   5.281  12.728  1.00  0.00    -0.335 OA
BRANCH   8   9
HETATM    9  C12 UNL     1      -3.244   5.170  14.113  1.00  0.00     0.087 C 
HETATM   10  C13 UNL     1      -1.743   4.830  14.335  1.00  0.00     0.051 C 
HETATM   11  C14 UNL     1      -3.310   6.568  14.767  1.00  0.00     0.051 C 
BRANCH   9  12
HETATM   12  C15 UNL     1      -4.105   4.216  14.830  1.00  0.00    -0.024 A 
HETATM   13  C16 UNL     1      -5.467   4.420  14.966  1.00  0.00     0.011 A 
HETATM   14  C17 UNL     1      -6.294   3.508  15.646  1.00  0.00     0.010 A 
HETATM   15  C18 UNL     1      -5.786   2.370  16.209  1.00  0.00    -0.030 A 
HETATM   16  C21 UNL     1      -4.409   2.155  16.078  1.00  0.00     0.010 A 
HETATM   17  C22 UNL     1      -3.619   3.061  15.407  1.00  0.00     0.011 A 
BRANCH  15  18
HETATM   18  C19 UNL     1      -6.628   1.388  16.958  1.00  0.00     0.147 C 
HETATM   19  C20 UNL     1      -6.602   1.710  18.455  1.00  0.00     0.044 C 
BRANCH  18  20
HETATM   20  O2  UNL     1      -6.083   0.106  16.854  1.00  0.00    -0.391 OA
ATOM     21  H2  UNL     1      -6.741  -0.507  16.546  1.00  0.00     0.210 HD
ENDBRANCH  18  20
ENDBRANCH  15  18
ENDBRANCH   9  12
ENDBRANCH   8   9
ENDBRANCH   4   8
BRANCH   3  22
HETATM   22  C6  UNL     1      -1.612   7.023  11.447  1.00  0.00    -0.027 A 
HETATM   23  C7  UNL     1      -0.837   6.247  10.757  1.00  0.00    -0.011 A 
HETATM   24  C8  UNL     1       0.606   6.388  11.119  1.00  0.00     0.055 A 
HETATM   25  C9  UNL     1       0.557   7.412  12.146  1.00  0.00    -0.022 A 
HETATM   26  C10 UNL     1      -0.684   7.768  12.338  1.00  0.00     0.008 A 
ENDBRANCH   3  22
BRANCH   1  27
HETATM   27  C2  UNL     1      -5.334  10.017  10.220  1.00  0.00     0.034 C 
HETATM   28  C1  UNL     1      -4.419  11.179  10.483  1.00  0.00     0.010 C 
ENDBRANCH   1  27
TORSDOF 7
ENDMDL
MODEL 2
REMARK VINA RESULT: -7.849166085      2.242      4.075
REMARK  7 active torsions:
REMARK  status: ('A' for Active; 'I' for Inactive)
REMARK    1  A    between atoms: C2_2  and  C3_3 
REMARK    2  A    between atoms: C5_5  and  C6_6 
REMARK    3  A    between atoms: C11_11  and  O1_12 
REMARK    4  A    between atoms: O1_12  and  C12_13 
REMARK    5  A    between atoms: C12_13  and  C15_16 
REMARK    6  A    between atoms: C18_19  and  C19_20 
REMARK    7  A    between atoms: C19_20  and  O2_22 
ROOT
HETATM    1  C3  UNL     1      -1.796   5.563   9.062  1.00  0.00    -0.052 A 
HETATM    2  C4  UNL     1      -2.453   4.468   9.581  1.00  0.00     0.022 A 
HETATM    3  C5  UNL     1      -2.635   4.288  10.959  1.00  0.00     0.008 A 
HETATM    4  C11 UNL     1      -2.149   5.241  11.815  1.00  0.00     0.082 A 
HETATM    5  C23 UNL     1      -1.473   6.363  11.314  1.00  0.00     0.045 A 
HETATM    6  C24 UNL     1      -1.320   6.487   9.954  1.00  0.00    -0.053 A 
HETATM    7  C25 UNL     1      -0.610   7.698   9.461  1.00  0.00     0.049 C 
ENDROOT
BRANCH   4   8
HETATM    8  O1  UNL     1      -2.331   5.135  13.167  1.00  0.00    -0.335 OA
BRANCH   8   9
HETATM    9  C12 UNL     1      -3.496   5.586  13.826  1.00  0.00     0.087 C 
HETATM   10  C13 UNL     1      -3.133   6.762  14.777  1.00  0.00     0.051 C 
HETATM   11  C14 UNL     1      -4.411   6.320  12.819  1.00  0.00     0.051 C 
BRANCH   9  12
HETATM   12  C15 UNL     1      -4.244   4.545  14.548  1.00  0.00    -0.024 A 
HETATM   13  C16 UNL     1      -5.626   4.480  14.515  1.00  0.00     0.011 A 
HETATM   14  C17 UNL     1      -6.344   3.484  15.199  1.00  0.00     0.010 A 
HETATM   15  C18 UNL     1      -5.704   2.525  15.936  1.00  0.00    -0.030 A 
HETATM   16  C21 UNL     1      -4.305   2.581  15.977  1.00  0.00     0.010 A 
HETATM   17  C22 UNL     1      -3.624   3.566  15.297  1.00  0.00     0.011 A 
BRANCH  15  18
HETATM   18  C19 UNL     1      -6.432   1.462  16.694  1.00  0.00     0.147 C 
HETATM   19  C20 UNL     1      -6.255   1.680  18.200  1.00  0.00     0.044 C 
BRANCH  18  20
HETATM   20  O2  UNL     1      -5.863   0.212  16.439  1.00  0.00    -0.391 OA
ATOM     21  H2  UNL     1      -5.483  -0.144  17.234  1.00  0.00     0.210 HD
ENDBRANCH  18  20
ENDBRANCH  15  18
ENDBRANCH   9  12
ENDBRANCH   8   9
ENDBRANCH   4   8
BRANCH   3  22
HETATM   22  C6  UNL     1      -3.265   3.057  11.420  1.00  0.00    -0.027 A 
HETATM   23  C7  UNL     1      -2.950   2.152  12.293  1.00  0.00    -0.011 A 
HETATM   24  C8  UNL     1      -3.962   1.057  12.394  1.00  0.00     0.055 A 
HETATM   25  C9  UNL     1      -4.959   1.483  11.429  1.00  0.00    -0.022 A 
HETATM   26  C10 UNL     1      -4.572   2.600  10.877  1.00  0.00     0.008 A 
ENDBRANCH   3  22
BRANCH   1  27
HETATM   27  C2  UNL     1      -1.638   5.679   7.573  1.00  0.00     0.034 C 
HETATM   28  C1  UNL     1      -2.932   5.475   6.837  1.00  0.00     0.010 C 
ENDBRANCH   1  27
TORSDOF 7
ENDMDL
MODEL 3
REMARK VINA RESULT: -7.724249720      2.215      4.186
REMARK  7 active torsions:
REMARK  status: ('A' for Active; 'I' for Inactive)
REMARK    1  A    between atoms: C2_2  and  C3_3 
REMARK    2  A    between atoms: C5_5  and  C6_6 
REMARK    3  A    between atoms: C11_11  and  O1_12 
REMARK    4  A    between atoms: O1_12  and  C12_13 
REMARK    5  A    between atoms: C12_13  and  C15_16 
REMARK    6  A    between atoms: C18_19  and  C19_20 
REMARK    7  A    between atoms: C19_20  and  O2_22 
ROOT
HETATM    1  C3  UNL     1      -0.862   5.544   9.691  1.00  0.00    -0.052 A 
HETATM    2  C4  UNL     1      -1.599   4.433  10.043  1.00  0.00     0.022 A 
HETATM    3  C5  UNL     1      -2.545   4.459  11.077  1.00  0.00     0.008 A 
HETATM    4  C11 UNL     1      -2.748   5.634  11.751  1.00  0.00     0.082 A 
HETATM    5  C23 UNL     1      -2.009   6.778  11.416  1.00  0.00     0.045 A 
HETATM    6  C24 UNL     1      -1.092   6.695  10.396  1.00  0.00    -0.053 A 
HETATM    7  C25 UNL     1      -0.339   7.934  10.061  1.00  0.00     0.049 C 
ENDROOT
BRANCH   4   8
HETATM    8  O1  UNL     1      -3.685   5.726  12.744  1.00  0.00    -0.335 OA
BRANCH   8   9
HETATM    9  C12 UNL     1      -3.386   5.515  14.108  1.00  0.00     0.087 C 
HETATM   10  C13 UNL     1      -1.867   5.219  14.266  1.00  0.00     0.051 C 
HETATM   11  C14 UNL     1      -3.486   6.853  14.875  1.00  0.00     0.051 C 
BRANCH   9  12
HETATM   12  C15 UNL     1      -4.191   4.474  14.766  1.00  0.00    -0.024 A 
HETATM   13  C16 UNL     1      -5.572   4.542  14.819  1.00  0.00     0.011 A 
HETATM   14  C17 UNL     1      -6.345   3.546  15.442  1.00  0.00     0.010 A 
HETATM   15  C18 UNL     1      -5.763   2.457  16.031  1.00  0.00    -0.030 A 
HETATM   16  C21 UNL     1      -4.365   2.380  15.984  1.00  0.00     0.010 A 
HETATM   17  C22 UNL     1      -3.630   3.366  15.366  1.00  0.00     0.011 A 
BRANCH  15  18
HETATM   18  C19 UNL     1      -6.548   1.389  16.721  1.00  0.00     0.147 C 
HETATM   19  C20 UNL     1      -6.564   1.646  18.231  1.00  0.00     0.044 C 
BRANCH  18  20
HETATM   20  O2  UNL     1      -5.917   0.152  16.570  1.00  0.00    -0.391 OA
ATOM     21  H2  UNL     1      -6.479  -0.447  16.093  1.00  0.00     0.210 HD
ENDBRANCH  18  20
ENDBRANCH  15  18
ENDBRANCH   9  12
ENDBRANCH   8   9
ENDBRANCH   4   8
BRANCH   3  22
HETATM   22  C6  UNL     1      -3.213   3.214  11.436  1.00  0.00    -0.027 A 
HETATM   23  C7  UNL     1      -2.968   2.271  12.290  1.00  0.00    -0.011 A 
HETATM   24  C8  UNL     1      -3.989   1.181  12.269  1.00  0.00     0.055 A 
HETATM   25  C9  UNL     1      -4.910   1.654  11.252  1.00  0.00    -0.022 A 
HETATM   26  C10 UNL     1      -4.477   2.791  10.778  1.00  0.00     0.008 A 
ENDBRANCH   3  22
BRANCH   1  27
HETATM   27  C2  UNL     1       0.136   5.432   8.574  1.00  0.00     0.034 C 
HETATM   28  C1  UNL     1       1.240   4.461   8.880  1.00  0.00     0.010 C 
ENDBRANCH   1  27
TORSDOF 7
ENDMDL
MODEL 4
REMARK VINA RESULT: -7.651748165      1.803      3.307
REMARK  7 active torsions:
REMARK  status: ('A' for Active; 'I' for Inactive)
REMARK    1  A    between atoms: C2_2  and  C3_3 
REMARK    2  A    between atoms: C5_5  and  C6_6 
REMARK    3  A    between atoms: C11_11  and  O1_12 
REMARK    4  A    between atoms: O1_12  and  C12_13 
REMARK    5  A    between atoms: C12_13  and  C15_16 
REMARK    6  A    between atoms: C18_19  and  C19_20 
REMARK    7  A    between atoms: C19_20  and  O2_22 
ROOT
HETATM    1  C3  UNL     1      -1.912   9.097  13.483  1.00  0.00    -0.052 A 
HETATM    2  C4  UNL     1      -2.542   8.750  12.307  1.00  0.00     0.022 A 
HETATM    3  C5  UNL     1      -3.397   7.643  12.214  1.00  0.00     0.008 A 
HETATM    4  C11 UNL     1      -3.618   6.890  13.336  1.00  0.00     0.082 A 
HETATM    5  C23 UNL     1      -2.987   7.218  14.545  1.00  0.00     0.045 A 
HETATM    6  C24 UNL     1      -2.155   8.312  14.578  1.00  0.00    -0.053 A 
HETATM    7  C25 UNL     1      -1.515   8.637  15.881  1.00  0.00     0.049 C 
ENDROOT
BRANCH   4   8
HETATM    8  O1  UNL     1      -4.472   5.820  13.313  1.00  0.00    -0.335 OA
BRANCH   8   9
HETATM    9  C12 UNL     1      -4.031   4.480  13.381  1.00  0.00     0.087 C 
HETATM   10  C13 UNL     1      -4.151   3.822  11.976  1.00  0.00     0.051 C 
HETATM   11  C14 UNL     1      -2.497   4.447  13.569  1.00  0.00     0.051 C 
BRANCH   9  12
HETATM   12  C15 UNL     1      -4.700   3.657  14.400  1.00  0.00    -0.024 A 
HETATM   13  C16 UNL     1      -5.760   4.138  15.149  1.00  0.00     0.011 A 
HETATM   14  C17 UNL     1      -6.406   3.354  16.119  1.00  0.00     0.010 A 
HETATM   15  C18 UNL     1      -6.013   2.068  16.372  1.00  0.00    -0.030 A 
HETATM   16  C21 UNL     1      -4.940   1.571  15.622  1.00  0.00     0.010 A 
HETATM   17  C22 UNL     1      -4.324   2.358  14.675  1.00  0.00     0.011 A 
BRANCH  15  18
HETATM   18  C19 UNL     1      -6.660   1.209  17.411  1.00  0.00     0.147 C 
HETATM   19  C20 UNL     1      -6.355   1.758  18.807  1.00  0.00     0.044 C 
BRANCH  18  20
HETATM   20  O2  UNL     1      -6.102  -0.071  17.394  1.00  0.00    -0.391 OA
ATOM     21  H2  UNL     1      -5.934  -0.344  16.500  1.00  0.00     0.210 HD
ENDBRANCH  18  20
ENDBRANCH  15  18
ENDBRANCH   9  12
ENDBRANCH   8   9
ENDBRANCH   4   8
BRANCH   3  22
HETATM   22  C6  UNL     1      -3.949   7.302  10.909  1.00  0.00    -0.027 A 
HETATM   23  C7  UNL     1      -3.460   6.774   9.831  1.00  0.00    -0.011 A 
HETATM   24  C8  UNL     1      -4.471   6.629   8.739  1.00  0.00     0.055 A 
HETATM   25  C9  UNL     1      -5.669   7.151   9.371  1.00  0.00    -0.022 A 
HETATM   26  C10 UNL     1      -5.382   7.534  10.585  1.00  0.00     0.008 A 
ENDBRANCH   3  22
BRANCH   1  27
HETATM   27  C2  UNL     1      -1.007  10.296  13.497  1.00  0.00     0.034 C 
HETATM   28  C1  UNL     1      -1.752  11.582  13.714  1.00  0.00     0.010 C 
ENDBRANCH   1  27
TORSDOF 7
ENDMDL
MODEL 5
REMARK VINA RESULT: -7.623262259      2.271      3.206
REMARK  7 active torsions:
REMARK  status: ('A' for Active; 'I' for Inactive)
REMARK    1  A    between atoms: C2_2  and  C3_3 
REMARK    2  A    between atoms: C5_5  and  C6_6 
REMARK    3  A    between atoms: C11_11  and  O1_12 
REMARK    4  A    between atoms: O1_12  and  C12_13 
REMARK    5  A    between atoms: C12_13  and  C15_16 
REMARK    6  A    between atoms: C18_19  and  C19_20 
REMARK    7  A    between atoms: C19_20  and  O2_22 
ROOT
HETATM    1  C3  UNL     1      -1.342   8.462  13.946  1.00  0.00    -0.052 A 
HETATM    2  C4  UNL     1      -0.944   7.763  12.827  1.00  0.00     0.022 A 
HETATM    3  C5  UNL     1      -1.239   6.405  12.648  1.00  0.00     0.008 A 
HETATM    4  C11 UNL     1      -1.956   5.756  13.617  1.00  0.00     0.082 A 
HETATM    5  C23 UNL     1      -2.370   6.441  14.768  1.00  0.00     0.045 A 
HETATM    6  C24 UNL     1      -2.050   7.772  14.894  1.00  0.00    -0.053 A 
HETATM    7  C25 UNL     1      -2.520   8.468  16.122  1.00  0.00     0.049 C 
ENDROOT
BRANCH   4   8
HETATM    8  O1  UNL     1      -2.304   4.440  13.478  1.00  0.00    -0.335 OA
BRANCH   8   9
HETATM    9  C12 UNL     1      -3.597   4.021  13.092  1.00  0.00     0.087 C 
HETATM   10  C13 UNL     1      -4.378   5.229  12.497  1.00  0.00     0.051 C 
HETATM   11  C14 UNL     1      -3.499   3.116  11.843  1.00  0.00     0.051 C 
BRANCH   9  12
HETATM   12  C15 UNL     1      -4.380   3.367  14.152  1.00  0.00    -0.024 A 
HETATM   13  C16 UNL     1      -5.483   3.974  14.728  1.00  0.00     0.011 A 
HETATM   14  C17 UNL     1      -6.237   3.350  15.737  1.00  0.00     0.010 A 
HETATM   15  C18 UNL     1      -5.912   2.105  16.201  1.00  0.00    -0.030 A 
HETATM   16  C21 UNL     1      -4.797   1.482  15.626  1.00  0.00     0.010 A 
HETATM   17  C22 UNL     1      -4.075   2.112  14.638  1.00  0.00     0.011 A 
BRANCH  15  18
HETATM   18  C19 UNL     1      -6.675   1.418  17.287  1.00  0.00     0.147 C 
HETATM   19  C20 UNL     1      -6.287   2.002  18.649  1.00  0.00     0.044 C 
BRANCH  18  20
HETATM   20  O2  UNL     1      -6.312   0.071  17.354  1.00  0.00    -0.391 OA
ATOM     21  H2  UNL     1      -7.037  -0.478  17.079  1.00  0.00     0.210 HD
ENDBRANCH  18  20
ENDBRANCH  15  18
ENDBRANCH   9  12
ENDBRANCH   8   9
ENDBRANCH   4   8
BRANCH   3  22
HETATM   22  C6  UNL     1      -0.701   5.728  11.474  1.00  0.00    -0.027 A 
HETATM   23  C7  UNL     1       0.379   5.053  11.235  1.00  0.00    -0.011 A 
HETATM   24  C8  UNL     1       0.459   4.553   9.830  1.00  0.00     0.055 A 
HETATM   25  C9  UNL     1      -0.788   5.037   9.269  1.00  0.00    -0.022 A 
HETATM   26  C10 UNL     1      -1.441   5.700  10.184  1.00  0.00     0.008 A 
ENDBRANCH   3  22
BRANCH   1  27
HETATM   27  C2  UNL     1      -0.982   9.915  14.064  1.00  0.00     0.034 C 
HETATM   28  C1  UNL     1       0.446  10.125  14.480  1.00  0.00     0.010 C 
ENDBRANCH   1  27
TORSDOF 7
ENDMDL
