MODEL 1
REMARK VINA RESULT: -6.517009344      0.000      0.000
REMARK  17 active torsions:
REMARK  status: ('A' for Active; 'I' for Inactive)
REMARK    1  A    between atoms: N1_1  and  C1_5 
REMARK    2  A    between atoms: C1_5  and  C2_6 
REMARK    3  A    between atoms: C2_6  and  C3_7 
REMARK    4  A    between atoms: C3_7  and  C4_8 
REMARK    5  A    between atoms: C4_8  and  N2_9 
REMARK    6  A    between atoms: N2_9  and  C5_12 
REMARK    7  A    between atoms: C5_12  and  O1_13 
REMARK    8  A    between atoms: O1_13  and  C6_14 
REMARK    9  A    between atoms: C6_14  and  C7_15 
REMARK   10  A    between atoms: C7_15  and  C8_16 
REMARK   11  A    between atoms: C8_16  and  C9_17 
REMARK   12  A    between atoms: C14_22  and  C15_23 
REMARK   13  A    between atoms: C15_23  and  C16_24 
REMARK   14  A    between atoms: C17_25  and  C18_26 
REMARK   15  A    between atoms: C18_26  and  C19_27 
REMARK   16  A    between atoms: C19_27  and  C20_28 
REMARK   17  A    between atoms: C20_28  and  C21_29 
ROOT
HETATM    1  C7  UNL     1      -3.549  18.954   9.976  1.00  0.00     0.027 C 
ENDROOT
BRANCH   1   2
HETATM    2  C6  UNL     1      -2.802  18.435   8.797  1.00  0.00     0.170 C 
BRANCH   2   3
HETATM    3  O1  UNL     1      -3.250  17.199   8.342  1.00  0.00    -0.364 OA
BRANCH   3   4
HETATM    4  C5  UNL     1      -2.612  16.203   9.039  1.00  0.00     0.399 C 
BRANCH   4   5
HETATM    5  N2  UNL     1      -3.503  15.289   9.693  1.00  0.00    -0.054 N 
ATOM      6  H22 UNL     1      -3.700  15.600  10.645  1.00  0.00     0.279 HD
ATOM      7  H21 UNL     1      -3.030  14.409   9.894  1.00  0.00     0.279 HD
BRANCH   5   8
HETATM    8  C4  UNL     1      -4.718  15.054   8.980  1.00  0.00     0.235 C 
BRANCH   8   9
HETATM    9  C3  UNL     1      -5.309  13.706   9.261  1.00  0.00     0.029 C 
BRANCH   9  10
HETATM   10  C2  UNL     1      -4.270  12.633   9.207  1.00  0.00     0.029 C 
BRANCH  10  11
HETATM   11  C1  UNL     1      -4.241  11.763  10.430  1.00  0.00     0.229 C 
BRANCH  11  12
HETATM   12  N1  UNL     1      -5.123  12.233  11.470  1.00  0.00    -0.079 N 
ATOM     13  H13 UNL     1      -4.608  12.412  12.333  1.00  0.00     0.274 HD
ATOM     14  H12 UNL     1      -5.449  13.180  11.273  1.00  0.00     0.274 HD
ATOM     15  H11 UNL     1      -5.907  11.603  11.636  1.00  0.00     0.274 HD
ENDBRANCH  11  12
ENDBRANCH  10  11
ENDBRANCH   9  10
ENDBRANCH   8   9
ENDBRANCH   5   8
ENDBRANCH   4   5
ENDBRANCH   3   4
ENDBRANCH   2   3
ENDBRANCH   1   2
BRANCH   1  16
HETATM   16  C8  UNL     1      -3.104  20.185  10.632  1.00  0.00     0.011 C 
BRANCH  16  17
HETATM   17  C9  UNL     1      -2.588  20.176  12.010  1.00  0.00     0.012 C 
HETATM   18  C10 UNL     1      -3.424  20.736  13.082  1.00  0.00    -0.026 C 
HETATM   19  C11 UNL     1      -2.912  20.603  14.332  1.00  0.00    -0.030 C 
HETATM   20  C12 UNL     1      -1.604  19.925  14.445  1.00  0.00     0.027 C 
HETATM   21  C13 UNL     1      -0.665  20.628  13.491  1.00  0.00     0.009 C 
HETATM   22  C14 UNL     1      -1.182  20.761  12.100  1.00  0.00    -0.003 C 
BRANCH  22  23
HETATM   23  C15 UNL     1      -0.256  20.083  11.108  1.00  0.00     0.032 C 
BRANCH  23  24
HETATM   24  C16 UNL     1       0.336  18.843  11.640  1.00  0.00    -0.030 C 
HETATM   25  C17 UNL     1      -0.103  17.627  11.312  1.00  0.00    -0.031 C 
BRANCH  25  26
HETATM   26  C18 UNL     1       0.488  16.384  11.843  1.00  0.00     0.027 C 
BRANCH  26  27
HETATM   27  C19 UNL     1      -0.518  15.454  12.449  1.00  0.00     0.011 C 
BRANCH  27  28
HETATM   28  C20 UNL     1      -1.788  16.108  12.881  1.00  0.00     0.069 C 
BRANCH  28  29
HETATM   29  C21 UNL     1      -2.817  15.149  13.327  1.00  0.00     0.231 C 
HETATM   30  O2  UNL     1      -3.539  14.630  12.498  1.00  0.00    -0.307 OA
ENDBRANCH  28  29
ENDBRANCH  27  28
ENDBRANCH  26  27
ENDBRANCH  25  26
ENDBRANCH  23  24
ENDBRANCH  22  23
ENDBRANCH  16  17
ENDBRANCH   1  16
TORSDOF 17
ENDMDL
MODEL 2
REMARK VINA RESULT: -6.409422619      2.814      7.329
REMARK  17 active torsions:
REMARK  status: ('A' for Active; 'I' for Inactive)
REMARK    1  A    between atoms: N1_1  and  C1_5 
REMARK    2  A    between atoms: C1_5  and  C2_6 
REMARK    3  A    between atoms: C2_6  and  C3_7 
REMARK    4  A    between atoms: C3_7  and  C4_8 
REMARK    5  A    between atoms: C4_8  and  N2_9 
REMARK    6  A    between atoms: N2_9  and  C5_12 
REMARK    7  A    between atoms: C5_12  and  O1_13 
REMARK    8  A    between atoms: O1_13  and  C6_14 
REMARK    9  A    between atoms: C6_14  and  C7_15 
REMARK   10  A    between atoms: C7_15  and  C8_16 
REMARK   11  A    between atoms: C8_16  and  C9_17 
REMARK   12  A    between atoms: C14_22  and  C15_23 
REMARK   13  A    between atoms: C15_23  and  C16_24 
REMARK   14  A    between atoms: C17_25  and  C18_26 
REMARK   15  A    between atoms: C18_26  and  C19_27 
REMARK   16  A    between atoms: C19_27  and  C20_28 
REMARK   17  A    between atoms: C20_28  and  C21_29 
ROOT
HETATM    1  C7  UNL     1      -2.570  15.118  13.245  1.00  0.00     0.027 C 
ENDROOT
BRANCH   1   2
HETATM    2  C6  UNL     1      -2.076  16.522  13.288  1.00  0.00     0.170 C 
BRANCH   2   3
HETATM    3  O1  UNL     1      -0.852  16.712  12.654  1.00  0.00    -0.364 OA
BRANCH   3   4
HETATM    4  C5  UNL     1      -0.619  18.058  12.518  1.00  0.00     0.399 C 
BRANCH   4   5
HETATM    5  N2  UNL     1      -0.956  18.579  11.224  1.00  0.00    -0.054 N 
ATOM      6  H22 UNL     1      -1.494  17.894  10.692  1.00  0.00     0.279 HD
ATOM      7  H21 UNL     1      -0.126  18.640  10.635  1.00  0.00     0.279 HD
BRANCH   5   8
HETATM    8  C4  UNL     1      -1.638  19.833  11.264  1.00  0.00     0.235 C 
BRANCH   8   9
HETATM    9  C3  UNL     1      -3.042  19.719  11.776  1.00  0.00     0.029 C 
BRANCH   9  10
HETATM   10  C2  UNL     1      -3.337  20.771  12.796  1.00  0.00     0.029 C 
BRANCH  10  11
HETATM   11  C1  UNL     1      -2.923  20.391  14.187  1.00  0.00     0.229 C 
BRANCH  11  12
HETATM   12  N1  UNL     1      -3.893  20.781  15.183  1.00  0.00    -0.079 N 
ATOM     13  H13 UNL     1      -4.047  21.789  15.169  1.00  0.00     0.274 HD
ATOM     14  H12 UNL     1      -4.828  20.466  14.925  1.00  0.00     0.274 HD
ATOM     15  H11 UNL     1      -3.645  20.462  16.120  1.00  0.00     0.274 HD
ENDBRANCH  11  12
ENDBRANCH  10  11
ENDBRANCH   9  10
ENDBRANCH   8   9
ENDBRANCH   5   8
ENDBRANCH   4   5
ENDBRANCH   3   4
ENDBRANCH   2   3
ENDBRANCH   1   2
BRANCH   1  16
HETATM   16  C8  UNL     1      -2.196  14.251  12.126  1.00  0.00     0.011 C 
BRANCH  16  17
HETATM   17  C9  UNL     1      -3.191  13.806  11.137  1.00  0.00     0.012 C 
HETATM   18  C10 UNL     1      -3.572  12.385  11.108  1.00  0.00    -0.026 C 
HETATM   19  C11 UNL     1      -4.560  12.079  10.230  1.00  0.00    -0.030 C 
HETATM   20  C12 UNL     1      -5.110  13.196   9.432  1.00  0.00     0.027 C 
HETATM   21  C13 UNL     1      -3.933  13.888   8.784  1.00  0.00     0.009 C 
HETATM   22  C14 UNL     1      -2.843  14.270   9.725  1.00  0.00    -0.003 C 
BRANCH  22  23
HETATM   23  C15 UNL     1      -2.600  15.767   9.700  1.00  0.00     0.032 C 
BRANCH  23  24
HETATM   24  C16 UNL     1      -3.717  16.512   9.091  1.00  0.00    -0.030 C 
HETATM   25  C17 UNL     1      -3.585  17.742   8.594  1.00  0.00    -0.031 C 
BRANCH  25  26
HETATM   26  C18 UNL     1      -4.701  18.492   7.984  1.00  0.00     0.027 C 
BRANCH  26  27
HETATM   27  C19 UNL     1      -5.699  17.620   7.288  1.00  0.00     0.011 C 
BRANCH  27  28
HETATM   28  C20 UNL     1      -5.818  17.862   5.820  1.00  0.00     0.069 C 
BRANCH  28  29
HETATM   29  C21 UNL     1      -5.621  19.275   5.443  1.00  0.00     0.231 C 
HETATM   30  O2  UNL     1      -6.572  19.918   5.042  1.00  0.00    -0.307 OA
ENDBRANCH  28  29
ENDBRANCH  27  28
ENDBRANCH  26  27
ENDBRANCH  25  26
ENDBRANCH  23  24
ENDBRANCH  22  23
ENDBRANCH  16  17
ENDBRANCH   1  16
TORSDOF 17
ENDMDL
MODEL 3
REMARK VINA RESULT: -6.407654553      2.518      5.710
REMARK  17 active torsions:
REMARK  status: ('A' for Active; 'I' for Inactive)
REMARK    1  A    between atoms: N1_1  and  C1_5 
REMARK    2  A    between atoms: C1_5  and  C2_6 
REMARK    3  A    between atoms: C2_6  and  C3_7 
REMARK    4  A    between atoms: C3_7  and  C4_8 
REMARK    5  A    between atoms: C4_8  and  N2_9 
REMARK    6  A    between atoms: N2_9  and  C5_12 
REMARK    7  A    between atoms: C5_12  and  O1_13 
REMARK    8  A    between atoms: O1_13  and  C6_14 
REMARK    9  A    between atoms: C6_14  and  C7_15 
REMARK   10  A    between atoms: C7_15  and  C8_16 
REMARK   11  A    between atoms: C8_16  and  C9_17 
REMARK   12  A    between atoms: C14_22  and  C15_23 
REMARK   13  A    between atoms: C15_23  and  C16_24 
REMARK   14  A    between atoms: C17_25  and  C18_26 
REMARK   15  A    between atoms: C18_26  and  C19_27 
REMARK   16  A    between atoms: C19_27  and  C20_28 
REMARK   17  A    between atoms: C20_28  and  C21_29 
ROOT
HETATM    1  C7  UNL     1      -4.383  12.700   9.657  1.00  0.00     0.027 C 
ENDROOT
BRANCH   1   2
HETATM    2  C6  UNL     1      -5.779  12.933   9.193  1.00  0.00     0.170 C 
BRANCH   2   3
HETATM    3  O1  UNL     1      -6.308  14.159   9.584  1.00  0.00    -0.364 OA
BRANCH   3   4
HETATM    4  C5  UNL     1      -6.676  14.869   8.467  1.00  0.00     0.399 C 
BRANCH   4   5
HETATM    5  N2  UNL     1      -5.726  15.870   8.076  1.00  0.00    -0.054 N 
ATOM      6  H22 UNL     1      -4.974  15.454   7.525  1.00  0.00     0.279 HD
ATOM      7  H21 UNL     1      -5.191  16.190   8.883  1.00  0.00     0.279 HD
BRANCH   5   8
HETATM    8  C4  UNL     1      -6.303  16.977   7.383  1.00  0.00     0.235 C 
BRANCH   8   9
HETATM    9  C3  UNL     1      -5.339  18.108   7.185  1.00  0.00     0.029 C 
BRANCH   9  10
HETATM   10  C2  UNL     1      -3.995  17.610   6.760  1.00  0.00     0.029 C 
BRANCH  10  11
HETATM   11  C1  UNL     1      -3.595  18.059   5.385  1.00  0.00     0.229 C 
BRANCH  11  12
HETATM   12  N1  UNL     1      -4.551  17.676   4.374  1.00  0.00    -0.079 N 
ATOM     13  H13 UNL     1      -4.295  16.785   3.947  1.00  0.00     0.274 HD
ATOM     14  H12 UNL     1      -5.441  17.408   4.794  1.00  0.00     0.274 HD
ATOM     15  H11 UNL     1      -4.683  18.397   3.664  1.00  0.00     0.274 HD
ENDBRANCH  11  12
ENDBRANCH  10  11
ENDBRANCH   9  10
ENDBRANCH   8   9
ENDBRANCH   5   8
ENDBRANCH   4   5
ENDBRANCH   3   4
ENDBRANCH   2   3
ENDBRANCH   1   2
BRANCH   1  16
HETATM   16  C8  UNL     1      -3.411  13.794   9.611  1.00  0.00     0.011 C 
BRANCH  16  17
HETATM   17  C9  UNL     1      -2.437  14.000  10.695  1.00  0.00     0.012 C 
HETATM   18  C10 UNL     1      -2.288  12.954  11.719  1.00  0.00    -0.026 C 
HETATM   19  C11 UNL     1      -1.305  13.184  12.627  1.00  0.00    -0.030 C 
HETATM   20  C12 UNL     1      -0.531  14.432  12.466  1.00  0.00     0.027 C 
HETATM   21  C13 UNL     1      -1.535  15.559  12.382  1.00  0.00     0.009 C 
HETATM   22  C14 UNL     1      -2.609  15.357  11.370  1.00  0.00    -0.003 C 
BRANCH  22  23
HETATM   23  C15 UNL     1      -2.606  16.470  10.341  1.00  0.00     0.032 C 
BRANCH  23  24
HETATM   24  C16 UNL     1      -2.822  17.799  10.942  1.00  0.00    -0.030 C 
HETATM   25  C17 UNL     1      -3.350  18.824  10.272  1.00  0.00    -0.031 C 
BRANCH  25  26
HETATM   26  C18 UNL     1      -3.567  20.155  10.870  1.00  0.00     0.027 C 
BRANCH  26  27
HETATM   27  C19 UNL     1      -2.574  20.503  11.936  1.00  0.00     0.011 C 
BRANCH  27  28
HETATM   28  C20 UNL     1      -3.170  20.758  13.281  1.00  0.00     0.069 C 
BRANCH  28  29
HETATM   29  C21 UNL     1      -2.420  20.125  14.382  1.00  0.00     0.231 C 
HETATM   30  O2  UNL     1      -2.005  18.991  14.239  1.00  0.00    -0.307 OA
ENDBRANCH  28  29
ENDBRANCH  27  28
ENDBRANCH  26  27
ENDBRANCH  25  26
ENDBRANCH  23  24
ENDBRANCH  22  23
ENDBRANCH  16  17
ENDBRANCH   1  16
TORSDOF 17
ENDMDL
MODEL 4
REMARK VINA RESULT: -6.394344759      2.268      4.906
REMARK  17 active torsions:
REMARK  status: ('A' for Active; 'I' for Inactive)
REMARK    1  A    between atoms: N1_1  and  C1_5 
REMARK    2  A    between atoms: C1_5  and  C2_6 
REMARK    3  A    between atoms: C2_6  and  C3_7 
REMARK    4  A    between atoms: C3_7  and  C4_8 
REMARK    5  A    between atoms: C4_8  and  N2_9 
REMARK    6  A    between atoms: N2_9  and  C5_12 
REMARK    7  A    between atoms: C5_12  and  O1_13 
REMARK    8  A    between atoms: O1_13  and  C6_14 
REMARK    9  A    between atoms: C6_14  and  C7_15 
REMARK   10  A    between atoms: C7_15  and  C8_16 
REMARK   11  A    between atoms: C8_16  and  C9_17 
REMARK   12  A    between atoms: C14_22  and  C15_23 
REMARK   13  A    between atoms: C15_23  and  C16_24 
REMARK   14  A    between atoms: C17_25  and  C18_26 
REMARK   15  A    between atoms: C18_26  and  C19_27 
REMARK   16  A    between atoms: C19_27  and  C20_28 
REMARK   17  A    between atoms: C20_28  and  C21_29 
ROOT
HETATM    1  C7  UNL     1      -1.508  15.899  12.335  1.00  0.00     0.027 C 
ENDROOT
BRANCH   1   2
HETATM    2  C6  UNL     1      -0.327  15.005  12.191  1.00  0.00     0.170 C 
BRANCH   2   3
HETATM    3  O1  UNL     1      -0.573  13.680  12.536  1.00  0.00    -0.364 OA
BRANCH   3   4
HETATM    4  C5  UNL     1      -1.924  13.441  12.471  1.00  0.00     0.399 C 
BRANCH   4   5
HETATM    5  N2  UNL     1      -2.264  12.198  11.840  1.00  0.00    -0.054 N 
ATOM      6  H22 UNL     1      -2.378  11.462  12.537  1.00  0.00     0.279 HD
ATOM      7  H21 UNL     1      -1.465  11.827  11.326  1.00  0.00     0.279 HD
BRANCH   5   8
HETATM    8  C4  UNL     1      -3.413  12.272  10.995  1.00  0.00     0.235 C 
BRANCH   8   9
HETATM    9  C3  UNL     1      -3.447  13.518  10.164  1.00  0.00     0.029 C 
BRANCH   9  10
HETATM   10  C2  UNL     1      -4.790  14.174  10.219  1.00  0.00     0.029 C 
BRANCH  10  11
HETATM   11  C1  UNL     1      -5.764  13.632   9.213  1.00  0.00     0.229 C 
BRANCH  11  12
HETATM   12  N1  UNL     1      -6.899  14.501   9.012  1.00  0.00    -0.079 N 
ATOM     13  H13 UNL     1      -7.775  13.995   9.142  1.00  0.00     0.274 HD
ATOM     14  H12 UNL     1      -6.983  15.175   9.774  1.00  0.00     0.274 HD
ATOM     15  H11 UNL     1      -6.879  14.972   8.107  1.00  0.00     0.274 HD
ENDBRANCH  11  12
ENDBRANCH  10  11
ENDBRANCH   9  10
ENDBRANCH   8   9
ENDBRANCH   5   8
ENDBRANCH   4   5
ENDBRANCH   3   4
ENDBRANCH   2   3
ENDBRANCH   1   2
BRANCH   1  16
HETATM   16  C8  UNL     1      -1.580  17.137  11.554  1.00  0.00     0.011 C 
BRANCH  16  17
HETATM   17  C9  UNL     1      -1.920  18.422  12.186  1.00  0.00     0.012 C 
HETATM   18  C10 UNL     1      -2.157  18.455  13.637  1.00  0.00    -0.026 C 
HETATM   19  C11 UNL     1      -2.373  19.693  14.150  1.00  0.00    -0.030 C 
HETATM   20  C12 UNL     1      -2.343  20.822  13.196  1.00  0.00     0.027 C 
HETATM   21  C13 UNL     1      -3.293  20.470  12.074  1.00  0.00     0.009 C 
HETATM   22  C14 UNL     1      -3.062  19.130  11.465  1.00  0.00    -0.003 C 
BRANCH  22  23
HETATM   23  C15 UNL     1      -2.766  19.250   9.982  1.00  0.00     0.032 C 
BRANCH  23  24
HETATM   24  C16 UNL     1      -3.835  18.680   9.142  1.00  0.00    -0.030 C 
HETATM   25  C17 UNL     1      -3.720  17.511   8.512  1.00  0.00    -0.031 C 
BRANCH  25  26
HETATM   26  C18 UNL     1      -4.788  16.937   7.670  1.00  0.00     0.027 C 
BRANCH  26  27
HETATM   27  C19 UNL     1      -5.799  17.945   7.215  1.00  0.00     0.011 C 
BRANCH  27  28
HETATM   28  C20 UNL     1      -5.805  18.198   5.744  1.00  0.00     0.069 C 
BRANCH  28  29
HETATM   29  C21 UNL     1      -5.431  19.581   5.389  1.00  0.00     0.231 C 
HETATM   30  O2  UNL     1      -4.460  20.085   5.921  1.00  0.00    -0.307 OA
ENDBRANCH  28  29
ENDBRANCH  27  28
ENDBRANCH  26  27
ENDBRANCH  25  26
ENDBRANCH  23  24
ENDBRANCH  22  23
ENDBRANCH  16  17
ENDBRANCH   1  16
TORSDOF 17
ENDMDL
MODEL 5
REMARK VINA RESULT: -6.372064251      1.976      3.014
REMARK  17 active torsions:
REMARK  status: ('A' for Active; 'I' for Inactive)
REMARK    1  A    between atoms: N1_1  and  C1_5 
REMARK    2  A    between atoms: C1_5  and  C2_6 
REMARK    3  A    between atoms: C2_6  and  C3_7 
REMARK    4  A    between atoms: C3_7  and  C4_8 
REMARK    5  A    between atoms: C4_8  and  N2_9 
REMARK    6  A    between atoms: N2_9  and  C5_12 
REMARK    7  A    between atoms: C5_12  and  O1_13 
REMARK    8  A    between atoms: O1_13  and  C6_14 
REMARK    9  A    between atoms: C6_14  and  C7_15 
REMARK   10  A    between atoms: C7_15  and  C8_16 
REMARK   11  A    between atoms: C8_16  and  C9_17 
REMARK   12  A    between atoms: C14_22  and  C15_23 
REMARK   13  A    between atoms: C15_23  and  C16_24 
REMARK   14  A    between atoms: C17_25  and  C18_26 
REMARK   15  A    between atoms: C18_26  and  C19_27 
REMARK   16  A    between atoms: C19_27  and  C20_28 
REMARK   17  A    between atoms: C20_28  and  C21_29 
ROOT
HETATM    1  C7  UNL     1      -2.885  20.294   9.373  1.00  0.00     0.027 C 
ENDROOT
BRANCH   1   2
HETATM    2  C6  UNL     1      -1.965  19.541   8.478  1.00  0.00     0.170 C 
BRANCH   2   3
HETATM    3  O1  UNL     1      -2.484  18.335   8.015  1.00  0.00    -0.364 OA
BRANCH   3   4
HETATM    4  C5  UNL     1      -3.045  18.532   6.777  1.00  0.00     0.399 C 
BRANCH   4   5
HETATM    5  N2  UNL     1      -4.232  17.758   6.548  1.00  0.00    -0.054 N 
ATOM      6  H22 UNL     1      -4.006  16.893   6.056  1.00  0.00     0.279 HD
ATOM      7  H21 UNL     1      -4.821  18.206   5.848  1.00  0.00     0.279 HD
BRANCH   5   8
HETATM    8  C4  UNL     1      -4.981  17.482   7.732  1.00  0.00     0.235 C 
BRANCH   8   9
HETATM    9  C3  UNL     1      -5.282  16.024   7.906  1.00  0.00     0.029 C 
BRANCH   9  10
HETATM   10  C2  UNL     1      -4.314  15.376   8.844  1.00  0.00     0.029 C 
BRANCH  10  11
HETATM   11  C1  UNL     1      -3.179  14.682   8.151  1.00  0.00     0.229 C 
BRANCH  11  12
HETATM   12  N1  UNL     1      -1.929  15.391   8.280  1.00  0.00    -0.079 N 
ATOM     13  H13 UNL     1      -1.840  16.109   7.560  1.00  0.00     0.274 HD
ATOM     14  H12 UNL     1      -1.931  15.987   9.108  1.00  0.00     0.274 HD
ATOM     15  H11 UNL     1      -1.121  14.769   8.278  1.00  0.00     0.274 HD
ENDBRANCH  11  12
ENDBRANCH  10  11
ENDBRANCH   9  10
ENDBRANCH   8   9
ENDBRANCH   5   8
ENDBRANCH   4   5
ENDBRANCH   3   4
ENDBRANCH   2   3
ENDBRANCH   1   2
BRANCH   1  16
HETATM   16  C8  UNL     1      -3.583  19.592  10.452  1.00  0.00     0.011 C 
BRANCH  16  17
HETATM   17  C9  UNL     1      -2.995  19.476  11.797  1.00  0.00     0.012 C 
HETATM   18  C10 UNL     1      -2.393  20.670  12.410  1.00  0.00    -0.026 C 
HETATM   19  C11 UNL     1      -1.958  20.496  13.684  1.00  0.00    -0.030 C 
HETATM   20  C12 UNL     1      -2.146  19.154  14.273  1.00  0.00     0.027 C 
HETATM   21  C13 UNL     1      -1.544  18.164  13.302  1.00  0.00     0.009 C 
HETATM   22  C14 UNL     1      -2.025  18.303  11.899  1.00  0.00    -0.003 C 
BRANCH  22  23
HETATM   23  C15 UNL     1      -2.681  17.023  11.418  1.00  0.00     0.032 C 
BRANCH  23  24
HETATM   24  C16 UNL     1      -2.301  15.852  12.229  1.00  0.00    -0.030 C 
HETATM   25  C17 UNL     1      -1.876  14.705  11.697  1.00  0.00    -0.031 C 
BRANCH  25  26
HETATM   26  C18 UNL     1      -1.495  13.531  12.505  1.00  0.00     0.027 C 
BRANCH  26  27
HETATM   27  C19 UNL     1      -2.191  12.270  12.095  1.00  0.00     0.011 C 
BRANCH  27  28
HETATM   28  C20 UNL     1      -3.280  12.459  11.093  1.00  0.00     0.069 C 
BRANCH  28  29
HETATM   29  C21 UNL     1      -4.632  12.290  11.660  1.00  0.00     0.231 C 
HETATM   30  O2  UNL     1      -5.250  13.274  12.018  1.00  0.00    -0.307 OA
ENDBRANCH  28  29
ENDBRANCH  27  28
ENDBRANCH  26  27
ENDBRANCH  25  26
ENDBRANCH  23  24
ENDBRANCH  22  23
ENDBRANCH  16  17
ENDBRANCH   1  16
TORSDOF 17
ENDMDL
