MODEL 1
REMARK VINA RESULT: -6.406921690      0.000      0.000
REMARK  16 active torsions:
REMARK  status: ('A' for Active; 'I' for Inactive)
REMARK    1  A    between atoms: C4_4  and  O1_5 
REMARK    2  A    between atoms: O1_5  and  C5_6 
REMARK    3  A    between atoms: C5_6  and  C6_7 
REMARK    4  A    between atoms: C6_7  and  C7_8 
REMARK    5  A    between atoms: C7_8  and  C8_9 
REMARK    6  A    between atoms: C8_9  and  N1_10 
REMARK    7  A    between atoms: N1_10  and  C9_13 
REMARK    8  A    between atoms: C9_13  and  C10_14 
REMARK    9  A    between atoms: C10_14  and  C11_15 
REMARK   10  A    between atoms: C11_15  and  S1_16 
REMARK   11  A    between atoms: S1_16  and  C12_17 
REMARK   12  A    between atoms: C12_17  and  C13_18 
REMARK   13  A    between atoms: C13_18  and  N2_19 
REMARK   14  A    between atoms: N2_19  and  C14_22 
REMARK   15  A    between atoms: C14_22  and  C15_23 
REMARK   16  A    between atoms: C15_23  and  C16_24 
ROOT
HETATM    1  N1  UNL     1      -5.122  13.864   9.505  1.00  0.00    -0.075 N 
ATOM      2  H11 UNL     1      -5.059  13.933  10.521  1.00  0.00     0.277 HD
ATOM      3  H12 UNL     1      -6.138  13.811   9.417  1.00  0.00     0.277 HD
ENDROOT
BRANCH   1   4
HETATM    4  C8  UNL     1      -4.476  12.655   9.006  1.00  0.00     0.232 C 
BRANCH   4   5
HETATM    5  C7  UNL     1      -4.315  11.705  10.178  1.00  0.00     0.029 C 
BRANCH   5   6
HETATM    6  C6  UNL     1      -3.881  12.383  11.439  1.00  0.00     0.028 C 
BRANCH   6   7
HETATM    7  C5  UNL     1      -2.455  12.066  11.826  1.00  0.00     0.175 C 
BRANCH   7   8
HETATM    8  O1  UNL     1      -1.862  12.985  12.625  1.00  0.00    -0.351 OA
BRANCH   8   9
HETATM    9  C4  UNL     1      -1.610  14.302  12.650  1.00  0.00     0.068 A 
HETATM   10  C3  UNL     1      -0.377  14.788  12.134  1.00  0.00     0.037 A 
HETATM   11  C2  UNL     1      -0.050  16.105  12.122  1.00  0.00     0.003 A 
HETATM   12  C1  UNL     1      -0.923  17.042  12.621  1.00  0.00     0.000 A 
HETATM   13  C20 UNL     1      -2.123  16.620  13.126  1.00  0.00     0.003 A 
HETATM   14  C19 UNL     1      -2.462  15.271  13.141  1.00  0.00     0.037 A 
ENDBRANCH   8   9
ENDBRANCH   7   8
ENDBRANCH   6   7
ENDBRANCH   5   6
ENDBRANCH   4   5
ENDBRANCH   1   4
BRANCH   1  15
HETATM   15  C9  UNL     1      -4.583  15.055   8.847  1.00  0.00     0.233 C 
BRANCH  15  16
HETATM   16  C10 UNL     1      -3.549  15.738   9.683  1.00  0.00     0.037 C 
BRANCH  16  17
HETATM   17  C11 UNL     1      -2.192  15.614   9.066  1.00  0.00     0.075 C 
BRANCH  17  18
HETATM   18  S1  UNL     1      -1.675  17.081   8.252  1.00  0.00    -0.167 SA
BRANCH  18  19
HETATM   19  C12 UNL     1      -0.311  17.994   8.886  1.00  0.00     0.101 C 
BRANCH  19  20
HETATM   20  C13 UNL     1      -0.717  19.288   9.583  1.00  0.00     0.242 C 
BRANCH  20  21
HETATM   21  N2  UNL     1      -2.090  19.291   9.961  1.00  0.00    -0.074 N 
ATOM     22  H22 UNL     1      -2.686  19.158   9.144  1.00  0.00     0.277 HD
ATOM     23  H21 UNL     1      -2.319  18.444  10.481  1.00  0.00     0.277 HD
BRANCH  21  24
HETATM   24  C14 UNL     1      -2.499  20.469  10.702  1.00  0.00     0.232 C 
BRANCH  24  25
HETATM   25  C15 UNL     1      -3.205  20.029  11.969  1.00  0.00     0.032 C 
BRANCH  25  26
HETATM   26  C16 UNL     1      -2.638  20.838  13.116  1.00  0.00    -0.013 A 
HETATM   27  C17 UNL     1      -2.036  20.152  14.259  1.00  0.00     0.005 A 
HETATM   28  C18 UNL     1      -3.401  20.737  14.435  1.00  0.00     0.005 A 
ENDBRANCH  25  26
ENDBRANCH  24  25
ENDBRANCH  21  24
ENDBRANCH  20  21
ENDBRANCH  19  20
ENDBRANCH  18  19
ENDBRANCH  17  18
ENDBRANCH  16  17
ENDBRANCH  15  16
ENDBRANCH   1  15
TORSDOF 16
ENDMDL
MODEL 2
REMARK VINA RESULT: -6.091549899      2.079      3.910
REMARK  16 active torsions:
REMARK  status: ('A' for Active; 'I' for Inactive)
REMARK    1  A    between atoms: C4_4  and  O1_5 
REMARK    2  A    between atoms: O1_5  and  C5_6 
REMARK    3  A    between atoms: C5_6  and  C6_7 
REMARK    4  A    between atoms: C6_7  and  C7_8 
REMARK    5  A    between atoms: C7_8  and  C8_9 
REMARK    6  A    between atoms: C8_9  and  N1_10 
REMARK    7  A    between atoms: N1_10  and  C9_13 
REMARK    8  A    between atoms: C9_13  and  C10_14 
REMARK    9  A    between atoms: C10_14  and  C11_15 
REMARK   10  A    between atoms: C11_15  and  S1_16 
REMARK   11  A    between atoms: S1_16  and  C12_17 
REMARK   12  A    between atoms: C12_17  and  C13_18 
REMARK   13  A    between atoms: C13_18  and  N2_19 
REMARK   14  A    between atoms: N2_19  and  C14_22 
REMARK   15  A    between atoms: C14_22  and  C15_23 
REMARK   16  A    between atoms: C15_23  and  C16_24 
ROOT
HETATM    1  N1  UNL     1      -2.431  11.824  11.841  1.00  0.00    -0.075 N 
ATOM      2  H11 UNL     1      -2.929  11.181  12.457  1.00  0.00     0.277 HD
ATOM      3  H12 UNL     1      -2.030  11.141  11.197  1.00  0.00     0.277 HD
ENDROOT
BRANCH   1   4
HETATM    4  C8  UNL     1      -1.395  12.562  12.555  1.00  0.00     0.232 C 
BRANCH   4   5
HETATM    5  C7  UNL     1      -1.604  14.037  12.269  1.00  0.00     0.029 C 
BRANCH   5   6
HETATM    6  C6  UNL     1      -0.327  14.810  12.161  1.00  0.00     0.028 C 
BRANCH   6   7
HETATM    7  C5  UNL     1      -0.385  15.916  11.133  1.00  0.00     0.175 C 
BRANCH   7   8
HETATM    8  O1  UNL     1      -0.038  17.142  11.593  1.00  0.00    -0.351 OA
BRANCH   8   9
HETATM    9  C4  UNL     1      -0.442  18.039  12.504  1.00  0.00     0.068 A 
HETATM   10  C3  UNL     1       0.368  19.177  12.773  1.00  0.00     0.037 A 
HETATM   11  C2  UNL     1       0.026  20.129  13.678  1.00  0.00     0.003 A 
HETATM   12  C1  UNL     1      -1.147  20.025  14.386  1.00  0.00     0.000 A 
HETATM   13  C20 UNL     1      -1.959  18.946  14.159  1.00  0.00     0.003 A 
HETATM   14  C19 UNL     1      -1.613  17.969  13.233  1.00  0.00     0.037 A 
ENDBRANCH   8   9
ENDBRANCH   7   8
ENDBRANCH   6   7
ENDBRANCH   5   6
ENDBRANCH   4   5
ENDBRANCH   1   4
BRANCH   1  15
HETATM   15  C9  UNL     1      -3.348  12.738  11.158  1.00  0.00     0.233 C 
BRANCH  15  16
HETATM   16  C10 UNL     1      -4.198  12.031  10.151  1.00  0.00     0.037 C 
BRANCH  16  17
HETATM   17  C11 UNL     1      -4.608  12.956   9.049  1.00  0.00     0.075 C 
BRANCH  17  18
HETATM   18  S1  UNL     1      -3.430  14.223   8.749  1.00  0.00    -0.167 SA
BRANCH  18  19
HETATM   19  C12 UNL     1      -3.857  15.901   9.063  1.00  0.00     0.101 C 
BRANCH  19  20
HETATM   20  C13 UNL     1      -4.733  16.518   7.979  1.00  0.00     0.242 C 
BRANCH  20  21
HETATM   21  N2  UNL     1      -4.618  17.937   7.933  1.00  0.00    -0.074 N 
ATOM     22  H22 UNL     1      -5.167  18.315   7.161  1.00  0.00     0.277 HD
ATOM     23  H21 UNL     1      -5.111  18.360   8.720  1.00  0.00     0.277 HD
BRANCH  21  24
HETATM   24  C14 UNL     1      -3.252  18.420   7.870  1.00  0.00     0.232 C 
BRANCH  24  25
HETATM   25  C15 UNL     1      -3.178  19.769   8.557  1.00  0.00     0.032 C 
BRANCH  25  26
HETATM   26  C16 UNL     1      -2.762  19.531   9.993  1.00  0.00    -0.013 A 
HETATM   27  C17 UNL     1      -3.606  20.022  11.083  1.00  0.00     0.005 A 
HETATM   28  C18 UNL     1      -2.351  20.776  10.776  1.00  0.00     0.005 A 
ENDBRANCH  25  26
ENDBRANCH  24  25
ENDBRANCH  21  24
ENDBRANCH  20  21
ENDBRANCH  19  20
ENDBRANCH  18  19
ENDBRANCH  17  18
ENDBRANCH  16  17
ENDBRANCH  15  16
ENDBRANCH   1  15
TORSDOF 16
ENDMDL
MODEL 3
REMARK VINA RESULT: -6.069901748      1.430      1.658
REMARK  16 active torsions:
REMARK  status: ('A' for Active; 'I' for Inactive)
REMARK    1  A    between atoms: C4_4  and  O1_5 
REMARK    2  A    between atoms: O1_5  and  C5_6 
REMARK    3  A    between atoms: C5_6  and  C6_7 
REMARK    4  A    between atoms: C6_7  and  C7_8 
REMARK    5  A    between atoms: C7_8  and  C8_9 
REMARK    6  A    between atoms: C8_9  and  N1_10 
REMARK    7  A    between atoms: N1_10  and  C9_13 
REMARK    8  A    between atoms: C9_13  and  C10_14 
REMARK    9  A    between atoms: C10_14  and  C11_15 
REMARK   10  A    between atoms: C11_15  and  S1_16 
REMARK   11  A    between atoms: S1_16  and  C12_17 
REMARK   12  A    between atoms: C12_17  and  C13_18 
REMARK   13  A    between atoms: C13_18  and  N2_19 
REMARK   14  A    between atoms: N2_19  and  C14_22 
REMARK   15  A    between atoms: C14_22  and  C15_23 
REMARK   16  A    between atoms: C15_23  and  C16_24 
ROOT
HETATM    1  N1  UNL     1      -4.998  13.867   8.768  1.00  0.00    -0.075 N 
ATOM      2  H11 UNL     1      -5.239  14.614   9.420  1.00  0.00     0.277 HD
ATOM      3  H12 UNL     1      -5.584  14.153   7.983  1.00  0.00     0.277 HD
ENDROOT
BRANCH   1   4
HETATM    4  C8  UNL     1      -5.387  12.558   9.281  1.00  0.00     0.232 C 
BRANCH   4   5
HETATM    5  C7  UNL     1      -4.335  12.129  10.286  1.00  0.00     0.029 C 
BRANCH   5   6
HETATM    6  C6  UNL     1      -4.801  12.205  11.706  1.00  0.00     0.028 C 
BRANCH   6   7
HETATM    7  C5  UNL     1      -4.759  13.606  12.272  1.00  0.00     0.175 C 
BRANCH   7   8
HETATM    8  O1  UNL     1      -3.855  14.430  11.692  1.00  0.00    -0.351 OA
BRANCH   8   9
HETATM    9  C4  UNL     1      -2.683  15.018  11.976  1.00  0.00     0.068 A 
HETATM   10  C3  UNL     1      -1.477  14.280  11.830  1.00  0.00     0.037 A 
HETATM   11  C2  UNL     1      -0.253  14.804  12.096  1.00  0.00     0.003 A 
HETATM   12  C1  UNL     1      -0.134  16.103  12.528  1.00  0.00     0.000 A 
HETATM   13  C20 UNL     1      -1.269  16.852  12.683  1.00  0.00     0.003 A 
HETATM   14  C19 UNL     1      -2.524  16.319  12.411  1.00  0.00     0.037 A 
ENDBRANCH   8   9
ENDBRANCH   7   8
ENDBRANCH   6   7
ENDBRANCH   5   6
ENDBRANCH   4   5
ENDBRANCH   1   4
BRANCH   1  15
HETATM   15  C9  UNL     1      -3.577  13.891   8.420  1.00  0.00     0.233 C 
BRANCH  15  16
HETATM   16  C10 UNL     1      -3.042  15.285   8.343  1.00  0.00     0.037 C 
BRANCH  16  17
HETATM   17  C11 UNL     1      -4.138  16.267   8.069  1.00  0.00     0.075 C 
BRANCH  17  18
HETATM   18  S1  UNL     1      -3.653  17.539   6.961  1.00  0.00    -0.167 SA
BRANCH  18  19
HETATM   19  C12 UNL     1      -3.397  19.171   7.568  1.00  0.00     0.101 C 
BRANCH  19  20
HETATM   20  C13 UNL     1      -3.534  19.285   9.082  1.00  0.00     0.242 C 
BRANCH  20  21
HETATM   21  N2  UNL     1      -2.904  20.455   9.595  1.00  0.00    -0.074 N 
ATOM     22  H22 UNL     1      -2.299  20.874   8.888  1.00  0.00     0.277 HD
ATOM     23  H21 UNL     1      -3.584  21.207   9.709  1.00  0.00     0.277 HD
BRANCH  21  24
HETATM   24  C14 UNL     1      -2.171  20.242  10.828  1.00  0.00     0.232 C 
BRANCH  24  25
HETATM   25  C15 UNL     1      -3.162  20.069  11.963  1.00  0.00     0.032 C 
BRANCH  25  26
HETATM   26  C16 UNL     1      -2.619  20.812  13.164  1.00  0.00    -0.013 A 
HETATM   27  C17 UNL     1      -2.108  20.061  14.311  1.00  0.00     0.005 A 
HETATM   28  C18 UNL     1      -3.452  20.704  14.439  1.00  0.00     0.005 A 
ENDBRANCH  25  26
ENDBRANCH  24  25
ENDBRANCH  21  24
ENDBRANCH  20  21
ENDBRANCH  19  20
ENDBRANCH  18  19
ENDBRANCH  17  18
ENDBRANCH  16  17
ENDBRANCH  15  16
ENDBRANCH   1  15
TORSDOF 16
ENDMDL
MODEL 4
REMARK VINA RESULT: -6.067764499      1.480      1.970
REMARK  16 active torsions:
REMARK  status: ('A' for Active; 'I' for Inactive)
REMARK    1  A    between atoms: C4_4  and  O1_5 
REMARK    2  A    between atoms: O1_5  and  C5_6 
REMARK    3  A    between atoms: C5_6  and  C6_7 
REMARK    4  A    between atoms: C6_7  and  C7_8 
REMARK    5  A    between atoms: C7_8  and  C8_9 
REMARK    6  A    between atoms: C8_9  and  N1_10 
REMARK    7  A    between atoms: N1_10  and  C9_13 
REMARK    8  A    between atoms: C9_13  and  C10_14 
REMARK    9  A    between atoms: C10_14  and  C11_15 
REMARK   10  A    between atoms: C11_15  and  S1_16 
REMARK   11  A    between atoms: S1_16  and  C12_17 
REMARK   12  A    between atoms: C12_17  and  C13_18 
REMARK   13  A    between atoms: C13_18  and  N2_19 
REMARK   14  A    between atoms: N2_19  and  C14_22 
REMARK   15  A    between atoms: C14_22  and  C15_23 
REMARK   16  A    between atoms: C15_23  and  C16_24 
ROOT
HETATM    1  N1  UNL     1      -4.695  14.394   9.783  1.00  0.00    -0.075 N 
ATOM      2  H11 UNL     1      -4.131  14.623  10.602  1.00  0.00     0.277 HD
ATOM      3  H12 UNL     1      -5.337  15.186   9.812  1.00  0.00     0.277 HD
ENDROOT
BRANCH   1   4
HETATM    4  C8  UNL     1      -5.396  13.125   9.950  1.00  0.00     0.232 C 
BRANCH   4   5
HETATM    5  C7  UNL     1      -4.900  12.493  11.236  1.00  0.00     0.029 C 
BRANCH   5   6
HETATM    6  C6  UNL     1      -3.603  11.765  11.080  1.00  0.00     0.028 C 
BRANCH   6   7
HETATM    7  C5  UNL     1      -2.459  12.417  11.822  1.00  0.00     0.175 C 
BRANCH   7   8
HETATM    8  O1  UNL     1      -2.082  13.626  11.341  1.00  0.00    -0.351 OA
BRANCH   8   9
HETATM    9  C4  UNL     1      -1.656  14.814  11.795  1.00  0.00     0.068 A 
HETATM   10  C3  UNL     1      -2.467  15.548  12.703  1.00  0.00     0.037 A 
HETATM   11  C2  UNL     1      -2.103  16.756  13.207  1.00  0.00     0.003 A 
HETATM   12  C1  UNL     1      -0.905  17.325  12.849  1.00  0.00     0.000 A 
HETATM   13  C20 UNL     1      -0.091  16.653  11.978  1.00  0.00     0.003 A 
HETATM   14  C19 UNL     1      -0.460  15.417  11.459  1.00  0.00     0.037 A 
ENDBRANCH   8   9
ENDBRANCH   7   8
ENDBRANCH   6   7
ENDBRANCH   5   6
ENDBRANCH   4   5
ENDBRANCH   1   4
BRANCH   1  15
HETATM   15  C9  UNL     1      -3.894  14.392   8.558  1.00  0.00     0.233 C 
BRANCH  15  16
HETATM   16  C10 UNL     1      -3.449  15.768   8.177  1.00  0.00     0.037 C 
BRANCH  16  17
HETATM   17  C11 UNL     1      -4.617  16.628   7.812  1.00  0.00     0.075 C 
BRANCH  17  18
HETATM   18  S1  UNL     1      -4.180  17.956   6.750  1.00  0.00    -0.167 SA
BRANCH  18  19
HETATM   19  C12 UNL     1      -2.504  18.162   6.258  1.00  0.00     0.101 C 
BRANCH  19  20
HETATM   20  C13 UNL     1      -1.670  18.958   7.255  1.00  0.00     0.242 C 
BRANCH  20  21
HETATM   21  N2  UNL     1      -2.452  19.455   8.338  1.00  0.00    -0.074 N 
ATOM     22  H22 UNL     1      -2.453  20.475   8.339  1.00  0.00     0.277 HD
ATOM     23  H21 UNL     1      -3.443  19.281   8.172  1.00  0.00     0.277 HD
BRANCH  21  24
HETATM   24  C14 UNL     1      -2.057  18.946   9.638  1.00  0.00     0.232 C 
BRANCH  24  25
HETATM   25  C15 UNL     1      -3.235  19.060  10.586  1.00  0.00     0.032 C 
BRANCH  25  26
HETATM   26  C16 UNL     1      -3.184  20.434  11.217  1.00  0.00    -0.013 A 
HETATM   27  C17 UNL     1      -2.005  20.837  11.985  1.00  0.00     0.005 A 
HETATM   28  C18 UNL     1      -3.238  20.462  12.743  1.00  0.00     0.005 A 
ENDBRANCH  25  26
ENDBRANCH  24  25
ENDBRANCH  21  24
ENDBRANCH  20  21
ENDBRANCH  19  20
ENDBRANCH  18  19
ENDBRANCH  17  18
ENDBRANCH  16  17
ENDBRANCH  15  16
ENDBRANCH   1  15
TORSDOF 16
ENDMDL
MODEL 5
REMARK VINA RESULT: -6.044179655      1.637      2.647
REMARK  16 active torsions:
REMARK  status: ('A' for Active; 'I' for Inactive)
REMARK    1  A    between atoms: C4_4  and  O1_5 
REMARK    2  A    between atoms: O1_5  and  C5_6 
REMARK    3  A    between atoms: C5_6  and  C6_7 
REMARK    4  A    between atoms: C6_7  and  C7_8 
REMARK    5  A    between atoms: C7_8  and  C8_9 
REMARK    6  A    between atoms: C8_9  and  N1_10 
REMARK    7  A    between atoms: N1_10  and  C9_13 
REMARK    8  A    between atoms: C9_13  and  C10_14 
REMARK    9  A    between atoms: C10_14  and  C11_15 
REMARK   10  A    between atoms: C11_15  and  S1_16 
REMARK   11  A    between atoms: S1_16  and  C12_17 
REMARK   12  A    between atoms: C12_17  and  C13_18 
REMARK   13  A    between atoms: C13_18  and  N2_19 
REMARK   14  A    between atoms: N2_19  and  C14_22 
REMARK   15  A    between atoms: C14_22  and  C15_23 
REMARK   16  A    between atoms: C15_23  and  C16_24 
ROOT
HETATM    1  N1  UNL     1      -3.536  14.136   8.453  1.00  0.00    -0.075 N 
ATOM      2  H11 UNL     1      -3.724  13.997   7.460  1.00  0.00     0.277 HD
ATOM      3  H12 UNL     1      -3.270  13.181   8.694  1.00  0.00     0.277 HD
ENDROOT
BRANCH   1   4
HETATM    4  C8  UNL     1      -4.731  14.561   9.174  1.00  0.00     0.232 C 
BRANCH   4   5
HETATM    5  C7  UNL     1      -5.372  13.321   9.767  1.00  0.00     0.029 C 
BRANCH   5   6
HETATM    6  C6  UNL     1      -4.392  12.237  10.085  1.00  0.00     0.028 C 
BRANCH   6   7
HETATM    7  C5  UNL     1      -4.044  12.159  11.554  1.00  0.00     0.175 C 
BRANCH   7   8
HETATM    8  O1  UNL     1      -2.824  12.651  11.879  1.00  0.00    -0.351 OA
BRANCH   8   9
HETATM    9  C4  UNL     1      -2.250  13.818  12.202  1.00  0.00     0.068 A 
HETATM   10  C3  UNL     1      -3.036  14.845  12.794  1.00  0.00     0.037 A 
HETATM   11  C2  UNL     1      -2.527  16.052  13.149  1.00  0.00     0.003 A 
HETATM   12  C1  UNL     1      -1.198  16.333  12.944  1.00  0.00     0.000 A 
HETATM   13  C20 UNL     1      -0.403  15.374  12.377  1.00  0.00     0.003 A 
HETATM   14  C19 UNL     1      -0.920  14.136  12.012  1.00  0.00     0.037 A 
ENDBRANCH   8   9
ENDBRANCH   7   8
ENDBRANCH   6   7
ENDBRANCH   5   6
ENDBRANCH   4   5
ENDBRANCH   1   4
BRANCH   1  15
HETATM   15  C9  UNL     1      -2.433  15.075   8.668  1.00  0.00     0.233 C 
BRANCH  15  16
HETATM   16  C10 UNL     1      -2.875  16.299   9.403  1.00  0.00     0.037 C 
BRANCH  16  17
HETATM   17  C11 UNL     1      -2.085  17.496   8.977  1.00  0.00     0.075 C 
BRANCH  17  18
HETATM   18  S1  UNL     1      -1.993  18.732  10.221  1.00  0.00    -0.167 SA
BRANCH  18  19
HETATM   19  C12 UNL     1      -3.453  19.584  10.711  1.00  0.00     0.101 C 
BRANCH  19  20
HETATM   20  C13 UNL     1      -3.270  20.431  11.964  1.00  0.00     0.242 C 
BRANCH  20  21
HETATM   21  N2  UNL     1      -2.882  19.652  13.092  1.00  0.00    -0.074 N 
ATOM     22  H22 UNL     1      -3.679  19.129  13.456  1.00  0.00     0.277 HD
ATOM     23  H21 UNL     1      -2.284  18.878  12.803  1.00  0.00     0.277 HD
BRANCH  21  24
HETATM   24  C14 UNL     1      -2.249  20.415  14.151  1.00  0.00     0.232 C 
BRANCH  24  25
HETATM   25  C15 UNL     1      -0.922  19.767  14.495  1.00  0.00     0.032 C 
BRANCH  25  26
HETATM   26  C16 UNL     1       0.111  20.295  13.523  1.00  0.00    -0.013 A 
HETATM   27  C17 UNL     1       0.959  19.357  12.785  1.00  0.00     0.005 A 
HETATM   28  C18 UNL     1       1.567  20.094  13.935  1.00  0.00     0.005 A 
ENDBRANCH  25  26
ENDBRANCH  24  25
ENDBRANCH  21  24
ENDBRANCH  20  21
ENDBRANCH  19  20
ENDBRANCH  18  19
ENDBRANCH  17  18
ENDBRANCH  16  17
ENDBRANCH  15  16
ENDBRANCH   1  15
TORSDOF 16
ENDMDL
