MODEL 1
REMARK VINA RESULT: -6.661029688      0.000      0.000
REMARK  15 active torsions:
REMARK  status: ('A' for Active; 'I' for Inactive)
REMARK    1  A    between atoms: C4_4  and  O1_5 
REMARK    2  A    between atoms: O1_5  and  C5_6 
REMARK    3  A    between atoms: C5_6  and  C6_7 
REMARK    4  A    between atoms: C6_7  and  O2_8 
REMARK    5  A    between atoms: O2_8  and  C7_9 
REMARK    6  A    between atoms: C7_9  and  C8_10 
REMARK    7  A    between atoms: C8_10  and  C9_11 
REMARK    8  A    between atoms: C9_11  and  N1_12 
REMARK    9  A    between atoms: N1_12  and  C10_14 
REMARK   10  A    between atoms: C10_14  and  C11_15 
REMARK   11  A    between atoms: C11_15  and  C12_16 
REMARK   12  A    between atoms: C12_16  and  C13_17 
REMARK   13  A    between atoms: C13_17  and  N2_18 
REMARK   14  A    between atoms: N2_18  and  C14_20 
REMARK   15  A    between atoms: C14_20  and  C15_21 
ROOT
HETATM    1  N1  UNL     1      -5.445  13.313  10.942  1.00  0.00    -0.382 N 
ATOM      2  H1  UNL     1      -5.949  13.977  11.530  1.00  0.00     0.163 HD
ENDROOT
BRANCH   1   3
HETATM    3  C9  UNL     1      -4.805  12.255  11.544  1.00  0.00     0.062 C 
BRANCH   3   4
HETATM    4  C8  UNL     1      -3.369  12.068  11.158  1.00  0.00     0.070 C 
BRANCH   4   5
HETATM    5  C7  UNL     1      -2.549  13.047  11.971  1.00  0.00     0.172 C 
BRANCH   5   6
HETATM    6  O2  UNL     1      -3.015  14.281  12.121  1.00  0.00    -0.389 OA
BRANCH   6   7
HETATM    7  C6  UNL     1      -2.748  15.115  13.113  1.00  0.00     0.194 C 
BRANCH   7   8
HETATM    8  C5  UNL     1      -1.569  16.008  12.853  1.00  0.00     0.201 C 
BRANCH   8   9
HETATM    9  O1  UNL     1      -1.881  17.017  11.941  1.00  0.00    -0.349 OA
BRANCH   9  10
HETATM   10  C4  UNL     1      -2.304  18.274  12.361  1.00  0.00     0.068 A 
HETATM   11  C3  UNL     1      -2.110  18.735  13.645  1.00  0.00     0.037 A 
HETATM   12  C2  UNL     1      -2.547  19.988  14.013  1.00  0.00     0.003 A 
HETATM   13  C1  UNL     1      -3.190  20.835  13.136  1.00  0.00     0.000 A 
HETATM   14  C21 UNL     1      -3.387  20.375  11.847  1.00  0.00     0.003 A 
HETATM   15  C20 UNL     1      -2.945  19.112  11.479  1.00  0.00     0.037 A 
ENDBRANCH   9  10
ENDBRANCH   8   9
ENDBRANCH   7   8
ENDBRANCH   6   7
ENDBRANCH   5   6
ENDBRANCH   4   5
ENDBRANCH   3   4
ENDBRANCH   1   3
BRANCH   1  16
HETATM   16  C10 UNL     1      -5.438  13.517   9.568  1.00  0.00     0.060 C 
BRANCH  16  17
HETATM   17  C11 UNL     1      -4.829  14.705   8.953  1.00  0.00     0.049 C 
BRANCH  17  18
HETATM   18  C12 UNL     1      -3.489  14.553   8.339  1.00  0.00     0.049 C 
BRANCH  18  19
HETATM   19  C13 UNL     1      -2.285  15.192   8.919  1.00  0.00     0.056 C 
BRANCH  19  20
HETATM   20  N2  UNL     1      -2.212  16.590   8.935  1.00  0.00    -0.402 N 
ATOM     21  H2  UNL     1      -2.074  17.078   9.821  1.00  0.00     0.158 HD
BRANCH  20  22
HETATM   22  C14 UNL     1      -2.330  17.341   7.729  1.00  0.00     0.123 C 
BRANCH  22  23
HETATM   23  C15 UNL     1      -3.171  18.553   7.675  1.00  0.00     0.003 C 
HETATM   24  C16 UNL     1      -4.566  18.532   8.171  1.00  0.00     0.006 C 
HETATM   25  C17 UNL     1      -5.291  17.679   7.145  1.00  0.00     0.000 C 
HETATM   26  C18 UNL     1      -4.501  17.860   5.856  1.00  0.00     0.000 C 
HETATM   27  C19 UNL     1      -3.422  18.866   6.177  1.00  0.00     0.006 C 
ENDBRANCH  22  23
ENDBRANCH  20  22
ENDBRANCH  19  20
ENDBRANCH  18  19
ENDBRANCH  17  18
ENDBRANCH  16  17
ENDBRANCH   1  16
TORSDOF 15
ENDMDL
MODEL 2
REMARK VINA RESULT: -6.623095649      1.897      4.990
REMARK  15 active torsions:
REMARK  status: ('A' for Active; 'I' for Inactive)
REMARK    1  A    between atoms: C4_4  and  O1_5 
REMARK    2  A    between atoms: O1_5  and  C5_6 
REMARK    3  A    between atoms: C5_6  and  C6_7 
REMARK    4  A    between atoms: C6_7  and  O2_8 
REMARK    5  A    between atoms: O2_8  and  C7_9 
REMARK    6  A    between atoms: C7_9  and  C8_10 
REMARK    7  A    between atoms: C8_10  and  C9_11 
REMARK    8  A    between atoms: C9_11  and  N1_12 
REMARK    9  A    between atoms: N1_12  and  C10_14 
REMARK   10  A    between atoms: C10_14  and  C11_15 
REMARK   11  A    between atoms: C11_15  and  C12_16 
REMARK   12  A    between atoms: C12_16  and  C13_17 
REMARK   13  A    between atoms: C13_17  and  N2_18 
REMARK   14  A    between atoms: N2_18  and  C14_20 
REMARK   15  A    between atoms: C14_20  and  C15_21 
ROOT
HETATM    1  N1  UNL     1      -3.658  15.289   9.425  1.00  0.00    -0.382 N 
ATOM      2  H1  UNL     1      -3.833  15.418  10.421  1.00  0.00     0.163 HD
ENDROOT
BRANCH   1   3
HETATM    3  C9  UNL     1      -4.732  15.108   8.586  1.00  0.00     0.062 C 
BRANCH   3   4
HETATM    4  C8  UNL     1      -5.890  14.358   9.175  1.00  0.00     0.070 C 
BRANCH   4   5
HETATM    5  C7  UNL     1      -5.581  12.881   9.057  1.00  0.00     0.172 C 
BRANCH   5   6
HETATM    6  O2  UNL     1      -4.356  12.471   9.359  1.00  0.00    -0.389 OA
BRANCH   6   7
HETATM    7  C6  UNL     1      -4.008  11.680  10.362  1.00  0.00     0.194 C 
BRANCH   7   8
HETATM    8  C5  UNL     1      -3.924  12.383  11.686  1.00  0.00     0.201 C 
BRANCH   8   9
HETATM    9  O1  UNL     1      -2.599  12.604  12.067  1.00  0.00    -0.349 OA
BRANCH   9  10
HETATM   10  C4  UNL     1      -2.127  13.881  12.353  1.00  0.00     0.068 A 
HETATM   11  C3  UNL     1      -2.926  14.869  12.886  1.00  0.00     0.037 A 
HETATM   12  C2  UNL     1      -2.412  16.118  13.152  1.00  0.00     0.003 A 
HETATM   13  C1  UNL     1      -1.095  16.445  12.905  1.00  0.00     0.000 A 
HETATM   14  C21 UNL     1      -0.291  15.456  12.368  1.00  0.00     0.003 A 
HETATM   15  C20 UNL     1      -0.813  14.198  12.102  1.00  0.00     0.037 A 
ENDBRANCH   9  10
ENDBRANCH   8   9
ENDBRANCH   7   8
ENDBRANCH   6   7
ENDBRANCH   5   6
ENDBRANCH   4   5
ENDBRANCH   3   4
ENDBRANCH   1   3
BRANCH   1  16
HETATM   16  C10 UNL     1      -2.344  15.306   8.975  1.00  0.00     0.060 C 
BRANCH  16  17
HETATM   17  C11 UNL     1      -1.587  16.555   8.803  1.00  0.00     0.049 C 
BRANCH  17  18
HETATM   18  C12 UNL     1      -1.955  17.707   9.660  1.00  0.00     0.049 C 
BRANCH  18  19
HETATM   19  C13 UNL     1      -2.937  18.726   9.223  1.00  0.00     0.056 C 
BRANCH  19  20
HETATM   20  N2  UNL     1      -3.605  19.474  10.200  1.00  0.00    -0.402 N 
ATOM     21  H2  UNL     1      -4.436  20.009   9.944  1.00  0.00     0.158 HD
BRANCH  20  22
HETATM   22  C14 UNL     1      -3.141  19.496  11.546  1.00  0.00     0.123 C 
BRANCH  22  23
HETATM   23  C15 UNL     1      -2.658  20.751  12.157  1.00  0.00     0.003 C 
HETATM   24  C16 UNL     1      -1.216  20.961  12.420  1.00  0.00     0.006 C 
HETATM   25  C17 UNL     1      -0.923  20.001  13.560  1.00  0.00     0.000 C 
HETATM   26  C18 UNL     1      -2.247  19.853  14.297  1.00  0.00     0.000 C 
HETATM   27  C19 UNL     1      -3.207  20.792  13.607  1.00  0.00     0.006 C 
ENDBRANCH  22  23
ENDBRANCH  20  22
ENDBRANCH  19  20
ENDBRANCH  18  19
ENDBRANCH  17  18
ENDBRANCH  16  17
ENDBRANCH   1  16
TORSDOF 15
ENDMDL
MODEL 3
REMARK VINA RESULT: -6.553555121      1.980      6.151
REMARK  15 active torsions:
REMARK  status: ('A' for Active; 'I' for Inactive)
REMARK    1  A    between atoms: C4_4  and  O1_5 
REMARK    2  A    between atoms: O1_5  and  C5_6 
REMARK    3  A    between atoms: C5_6  and  C6_7 
REMARK    4  A    between atoms: C6_7  and  O2_8 
REMARK    5  A    between atoms: O2_8  and  C7_9 
REMARK    6  A    between atoms: C7_9  and  C8_10 
REMARK    7  A    between atoms: C8_10  and  C9_11 
REMARK    8  A    between atoms: C9_11  and  N1_12 
REMARK    9  A    between atoms: N1_12  and  C10_14 
REMARK   10  A    between atoms: C10_14  and  C11_15 
REMARK   11  A    between atoms: C11_15  and  C12_16 
REMARK   12  A    between atoms: C12_16  and  C13_17 
REMARK   13  A    between atoms: C13_17  and  N2_18 
REMARK   14  A    between atoms: N2_18  and  C14_20 
REMARK   15  A    between atoms: C14_20  and  C15_21 
ROOT
HETATM    1  N1  UNL     1      -2.074  18.211  13.459  1.00  0.00    -0.382 N 
ATOM      2  H1  UNL     1      -3.054  18.231  13.176  1.00  0.00     0.163 HD
ENDROOT
BRANCH   1   3
HETATM    3  C9  UNL     1      -1.583  19.258  14.202  1.00  0.00     0.062 C 
BRANCH   3   4
HETATM    4  C8  UNL     1      -2.554  20.368  14.471  1.00  0.00     0.070 C 
BRANCH   4   5
HETATM    5  C7  UNL     1      -3.121  20.808  13.139  1.00  0.00     0.172 C 
BRANCH   5   6
HETATM    6  O2  UNL     1      -2.271  21.124  12.170  1.00  0.00    -0.389 OA
BRANCH   6   7
HETATM    7  C6  UNL     1      -2.332  20.743  10.904  1.00  0.00     0.194 C 
BRANCH   7   8
HETATM    8  C5  UNL     1      -3.486  19.831  10.601  1.00  0.00     0.201 C 
BRANCH   8   9
HETATM    9  O1  UNL     1      -3.119  18.488  10.704  1.00  0.00    -0.349 OA
BRANCH   9  10
HETATM   10  C4  UNL     1      -3.194  17.627   9.615  1.00  0.00     0.068 A 
HETATM   11  C3  UNL     1      -2.400  16.506   9.493  1.00  0.00     0.037 A 
HETATM   12  C2  UNL     1      -2.513  15.684   8.395  1.00  0.00     0.003 A 
HETATM   13  C1  UNL     1      -3.407  15.929   7.375  1.00  0.00     0.000 A 
HETATM   14  C21 UNL     1      -4.204  17.053   7.493  1.00  0.00     0.003 A 
HETATM   15  C20 UNL     1      -4.089  17.879   8.602  1.00  0.00     0.037 A 
ENDBRANCH   9  10
ENDBRANCH   8   9
ENDBRANCH   7   8
ENDBRANCH   6   7
ENDBRANCH   5   6
ENDBRANCH   4   5
ENDBRANCH   3   4
ENDBRANCH   1   3
BRANCH   1  16
HETATM   16  C10 UNL     1      -1.296  17.126  13.077  1.00  0.00     0.060 C 
BRANCH  16  17
HETATM   17  C11 UNL     1      -1.826  15.756  13.025  1.00  0.00     0.049 C 
BRANCH  17  18
HETATM   18  C12 UNL     1      -0.976  14.711  12.408  1.00  0.00     0.049 C 
BRANCH  18  19
HETATM   19  C13 UNL     1      -0.990  13.308  12.883  1.00  0.00     0.056 C 
BRANCH  19  20
HETATM   20  N2  UNL     1      -1.736  12.366  12.164  1.00  0.00    -0.402 N 
ATOM     21  H2  UNL     1      -1.590  11.371  12.336  1.00  0.00     0.158 HD
BRANCH  20  22
HETATM   22  C14 UNL     1      -2.695  12.780  11.195  1.00  0.00     0.123 C 
BRANCH  22  23
HETATM   23  C15 UNL     1      -4.013  12.121  11.109  1.00  0.00     0.003 C 
HETATM   24  C16 UNL     1      -4.579  11.724   9.799  1.00  0.00     0.006 C 
HETATM   25  C17 UNL     1      -4.922  13.052   9.148  1.00  0.00     0.000 C 
HETATM   26  C18 UNL     1      -5.189  14.001  10.308  1.00  0.00     0.000 C 
HETATM   27  C19 UNL     1      -5.073  13.160  11.557  1.00  0.00     0.006 C 
ENDBRANCH  22  23
ENDBRANCH  20  22
ENDBRANCH  19  20
ENDBRANCH  18  19
ENDBRANCH  17  18
ENDBRANCH  16  17
ENDBRANCH   1  16
TORSDOF 15
ENDMDL
MODEL 4
REMARK VINA RESULT: -6.399461051      1.928      5.596
REMARK  15 active torsions:
REMARK  status: ('A' for Active; 'I' for Inactive)
REMARK    1  A    between atoms: C4_4  and  O1_5 
REMARK    2  A    between atoms: O1_5  and  C5_6 
REMARK    3  A    between atoms: C5_6  and  C6_7 
REMARK    4  A    between atoms: C6_7  and  O2_8 
REMARK    5  A    between atoms: O2_8  and  C7_9 
REMARK    6  A    between atoms: C7_9  and  C8_10 
REMARK    7  A    between atoms: C8_10  and  C9_11 
REMARK    8  A    between atoms: C9_11  and  N1_12 
REMARK    9  A    between atoms: N1_12  and  C10_14 
REMARK   10  A    between atoms: C10_14  and  C11_15 
REMARK   11  A    between atoms: C11_15  and  C12_16 
REMARK   12  A    between atoms: C12_16  and  C13_17 
REMARK   13  A    between atoms: C13_17  and  N2_18 
REMARK   14  A    between atoms: N2_18  and  C14_20 
REMARK   15  A    between atoms: C14_20  and  C15_21 
ROOT
HETATM    1  N1  UNL     1      -2.062  18.126   9.417  1.00  0.00    -0.382 N 
ATOM      2  H1  UNL     1      -1.273  17.837   8.838  1.00  0.00     0.163 HD
ENDROOT
BRANCH   1   3
HETATM    3  C9  UNL     1      -2.054  19.392   9.954  1.00  0.00     0.062 C 
BRANCH   3   4
HETATM    4  C8  UNL     1      -3.243  19.740  10.798  1.00  0.00     0.070 C 
BRANCH   4   5
HETATM    5  C7  UNL     1      -2.801  20.792  11.792  1.00  0.00     0.172 C 
BRANCH   5   6
HETATM    6  O2  UNL     1      -3.557  21.000  12.862  1.00  0.00    -0.389 OA
BRANCH   6   7
HETATM    7  C6  UNL     1      -3.219  20.799  14.126  1.00  0.00     0.194 C 
BRANCH   7   8
HETATM    8  C5  UNL     1      -1.942  20.028  14.295  1.00  0.00     0.201 C 
BRANCH   8   9
HETATM    9  O1  UNL     1      -2.139  18.659  14.107  1.00  0.00    -0.349 OA
BRANCH   9  10
HETATM   10  C4  UNL     1      -1.272  17.897  13.329  1.00  0.00     0.068 A 
HETATM   11  C3  UNL     1      -0.095  18.399  12.817  1.00  0.00     0.037 A 
HETATM   12  C2  UNL     1       0.730  17.604  12.053  1.00  0.00     0.003 A 
HETATM   13  C1  UNL     1       0.432  16.290  11.762  1.00  0.00     0.000 A 
HETATM   14  C21 UNL     1      -0.749  15.785  12.274  1.00  0.00     0.003 A 
HETATM   15  C20 UNL     1      -1.578  16.588  13.044  1.00  0.00     0.037 A 
ENDBRANCH   9  10
ENDBRANCH   8   9
ENDBRANCH   7   8
ENDBRANCH   6   7
ENDBRANCH   5   6
ENDBRANCH   4   5
ENDBRANCH   3   4
ENDBRANCH   1   3
BRANCH   1  16
HETATM   16  C10 UNL     1      -3.095  17.222   9.627  1.00  0.00     0.060 C 
BRANCH  16  17
HETATM   17  C11 UNL     1      -3.978  16.770   8.543  1.00  0.00     0.049 C 
BRANCH  17  18
HETATM   18  C12 UNL     1      -4.448  15.365   8.578  1.00  0.00     0.049 C 
BRANCH  18  19
HETATM   19  C13 UNL     1      -5.889  15.022   8.627  1.00  0.00     0.056 C 
BRANCH  19  20
HETATM   20  N2  UNL     1      -6.276  13.858   9.301  1.00  0.00    -0.402 N 
ATOM     21  H2  UNL     1      -7.231  13.772   9.651  1.00  0.00     0.158 HD
BRANCH  20  22
HETATM   22  C14 UNL     1      -5.354  12.790   9.503  1.00  0.00     0.123 C 
BRANCH  22  23
HETATM   23  C15 UNL     1      -5.121  12.241  10.853  1.00  0.00     0.003 C 
HETATM   24  C16 UNL     1      -5.144  13.120  12.044  1.00  0.00     0.006 C 
HETATM   25  C17 UNL     1      -3.882  13.951  11.892  1.00  0.00     0.000 C 
HETATM   26  C18 UNL     1      -2.929  13.073  11.094  1.00  0.00     0.000 C 
HETATM   27  C19 UNL     1      -3.648  11.759  10.901  1.00  0.00     0.006 C 
ENDBRANCH  22  23
ENDBRANCH  20  22
ENDBRANCH  19  20
ENDBRANCH  18  19
ENDBRANCH  17  18
ENDBRANCH  16  17
ENDBRANCH   1  16
TORSDOF 15
ENDMDL
MODEL 5
REMARK VINA RESULT: -6.353399519      1.874      5.364
REMARK  15 active torsions:
REMARK  status: ('A' for Active; 'I' for Inactive)
REMARK    1  A    between atoms: C4_4  and  O1_5 
REMARK    2  A    between atoms: O1_5  and  C5_6 
REMARK    3  A    between atoms: C5_6  and  C6_7 
REMARK    4  A    between atoms: C6_7  and  O2_8 
REMARK    5  A    between atoms: O2_8  and  C7_9 
REMARK    6  A    between atoms: C7_9  and  C8_10 
REMARK    7  A    between atoms: C8_10  and  C9_11 
REMARK    8  A    between atoms: C9_11  and  N1_12 
REMARK    9  A    between atoms: N1_12  and  C10_14 
REMARK   10  A    between atoms: C10_14  and  C11_15 
REMARK   11  A    between atoms: C11_15  and  C12_16 
REMARK   12  A    between atoms: C12_16  and  C13_17 
REMARK   13  A    between atoms: C13_17  and  N2_18 
REMARK   14  A    between atoms: N2_18  and  C14_20 
REMARK   15  A    between atoms: C14_20  and  C15_21 
ROOT
HETATM    1  N1  UNL     1      -4.827  16.366   7.817  1.00  0.00    -0.382 N 
ATOM      2  H1  UNL     1      -3.945  16.759   7.490  1.00  0.00     0.163 HD
ENDROOT
BRANCH   1   3
HETATM    3  C9  UNL     1      -6.001  16.962   7.418  1.00  0.00     0.062 C 
BRANCH   3   4
HETATM    4  C8  UNL     1      -5.845  18.167   6.540  1.00  0.00     0.070 C 
BRANCH   4   5
HETATM    5  C7  UNL     1      -4.375  18.529   6.523  1.00  0.00     0.172 C 
BRANCH   5   6
HETATM    6  O2  UNL     1      -3.971  19.540   7.281  1.00  0.00    -0.389 OA
BRANCH   6   7
HETATM    7  C6  UNL     1      -3.026  19.510   8.207  1.00  0.00     0.194 C 
BRANCH   7   8
HETATM    8  C5  UNL     1      -3.477  18.922   9.513  1.00  0.00     0.201 C 
BRANCH   8   9
HETATM    9  O1  UNL     1      -3.601  19.899  10.501  1.00  0.00    -0.349 OA
BRANCH   9  10
HETATM   10  C4  UNL     1      -3.084  19.713  11.779  1.00  0.00     0.068 A 
HETATM   11  C3  UNL     1      -2.426  18.562  12.157  1.00  0.00     0.037 A 
HETATM   12  C2  UNL     1      -1.931  18.426  13.435  1.00  0.00     0.003 A 
HETATM   13  C1  UNL     1      -2.063  19.412  14.389  1.00  0.00     0.000 A 
HETATM   14  C21 UNL     1      -2.723  20.567  14.014  1.00  0.00     0.003 A 
HETATM   15  C20 UNL     1      -3.220  20.702  12.725  1.00  0.00     0.037 A 
ENDBRANCH   9  10
ENDBRANCH   8   9
ENDBRANCH   7   8
ENDBRANCH   6   7
ENDBRANCH   5   6
ENDBRANCH   4   5
ENDBRANCH   3   4
ENDBRANCH   1   3
BRANCH   1  16
HETATM   16  C10 UNL     1      -4.790  15.252   8.646  1.00  0.00     0.060 C 
BRANCH  16  17
HETATM   17  C11 UNL     1      -5.990  14.459   8.951  1.00  0.00     0.049 C 
BRANCH  17  18
HETATM   18  C12 UNL     1      -5.820  12.998   9.137  1.00  0.00     0.049 C 
BRANCH  18  19
HETATM   19  C13 UNL     1      -5.366  12.419  10.422  1.00  0.00     0.056 C 
BRANCH  19  20
HETATM   20  N2  UNL     1      -5.239  13.266  11.529  1.00  0.00    -0.402 N 
ATOM     21  H2  UNL     1      -6.074  13.559  12.038  1.00  0.00     0.158 HD
BRANCH  20  22
HETATM   22  C14 UNL     1      -3.959  13.723  11.956  1.00  0.00     0.123 C 
BRANCH  22  23
HETATM   23  C15 UNL     1      -2.726  13.196  11.339  1.00  0.00     0.003 C 
HETATM   24  C16 UNL     1      -1.771  12.383  12.126  1.00  0.00     0.006 C 
HETATM   25  C17 UNL     1      -1.158  13.391  13.083  1.00  0.00     0.000 C 
HETATM   26  C18 UNL     1      -1.252  14.726  12.359  1.00  0.00     0.000 C 
HETATM   27  C19 UNL     1      -1.829  14.414  10.999  1.00  0.00     0.006 C 
ENDBRANCH  22  23
ENDBRANCH  20  22
ENDBRANCH  19  20
ENDBRANCH  18  19
ENDBRANCH  17  18
ENDBRANCH  16  17
ENDBRANCH   1  16
TORSDOF 15
ENDMDL
