MODEL 1
REMARK VINA RESULT: -6.646923177      0.000      0.000
REMARK  5 active torsions:
REMARK  status: ('A' for Active; 'I' for Inactive)
REMARK    1  A    between atoms: C4_4  and  O1_5 
REMARK    2  A    between atoms: C5_7  and  N1_8 
REMARK       I    between atoms: N1_8  and  C6_10 
REMARK    3  A    between atoms: C6_10  and  C7_12 
REMARK    4  A    between atoms: C7_12  and  N2_13 
REMARK    5  A    between atoms: C15_22  and  N4_23 
ROOT
HETATM    1  C1  UNL     1       6.116   8.114  28.361  1.00  0.00     0.012 C 
HETATM    2  C2  UNL     1       6.534   9.130  27.308  1.00  0.00     0.014 C 
HETATM    3  C3  UNL     1       5.447   9.297  26.308  1.00  0.00     0.040 C 
HETATM    4  C4  UNL     1       5.498   8.246  25.267  1.00  0.00     0.141 C 
HETATM    5  C5  UNL     1       6.822   7.903  24.703  1.00  0.00     0.115 C 
HETATM    6  C14 UNL     1       7.962   7.898  25.645  1.00  0.00     0.060 C 
HETATM    7  C15 UNL     1       7.896   8.880  26.759  1.00  0.00     0.189 C 
ENDROOT
BRANCH   5   8
HETATM    8  N1  UNL     1       7.103   8.810  23.602  1.00  0.00    -0.349 N 
HETATM    9  C6  UNL     1       6.364   8.866  22.416  1.00  0.00     0.257 C 
HETATM   10  O2  UNL     1       5.385   8.079  22.291  1.00  0.00    -0.267 OA
ATOM     11  H1  UNL     1       7.893   9.448  23.701  1.00  0.00     0.163 HD
BRANCH   9  12
HETATM   12  C7  UNL     1       6.659   9.782  21.320  1.00  0.00     0.169 C 
BRANCH  12  13
HETATM   13  N2  UNL     1       6.382  11.147  21.510  1.00  0.00    -0.344 N 
HETATM   14  C8  UNL     1       5.580  11.558  22.580  1.00  0.00     0.070 C 
HETATM   15  C9  UNL     1       6.262  12.366  23.652  1.00  0.00     0.075 C 
HETATM   16  C10 UNL     1       6.107  13.849  23.386  1.00  0.00     0.277 C 
HETATM   17  N3  UNL     1       6.450  14.066  21.997  1.00  0.00     0.089 N 
HETATM   18  C11 UNL     1       6.527  15.471  21.753  1.00  0.00     0.310 C 
HETATM   19  C12 UNL     1       7.575  13.313  21.543  1.00  0.00     0.317 C 
HETATM   20  C13 UNL     1       7.161  12.077  20.818  1.00  0.00     0.098 C 
ENDBRANCH  12  13
ENDBRANCH   9  12
ENDBRANCH   5   8
BRANCH   4  21
HETATM   21  O1  UNL     1       4.839   7.101  25.775  1.00  0.00    -0.394 OA
ATOM     22  H1  UNL     1       3.999   7.032  25.339  1.00  0.00     0.210 HD
ENDBRANCH   4  21
BRANCH   7  23
HETATM   23  N4  UNL     1       8.782   8.521  27.851  1.00  0.00    -0.075 N 
ATOM     24  H43 UNL     1       9.552   9.180  27.960  1.00  0.00     0.274 HD
ATOM     25  H42 UNL     1       8.350   8.656  28.765  1.00  0.00     0.274 HD
ATOM     26  H41 UNL     1       9.106   7.564  27.711  1.00  0.00     0.274 HD
ENDBRANCH   7  23
TORSDOF 5
ENDMDL
MODEL 2
REMARK VINA RESULT: -6.522019591      2.337      3.847
REMARK  5 active torsions:
REMARK  status: ('A' for Active; 'I' for Inactive)
REMARK    1  A    between atoms: C4_4  and  O1_5 
REMARK    2  A    between atoms: C5_7  and  N1_8 
REMARK       I    between atoms: N1_8  and  C6_10 
REMARK    3  A    between atoms: C6_10  and  C7_12 
REMARK    4  A    between atoms: C7_12  and  N2_13 
REMARK    5  A    between atoms: C15_22  and  N4_23 
ROOT
HETATM    1  C1  UNL     1       5.579   7.041  25.349  1.00  0.00     0.012 C 
HETATM    2  C2  UNL     1       6.533   7.754  24.402  1.00  0.00     0.014 C 
HETATM    3  C3  UNL     1       7.026   9.008  25.030  1.00  0.00     0.040 C 
HETATM    4  C4  UNL     1       6.068  10.121  24.850  1.00  0.00     0.141 C 
HETATM    5  C5  UNL     1       5.454  10.288  23.514  1.00  0.00     0.115 C 
HETATM    6  C14 UNL     1       5.109   9.049  22.784  1.00  0.00     0.060 C 
HETATM    7  C15 UNL     1       6.000   7.882  23.017  1.00  0.00     0.189 C 
ENDROOT
BRANCH   5   8
HETATM    8  N1  UNL     1       6.339  11.104  22.699  1.00  0.00    -0.349 N 
HETATM    9  C6  UNL     1       6.455  12.493  22.806  1.00  0.00     0.257 C 
HETATM   10  O2  UNL     1       5.746  13.081  23.670  1.00  0.00    -0.267 OA
ATOM     11  H1  UNL     1       6.914  10.631  22.002  1.00  0.00     0.163 HD
BRANCH   9  12
HETATM   12  C7  UNL     1       7.348  13.299  21.981  1.00  0.00     0.169 C 
BRANCH  12  13
HETATM   13  N2  UNL     1       6.809  14.426  21.336  1.00  0.00    -0.344 N 
HETATM   14  C8  UNL     1       6.792  15.665  21.986  1.00  0.00     0.070 C 
HETATM   15  C9  UNL     1       7.669  16.739  21.399  1.00  0.00     0.075 C 
HETATM   16  C10 UNL     1       6.886  17.600  20.429  1.00  0.00     0.277 C 
HETATM   17  N3  UNL     1       6.169  16.700  19.552  1.00  0.00     0.089 N 
HETATM   18  C11 UNL     1       5.586  17.456  18.488  1.00  0.00     0.310 C 
HETATM   19  C12 UNL     1       6.918  15.556  19.139  1.00  0.00     0.317 C 
HETATM   20  C13 UNL     1       6.593  14.353  19.958  1.00  0.00     0.098 C 
ENDBRANCH  12  13
ENDBRANCH   9  12
ENDBRANCH   5   8
BRANCH   4  21
HETATM   21  O1  UNL     1       5.084  10.013  25.862  1.00  0.00    -0.394 OA
ATOM     22  H1  UNL     1       4.235  10.143  25.456  1.00  0.00     0.210 HD
ENDBRANCH   4  21
BRANCH   7  23
HETATM   23  N4  UNL     1       5.363   6.632  22.643  1.00  0.00    -0.075 N 
ATOM     24  H43 UNL     1       5.643   6.315  21.716  1.00  0.00     0.274 HD
ATOM     25  H42 UNL     1       5.719   5.839  23.177  1.00  0.00     0.274 HD
ATOM     26  H41 UNL     1       4.353   6.739  22.730  1.00  0.00     0.274 HD
ENDBRANCH   7  23
TORSDOF 5
ENDMDL
MODEL 3
REMARK VINA RESULT: -6.429067393      2.205      3.119
REMARK  5 active torsions:
REMARK  status: ('A' for Active; 'I' for Inactive)
REMARK    1  A    between atoms: C4_4  and  O1_5 
REMARK    2  A    between atoms: C5_7  and  N1_8 
REMARK       I    between atoms: N1_8  and  C6_10 
REMARK    3  A    between atoms: C6_10  and  C7_12 
REMARK    4  A    between atoms: C7_12  and  N2_13 
REMARK    5  A    between atoms: C15_22  and  N4_23 
ROOT
HETATM    1  C1  UNL     1       5.721   7.295  26.257  1.00  0.00     0.012 C 
HETATM    2  C2  UNL     1       6.696   7.678  25.153  1.00  0.00     0.014 C 
HETATM    3  C3  UNL     1       7.117   9.094  25.320  1.00  0.00     0.040 C 
HETATM    4  C4  UNL     1       6.132  10.029  24.730  1.00  0.00     0.141 C 
HETATM    5  C5  UNL     1       5.578   9.692  23.400  1.00  0.00     0.115 C 
HETATM    6  C14 UNL     1       5.309   8.261  23.138  1.00  0.00     0.060 C 
HETATM    7  C15 UNL     1       6.226   7.292  23.794  1.00  0.00     0.189 C 
ENDROOT
BRANCH   5   8
HETATM    8  N1  UNL     1       6.474  10.215  22.381  1.00  0.00    -0.349 N 
HETATM    9  C6  UNL     1       6.061  10.961  21.274  1.00  0.00     0.257 C 
HETATM   10  O2  UNL     1       4.827  11.201  21.149  1.00  0.00    -0.267 OA
ATOM     11  H1  UNL     1       7.471  10.024  22.481  1.00  0.00     0.163 HD
BRANCH   9  12
HETATM   12  C7  UNL     1       6.971  11.479  20.259  1.00  0.00     0.169 C 
BRANCH  12  13
HETATM   13  N2  UNL     1       7.304  12.844  20.308  1.00  0.00    -0.344 N 
HETATM   14  C8  UNL     1       7.196  13.635  19.159  1.00  0.00     0.070 C 
HETATM   15  C9  UNL     1       6.141  14.709  19.186  1.00  0.00     0.075 C 
HETATM   16  C10 UNL     1       6.731  16.027  19.646  1.00  0.00     0.277 C 
HETATM   17  N3  UNL     1       7.504  15.749  20.837  1.00  0.00     0.089 N 
HETATM   18  C11 UNL     1       7.903  16.987  21.429  1.00  0.00     0.310 C 
HETATM   19  C12 UNL     1       6.893  14.822  21.734  1.00  0.00     0.317 C 
HETATM   20  C13 UNL     1       7.434  13.443  21.563  1.00  0.00     0.098 C 
ENDBRANCH  12  13
ENDBRANCH   9  12
ENDBRANCH   5   8
BRANCH   4  21
HETATM   21  O1  UNL     1       5.106  10.233  25.682  1.00  0.00    -0.394 OA
ATOM     22  H1  UNL     1       5.421  10.862  26.320  1.00  0.00     0.210 HD
ENDBRANCH   4  21
BRANCH   7  23
HETATM   23  N4  UNL     1       5.649   5.961  23.859  1.00  0.00    -0.075 N 
ATOM     24  H43 UNL     1       4.649   5.960  23.656  1.00  0.00     0.274 HD
ATOM     25  H42 UNL     1       5.951   5.367  23.087  1.00  0.00     0.274 HD
ATOM     26  H41 UNL     1       5.862   5.554  24.770  1.00  0.00     0.274 HD
ENDBRANCH   7  23
TORSDOF 5
ENDMDL
MODEL 4
REMARK VINA RESULT: -6.421770026      2.943      5.828
REMARK  5 active torsions:
REMARK  status: ('A' for Active; 'I' for Inactive)
REMARK    1  A    between atoms: C4_4  and  O1_5 
REMARK    2  A    between atoms: C5_7  and  N1_8 
REMARK       I    between atoms: N1_8  and  C6_10 
REMARK    3  A    between atoms: C6_10  and  C7_12 
REMARK    4  A    between atoms: C7_12  and  N2_13 
REMARK    5  A    between atoms: C15_22  and  N4_23 
ROOT
HETATM    1  C1  UNL     1       6.669   3.265  20.700  1.00  0.00     0.012 C 
HETATM    2  C2  UNL     1       7.451   4.332  21.454  1.00  0.00     0.014 C 
HETATM    3  C3  UNL     1       6.648   4.828  22.603  1.00  0.00     0.040 C 
HETATM    4  C4  UNL     1       5.687   5.874  22.185  1.00  0.00     0.141 C 
HETATM    5  C5  UNL     1       6.173   6.921  21.259  1.00  0.00     0.115 C 
HETATM    6  C14 UNL     1       7.115   6.488  20.204  1.00  0.00     0.060 C 
HETATM    7  C15 UNL     1       8.032   5.373  20.562  1.00  0.00     0.189 C 
ENDROOT
BRANCH   5   8
HETATM    8  N1  UNL     1       6.776   7.987  22.044  1.00  0.00    -0.349 N 
HETATM    9  C6  UNL     1       6.100   9.134  22.469  1.00  0.00     0.257 C 
HETATM   10  O2  UNL     1       4.883   9.255  22.154  1.00  0.00    -0.267 OA
ATOM     11  H1  UNL     1       7.758   7.891  22.301  1.00  0.00     0.163 HD
BRANCH   9  12
HETATM   12  C7  UNL     1       6.718  10.195  23.255  1.00  0.00     0.169 C 
BRANCH  12  13
HETATM   13  N2  UNL     1       6.890   9.978  24.634  1.00  0.00    -0.344 N 
HETATM   14  C8  UNL     1       5.793  10.060  25.499  1.00  0.00     0.070 C 
HETATM   15  C9  UNL     1       5.367   8.776  26.160  1.00  0.00     0.075 C 
HETATM   16  C10 UNL     1       6.019   8.631  27.520  1.00  0.00     0.277 C 
HETATM   17  N3  UNL     1       7.427   8.916  27.344  1.00  0.00     0.089 N 
HETATM   18  C11 UNL     1       8.121   8.586  28.549  1.00  0.00     0.310 C 
HETATM   19  C12 UNL     1       7.995   8.371  26.154  1.00  0.00     0.317 C 
HETATM   20  C13 UNL     1       8.079   9.383  25.062  1.00  0.00     0.098 C 
ENDBRANCH  12  13
ENDBRANCH   9  12
ENDBRANCH   5   8
BRANCH   4  21
HETATM   21  O1  UNL     1       4.537   5.226  21.676  1.00  0.00    -0.394 OA
ATOM     22  H1  UNL     1       3.953   5.895  21.338  1.00  0.00     0.210 HD
ENDBRANCH   4  21
BRANCH   7  23
HETATM   23  N4  UNL     1       8.584   4.727  19.385  1.00  0.00    -0.075 N 
ATOM     24  H43 UNL     1       7.888   4.180  18.880  1.00  0.00     0.274 HD
ATOM     25  H42 UNL     1       8.806   5.392  18.644  1.00  0.00     0.274 HD
ATOM     26  H41 UNL     1       9.391   4.170  19.664  1.00  0.00     0.274 HD
ENDBRANCH   7  23
TORSDOF 5
ENDMDL
MODEL 5
REMARK VINA RESULT: -6.365517801      2.511      3.764
REMARK  5 active torsions:
REMARK  status: ('A' for Active; 'I' for Inactive)
REMARK    1  A    between atoms: C4_4  and  O1_5 
REMARK    2  A    between atoms: C5_7  and  N1_8 
REMARK       I    between atoms: N1_8  and  C6_10 
REMARK    3  A    between atoms: C6_10  and  C7_12 
REMARK    4  A    between atoms: C7_12  and  N2_13 
REMARK    5  A    between atoms: C15_22  and  N4_23 
ROOT
HETATM    1  C1  UNL     1       6.296   4.714  23.143  1.00  0.00     0.012 C 
HETATM    2  C2  UNL     1       5.432   5.950  22.941  1.00  0.00     0.014 C 
HETATM    3  C3  UNL     1       5.723   6.558  21.616  1.00  0.00     0.040 C 
HETATM    4  C4  UNL     1       6.911   7.439  21.670  1.00  0.00     0.141 C 
HETATM    5  C5  UNL     1       7.032   8.358  22.823  1.00  0.00     0.115 C 
HETATM    6  C14 UNL     1       6.585   7.839  24.134  1.00  0.00     0.060 C 
HETATM    7  C15 UNL     1       5.452   6.877  24.106  1.00  0.00     0.189 C 
ENDROOT
BRANCH   5   8
HETATM    8  N1  UNL     1       6.313   9.583  22.513  1.00  0.00    -0.349 N 
HETATM    9  C6  UNL     1       6.717  10.859  22.916  1.00  0.00     0.257 C 
HETATM   10  O2  UNL     1       7.778  10.958  23.593  1.00  0.00    -0.267 OA
ATOM     11  H1  UNL     1       5.456   9.506  21.965  1.00  0.00     0.163 HD
BRANCH   9  12
HETATM   12  C7  UNL     1       5.985  12.080  22.598  1.00  0.00     0.169 C 
BRANCH  12  13
HETATM   13  N2  UNL     1       6.724  13.204  22.190  1.00  0.00    -0.344 N 
HETATM   14  C8  UNL     1       7.449  13.171  20.994  1.00  0.00     0.070 C 
HETATM   15  C9  UNL     1       6.968  14.083  19.896  1.00  0.00     0.075 C 
HETATM   16  C10 UNL     1       7.709  15.403  19.933  1.00  0.00     0.277 C 
HETATM   17  N3  UNL     1       7.689  15.859  21.307  1.00  0.00     0.089 N 
HETATM   18  C11 UNL     1       8.187  17.198  21.358  1.00  0.00     0.310 C 
HETATM   19  C12 UNL     1       6.447  15.652  21.979  1.00  0.00     0.317 C 
HETATM   20  C13 UNL     1       6.468  14.423  22.822  1.00  0.00     0.098 C 
ENDBRANCH  12  13
ENDBRANCH   9  12
ENDBRANCH   5   8
BRANCH   4  21
HETATM   21  O1  UNL     1       8.060   6.623  21.536  1.00  0.00    -0.394 OA
ATOM     22  H1  UNL     1       8.631   7.029  20.894  1.00  0.00     0.210 HD
ENDBRANCH   4  21
BRANCH   7  23
HETATM   23  N4  UNL     1       5.374   6.097  25.327  1.00  0.00    -0.075 N 
ATOM     24  H43 UNL     1       4.412   5.930  25.622  1.00  0.00     0.274 HD
ATOM     25  H42 UNL     1       5.649   5.124  25.187  1.00  0.00     0.274 HD
ATOM     26  H41 UNL     1       5.928   6.558  26.049  1.00  0.00     0.274 HD
ENDBRANCH   7  23
TORSDOF 5
ENDMDL
