MODEL 1
REMARK VINA RESULT: -6.328399975      0.000      0.000
REMARK  7 active torsions:
REMARK  status: ('A' for Active; 'I' for Inactive)
REMARK    1  A    between atoms: C2_2  and  C4_4 
REMARK    2  A    between atoms: C4_4  and  C5_5 
REMARK    3  A    between atoms: C6_6  and  N1_7 
REMARK    4  A    between atoms: C7_11  and  O1_12 
REMARK    5  A    between atoms: C8_14  and  O2_15 
REMARK    6  A    between atoms: C9_17  and  C10_18 
REMARK    7  A    between atoms: C10_18  and  N2_19 
ROOT
HETATM    1  C5  UNL     1       6.360   9.395  24.747  1.00  0.00     0.027 C 
HETATM    2  C6  UNL     1       6.694  10.691  24.046  1.00  0.00     0.219 C 
HETATM    3  C7  UNL     1       6.381  10.391  22.571  1.00  0.00     0.178 C 
HETATM    4  C8  UNL     1       5.077   9.646  22.689  1.00  0.00     0.155 C 
HETATM    5  C9  UNL     1       5.220   8.820  23.974  1.00  0.00     0.051 C 
ENDROOT
BRANCH   5   6
HETATM    6  C10 UNL     1       5.421   7.408  23.523  1.00  0.00     0.280 C 
BRANCH   6   7
HETATM    7  N2  UNL     1       6.702   6.831  23.731  1.00  0.00     0.092 N 
HETATM    8  C11 UNL     1       7.028   6.107  22.487  1.00  0.00     0.302 C 
HETATM    9  C12 UNL     1       5.994   5.091  22.120  1.00  0.00     0.302 C 
HETATM   10  N3  UNL     1       5.758   4.123  23.161  1.00  0.00     0.087 N 
HETATM   11  C13 UNL     1       6.075   2.771  22.675  1.00  0.00     0.310 C 
HETATM   12  C14 UNL     1       6.735   4.393  24.202  1.00  0.00     0.302 C 
HETATM   13  C15 UNL     1       6.681   5.782  24.747  1.00  0.00     0.302 C 
ENDBRANCH   6   7
ENDBRANCH   5   6
BRANCH   1  14
HETATM   14  C4  UNL     1       6.075   9.477  26.191  1.00  0.00     0.011 C 
BRANCH  14  15
HETATM   15  C2  UNL     1       6.899   8.681  27.127  1.00  0.00    -0.022 C 
HETATM   16  C1  UNL     1       8.349   8.555  26.700  1.00  0.00     0.009 C 
HETATM   17  C3  UNL     1       6.742   8.944  28.592  1.00  0.00     0.009 C 
ENDBRANCH  14  15
ENDBRANCH   1  14
BRANCH   4  18
HETATM   18  O2  UNL     1       5.004   8.808  21.565  1.00  0.00    -0.392 OA
ATOM     19  H2  UNL     1       4.285   8.211  21.728  1.00  0.00     0.210 HD
ENDBRANCH   4  18
BRANCH   2  20
HETATM   20  N1  UNL     1       5.806  11.765  24.397  1.00  0.00    -0.072 N 
ATOM     21  H13 UNL     1       5.961  12.575  23.798  1.00  0.00     0.274 HD
ATOM     22  H12 UNL     1       4.846  11.544  24.136  1.00  0.00     0.274 HD
ATOM     23  H11 UNL     1       5.864  12.025  25.381  1.00  0.00     0.274 HD
ENDBRANCH   2  20
BRANCH   3  24
HETATM   24  O1  UNL     1       7.411   9.636  22.043  1.00  0.00    -0.391 OA
ATOM     25  H1  UNL     1       7.043   8.866  21.626  1.00  0.00     0.210 HD
ENDBRANCH   3  24
TORSDOF 7
ENDMDL
MODEL 2
REMARK VINA RESULT: -5.918409633      0.977      1.384
REMARK  7 active torsions:
REMARK  status: ('A' for Active; 'I' for Inactive)
REMARK    1  A    between atoms: C2_2  and  C4_4 
REMARK    2  A    between atoms: C4_4  and  C5_5 
REMARK    3  A    between atoms: C6_6  and  N1_7 
REMARK    4  A    between atoms: C7_11  and  O1_12 
REMARK    5  A    between atoms: C8_14  and  O2_15 
REMARK    6  A    between atoms: C9_17  and  C10_18 
REMARK    7  A    between atoms: C10_18  and  N2_19 
ROOT
HETATM    1  C5  UNL     1       6.476   9.711  24.604  1.00  0.00     0.027 C 
HETATM    2  C6  UNL     1       6.772  11.095  24.076  1.00  0.00     0.219 C 
HETATM    3  C7  UNL     1       6.783  10.902  22.551  1.00  0.00     0.178 C 
HETATM    4  C8  UNL     1       5.583  10.012  22.355  1.00  0.00     0.155 C 
HETATM    5  C9  UNL     1       5.583   9.090  23.582  1.00  0.00     0.051 C 
ENDROOT
BRANCH   5   6
HETATM    6  C10 UNL     1       6.039   7.756  23.082  1.00  0.00     0.280 C 
BRANCH   6   7
HETATM    7  N2  UNL     1       5.191   6.643  23.321  1.00  0.00     0.092 N 
HETATM    8  C11 UNL     1       5.744   5.958  24.507  1.00  0.00     0.302 C 
HETATM    9  C12 UNL     1       7.175   5.563  24.331  1.00  0.00     0.302 C 
HETATM   10  N3  UNL     1       7.393   4.725  23.180  1.00  0.00     0.087 N 
HETATM   11  C13 UNL     1       7.940   3.424  23.599  1.00  0.00     0.310 C 
HETATM   12  C14 UNL     1       6.080   4.429  22.633  1.00  0.00     0.302 C 
HETATM   13  C15 UNL     1       5.283   5.636  22.267  1.00  0.00     0.302 C 
ENDBRANCH   6   7
ENDBRANCH   5   6
BRANCH   1  14
HETATM   14  C4  UNL     1       5.917   9.627  25.965  1.00  0.00     0.011 C 
BRANCH  14  15
HETATM   15  C2  UNL     1       6.592   8.768  26.962  1.00  0.00    -0.022 C 
HETATM   16  C1  UNL     1       8.061   8.533  26.663  1.00  0.00     0.009 C 
HETATM   17  C3  UNL     1       6.328   9.039  28.410  1.00  0.00     0.009 C 
ENDBRANCH  14  15
ENDBRANCH   1  14
BRANCH   4  18
HETATM   18  O2  UNL     1       5.828   9.280  21.183  1.00  0.00    -0.392 OA
ATOM     19  H2  UNL     1       5.165   8.601  21.154  1.00  0.00     0.210 HD
ENDBRANCH   4  18
BRANCH   2  20
HETATM   20  N1  UNL     1       5.708  12.029  24.319  1.00  0.00    -0.072 N 
ATOM     21  H13 UNL     1       5.834  12.875  23.765  1.00  0.00     0.274 HD
ATOM     22  H12 UNL     1       4.832  11.695  23.918  1.00  0.00     0.274 HD
ATOM     23  H11 UNL     1       5.593  12.255  25.306  1.00  0.00     0.274 HD
ENDBRANCH   2  20
BRANCH   3  24
HETATM   24  O1  UNL     1       7.980  10.315  22.185  1.00  0.00    -0.391 OA
ATOM     25  H1  UNL     1       8.095  10.415  21.248  1.00  0.00     0.210 HD
ENDBRANCH   3  24
TORSDOF 7
ENDMDL
MODEL 3
REMARK VINA RESULT: -5.668655323      0.967      1.290
REMARK  7 active torsions:
REMARK  status: ('A' for Active; 'I' for Inactive)
REMARK    1  A    between atoms: C2_2  and  C4_4 
REMARK    2  A    between atoms: C4_4  and  C5_5 
REMARK    3  A    between atoms: C6_6  and  N1_7 
REMARK    4  A    between atoms: C7_11  and  O1_12 
REMARK    5  A    between atoms: C8_14  and  O2_15 
REMARK    6  A    between atoms: C9_17  and  C10_18 
REMARK    7  A    between atoms: C10_18  and  N2_19 
ROOT
HETATM    1  C5  UNL     1       6.234   9.684  24.428  1.00  0.00     0.027 C 
HETATM    2  C6  UNL     1       6.638  11.066  23.970  1.00  0.00     0.219 C 
HETATM    3  C7  UNL     1       6.469  11.001  22.443  1.00  0.00     0.178 C 
HETATM    4  C8  UNL     1       5.157  10.270  22.320  1.00  0.00     0.155 C 
HETATM    5  C9  UNL     1       5.172   9.254  23.470  1.00  0.00     0.051 C 
ENDROOT
BRANCH   5   6
HETATM    6  C10 UNL     1       5.411   7.925  22.828  1.00  0.00     0.280 C 
BRANCH   6   7
HETATM    7  N2  UNL     1       6.608   7.240  23.170  1.00  0.00     0.092 N 
HETATM    8  C11 UNL     1       7.275   6.926  21.891  1.00  0.00     0.302 C 
HETATM    9  C12 UNL     1       6.407   6.138  20.963  1.00  0.00     0.302 C 
HETATM   10  N3  UNL     1       5.932   4.907  21.542  1.00  0.00     0.087 N 
HETATM   11  C13 UNL     1       6.407   3.761  20.751  1.00  0.00     0.310 C 
HETATM   12  C14 UNL     1       6.588   4.780  22.832  1.00  0.00     0.302 C 
HETATM   13  C15 UNL     1       6.349   5.927  23.756  1.00  0.00     0.302 C 
ENDBRANCH   6   7
ENDBRANCH   5   6
BRANCH   1  14
HETATM   14  C4  UNL     1       5.811   9.550  25.833  1.00  0.00     0.011 C 
BRANCH  14  15
HETATM   15  C2  UNL     1       6.822   9.185  26.850  1.00  0.00    -0.022 C 
HETATM   16  C1  UNL     1       6.222   8.612  28.121  1.00  0.00     0.009 C 
HETATM   17  C3  UNL     1       8.036   8.440  26.391  1.00  0.00     0.009 C 
ENDBRANCH  14  15
ENDBRANCH   1  14
BRANCH   4  18
HETATM   18  O2  UNL     1       5.191   9.616  21.079  1.00  0.00    -0.392 OA
ATOM     19  H2  UNL     1       4.699   8.811  21.192  1.00  0.00     0.210 HD
ENDBRANCH   4  18
BRANCH   2  20
HETATM   20  N1  UNL     1       5.724  12.089  24.396  1.00  0.00    -0.072 N 
ATOM     21  H13 UNL     1       4.759  11.813  24.217  1.00  0.00     0.274 HD
ATOM     22  H12 UNL     1       5.695  12.150  25.414  1.00  0.00     0.274 HD
ATOM     23  H11 UNL     1       5.924  13.000  23.984  1.00  0.00     0.274 HD
ENDBRANCH   2  20
BRANCH   3  24
HETATM   24  O1  UNL     1       7.542  10.318  21.905  1.00  0.00    -0.391 OA
ATOM     25  H1  UNL     1       7.378  10.167  20.982  1.00  0.00     0.210 HD
ENDBRANCH   3  24
TORSDOF 7
ENDMDL
MODEL 4
REMARK VINA RESULT: -5.663483625      2.223      3.854
REMARK  7 active torsions:
REMARK  status: ('A' for Active; 'I' for Inactive)
REMARK    1  A    between atoms: C2_2  and  C4_4 
REMARK    2  A    between atoms: C4_4  and  C5_5 
REMARK    3  A    between atoms: C6_6  and  N1_7 
REMARK    4  A    between atoms: C7_11  and  O1_12 
REMARK    5  A    between atoms: C8_14  and  O2_15 
REMARK    6  A    between atoms: C9_17  and  C10_18 
REMARK    7  A    between atoms: C10_18  and  N2_19 
ROOT
HETATM    1  C5  UNL     1       5.230   8.857  23.476  1.00  0.00     0.027 C 
HETATM    2  C6  UNL     1       4.923   9.059  24.941  1.00  0.00     0.219 C 
HETATM    3  C7  UNL     1       5.695   7.922  25.629  1.00  0.00     0.178 C 
HETATM    4  C8  UNL     1       7.005   7.960  24.886  1.00  0.00     0.155 C 
HETATM    5  C9  UNL     1       6.620   8.314  23.443  1.00  0.00     0.051 C 
ENDROOT
BRANCH   5   6
HETATM    6  C10 UNL     1       6.777   7.047  22.664  1.00  0.00     0.280 C 
BRANCH   6   7
HETATM    7  N2  UNL     1       5.637   6.561  21.970  1.00  0.00     0.092 N 
HETATM    8  C11 UNL     1       5.468   5.159  22.399  1.00  0.00     0.302 C 
HETATM    9  C12 UNL     1       6.686   4.327  22.155  1.00  0.00     0.302 C 
HETATM   10  N3  UNL     1       7.108   4.333  20.778  1.00  0.00     0.087 N 
HETATM   11  C13 UNL     1       7.071   2.967  20.233  1.00  0.00     0.310 C 
HETATM   12  C14 UNL     1       6.092   5.066  20.040  1.00  0.00     0.302 C 
HETATM   13  C15 UNL     1       5.865   6.457  20.531  1.00  0.00     0.302 C 
ENDBRANCH   6   7
ENDBRANCH   5   6
BRANCH   1  14
HETATM   14  C4  UNL     1       5.063  10.028  22.597  1.00  0.00     0.011 C 
BRANCH  14  15
HETATM   15  C2  UNL     1       6.243  10.554  21.877  1.00  0.00    -0.022 C 
HETATM   16  C1  UNL     1       6.162  10.379  20.372  1.00  0.00     0.009 C 
HETATM   17  C3  UNL     1       6.765  11.897  22.281  1.00  0.00     0.009 C 
ENDBRANCH  14  15
ENDBRANCH   1  14
BRANCH   4  18
HETATM   18  O2  UNL     1       7.530   6.660  24.955  1.00  0.00    -0.392 OA
ATOM     19  H2  UNL     1       8.173   6.598  24.259  1.00  0.00     0.210 HD
ENDBRANCH   4  18
BRANCH   2  20
HETATM   20  N1  UNL     1       5.494  10.265  25.474  1.00  0.00    -0.072 N 
ATOM     21  H13 UNL     1       6.463  10.116  25.752  1.00  0.00     0.274 HD
ATOM     22  H12 UNL     1       5.635  10.956  24.738  1.00  0.00     0.274 HD
ATOM     23  H11 UNL     1       4.952  10.658  26.243  1.00  0.00     0.274 HD
ENDBRANCH   2  20
BRANCH   3  24
HETATM   24  O1  UNL     1       4.993   6.744  25.464  1.00  0.00    -0.391 OA
ATOM     25  H1  UNL     1       5.398   6.069  25.996  1.00  0.00     0.210 HD
ENDBRANCH   3  24
TORSDOF 7
ENDMDL
MODEL 5
REMARK VINA RESULT: -5.649889228      1.453      1.672
REMARK  7 active torsions:
REMARK  status: ('A' for Active; 'I' for Inactive)
REMARK    1  A    between atoms: C2_2  and  C4_4 
REMARK    2  A    between atoms: C4_4  and  C5_5 
REMARK    3  A    between atoms: C6_6  and  N1_7 
REMARK    4  A    between atoms: C7_11  and  O1_12 
REMARK    5  A    between atoms: C8_14  and  O2_15 
REMARK    6  A    between atoms: C9_17  and  C10_18 
REMARK    7  A    between atoms: C10_18  and  N2_19 
ROOT
HETATM    1  C5  UNL     1       6.005   9.624  24.220  1.00  0.00     0.027 C 
HETATM    2  C6  UNL     1       6.714  10.955  24.128  1.00  0.00     0.219 C 
HETATM    3  C7  UNL     1       6.935  11.140  22.618  1.00  0.00     0.178 C 
HETATM    4  C8  UNL     1       5.605  10.695  22.066  1.00  0.00     0.155 C 
HETATM    5  C9  UNL     1       5.173   9.543  22.983  1.00  0.00     0.051 C 
ENDROOT
BRANCH   5   6
HETATM    6  C10 UNL     1       5.369   8.296  22.181  1.00  0.00     0.280 C 
BRANCH   6   7
HETATM    7  N2  UNL     1       6.278   7.329  22.686  1.00  0.00     0.092 N 
HETATM    8  C11 UNL     1       7.192   7.010  21.571  1.00  0.00     0.302 C 
HETATM    9  C12 UNL     1       6.471   6.537  20.349  1.00  0.00     0.302 C 
HETATM   10  N3  UNL     1       5.635   5.390  20.594  1.00  0.00     0.087 N 
HETATM   11  C13 UNL     1       6.080   4.256  19.770  1.00  0.00     0.310 C 
HETATM   12  C14 UNL     1       5.886   4.985  21.968  1.00  0.00     0.302 C 
HETATM   13  C15 UNL     1       5.629   6.053  22.977  1.00  0.00     0.302 C 
ENDBRANCH   6   7
ENDBRANCH   5   6
BRANCH   1  14
HETATM   14  C4  UNL     1       5.221   9.375  25.443  1.00  0.00     0.011 C 
BRANCH  14  15
HETATM   15  C2  UNL     1       5.814   8.547  26.515  1.00  0.00    -0.022 C 
HETATM   16  C1  UNL     1       7.140   7.918  26.129  1.00  0.00     0.009 C 
HETATM   17  C3  UNL     1       5.812   9.099  27.906  1.00  0.00     0.009 C 
ENDBRANCH  14  15
ENDBRANCH   1  14
BRANCH   4  18
HETATM   18  O2  UNL     1       5.859  10.228  20.767  1.00  0.00    -0.392 OA
ATOM     19  H2  UNL     1       5.799   9.281  20.812  1.00  0.00     0.210 HD
ENDBRANCH   4  18
BRANCH   2  20
HETATM   20  N1  UNL     1       5.884  12.062  24.514  1.00  0.00    -0.072 N 
ATOM     21  H13 UNL     1       4.919  11.913  24.221  1.00  0.00     0.274 HD
ATOM     22  H12 UNL     1       5.751  12.082  25.525  1.00  0.00     0.274 HD
ATOM     23  H11 UNL     1       6.232  12.959  24.177  1.00  0.00     0.274 HD
ENDBRANCH   2  20
BRANCH   3  24
HETATM   24  O1  UNL     1       7.997  10.348  22.224  1.00  0.00    -0.391 OA
ATOM     25  H1  UNL     1       7.703   9.764  21.535  1.00  0.00     0.210 HD
ENDBRANCH   3  24
TORSDOF 7
ENDMDL
