MODEL 1
REMARK VINA RESULT: -7.610363322      0.000      0.000
REMARK  4 active torsions:
REMARK  status: ('A' for Active; 'I' for Inactive)
REMARK    1  A    between atoms: N1_1  and  C1_5 
REMARK    2  A    between atoms: C4_8  and  N2_9 
REMARK       I    between atoms: N2_9  and  C5_11 
REMARK    3  A    between atoms: C5_11  and  C6_13 
REMARK    4  A    between atoms: C7_16  and  N4_17 
ROOT
HETATM    1  C6  UNL     1       6.260  11.149  23.224  1.00  0.00     0.204 A 
HETATM    2  N3  UNL     1       6.784  10.732  24.386  1.00  0.00    -0.168 N 
ATOM      3  H3  UNL     1       7.681  11.035  24.764  1.00  0.00     0.186 HD
HETATM    4  C7  UNL     1       5.955   9.857  24.982  1.00  0.00     0.696 A 
HETATM    5  N5  UNL     1       4.903   9.733  24.175  1.00  0.00    -0.130 N 
ATOM      6  H5  UNL     1       4.094   9.137  24.349  1.00  0.00     0.205 HD
HETATM    7  N6  UNL     1       5.075  10.506  23.113  1.00  0.00    -0.266 N 
ATOM      8  H6  UNL     1       4.419  10.601  22.337  1.00  0.00     0.189 HD
ENDROOT
BRANCH   1   9
HETATM    9  C5  UNL     1       6.879  12.091  22.322  1.00  0.00     0.287 C 
HETATM   10  N2  UNL     1       6.536  13.456  22.371  1.00  0.00    -0.350 N 
ATOM     11  H2  UNL     1       5.846  13.787  23.046  1.00  0.00     0.163 HD
HETATM   12  O1  UNL     1       7.721  11.696  21.496  1.00  0.00    -0.264 OA
BRANCH  10  13
HETATM   13  C4  UNL     1       7.163  14.383  21.463  1.00  0.00     0.085 C 
HETATM   14  C3  UNL     1       6.537  14.179  20.103  1.00  0.00     0.027 C 
HETATM   15  C2  UNL     1       5.821  15.446  19.716  1.00  0.00     0.035 C 
HETATM   16  C1  UNL     1       6.878  16.525  19.553  1.00  0.00     0.183 C 
HETATM   17  C14 UNL     1       7.530  16.750  20.880  1.00  0.00     0.035 C 
HETATM   18  C13 UNL     1       7.032  15.790  21.951  1.00  0.00     0.027 C 
BRANCH  16  19
HETATM   19  N1  UNL     1       6.274  17.761  19.092  1.00  0.00    -0.075 N 
ATOM     20  H13 UNL     1       6.864  18.242  18.412  1.00  0.00     0.274 HD
ATOM     21  H12 UNL     1       5.466  17.588  18.494  1.00  0.00     0.274 HD
ATOM     22  H11 UNL     1       6.040  18.360  19.883  1.00  0.00     0.274 HD
ENDBRANCH  16  19
ENDBRANCH  10  13
ENDBRANCH   1   9
BRANCH   4  23
HETATM   23  N4  UNL     1       6.203   9.212  26.243  1.00  0.00    -0.216 N 
HETATM   24  C8  UNL     1       7.295   8.320  26.550  1.00  0.00     0.146 C 
HETATM   25  C9  UNL     1       7.757   8.853  27.894  1.00  0.00     0.010 A 
HETATM   26  C10 UNL     1       7.131   8.297  29.104  1.00  0.00     0.013 A 
HETATM   27  C11 UNL     1       6.509   9.489  28.500  1.00  0.00     0.010 A 
HETATM   28  C12 UNL     1       5.420   9.327  27.440  1.00  0.00     0.146 C 
ENDBRANCH   4  23
TORSDOF 4
ENDMDL
MODEL 2
REMARK VINA RESULT: -7.406092897      1.430      1.723
REMARK  4 active torsions:
REMARK  status: ('A' for Active; 'I' for Inactive)
REMARK    1  A    between atoms: N1_1  and  C1_5 
REMARK    2  A    between atoms: C4_8  and  N2_9 
REMARK       I    between atoms: N2_9  and  C5_11 
REMARK    3  A    between atoms: C5_11  and  C6_13 
REMARK    4  A    between atoms: C7_16  and  N4_17 
ROOT
HETATM    1  C6  UNL     1       5.920  11.609  23.507  1.00  0.00     0.204 A 
HETATM    2  N3  UNL     1       6.354  11.230  24.718  1.00  0.00    -0.168 N 
ATOM      3  H3  UNL     1       6.970  11.781  25.317  1.00  0.00     0.186 HD
HETATM    4  C7  UNL     1       5.860  10.020  25.031  1.00  0.00     0.696 A 
HETATM    5  N5  UNL     1       5.109   9.647  23.997  1.00  0.00    -0.130 N 
ATOM      6  H5  UNL     1       4.594   8.769  23.928  1.00  0.00     0.205 HD
HETATM    7  N6  UNL     1       5.138  10.595  23.072  1.00  0.00    -0.266 N 
ATOM      8  H6  UNL     1       4.648  10.566  22.177  1.00  0.00     0.189 HD
ENDROOT
BRANCH   1   9
HETATM    9  C5  UNL     1       6.253  12.854  22.855  1.00  0.00     0.287 C 
HETATM   10  N2  UNL     1       6.570  12.878  21.483  1.00  0.00    -0.350 N 
ATOM     11  H2  UNL     1       6.565  12.013  20.941  1.00  0.00     0.163 HD
HETATM   12  O1  UNL     1       6.261  13.913  23.508  1.00  0.00    -0.264 OA
BRANCH  10  13
HETATM   13  C4  UNL     1       6.901  14.128  20.848  1.00  0.00     0.085 C 
HETATM   14  C3  UNL     1       8.408  14.218  20.783  1.00  0.00     0.027 C 
HETATM   15  C2  UNL     1       8.819  14.235  19.333  1.00  0.00     0.035 C 
HETATM   16  C1  UNL     1       8.278  15.520  18.730  1.00  0.00     0.183 C 
HETATM   17  C14 UNL     1       6.784  15.474  18.786  1.00  0.00     0.035 C 
HETATM   18  C13 UNL     1       6.259  14.238  19.502  1.00  0.00     0.027 C 
BRANCH  16  19
HETATM   19  N1  UNL     1       8.710  15.653  17.351  1.00  0.00    -0.075 N 
ATOM     20  H13 UNL     1       8.457  16.561  16.960  1.00  0.00     0.274 HD
ATOM     21  H12 UNL     1       9.724  15.734  17.277  1.00  0.00     0.274 HD
ATOM     22  H11 UNL     1       8.349  14.883  16.789  1.00  0.00     0.274 HD
ENDBRANCH  16  19
ENDBRANCH  10  13
ENDBRANCH   1   9
BRANCH   4  23
HETATM   23  N4  UNL     1       6.121   9.313  26.255  1.00  0.00    -0.216 N 
HETATM   24  C8  UNL     1       7.211   8.400  26.503  1.00  0.00     0.146 C 
HETATM   25  C9  UNL     1       7.695   8.863  27.864  1.00  0.00     0.010 A 
HETATM   26  C10 UNL     1       7.083   8.253  29.055  1.00  0.00     0.013 A 
HETATM   27  C11 UNL     1       6.461   9.476  28.518  1.00  0.00     0.010 A 
HETATM   28  C12 UNL     1       5.356   9.373  27.468  1.00  0.00     0.146 C 
ENDBRANCH   4  23
TORSDOF 4
ENDMDL
MODEL 3
REMARK VINA RESULT: -7.367284982      1.375      1.705
REMARK  4 active torsions:
REMARK  status: ('A' for Active; 'I' for Inactive)
REMARK    1  A    between atoms: N1_1  and  C1_5 
REMARK    2  A    between atoms: C4_8  and  N2_9 
REMARK       I    between atoms: N2_9  and  C5_11 
REMARK    3  A    between atoms: C5_11  and  C6_13 
REMARK    4  A    between atoms: C7_16  and  N4_17 
ROOT
HETATM    1  C6  UNL     1       7.079  10.490  22.524  1.00  0.00     0.204 A 
HETATM    2  N3  UNL     1       6.746  10.399  23.820  1.00  0.00    -0.168 N 
ATOM      3  H3  UNL     1       6.314  11.144  24.366  1.00  0.00     0.186 HD
HETATM    4  C7  UNL     1       7.063   9.183  24.296  1.00  0.00     0.696 A 
HETATM    5  N5  UNL     1       7.599   8.513  23.279  1.00  0.00    -0.130 N 
ATOM      6  H5  UNL     1       7.943   7.554  23.319  1.00  0.00     0.205 HD
HETATM    7  N6  UNL     1       7.615   9.290  22.205  1.00  0.00    -0.266 N 
ATOM      8  H6  UNL     1       7.973   9.025  21.287  1.00  0.00     0.189 HD
ENDROOT
BRANCH   1   9
HETATM    9  C5  UNL     1       6.881  11.655  21.694  1.00  0.00     0.287 C 
HETATM   10  N2  UNL     1       7.265  12.930  22.151  1.00  0.00    -0.350 N 
ATOM     11  H2  UNL     1       7.686  13.038  23.075  1.00  0.00     0.163 HD
HETATM   12  O1  UNL     1       6.369  11.533  20.567  1.00  0.00    -0.264 OA
BRANCH  10  13
HETATM   13  C4  UNL     1       7.061  14.083  21.311  1.00  0.00     0.085 C 
HETATM   14  C3  UNL     1       6.159  15.035  22.060  1.00  0.00     0.027 C 
HETATM   15  C2  UNL     1       6.928  16.303  22.329  1.00  0.00     0.035 C 
HETATM   16  C1  UNL     1       7.217  16.943  20.982  1.00  0.00     0.183 C 
HETATM   17  C14 UNL     1       8.102  16.023  20.204  1.00  0.00     0.035 C 
HETATM   18  C13 UNL     1       8.362  14.707  20.922  1.00  0.00     0.027 C 
BRANCH  16  19
HETATM   19  N1  UNL     1       7.881  18.221  21.162  1.00  0.00    -0.075 N 
ATOM     20  H13 UNL     1       8.597  18.381  20.452  1.00  0.00     0.274 HD
ATOM     21  H12 UNL     1       7.267  19.003  20.936  1.00  0.00     0.274 HD
ATOM     22  H11 UNL     1       8.260  18.296  22.106  1.00  0.00     0.274 HD
ENDBRANCH  16  19
ENDBRANCH  10  13
ENDBRANCH   1   9
BRANCH   4  23
HETATM   23  N4  UNL     1       6.843   8.742  25.647  1.00  0.00    -0.216 N 
HETATM   24  C8  UNL     1       7.857   8.501  26.647  1.00  0.00     0.146 C 
HETATM   25  C9  UNL     1       7.261   9.191  27.859  1.00  0.00     0.010 A 
HETATM   26  C10 UNL     1       6.387   8.399  28.739  1.00  0.00     0.013 A 
HETATM   27  C11 UNL     1       5.754   9.132  27.629  1.00  0.00     0.010 A 
HETATM   28  C12 UNL     1       5.582   8.457  26.269  1.00  0.00     0.146 C 
ENDBRANCH   4  23
TORSDOF 4
ENDMDL
MODEL 4
REMARK VINA RESULT: -7.254312059      3.437      8.518
REMARK  4 active torsions:
REMARK  status: ('A' for Active; 'I' for Inactive)
REMARK    1  A    between atoms: N1_1  and  C1_5 
REMARK    2  A    between atoms: C4_8  and  N2_9 
REMARK       I    between atoms: N2_9  and  C5_11 
REMARK    3  A    between atoms: C5_11  and  C6_13 
REMARK    4  A    between atoms: C7_16  and  N4_17 
ROOT
HETATM    1  C6  UNL     1       5.919   9.411  22.909  1.00  0.00     0.204 A 
HETATM    2  N3  UNL     1       5.563  10.284  21.954  1.00  0.00    -0.168 N 
ATOM      3  H3  UNL     1       5.716  11.292  21.997  1.00  0.00     0.186 HD
HETATM    4  C7  UNL     1       4.976   9.640  20.931  1.00  0.00     0.696 A 
HETATM    5  N5  UNL     1       4.969   8.349  21.259  1.00  0.00    -0.130 N 
ATOM      6  H5  UNL     1       4.589   7.597  20.686  1.00  0.00     0.205 HD
HETATM    7  N6  UNL     1       5.535   8.199  22.448  1.00  0.00    -0.266 N 
ATOM      8  H6  UNL     1       5.660   7.312  22.937  1.00  0.00     0.189 HD
ENDROOT
BRANCH   1   9
HETATM    9  C5  UNL     1       6.575   9.755  24.148  1.00  0.00     0.287 C 
HETATM   10  N2  UNL     1       6.333   9.003  25.314  1.00  0.00    -0.350 N 
ATOM     11  H2  UNL     1       5.693   8.210  25.289  1.00  0.00     0.163 HD
HETATM   12  O1  UNL     1       7.357  10.721  24.188  1.00  0.00    -0.264 OA
BRANCH  10  13
HETATM   13  C4  UNL     1       6.995   9.360  26.544  1.00  0.00     0.085 C 
HETATM   14  C3  UNL     1       5.947   9.379  27.633  1.00  0.00     0.027 C 
HETATM   15  C2  UNL     1       6.288   8.308  28.636  1.00  0.00     0.035 C 
HETATM   16  C1  UNL     1       7.602   8.707  29.287  1.00  0.00     0.183 C 
HETATM   17  C14 UNL     1       8.666   8.710  28.236  1.00  0.00     0.035 C 
HETATM   18  C13 UNL     1       8.120   8.423  26.844  1.00  0.00     0.027 C 
BRANCH  16  19
HETATM   19  N1  UNL     1       7.954   7.766  30.334  1.00  0.00    -0.075 N 
ATOM     20  H13 UNL     1       8.849   7.311  30.151  1.00  0.00     0.274 HD
ATOM     21  H12 UNL     1       8.200   8.240  31.203  1.00  0.00     0.274 HD
ATOM     22  H11 UNL     1       7.204   7.088  30.470  1.00  0.00     0.274 HD
ENDBRANCH  16  19
ENDBRANCH  10  13
ENDBRANCH   1   9
BRANCH   4  23
HETATM   23  N4  UNL     1       4.472  10.267  19.740  1.00  0.00    -0.216 N 
HETATM   24  C8  UNL     1       3.115  10.212  19.249  1.00  0.00     0.146 C 
HETATM   25  C9  UNL     1       2.859  11.665  18.893  1.00  0.00     0.010 A 
HETATM   26  C10 UNL     1       3.198  12.108  17.531  1.00  0.00     0.013 A 
HETATM   27  C11 UNL     1       4.240  12.226  18.567  1.00  0.00     0.010 A 
HETATM   28  C12 UNL     1       5.210  11.070  18.808  1.00  0.00     0.146 C 
ENDBRANCH   4  23
TORSDOF 4
ENDMDL
MODEL 5
REMARK VINA RESULT: -7.199826446      0.927      1.063
REMARK  4 active torsions:
REMARK  status: ('A' for Active; 'I' for Inactive)
REMARK    1  A    between atoms: N1_1  and  C1_5 
REMARK    2  A    between atoms: C4_8  and  N2_9 
REMARK       I    between atoms: N2_9  and  C5_11 
REMARK    3  A    between atoms: C5_11  and  C6_13 
REMARK    4  A    between atoms: C7_16  and  N4_17 
ROOT
HETATM    1  C6  UNL     1       6.158  11.268  23.158  1.00  0.00     0.204 A 
HETATM    2  N3  UNL     1       6.672  10.867  24.331  1.00  0.00    -0.168 N 
ATOM      3  H3  UNL     1       7.515  11.248  24.760  1.00  0.00     0.186 HD
HETATM    4  C7  UNL     1       5.917   9.888  24.858  1.00  0.00     0.696 A 
HETATM    5  N5  UNL     1       4.920   9.684  24.000  1.00  0.00    -0.130 N 
ATOM      6  H5  UNL     1       4.172   9.000  24.115  1.00  0.00     0.205 HD
HETATM    7  N6  UNL     1       5.054  10.509  22.971  1.00  0.00    -0.266 N 
ATOM      8  H6  UNL     1       4.427  10.562  22.169  1.00  0.00     0.189 HD
ENDROOT
BRANCH   1   9
HETATM    9  C5  UNL     1       6.711  12.303  22.317  1.00  0.00     0.287 C 
HETATM   10  N2  UNL     1       6.230  12.490  21.007  1.00  0.00    -0.350 N 
ATOM     11  H2  UNL     1       5.486  11.894  20.645  1.00  0.00     0.163 HD
HETATM   12  O1  UNL     1       7.619  13.034  22.751  1.00  0.00    -0.264 OA
BRANCH  10  13
HETATM   13  C4  UNL     1       6.794  13.526  20.180  1.00  0.00     0.085 C 
HETATM   14  C3  UNL     1       6.246  13.340  18.784  1.00  0.00     0.027 C 
HETATM   15  C2  UNL     1       5.419  14.550  18.434  1.00  0.00     0.035 C 
HETATM   16  C1  UNL     1       6.367  15.737  18.377  1.00  0.00     0.183 C 
HETATM   17  C14 UNL     1       6.940  15.948  19.742  1.00  0.00     0.035 C 
HETATM   18  C13 UNL     1       6.502  14.882  20.737  1.00  0.00     0.027 C 
BRANCH  16  19
HETATM   19  N1  UNL     1       5.657  16.930  17.956  1.00  0.00    -0.075 N 
ATOM     20  H13 UNL     1       4.664  16.882  18.185  1.00  0.00     0.274 HD
ATOM     21  H12 UNL     1       5.904  17.739  18.526  1.00  0.00     0.274 HD
ATOM     22  H11 UNL     1       5.811  17.104  16.963  1.00  0.00     0.274 HD
ENDBRANCH  16  19
ENDBRANCH  10  13
ENDBRANCH   1   9
BRANCH   4  23
HETATM   23  N4  UNL     1       6.176   9.227  26.108  1.00  0.00    -0.216 N 
HETATM   24  C8  UNL     1       7.304   8.378  26.412  1.00  0.00     0.146 C 
HETATM   25  C9  UNL     1       7.723   8.901  27.773  1.00  0.00     0.010 A 
HETATM   26  C10 UNL     1       7.107   8.292  28.962  1.00  0.00     0.013 A 
HETATM   27  C11 UNL     1       6.440   9.467  28.375  1.00  0.00     0.010 A 
HETATM   28  C12 UNL     1       5.374   9.280  27.297  1.00  0.00     0.146 C 
ENDBRANCH   4  23
TORSDOF 4
ENDMDL
