MODEL 1
REMARK VINA RESULT: -6.306745988      0.000      0.000
REMARK  7 active torsions:
REMARK  status: ('A' for Active; 'I' for Inactive)
REMARK    1  A    between atoms: C2_2  and  O2_4 
REMARK    2  A    between atoms: O2_4  and  C3_5 
REMARK    3  A    between atoms: C5_7  and  C6_8 
REMARK    4  A    between atoms: C6_8  and  O3_9 
REMARK    5  A    between atoms: C7_11  and  O4_12 
REMARK    6  A    between atoms: C11_18  and  N2_19 
REMARK    7  A    between atoms: N2_19  and  C12_21 
ROOT
HETATM    1  C3  UNL     1       6.246   6.674  24.266  1.00  0.00     0.168 C 
HETATM    2  C4  UNL     1       5.583   7.254  25.507  1.00  0.00     0.046 C 
HETATM    3  C5  UNL     1       6.576   8.026  26.345  1.00  0.00     0.071 C 
HETATM    4  C7  UNL     1       7.214   9.053  25.491  1.00  0.00     0.363 C 
HETATM    5  N1  UNL     1       6.946   9.017  24.111  1.00  0.00     0.126 N 
HETATM    6  C8  UNL     1       7.786   9.917  23.361  1.00  0.00     0.276 C 
HETATM    7  C9  UNL     1       7.314  10.110  21.937  1.00  0.00     0.032 C 
HETATM    8  C10 UNL     1       7.018   8.784  21.267  1.00  0.00     0.029 C 
HETATM    9  C11 UNL     1       6.087   8.041  22.165  1.00  0.00     0.113 C 
HETATM   10  C15 UNL     1       6.895   7.761  23.447  1.00  0.00     0.277 C 
ENDROOT
BRANCH   9  11
HETATM   11  N2  UNL     1       5.373   6.960  21.665  1.00  0.00    -0.411 N 
ATOM     12  H2  UNL     1       4.673   6.469  22.220  1.00  0.00     0.154 HD
BRANCH  11  13
HETATM   13  C12 UNL     1       5.680   6.582  20.331  1.00  0.00     0.077 A 
HETATM   14  C13 UNL     1       6.526   5.387  20.046  1.00  0.00     0.027 A 
HETATM   15  C14 UNL     1       5.074   5.426  19.678  1.00  0.00     0.027 A 
ENDBRANCH  11  13
ENDBRANCH   9  11
BRANCH   1  16
HETATM   16  O2  UNL     1       7.109   5.625  24.568  1.00  0.00    -0.314 OA
BRANCH  16  17
HETATM   17  C2  UNL     1       6.919   4.295  24.305  1.00  0.00     0.255 C 
HETATM   18  C1  UNL     1       5.979   3.740  23.305  1.00  0.00     0.126 C 
HETATM   19  O1  UNL     1       7.593   3.475  24.959  1.00  0.00    -0.266 OA
ENDBRANCH  16  17
ENDBRANCH   1  16
BRANCH   4  20
HETATM   20  O4  UNL     1       8.608   9.024  25.707  1.00  0.00    -0.367 OA
ATOM     21  H4  UNL     1       8.865   9.817  26.163  1.00  0.00     0.212 HD
ENDBRANCH   4  20
BRANCH   3  22
HETATM   22  C6  UNL     1       5.832   8.641  27.500  1.00  0.00     0.173 C 
BRANCH  22  23
HETATM   23  O3  UNL     1       5.013   9.640  26.956  1.00  0.00    -0.400 OA
ATOM     24  H3  UNL     1       4.281   9.740  27.552  1.00  0.00     0.209 HD
ENDBRANCH  22  23
ENDBRANCH   3  22
TORSDOF 7
ENDMDL
MODEL 2
REMARK VINA RESULT: -6.180612133      2.567      3.018
REMARK  7 active torsions:
REMARK  status: ('A' for Active; 'I' for Inactive)
REMARK    1  A    between atoms: C2_2  and  O2_4 
REMARK    2  A    between atoms: O2_4  and  C3_5 
REMARK    3  A    between atoms: C5_7  and  C6_8 
REMARK    4  A    between atoms: C6_8  and  O3_9 
REMARK    5  A    between atoms: C7_11  and  O4_12 
REMARK    6  A    between atoms: C11_18  and  N2_19 
REMARK    7  A    between atoms: N2_19  and  C12_21 
ROOT
HETATM    1  C3  UNL     1       5.385   8.549  22.577  1.00  0.00     0.168 C 
HETATM    2  C4  UNL     1       5.194   8.835  24.060  1.00  0.00     0.046 C 
HETATM    3  C5  UNL     1       6.500   9.225  24.712  1.00  0.00     0.071 C 
HETATM    4  C7  UNL     1       7.075  10.368  23.968  1.00  0.00     0.363 C 
HETATM    5  N1  UNL     1       6.452  10.746  22.766  1.00  0.00     0.126 N 
HETATM    6  C8  UNL     1       7.222  11.717  22.027  1.00  0.00     0.276 C 
HETATM    7  C9  UNL     1       6.438  12.350  20.899  1.00  0.00     0.032 C 
HETATM    8  C10 UNL     1       5.729  11.305  20.061  1.00  0.00     0.029 C 
HETATM    9  C11 UNL     1       4.943  10.454  21.001  1.00  0.00     0.113 C 
HETATM   10  C15 UNL     1       5.991   9.739  21.876  1.00  0.00     0.277 C 
ENDROOT
BRANCH   9  11
HETATM   11  N2  UNL     1       3.931   9.643  20.504  1.00  0.00    -0.411 N 
ATOM     12  H2  UNL     1       3.507   8.902  21.061  1.00  0.00     0.154 HD
BRANCH  11  13
HETATM   13  C12 UNL     1       3.524   9.913  19.170  1.00  0.00     0.077 A 
HETATM   14  C13 UNL     1       3.363   8.810  18.178  1.00  0.00     0.027 A 
HETATM   15  C14 UNL     1       2.188   9.598  18.674  1.00  0.00     0.027 A 
ENDBRANCH  11  13
ENDBRANCH   9  11
BRANCH   1  16
HETATM   16  O2  UNL     1       6.082   7.366  22.351  1.00  0.00    -0.314 OA
BRANCH  16  17
HETATM   17  C2  UNL     1       5.676   6.095  22.661  1.00  0.00     0.255 C 
HETATM   18  C1  UNL     1       6.260   5.236  23.715  1.00  0.00     0.126 C 
HETATM   19  O1  UNL     1       4.733   5.614  22.002  1.00  0.00    -0.266 OA
ENDBRANCH  16  17
ENDBRANCH   1  16
BRANCH   4  20
HETATM   20  O4  UNL     1       8.445  10.120  23.738  1.00  0.00    -0.367 OA
ATOM     21  H4  UNL     1       8.580   9.979  22.809  1.00  0.00     0.212 HD
ENDBRANCH   4  20
BRANCH   3  22
HETATM   22  C6  UNL     1       6.216   9.577  26.148  1.00  0.00     0.173 C 
BRANCH  22  23
HETATM   23  O3  UNL     1       4.869   9.957  26.203  1.00  0.00    -0.400 OA
ATOM     24  H3  UNL     1       4.436   9.330  26.771  1.00  0.00     0.209 HD
ENDBRANCH  22  23
ENDBRANCH   3  22
TORSDOF 7
ENDMDL
MODEL 3
REMARK VINA RESULT: -6.073737905      2.194      4.540
REMARK  7 active torsions:
REMARK  status: ('A' for Active; 'I' for Inactive)
REMARK    1  A    between atoms: C2_2  and  O2_4 
REMARK    2  A    between atoms: O2_4  and  C3_5 
REMARK    3  A    between atoms: C5_7  and  C6_8 
REMARK    4  A    between atoms: C6_8  and  O3_9 
REMARK    5  A    between atoms: C7_11  and  O4_12 
REMARK    6  A    between atoms: C11_18  and  N2_19 
REMARK    7  A    between atoms: N2_19  and  C12_21 
ROOT
HETATM    1  C3  UNL     1       7.082   9.612  23.379  1.00  0.00     0.168 C 
HETATM    2  C4  UNL     1       8.002   9.389  24.572  1.00  0.00     0.046 C 
HETATM    3  C5  UNL     1       7.231   8.877  25.766  1.00  0.00     0.071 C 
HETATM    4  C7  UNL     1       6.493   7.658  25.363  1.00  0.00     0.363 C 
HETATM    5  N1  UNL     1       6.487   7.318  23.999  1.00  0.00     0.126 N 
HETATM    6  C8  UNL     1       5.565   6.249  23.700  1.00  0.00     0.276 C 
HETATM    7  C9  UNL     1       5.763   5.675  22.315  1.00  0.00     0.032 C 
HETATM    8  C10 UNL     1       5.855   6.768  21.270  1.00  0.00     0.029 C 
HETATM    9  C11 UNL     1       6.902   7.725  21.732  1.00  0.00     0.113 C 
HETATM   10  C15 UNL     1       6.344   8.345  23.028  1.00  0.00     0.277 C 
ENDROOT
BRANCH   9  11
HETATM   11  N2  UNL     1       7.449   8.627  20.829  1.00  0.00    -0.411 N 
ATOM     12  H2  UNL     1       7.305   9.633  20.913  1.00  0.00     0.154 HD
BRANCH  11  13
HETATM   13  C12 UNL     1       8.222   8.059  19.782  1.00  0.00     0.077 A 
HETATM   14  C13 UNL     1       9.611   8.531  19.508  1.00  0.00     0.027 A 
HETATM   15  C14 UNL     1       9.339   7.152  20.027  1.00  0.00     0.027 A 
ENDBRANCH  11  13
ENDBRANCH   9  11
BRANCH   1  16
HETATM   16  O2  UNL     1       6.240  10.706  23.557  1.00  0.00    -0.314 OA
BRANCH  16  17
HETATM   17  C2  UNL     1       6.537  12.023  23.330  1.00  0.00     0.255 C 
HETATM   18  C1  UNL     1       6.613  12.673  22.002  1.00  0.00     0.126 C 
HETATM   19  O1  UNL     1       6.762  12.744  24.321  1.00  0.00    -0.266 OA
ENDBRANCH  16  17
ENDBRANCH   1  16
BRANCH   4  20
HETATM   20  O4  UNL     1       5.167   7.749  25.838  1.00  0.00    -0.367 OA
ATOM     21  H4  UNL     1       4.630   7.120  25.372  1.00  0.00     0.212 HD
ENDBRANCH   4  20
BRANCH   3  22
HETATM   22  C6  UNL     1       8.215   8.596  26.870  1.00  0.00     0.173 C 
BRANCH  22  23
HETATM   23  O3  UNL     1       9.412   8.221  26.247  1.00  0.00    -0.400 OA
ATOM     24  H3  UNL     1       9.775   7.514  26.767  1.00  0.00     0.209 HD
ENDBRANCH  22  23
ENDBRANCH   3  22
TORSDOF 7
ENDMDL
MODEL 4
REMARK VINA RESULT: -6.007695012      3.445      5.361
REMARK  7 active torsions:
REMARK  status: ('A' for Active; 'I' for Inactive)
REMARK    1  A    between atoms: C2_2  and  O2_4 
REMARK    2  A    between atoms: O2_4  and  C3_5 
REMARK    3  A    between atoms: C5_7  and  C6_8 
REMARK    4  A    between atoms: C6_8  and  O3_9 
REMARK    5  A    between atoms: C7_11  and  O4_12 
REMARK    6  A    between atoms: C11_18  and  N2_19 
REMARK    7  A    between atoms: N2_19  and  C12_21 
ROOT
HETATM    1  C3  UNL     1       4.972  10.022  21.351  1.00  0.00     0.168 C 
HETATM    2  C4  UNL     1       6.092  10.915  20.838  1.00  0.00     0.046 C 
HETATM    3  C5  UNL     1       6.189  12.187  21.647  1.00  0.00     0.071 C 
HETATM    4  C7  UNL     1       6.340  11.827  23.075  1.00  0.00     0.363 C 
HETATM    5  N1  UNL     1       6.191  10.474  23.427  1.00  0.00     0.126 N 
HETATM    6  C8  UNL     1       6.140  10.278  24.856  1.00  0.00     0.276 C 
HETATM    7  C9  UNL     1       6.283   8.826  25.253  1.00  0.00     0.032 C 
HETATM    8  C10 UNL     1       5.364   7.936  24.440  1.00  0.00     0.029 C 
HETATM    9  C11 UNL     1       5.620   8.244  23.003  1.00  0.00     0.113 C 
HETATM   10  C15 UNL     1       5.167   9.705  22.813  1.00  0.00     0.277 C 
ENDROOT
BRANCH   9  11
HETATM   11  N2  UNL     1       5.189   7.356  22.027  1.00  0.00    -0.411 N 
ATOM     12  H2  UNL     1       4.206   7.269  21.769  1.00  0.00     0.154 HD
BRANCH  11  13
HETATM   13  C12 UNL     1       6.204   6.578  21.409  1.00  0.00     0.077 A 
HETATM   14  C13 UNL     1       6.489   6.705  19.950  1.00  0.00     0.027 A 
HETATM   15  C14 UNL     1       7.483   7.141  20.985  1.00  0.00     0.027 A 
ENDBRANCH  11  13
ENDBRANCH   9  11
BRANCH   1  16
HETATM   16  O2  UNL     1       3.711  10.537  21.065  1.00  0.00    -0.314 OA
BRANCH  16  17
HETATM   17  C2  UNL     1       3.041  10.468  19.873  1.00  0.00     0.255 C 
HETATM   18  C1  UNL     1       2.921  11.566  18.887  1.00  0.00     0.126 C 
HETATM   19  O1  UNL     1       2.482   9.392  19.586  1.00  0.00    -0.266 OA
ENDBRANCH  16  17
ENDBRANCH   1  16
BRANCH   4  20
HETATM   20  O4  UNL     1       5.458  12.620  23.840  1.00  0.00    -0.367 OA
ATOM     21  H4  UNL     1       5.857  12.795  24.684  1.00  0.00     0.212 HD
ENDBRANCH   4  20
BRANCH   3  22
HETATM   22  C6  UNL     1       7.370  12.973  21.140  1.00  0.00     0.173 C 
BRANCH  22  23
HETATM   23  O3  UNL     1       7.891  13.659  22.244  1.00  0.00    -0.400 OA
ATOM     24  H3  UNL     1       8.433  14.356  21.895  1.00  0.00     0.209 HD
ENDBRANCH  22  23
ENDBRANCH   3  22
TORSDOF 7
ENDMDL
MODEL 5
REMARK VINA RESULT: -5.931138873      2.747      6.175
REMARK  7 active torsions:
REMARK  status: ('A' for Active; 'I' for Inactive)
REMARK    1  A    between atoms: C2_2  and  O2_4 
REMARK    2  A    between atoms: O2_4  and  C3_5 
REMARK    3  A    between atoms: C5_7  and  C6_8 
REMARK    4  A    between atoms: C6_8  and  O3_9 
REMARK    5  A    between atoms: C7_11  and  O4_12 
REMARK    6  A    between atoms: C11_18  and  N2_19 
REMARK    7  A    between atoms: N2_19  and  C12_21 
ROOT
HETATM    1  C3  UNL     1       5.790   9.926  23.330  1.00  0.00     0.168 C 
HETATM    2  C4  UNL     1       4.770  10.168  22.226  1.00  0.00     0.046 C 
HETATM    3  C5  UNL     1       5.285   9.682  20.891  1.00  0.00     0.071 C 
HETATM    4  C7  UNL     1       5.672   8.259  21.026  1.00  0.00     0.363 C 
HETATM    5  N1  UNL     1       5.669   7.699  22.315  1.00  0.00     0.126 N 
HETATM    6  C8  UNL     1       6.268   6.387  22.348  1.00  0.00     0.276 C 
HETATM    7  C9  UNL     1       6.006   5.657  23.646  1.00  0.00     0.032 C 
HETATM    8  C10 UNL     1       6.295   6.536  24.846  1.00  0.00     0.029 C 
HETATM    9  C11 UNL     1       5.534   7.804  24.649  1.00  0.00     0.113 C 
HETATM   10  C15 UNL     1       6.160   8.466  23.406  1.00  0.00     0.277 C 
ENDROOT
BRANCH   9  11
HETATM   11  N2  UNL     1       5.325   8.650  25.730  1.00  0.00    -0.411 N 
ATOM     12  H2  UNL     1       4.738   9.481  25.663  1.00  0.00     0.154 HD
BRANCH  11  13
HETATM   13  C12 UNL     1       5.979   8.282  26.936  1.00  0.00     0.077 A 
HETATM   14  C13 UNL     1       7.250   8.942  27.353  1.00  0.00     0.027 A 
HETATM   15  C14 UNL     1       5.979   9.131  28.124  1.00  0.00     0.027 A 
ENDBRANCH  11  13
ENDBRANCH   9  11
BRANCH   1  16
HETATM   16  O2  UNL     1       6.894  10.767  23.224  1.00  0.00    -0.314 OA
BRANCH  16  17
HETATM   17  C2  UNL     1       6.889  12.135  23.180  1.00  0.00     0.255 C 
HETATM   18  C1  UNL     1       7.003  12.959  21.956  1.00  0.00     0.126 C 
HETATM   19  O1  UNL     1       6.779  12.747  24.261  1.00  0.00    -0.266 OA
ENDBRANCH  16  17
ENDBRANCH   1  16
BRANCH   4  20
HETATM   20  O4  UNL     1       6.936   8.072  20.426  1.00  0.00    -0.367 OA
ATOM     21  H4  UNL     1       7.055   7.147  20.243  1.00  0.00     0.212 HD
ENDBRANCH   4  20
BRANCH   3  22
HETATM   22  C6  UNL     1       4.193   9.872  19.873  1.00  0.00     0.173 C 
BRANCH  22  23
HETATM   23  O3  UNL     1       3.979   8.619  19.285  1.00  0.00    -0.400 OA
ATOM     24  H3  UNL     1       3.381   8.153  19.857  1.00  0.00     0.209 HD
ENDBRANCH  22  23
ENDBRANCH   3  22
TORSDOF 7
ENDMDL
