MODEL 1
REMARK VINA RESULT: -5.166106297      0.000      0.000
REMARK  7 active torsions:
REMARK  status: ('A' for Active; 'I' for Inactive)
REMARK    1  A    between atoms: C2_2  and  O1_5 
REMARK    2  A    between atoms: O1_5  and  C5_6 
REMARK    3  A    between atoms: C6_7  and  C7_8 
REMARK    4  A    between atoms: C7_8  and  O2_9 
REMARK    5  A    between atoms: C8_11  and  O3_12 
REMARK    6  A    between atoms: C10_15  and  O4_16 
REMARK    7  A    between atoms: C11_18  and  N1_19 
ROOT
HETATM    1  C5  UNL     1       5.783   8.799  22.679  1.00  0.00     0.167 C 
HETATM    2  C6  UNL     1       5.314  10.170  22.285  1.00  0.00     0.069 C 
HETATM    3  C8  UNL     1       6.416  10.687  21.345  1.00  0.00     0.129 C 
HETATM    4  C9  UNL     1       7.590  10.896  22.275  1.00  0.00     0.066 C 
HETATM    5  C10 UNL     1       8.031   9.658  22.988  1.00  0.00     0.156 C 
HETATM    6  C11 UNL     1       6.932   8.910  23.686  1.00  0.00     0.280 C 
ENDROOT
BRANCH   1   7
HETATM    7  O1  UNL     1       6.313   8.152  21.605  1.00  0.00    -0.373 OA
BRANCH   7   8
HETATM    8  C2  UNL     1       6.122   6.847  21.406  1.00  0.00     0.050 C 
HETATM    9  C1  UNL     1       7.513   6.191  21.292  1.00  0.00     0.045 C 
HETATM   10  C3  UNL     1       5.418   6.503  20.122  1.00  0.00     0.045 C 
HETATM   11  C4  UNL     1       5.414   6.081  22.488  1.00  0.00     0.045 C 
ENDBRANCH   7   8
ENDBRANCH   1   7
BRANCH   2  12
HETATM   12  C7  UNL     1       3.979  10.266  21.666  1.00  0.00     0.173 C 
BRANCH  12  13
HETATM   13  O2  UNL     1       4.003   9.688  20.402  1.00  0.00    -0.400 OA
ATOM     14  H2  UNL     1       4.693  10.082  19.880  1.00  0.00     0.209 HD
ENDBRANCH  12  13
ENDBRANCH   2  12
BRANCH   6  15
HETATM   15  N1  UNL     1       6.582   9.420  24.939  1.00  0.00     0.098 N 
HETATM   16  C12 UNL     1       7.490   8.957  25.951  1.00  0.00     0.273 C 
HETATM   17  C13 UNL     1       6.659   8.597  27.165  1.00  0.00     0.032 C 
HETATM   18  C14 UNL     1       5.240   8.534  26.682  1.00  0.00     0.032 C 
HETATM   19  C15 UNL     1       5.288   9.402  25.416  1.00  0.00     0.273 C 
ENDBRANCH   6  15
BRANCH   3  20
HETATM   20  O3  UNL     1       6.069  11.888  20.773  1.00  0.00    -0.395 OA
ATOM     21  H3  UNL     1       6.723  12.179  20.148  1.00  0.00     0.210 HD
ENDBRANCH   3  20
BRANCH   5  22
HETATM   22  O4  UNL     1       9.091  10.009  23.796  1.00  0.00    -0.393 OA
ATOM     23  H4  UNL     1       9.771   9.358  23.667  1.00  0.00     0.210 HD
ENDBRANCH   5  22
TORSDOF 7
ENDMDL
MODEL 2
REMARK VINA RESULT: -4.855701858      4.962      7.413
REMARK  7 active torsions:
REMARK  status: ('A' for Active; 'I' for Inactive)
REMARK    1  A    between atoms: C2_2  and  O1_5 
REMARK    2  A    between atoms: O1_5  and  C5_6 
REMARK    3  A    between atoms: C6_7  and  C7_8 
REMARK    4  A    between atoms: C7_8  and  O2_9 
REMARK    5  A    between atoms: C8_11  and  O3_12 
REMARK    6  A    between atoms: C10_15  and  O4_16 
REMARK    7  A    between atoms: C11_18  and  N1_19 
ROOT
HETATM    1  C5  UNL     1       6.656  15.090  20.291  1.00  0.00     0.167 C 
HETATM    2  C6  UNL     1       7.850  15.629  21.026  1.00  0.00     0.069 C 
HETATM    3  C8  UNL     1       8.887  15.884  19.919  1.00  0.00     0.129 C 
HETATM    4  C9  UNL     1       9.264  14.488  19.474  1.00  0.00     0.066 C 
HETATM    5  C10 UNL     1       8.115  13.683  18.957  1.00  0.00     0.156 C 
HETATM    6  C11 UNL     1       6.917  13.643  19.863  1.00  0.00     0.280 C 
ENDROOT
BRANCH   1   7
HETATM    7  O1  UNL     1       6.464  15.775  19.130  1.00  0.00    -0.373 OA
BRANCH   7   8
HETATM    8  C2  UNL     1       5.285  16.316  18.820  1.00  0.00     0.050 C 
HETATM    9  C1  UNL     1       5.551  17.457  17.819  1.00  0.00     0.045 C 
HETATM   10  C3  UNL     1       4.568  16.964  19.975  1.00  0.00     0.045 C 
HETATM   11  C4  UNL     1       4.275  15.430  18.148  1.00  0.00     0.045 C 
ENDBRANCH   7   8
ENDBRANCH   1   7
BRANCH   2  12
HETATM   12  C7  UNL     1       7.635  16.827  21.858  1.00  0.00     0.173 C 
BRANCH  12  13
HETATM   13  O2  UNL     1       7.690  17.968  21.066  1.00  0.00    -0.400 OA
ATOM     14  H2  UNL     1       6.826  18.165  20.723  1.00  0.00     0.209 HD
ENDBRANCH  12  13
ENDBRANCH   2  12
BRANCH   6  15
HETATM   15  N1  UNL     1       7.005  12.717  20.906  1.00  0.00     0.098 N 
HETATM   16  C12 UNL     1       6.059  11.652  20.724  1.00  0.00     0.273 C 
HETATM   17  C13 UNL     1       5.446  11.362  22.078  1.00  0.00     0.032 C 
HETATM   18  C14 UNL     1       5.814  12.528  22.948  1.00  0.00     0.032 C 
HETATM   19  C15 UNL     1       7.050  13.091  22.232  1.00  0.00     0.273 C 
ENDBRANCH   6  15
BRANCH   3  20
HETATM   20  O3  UNL     1      10.002  16.522  20.409  1.00  0.00    -0.395 OA
ATOM     21  H3  UNL     1      10.504  16.931  19.714  1.00  0.00     0.210 HD
ENDBRANCH   3  20
BRANCH   5  22
HETATM   22  O4  UNL     1       8.611  12.445  18.605  1.00  0.00    -0.393 OA
ATOM     23  H4  UNL     1       8.517  11.879  19.361  1.00  0.00     0.210 HD
ENDBRANCH   5  22
TORSDOF 7
ENDMDL
MODEL 3
REMARK VINA RESULT: -4.805955977      2.799      4.814
REMARK  7 active torsions:
REMARK  status: ('A' for Active; 'I' for Inactive)
REMARK    1  A    between atoms: C2_2  and  O1_5 
REMARK    2  A    between atoms: O1_5  and  C5_6 
REMARK    3  A    between atoms: C6_7  and  C7_8 
REMARK    4  A    between atoms: C7_8  and  O2_9 
REMARK    5  A    between atoms: C8_11  and  O3_12 
REMARK    6  A    between atoms: C10_15  and  O4_16 
REMARK    7  A    between atoms: C11_18  and  N1_19 
ROOT
HETATM    1  C5  UNL     1       6.256  11.318  20.825  1.00  0.00     0.167 C 
HETATM    2  C6  UNL     1       7.628  10.707  20.824  1.00  0.00     0.069 C 
HETATM    3  C8  UNL     1       7.477   9.449  21.696  1.00  0.00     0.129 C 
HETATM    4  C9  UNL     1       7.272  10.015  23.083  1.00  0.00     0.066 C 
HETATM    5  C10 UNL     1       6.073  10.901  23.208  1.00  0.00     0.156 C 
HETATM    6  C11 UNL     1       5.985  11.988  22.175  1.00  0.00     0.280 C 
ENDROOT
BRANCH   1   7
HETATM    7  O1  UNL     1       5.305  10.351  20.711  1.00  0.00    -0.373 OA
BRANCH   7   8
HETATM    8  C2  UNL     1       4.460  10.315  19.679  1.00  0.00     0.050 C 
HETATM    9  C1  UNL     1       3.055  10.638  20.225  1.00  0.00     0.045 C 
HETATM   10  C3  UNL     1       4.327   8.968  19.022  1.00  0.00     0.045 C 
HETATM   11  C4  UNL     1       4.686  11.300  18.568  1.00  0.00     0.045 C 
ENDBRANCH   7   8
ENDBRANCH   1   7
BRANCH   2  12
HETATM   12  C7  UNL     1       8.216  10.392  19.510  1.00  0.00     0.173 C 
BRANCH  12  13
HETATM   13  O2  UNL     1       7.741   9.165  19.062  1.00  0.00    -0.400 OA
ATOM     14  H2  UNL     1       8.468   8.572  18.913  1.00  0.00     0.209 HD
ENDBRANCH  12  13
ENDBRANCH   2  12
BRANCH   6  15
HETATM   15  N1  UNL     1       6.759  13.118  22.449  1.00  0.00     0.098 N 
HETATM   16  C12 UNL     1       6.014  14.075  23.219  1.00  0.00     0.273 C 
HETATM   17  C13 UNL     1       6.319  15.443  22.648  1.00  0.00     0.032 C 
HETATM   18  C14 UNL     1       6.972  15.193  21.320  1.00  0.00     0.032 C 
HETATM   19  C15 UNL     1       7.505  13.762  21.485  1.00  0.00     0.273 C 
ENDBRANCH   6  15
BRANCH   3  20
HETATM   20  O3  UNL     1       8.620   8.685  21.681  1.00  0.00    -0.395 OA
ATOM     21  H3  UNL     1       9.348   9.138  22.092  1.00  0.00     0.210 HD
ENDBRANCH   3  20
BRANCH   5  22
HETATM   22  O4  UNL     1       6.027  11.343  24.514  1.00  0.00    -0.393 OA
ATOM     23  H4  UNL     1       5.111  11.414  24.754  1.00  0.00     0.210 HD
ENDBRANCH   5  22
TORSDOF 7
ENDMDL
MODEL 4
REMARK VINA RESULT: -4.795720580      2.144      4.033
REMARK  7 active torsions:
REMARK  status: ('A' for Active; 'I' for Inactive)
REMARK    1  A    between atoms: C2_2  and  O1_5 
REMARK    2  A    between atoms: O1_5  and  C5_6 
REMARK    3  A    between atoms: C6_7  and  C7_8 
REMARK    4  A    between atoms: C7_8  and  O2_9 
REMARK    5  A    between atoms: C8_11  and  O3_12 
REMARK    6  A    between atoms: C10_15  and  O4_16 
REMARK    7  A    between atoms: C11_18  and  N1_19 
ROOT
HETATM    1  C5  UNL     1       6.533   8.484  21.808  1.00  0.00     0.167 C 
HETATM    2  C6  UNL     1       7.623   9.471  22.112  1.00  0.00     0.069 C 
HETATM    3  C8  UNL     1       7.950   9.224  23.594  1.00  0.00     0.129 C 
HETATM    4  C9  UNL     1       6.716   9.731  24.307  1.00  0.00     0.066 C 
HETATM    5  C10 UNL     1       5.454   9.032  23.912  1.00  0.00     0.156 C 
HETATM    6  C11 UNL     1       5.215   8.956  22.431  1.00  0.00     0.280 C 
ENDROOT
BRANCH   1   7
HETATM    7  O1  UNL     1       6.797   7.288  22.401  1.00  0.00    -0.373 OA
BRANCH   7   8
HETATM    8  C2  UNL     1       6.461   6.131  21.828  1.00  0.00     0.050 C 
HETATM    9  C1  UNL     1       7.666   5.179  21.972  1.00  0.00     0.045 C 
HETATM   10  C3  UNL     1       6.201   6.215  20.348  1.00  0.00     0.045 C 
HETATM   11  C4  UNL     1       5.297   5.383  22.414  1.00  0.00     0.045 C 
ENDBRANCH   7   8
ENDBRANCH   1   7
BRANCH   2  12
HETATM   12  C7  UNL     1       8.832   9.409  21.270  1.00  0.00     0.173 C 
BRANCH  12  13
HETATM   13  O2  UNL     1       9.107   8.088  20.936  1.00  0.00    -0.400 OA
ATOM     14  H2  UNL     1       8.957   7.952  20.008  1.00  0.00     0.209 HD
ENDBRANCH  12  13
ENDBRANCH   2  12
BRANCH   6  15
HETATM   15  N1  UNL     1       4.666  10.111  21.868  1.00  0.00     0.098 N 
HETATM   16  C12 UNL     1       4.196   9.856  20.535  1.00  0.00     0.273 C 
HETATM   17  C13 UNL     1       4.600  11.041  19.684  1.00  0.00     0.032 C 
HETATM   18  C14 UNL     1       5.614  11.795  20.493  1.00  0.00     0.032 C 
HETATM   19  C15 UNL     1       5.294  11.337  21.923  1.00  0.00     0.273 C 
ENDBRANCH   6  15
BRANCH   3  20
HETATM   20  O3  UNL     1       9.042   9.956  23.999  1.00  0.00    -0.395 OA
ATOM     21  H3  UNL     1       9.251  10.643  23.378  1.00  0.00     0.210 HD
ENDBRANCH   3  20
BRANCH   5  22
HETATM   22  O4  UNL     1       4.427   9.607  24.632  1.00  0.00    -0.393 OA
ATOM     23  H4  UNL     1       3.869   8.901  24.935  1.00  0.00     0.210 HD
ENDBRANCH   5  22
TORSDOF 7
ENDMDL
MODEL 5
REMARK VINA RESULT: -4.762897354      5.465      7.972
REMARK  7 active torsions:
REMARK  status: ('A' for Active; 'I' for Inactive)
REMARK    1  A    between atoms: C2_2  and  O1_5 
REMARK    2  A    between atoms: O1_5  and  C5_6 
REMARK    3  A    between atoms: C6_7  and  C7_8 
REMARK    4  A    between atoms: C7_8  and  O2_9 
REMARK    5  A    between atoms: C8_11  and  O3_12 
REMARK    6  A    between atoms: C10_15  and  O4_16 
REMARK    7  A    between atoms: C11_18  and  N1_19 
ROOT
HETATM    1  C5  UNL     1       6.874  15.273  19.509  1.00  0.00     0.167 C 
HETATM    2  C6  UNL     1       7.174  15.748  20.902  1.00  0.00     0.069 C 
HETATM    3  C8  UNL     1       8.319  16.758  20.714  1.00  0.00     0.129 C 
HETATM    4  C9  UNL     1       9.485  15.884  20.309  1.00  0.00     0.066 C 
HETATM    5  C10 UNL     1       9.251  15.098  19.057  1.00  0.00     0.156 C 
HETATM    6  C11 UNL     1       7.971  14.314  19.037  1.00  0.00     0.280 C 
ENDROOT
BRANCH   1   7
HETATM    7  O1  UNL     1       6.912  16.315  18.634  1.00  0.00    -0.373 OA
BRANCH   7   8
HETATM    8  C2  UNL     1       5.811  16.768  18.032  1.00  0.00     0.050 C 
HETATM    9  C1  UNL     1       6.097  16.804  16.517  1.00  0.00     0.045 C 
HETATM   10  C3  UNL     1       5.432  18.178  18.394  1.00  0.00     0.045 C 
HETATM   11  C4  UNL     1       4.560  15.949  18.177  1.00  0.00     0.045 C 
ENDBRANCH   7   8
ENDBRANCH   1   7
BRANCH   2  12
HETATM   12  C7  UNL     1       6.054  16.330  21.664  1.00  0.00     0.173 C 
BRANCH  12  13
HETATM   13  O2  UNL     1       6.099  15.886  22.981  1.00  0.00    -0.400 OA
ATOM     14  H2  UNL     1       6.743  16.386  23.468  1.00  0.00     0.209 HD
ENDBRANCH  12  13
ENDBRANCH   2  12
BRANCH   6  15
HETATM   15  N1  UNL     1       8.025  13.090  19.710  1.00  0.00     0.098 N 
HETATM   16  C12 UNL     1       7.996  11.995  18.781  1.00  0.00     0.273 C 
HETATM   17  C13 UNL     1       7.074  10.942  19.360  1.00  0.00     0.032 C 
HETATM   18  C14 UNL     1       6.315  11.627  20.458  1.00  0.00     0.032 C 
HETATM   19  C15 UNL     1       7.236  12.805  20.804  1.00  0.00     0.273 C 
ENDBRANCH   6  15
BRANCH   3  20
HETATM   20  O3  UNL     1       8.622  17.403  21.890  1.00  0.00    -0.395 OA
ATOM     21  H3  UNL     1       7.883  17.402  22.488  1.00  0.00     0.210 HD
ENDBRANCH   3  20
BRANCH   5  22
HETATM   22  O4  UNL     1      10.387  14.351  18.827  1.00  0.00    -0.393 OA
ATOM     23  H4  UNL     1      10.999  14.548  19.526  1.00  0.00     0.210 HD
ENDBRANCH   5  22
TORSDOF 7
ENDMDL
