MODEL 1
REMARK VINA RESULT: -6.540047605      0.000      0.000
REMARK  3 active torsions:
REMARK  status: ('A' for Active; 'I' for Inactive)
REMARK    1  A    between atoms: C3_3  and  O1_4 
REMARK    2  A    between atoms: C3_3  and  C4_6 
REMARK    3  A    between atoms: C4_6  and  N1_7 
ROOT
HETATM    1  C1  UNL     1     -22.525  65.316  27.591  1.00  0.00     0.043 C 
HETATM    2  C2  UNL     1     -21.777  64.054  27.258  1.00  0.00     0.224 C 
HETATM    3  C3  UNL     1     -20.598  64.308  26.310  1.00  0.00     0.134 C 
HETATM    4  C10 UNL     1     -21.594  63.911  25.273  1.00  0.00     0.279 C 
HETATM    5  N2  UNL     1     -22.410  63.248  26.274  1.00  0.00    -0.057 N 
HETATM    6  C11 UNL     1     -22.213  61.820  26.381  1.00  0.00     0.238 C 
HETATM    7  C12 UNL     1     -23.238  61.452  27.452  1.00  0.00     0.029 C 
HETATM    8  C13 UNL     1     -24.351  62.426  27.192  1.00  0.00     0.029 C 
HETATM    9  C14 UNL     1     -23.819  63.344  26.114  1.00  0.00     0.238 C 
ENDROOT
BRANCH   3  10
HETATM   10  O1  UNL     1     -19.606  63.375  26.593  1.00  0.00    -0.384 OA
ATOM     11  H1  UNL     1     -18.804  63.659  26.170  1.00  0.00     0.210 HD
ENDBRANCH   3  10
BRANCH   3  12
HETATM   12  C4  UNL     1     -20.186  65.716  26.408  1.00  0.00     0.278 C 
BRANCH  12  13
HETATM   13  N1  UNL     1     -19.647  66.338  25.256  1.00  0.00    -0.064 N 
HETATM   14  C5  UNL     1     -19.058  65.451  24.292  1.00  0.00     0.272 C 
HETATM   15  C6  UNL     1     -20.631  67.146  24.567  1.00  0.00     0.263 C 
HETATM   16  C7  UNL     1     -20.979  68.401  25.309  1.00  0.00     0.195 C 
HETATM   17  O2  UNL     1     -19.810  69.148  25.543  1.00  0.00    -0.388 OA
HETATM   18  C8  UNL     1     -19.052  68.398  26.450  1.00  0.00     0.195 C 
HETATM   19  C9  UNL     1     -18.535  67.194  25.711  1.00  0.00     0.263 C 
ENDBRANCH  12  13
ENDBRANCH   3  12
TORSDOF 3
ENDMDL
MODEL 2
REMARK VINA RESULT: -6.476400383      2.194      5.300
REMARK  3 active torsions:
REMARK  status: ('A' for Active; 'I' for Inactive)
REMARK    1  A    between atoms: C3_3  and  O1_4 
REMARK    2  A    between atoms: C3_3  and  C4_6 
REMARK    3  A    between atoms: C4_6  and  N1_7 
ROOT
HETATM    1  C1  UNL     1     -20.422  66.699  23.808  1.00  0.00     0.043 C 
HETATM    2  C2  UNL     1     -19.510  66.508  24.989  1.00  0.00     0.224 C 
HETATM    3  C3  UNL     1     -19.427  65.041  25.431  1.00  0.00     0.134 C 
HETATM    4  C10 UNL     1     -20.478  65.471  26.397  1.00  0.00     0.279 C 
HETATM    5  N2  UNL     1     -20.095  66.862  26.235  1.00  0.00    -0.057 N 
HETATM    6  C11 UNL     1     -19.200  67.375  27.249  1.00  0.00     0.238 C 
HETATM    7  C12 UNL     1     -19.057  68.833  26.815  1.00  0.00     0.029 C 
HETATM    8  C13 UNL     1     -20.408  69.140  26.235  1.00  0.00     0.029 C 
HETATM    9  C14 UNL     1     -21.146  67.820  26.251  1.00  0.00     0.238 C 
ENDROOT
BRANCH   3  10
HETATM   10  O1  UNL     1     -18.161  64.821  25.963  1.00  0.00    -0.384 OA
ATOM     11  H1  UNL     1     -17.658  64.321  25.330  1.00  0.00     0.210 HD
ENDBRANCH   3  10
BRANCH   3  12
HETATM   12  C4  UNL     1     -19.799  64.171  24.306  1.00  0.00     0.278 C 
BRANCH  12  13
HETATM   13  N1  UNL     1     -20.338  62.895  24.597  1.00  0.00    -0.064 N 
HETATM   14  C5  UNL     1     -19.710  62.188  25.678  1.00  0.00     0.272 C 
HETATM   15  C6  UNL     1     -21.757  62.960  24.879  1.00  0.00     0.263 C 
HETATM   16  C7  UNL     1     -22.583  63.236  23.660  1.00  0.00     0.195 C 
HETATM   17  O2  UNL     1     -22.323  62.257  22.684  1.00  0.00    -0.388 OA
HETATM   18  C8  UNL     1     -21.002  62.467  22.273  1.00  0.00     0.195 C 
HETATM   19  C9  UNL     1     -20.109  62.050  23.410  1.00  0.00     0.263 C 
ENDBRANCH  12  13
ENDBRANCH   3  12
TORSDOF 3
ENDMDL
MODEL 3
REMARK VINA RESULT: -6.465657531      2.012      2.393
REMARK  3 active torsions:
REMARK  status: ('A' for Active; 'I' for Inactive)
REMARK    1  A    between atoms: C3_3  and  O1_4 
REMARK    2  A    between atoms: C3_3  and  C4_6 
REMARK    3  A    between atoms: C4_6  and  N1_7 
ROOT
HETATM    1  C1  UNL     1     -21.195  65.211  26.072  1.00  0.00     0.043 C 
HETATM    2  C2  UNL     1     -20.935  63.743  26.276  1.00  0.00     0.224 C 
HETATM    3  C3  UNL     1     -19.717  63.250  25.483  1.00  0.00     0.134 C 
HETATM    4  C10 UNL     1     -20.760  62.859  24.492  1.00  0.00     0.279 C 
HETATM    5  N2  UNL     1     -21.786  62.893  25.519  1.00  0.00    -0.057 N 
HETATM    6  C11 UNL     1     -22.112  61.612  26.105  1.00  0.00     0.238 C 
HETATM    7  C12 UNL     1     -23.230  61.998  27.073  1.00  0.00     0.029 C 
HETATM    8  C13 UNL     1     -23.917  63.122  26.351  1.00  0.00     0.029 C 
HETATM    9  C14 UNL     1     -23.064  63.377  25.128  1.00  0.00     0.238 C 
ENDROOT
BRANCH   3  10
HETATM   10  O1  UNL     1     -19.129  62.210  26.195  1.00  0.00    -0.384 OA
ATOM     11  H1  UNL     1     -18.198  62.212  26.007  1.00  0.00     0.210 HD
ENDBRANCH   3  10
BRANCH   3  12
HETATM   12  C4  UNL     1     -18.835  64.389  25.186  1.00  0.00     0.278 C 
BRANCH  12  13
HETATM   13  N1  UNL     1     -18.016  64.317  24.033  1.00  0.00    -0.064 N 
HETATM   14  C5  UNL     1     -17.418  63.037  23.776  1.00  0.00     0.272 C 
HETATM   15  C6  UNL     1     -18.730  64.717  22.838  1.00  0.00     0.263 C 
HETATM   16  C7  UNL     1     -18.998  66.190  22.784  1.00  0.00     0.195 C 
HETATM   17  O2  UNL     1     -17.784  66.894  22.887  1.00  0.00    -0.388 OA
HETATM   18  C8  UNL     1     -17.319  66.665  24.187  1.00  0.00     0.195 C 
HETATM   19  C9  UNL     1     -16.878  65.228  24.257  1.00  0.00     0.263 C 
ENDBRANCH  12  13
ENDBRANCH   3  12
TORSDOF 3
ENDMDL
MODEL 4
REMARK VINA RESULT: -6.434595782      3.499      4.773
REMARK  3 active torsions:
REMARK  status: ('A' for Active; 'I' for Inactive)
REMARK    1  A    between atoms: C3_3  and  O1_4 
REMARK    2  A    between atoms: C3_3  and  C4_6 
REMARK    3  A    between atoms: C4_6  and  N1_7 
ROOT
HETATM    1  C1  UNL     1     -20.962  67.407  26.092  1.00  0.00     0.043 C 
HETATM    2  C2  UNL     1     -19.730  67.738  26.889  1.00  0.00     0.224 C 
HETATM    3  C3  UNL     1     -18.470  67.073  26.319  1.00  0.00     0.134 C 
HETATM    4  C10 UNL     1     -18.779  66.042  27.352  1.00  0.00     0.279 C 
HETATM    5  N2  UNL     1     -19.597  66.988  28.089  1.00  0.00    -0.057 N 
HETATM    6  C11 UNL     1     -18.934  67.644  29.194  1.00  0.00     0.238 C 
HETATM    7  C12 UNL     1     -20.067  68.497  29.762  1.00  0.00     0.029 C 
HETATM    8  C13 UNL     1     -21.279  67.647  29.512  1.00  0.00     0.029 C 
HETATM    9  C14 UNL     1     -20.769  66.472  28.706  1.00  0.00     0.238 C 
ENDROOT
BRANCH   3  10
HETATM   10  O1  UNL     1     -17.385  67.901  26.587  1.00  0.00    -0.384 OA
ATOM     11  H1  UNL     1     -16.877  67.990  25.789  1.00  0.00     0.210 HD
ENDBRANCH   3  10
BRANCH   3  12
HETATM   12  C4  UNL     1     -18.686  66.755  24.900  1.00  0.00     0.278 C 
BRANCH  12  13
HETATM   13  N1  UNL     1     -17.782  65.867  24.269  1.00  0.00    -0.064 N 
HETATM   14  C5  UNL     1     -16.501  65.730  24.905  1.00  0.00     0.272 C 
HETATM   15  C6  UNL     1     -18.343  64.540  24.120  1.00  0.00     0.263 C 
HETATM   16  C7  UNL     1     -19.422  64.475  23.082  1.00  0.00     0.195 C 
HETATM   17  O2  UNL     1     -18.918  64.934  21.851  1.00  0.00    -0.388 OA
HETATM   18  C8  UNL     1     -18.672  66.301  22.023  1.00  0.00     0.195 C 
HETATM   19  C9  UNL     1     -17.485  66.429  22.938  1.00  0.00     0.263 C 
ENDBRANCH  12  13
ENDBRANCH   3  12
TORSDOF 3
ENDMDL
MODEL 5
REMARK VINA RESULT: -6.412743087      2.039      2.767
REMARK  3 active torsions:
REMARK  status: ('A' for Active; 'I' for Inactive)
REMARK    1  A    between atoms: C3_3  and  O1_4 
REMARK    2  A    between atoms: C3_3  and  C4_6 
REMARK    3  A    between atoms: C4_6  and  N1_7 
ROOT
HETATM    1  C1  UNL     1     -22.501  65.442  28.811  1.00  0.00     0.043 C 
HETATM    2  C2  UNL     1     -21.186  64.743  29.025  1.00  0.00     0.224 C 
HETATM    3  C3  UNL     1     -20.046  65.387  28.225  1.00  0.00     0.134 C 
HETATM    4  C10 UNL     1     -20.382  64.314  27.246  1.00  0.00     0.279 C 
HETATM    5  N2  UNL     1     -21.043  63.540  28.282  1.00  0.00    -0.057 N 
HETATM    6  C11 UNL     1     -20.237  62.500  28.881  1.00  0.00     0.238 C 
HETATM    7  C12 UNL     1     -21.231  61.870  29.855  1.00  0.00     0.029 C 
HETATM    8  C13 UNL     1     -22.539  62.015  29.131  1.00  0.00     0.029 C 
HETATM    9  C14 UNL     1     -22.213  62.829  27.899  1.00  0.00     0.238 C 
ENDROOT
BRANCH   3  10
HETATM   10  O1  UNL     1     -18.866  65.216  28.940  1.00  0.00    -0.384 OA
ATOM     11  H1  UNL     1     -18.646  64.291  28.929  1.00  0.00     0.210 HD
ENDBRANCH   3  10
BRANCH   3  12
HETATM   12  C4  UNL     1     -20.397  66.780  27.911  1.00  0.00     0.278 C 
BRANCH  12  13
HETATM   13  N1  UNL     1     -19.363  67.747  27.912  1.00  0.00    -0.064 N 
HETATM   14  C5  UNL     1     -18.786  68.037  29.196  1.00  0.00     0.272 C 
HETATM   15  C6  UNL     1     -18.284  67.385  27.017  1.00  0.00     0.263 C 
HETATM   16  C7  UNL     1     -18.656  67.514  25.572  1.00  0.00     0.195 C 
HETATM   17  O2  UNL     1     -19.086  68.828  25.312  1.00  0.00    -0.388 OA
HETATM   18  C8  UNL     1     -20.293  68.979  26.004  1.00  0.00     0.195 C 
HETATM   19  C9  UNL     1     -19.963  69.020  27.472  1.00  0.00     0.263 C 
ENDBRANCH  12  13
ENDBRANCH   3  12
TORSDOF 3
ENDMDL
