MODEL 1
REMARK VINA RESULT: -6.498676281      0.000      0.000
REMARK  2 active torsions:
REMARK  status: ('A' for Active; 'I' for Inactive)
REMARK    1  A    between atoms: C4_7  and  C6_9 
REMARK    2  A    between atoms: C6_9  and  N2_10 
ROOT
HETATM    1  C1  UNL     1     -20.643  69.054  25.780  1.00  0.00     0.053 C 
HETATM    2  C2  UNL     1     -20.517  67.549  25.950  1.00  0.00     0.312 C 
HETATM    3  C3  UNL     1     -20.047  67.015  24.645  1.00  0.00     0.253 C 
HETATM    4  O1  UNL     1     -20.753  67.337  23.679  1.00  0.00    -0.271 OA
HETATM    5  N1  UNL     1     -18.926  66.211  24.398  1.00  0.00    -0.332 N 
ATOM      6  H1  UNL     1     -18.703  66.066  23.413  1.00  0.00     0.165 HD
HETATM    7  C4  UNL     1     -18.056  65.567  25.318  1.00  0.00     0.124 C 
HETATM    8  C5  UNL     1     -16.938  66.584  25.627  1.00  0.00     0.064 C 
HETATM    9  N3  UNL     1     -18.608  65.134  26.521  1.00  0.00    -0.362 N 
ATOM     10  H3  UNL     1     -18.438  64.171  26.809  1.00  0.00     0.158 HD
HETATM   11  C10 UNL     1     -19.374  65.938  27.348  1.00  0.00     0.223 C 
HETATM   12  C11 UNL     1     -20.748  65.299  27.612  1.00  0.00     0.073 C 
HETATM   13  C12 UNL     1     -18.691  65.924  28.730  1.00  0.00     0.073 C 
HETATM   14  N4  UNL     1     -19.567  67.303  27.010  1.00  0.00     0.125 N 
HETATM   15  C13 UNL     1     -19.920  68.156  28.118  1.00  0.00     0.314 C 
ENDROOT
BRANCH   7  16
HETATM   16  C6  UNL     1     -17.307  64.405  24.684  1.00  0.00     0.288 C 
BRANCH  16  17
HETATM   17  N2  UNL     1     -18.071  63.322  24.248  1.00  0.00    -0.074 N 
HETATM   18  C7  UNL     1     -17.185  62.139  24.238  1.00  0.00     0.271 C 
HETATM   19  C8  UNL     1     -19.231  62.954  24.970  1.00  0.00     0.271 C 
HETATM   20  C9  UNL     1     -18.463  63.473  22.836  1.00  0.00     0.271 C 
ENDBRANCH  16  17
ENDBRANCH   7  16
TORSDOF 2
ENDMDL
MODEL 2
REMARK VINA RESULT: -6.366463933      2.049      4.788
REMARK  2 active torsions:
REMARK  status: ('A' for Active; 'I' for Inactive)
REMARK    1  A    between atoms: C4_7  and  C6_9 
REMARK    2  A    between atoms: C6_9  and  N2_10 
ROOT
HETATM    1  C1  UNL     1     -18.820  65.883  22.439  1.00  0.00     0.053 C 
HETATM    2  C2  UNL     1     -18.851  65.717  23.950  1.00  0.00     0.312 C 
HETATM    3  C3  UNL     1     -18.341  66.990  24.524  1.00  0.00     0.253 C 
HETATM    4  O1  UNL     1     -17.230  67.333  24.096  1.00  0.00    -0.271 OA
HETATM    5  N1  UNL     1     -18.962  67.817  25.470  1.00  0.00    -0.332 N 
ATOM      6  H1  UNL     1     -18.506  68.715  25.629  1.00  0.00     0.165 HD
HETATM    7  C4  UNL     1     -20.136  67.588  26.238  1.00  0.00     0.124 C 
HETATM    8  C5  UNL     1     -21.309  68.112  25.387  1.00  0.00     0.064 C 
HETATM    9  N3  UNL     1     -20.407  66.273  26.609  1.00  0.00    -0.362 N 
ATOM     10  H3  UNL     1     -20.608  66.082  27.591  1.00  0.00     0.158 HD
HETATM   11  C10 UNL     1     -20.421  65.212  25.720  1.00  0.00     0.223 C 
HETATM   12  C11 UNL     1     -19.449  64.109  26.171  1.00  0.00     0.073 C 
HETATM   13  C12 UNL     1     -21.809  64.552  25.846  1.00  0.00     0.073 C 
HETATM   14  N4  UNL     1     -20.218  65.457  24.337  1.00  0.00     0.125 N 
HETATM   15  C13 UNL     1     -20.733  64.435  23.459  1.00  0.00     0.314 C 
ENDROOT
BRANCH   7  16
HETATM   16  C6  UNL     1     -20.187  68.461  27.482  1.00  0.00     0.288 C 
BRANCH  16  17
HETATM   17  N2  UNL     1     -19.226  68.221  28.465  1.00  0.00    -0.074 N 
HETATM   18  C7  UNL     1     -19.856  68.509  29.770  1.00  0.00     0.271 C 
HETATM   19  C8  UNL     1     -18.645  66.934  28.570  1.00  0.00     0.271 C 
HETATM   20  C9  UNL     1     -18.124  69.195  28.390  1.00  0.00     0.271 C 
ENDBRANCH  16  17
ENDBRANCH   7  16
TORSDOF 2
ENDMDL
MODEL 3
REMARK VINA RESULT: -6.223105913      1.704      2.756
REMARK  2 active torsions:
REMARK  status: ('A' for Active; 'I' for Inactive)
REMARK    1  A    between atoms: C4_7  and  C6_9 
REMARK    2  A    between atoms: C6_9  and  N2_10 
ROOT
HETATM    1  C1  UNL     1     -18.423  68.643  27.216  1.00  0.00     0.053 C 
HETATM    2  C2  UNL     1     -18.943  67.769  26.086  1.00  0.00     0.312 C 
HETATM    3  C3  UNL     1     -17.983  66.641  25.951  1.00  0.00     0.253 C 
HETATM    4  O1  UNL     1     -16.805  66.991  25.792  1.00  0.00    -0.271 OA
HETATM    5  N1  UNL     1     -18.260  65.268  25.982  1.00  0.00    -0.332 N 
ATOM      6  H1  UNL     1     -17.442  64.659  26.008  1.00  0.00     0.165 HD
HETATM    7  C4  UNL     1     -19.514  64.598  25.982  1.00  0.00     0.124 C 
HETATM    8  C5  UNL     1     -19.915  64.452  27.464  1.00  0.00     0.064 C 
HETATM    9  N3  UNL     1     -20.561  65.207  25.296  1.00  0.00    -0.362 N 
ATOM     10  H3  UNL     1     -21.086  64.647  24.625  1.00  0.00     0.158 HD
HETATM   11  C10 UNL     1     -20.929  66.530  25.473  1.00  0.00     0.223 C 
HETATM   12  C11 UNL     1     -20.902  67.289  24.135  1.00  0.00     0.073 C 
HETATM   13  C12 UNL     1     -22.421  66.523  25.861  1.00  0.00     0.073 C 
HETATM   14  N4  UNL     1     -20.264  67.315  26.451  1.00  0.00     0.125 N 
HETATM   15  C13 UNL     1     -21.006  68.462  26.914  1.00  0.00     0.314 C 
ENDROOT
BRANCH   7  16
HETATM   16  C6  UNL     1     -19.396  63.158  25.507  1.00  0.00     0.288 C 
BRANCH  16  17
HETATM   17  N2  UNL     1     -18.930  62.957  24.208  1.00  0.00    -0.074 N 
HETATM   18  C7  UNL     1     -19.813  61.953  23.579  1.00  0.00     0.271 C 
HETATM   19  C8  UNL     1     -18.862  64.054  23.315  1.00  0.00     0.271 C 
HETATM   20  C9  UNL     1     -17.608  62.307  24.205  1.00  0.00     0.271 C 
ENDBRANCH  16  17
ENDBRANCH   7  16
TORSDOF 2
ENDMDL
MODEL 4
REMARK VINA RESULT: -6.220762758      3.282      5.062
REMARK  2 active torsions:
REMARK  status: ('A' for Active; 'I' for Inactive)
REMARK    1  A    between atoms: C4_7  and  C6_9 
REMARK    2  A    between atoms: C6_9  and  N2_10 
ROOT
HETATM    1  C1  UNL     1     -25.851  64.050  26.431  1.00  0.00     0.053 C 
HETATM    2  C2  UNL     1     -24.420  63.979  25.925  1.00  0.00     0.312 C 
HETATM    3  C3  UNL     1     -24.007  65.378  25.632  1.00  0.00     0.253 C 
HETATM    4  O1  UNL     1     -24.765  65.981  24.860  1.00  0.00    -0.271 OA
HETATM    5  N1  UNL     1     -22.887  66.064  26.119  1.00  0.00    -0.332 N 
ATOM      6  H1  UNL     1     -22.859  67.061  25.904  1.00  0.00     0.165 HD
HETATM    7  C4  UNL     1     -21.783  65.575  26.869  1.00  0.00     0.124 C 
HETATM    8  C5  UNL     1     -22.188  65.705  28.351  1.00  0.00     0.064 C 
HETATM    9  N3  UNL     1     -21.382  64.263  26.631  1.00  0.00    -0.362 N 
ATOM     10  H3  UNL     1     -20.395  64.087  26.442  1.00  0.00     0.158 HD
HETATM   11  C10 UNL     1     -22.248  63.182  26.635  1.00  0.00     0.223 C 
HETATM   12  C11 UNL     1     -22.173  62.416  25.303  1.00  0.00     0.073 C 
HETATM   13  C12 UNL     1     -21.694  62.180  27.667  1.00  0.00     0.073 C 
HETATM   14  N4  UNL     1     -23.614  63.384  26.965  1.00  0.00     0.125 N 
HETATM   15  C13 UNL     1     -24.304  62.206  27.430  1.00  0.00     0.314 C 
ENDROOT
BRANCH   7  16
HETATM   16  C6  UNL     1     -20.566  66.480  26.757  1.00  0.00     0.288 C 
BRANCH  16  17
HETATM   17  N2  UNL     1     -20.290  67.017  25.500  1.00  0.00    -0.074 N 
HETATM   18  C7  UNL     1     -18.855  67.369  25.481  1.00  0.00     0.271 C 
HETATM   19  C8  UNL     1     -20.533  66.239  24.342  1.00  0.00     0.271 C 
HETATM   20  C9  UNL     1     -20.966  68.312  25.307  1.00  0.00     0.271 C 
ENDBRANCH  16  17
ENDBRANCH   7  16
TORSDOF 2
ENDMDL
MODEL 5
REMARK VINA RESULT: -6.220111383      1.924      4.935
REMARK  2 active torsions:
REMARK  status: ('A' for Active; 'I' for Inactive)
REMARK    1  A    between atoms: C4_7  and  C6_9 
REMARK    2  A    between atoms: C6_9  and  N2_10 
ROOT
HETATM    1  C1  UNL     1     -19.555  63.645  21.226  1.00  0.00     0.053 C 
HETATM    2  C2  UNL     1     -19.372  63.690  22.734  1.00  0.00     0.312 C 
HETATM    3  C3  UNL     1     -19.009  65.092  23.072  1.00  0.00     0.253 C 
HETATM    4  O1  UNL     1     -18.029  65.528  22.451  1.00  0.00    -0.271 OA
HETATM    5  N1  UNL     1     -19.634  65.945  23.990  1.00  0.00    -0.332 N 
ATOM      6  H1  UNL     1     -19.313  66.913  23.974  1.00  0.00     0.165 HD
HETATM    7  C4  UNL     1     -20.652  65.660  24.941  1.00  0.00     0.124 C 
HETATM    8  C5  UNL     1     -21.990  65.884  24.210  1.00  0.00     0.064 C 
HETATM    9  N3  UNL     1     -20.659  64.386  25.502  1.00  0.00    -0.362 N 
ATOM     10  H3  UNL     1     -20.703  64.307  26.518  1.00  0.00     0.158 HD
HETATM   11  C10 UNL     1     -20.610  63.219  24.759  1.00  0.00     0.223 C 
HETATM   12  C11 UNL     1     -19.424  62.342  25.195  1.00  0.00     0.073 C 
HETATM   13  C12 UNL     1     -21.847  62.390  25.161  1.00  0.00     0.073 C 
HETATM   14  N4  UNL     1     -20.621  63.294  23.341  1.00  0.00     0.125 N 
HETATM   15  C13 UNL     1     -21.067  62.094  22.676  1.00  0.00     0.314 C 
ENDROOT
BRANCH   7  16
HETATM   16  C6  UNL     1     -20.690  66.683  26.066  1.00  0.00     0.288 C 
BRANCH  16  17
HETATM   17  N2  UNL     1     -19.510  66.880  26.784  1.00  0.00    -0.074 N 
HETATM   18  C7  UNL     1     -19.880  66.976  28.211  1.00  0.00     0.271 C 
HETATM   19  C8  UNL     1     -18.475  65.919  26.696  1.00  0.00     0.271 C 
HETATM   20  C9  UNL     1     -18.915  68.195  26.491  1.00  0.00     0.271 C 
ENDBRANCH  16  17
ENDBRANCH   7  16
TORSDOF 2
ENDMDL
