MODEL 1
REMARK VINA RESULT: -7.281612948      0.000      0.000
REMARK  5 active torsions:
REMARK  status: ('A' for Active; 'I' for Inactive)
REMARK    1  A    between atoms: N1_2  and  C2_4 
REMARK    2  A    between atoms: C5_7  and  N2_8 
REMARK    3  A    between atoms: C6_13  and  C7_14 
REMARK    4  A    between atoms: C8_15  and  C9_16 
REMARK    5  A    between atoms: C9_16  and  N4_17 
ROOT
HETATM    1  C2  UNL     1     -27.107  66.143  23.427  1.00  0.00     0.101 A 
HETATM    2  C3  UNL     1     -26.635  65.392  24.473  1.00  0.00     0.062 A 
HETATM    3  C4  UNL     1     -25.262  65.462  24.775  1.00  0.00     0.004 A 
HETATM    4  C5  UNL     1     -24.779  64.682  25.859  1.00  0.00     0.119 C 
HETATM    5  C6  UNL     1     -24.460  66.271  24.018  1.00  0.00     0.044 A 
HETATM    6  C13 UNL     1     -24.999  67.016  22.960  1.00  0.00     0.111 A 
HETATM    7  N6  UNL     1     -26.317  66.936  22.686  1.00  0.00    -0.351 N 
ATOM      8  H6  UNL     1     -26.713  67.476  21.917  1.00  0.00     0.166 HD
ENDROOT
BRANCH   5   9
HETATM    9  C7  UNL     1     -23.054  66.432  24.218  1.00  0.00    -0.063 C 
HETATM   10  C8  UNL     1     -21.871  66.581  24.358  1.00  0.00    -0.081 C 
BRANCH  10  11
HETATM   11  C9  UNL     1     -20.422  66.749  24.551  1.00  0.00     0.223 C 
BRANCH  11  12
HETATM   12  N4  UNL     1     -20.259  67.803  25.515  1.00  0.00    -0.341 N 
HETATM   13  C10 UNL     1     -19.362  67.835  26.506  1.00  0.00     0.110 A 
HETATM   14  C11 UNL     1     -19.503  69.009  27.230  1.00  0.00     0.106 A 
HETATM   15  N5  UNL     1     -20.509  69.677  26.644  1.00  0.00    -0.361 N 
HETATM   16  C12 UNL     1     -20.969  68.935  25.593  1.00  0.00     0.183 A 
ATOM     17  H5  UNL     1     -20.869  70.586  26.933  1.00  0.00     0.166 HD
ENDBRANCH  11  12
ENDBRANCH  10  11
ENDBRANCH   5   9
BRANCH   4  18
HETATM   18  N2  UNL     1     -23.588  64.664  26.218  1.00  0.00    -0.318 N 
HETATM   19  N3  UNL     1     -22.640  64.278  26.989  1.00  0.00    -0.345 N 
ATOM     20  H32 UNL     1     -23.141  63.673  27.639  1.00  0.00     0.176 HD
ATOM     21  H31 UNL     1     -21.664  64.263  27.284  1.00  0.00     0.176 HD
ATOM     22  H2  UNL     1     -23.123  65.277  25.549  1.00  0.00     0.185 HD
ENDBRANCH   4  18
BRANCH   1  23
HETATM   23  N1  UNL     1     -28.361  66.095  23.132  1.00  0.00    -0.381 N 
HETATM   24  C1  UNL     1     -29.261  65.184  23.849  1.00  0.00     0.147 C 
ATOM     25  H1  UNL     1     -28.731  66.695  22.394  1.00  0.00     0.160 HD
ENDBRANCH   1  23
TORSDOF 5
ENDMDL
MODEL 2
REMARK VINA RESULT: -7.122684511      1.462      2.192
REMARK  5 active torsions:
REMARK  status: ('A' for Active; 'I' for Inactive)
REMARK    1  A    between atoms: N1_2  and  C2_4 
REMARK    2  A    between atoms: C5_7  and  N2_8 
REMARK    3  A    between atoms: C6_13  and  C7_14 
REMARK    4  A    between atoms: C8_15  and  C9_16 
REMARK    5  A    between atoms: C9_16  and  N4_17 
ROOT
HETATM    1  C2  UNL     1     -27.170  65.829  23.424  1.00  0.00     0.101 A 
HETATM    2  C3  UNL     1     -26.659  65.194  24.527  1.00  0.00     0.062 A 
HETATM    3  C4  UNL     1     -25.308  65.417  24.854  1.00  0.00     0.004 A 
HETATM    4  C5  UNL     1     -24.785  64.758  25.998  1.00  0.00     0.119 C 
HETATM    5  C6  UNL     1     -24.566  66.251  24.065  1.00  0.00     0.044 A 
HETATM    6  C13 UNL     1     -25.143  66.872  22.949  1.00  0.00     0.111 A 
HETATM    7  N6  UNL     1     -26.439  66.647  22.650  1.00  0.00    -0.351 N 
ATOM      8  H6  UNL     1     -26.862  67.097  21.839  1.00  0.00     0.166 HD
ENDROOT
BRANCH   5   9
HETATM    9  C7  UNL     1     -23.189  66.561  24.287  1.00  0.00    -0.063 C 
HETATM   10  C8  UNL     1     -22.033  66.843  24.450  1.00  0.00    -0.081 C 
BRANCH  10  11
HETATM   11  C9  UNL     1     -20.614  67.168  24.666  1.00  0.00     0.223 C 
BRANCH  11  12
HETATM   12  N4  UNL     1     -19.988  65.963  25.139  1.00  0.00    -0.341 N 
HETATM   13  C10 UNL     1     -19.957  64.788  24.502  1.00  0.00     0.110 A 
HETATM   14  C11 UNL     1     -19.263  63.859  25.263  1.00  0.00     0.106 A 
HETATM   15  N5  UNL     1     -18.882  64.513  26.373  1.00  0.00    -0.361 N 
HETATM   16  C12 UNL     1     -19.328  65.801  26.292  1.00  0.00     0.183 A 
ATOM     17  H5  UNL     1     -18.349  64.114  27.145  1.00  0.00     0.166 HD
ENDBRANCH  11  12
ENDBRANCH  10  11
ENDBRANCH   5   9
BRANCH   4  18
HETATM   18  N2  UNL     1     -23.609  64.878  26.385  1.00  0.00    -0.318 N 
HETATM   19  N3  UNL     1     -22.628  64.572  27.150  1.00  0.00    -0.345 N 
ATOM     20  H32 UNL     1     -23.049  63.855  27.742  1.00  0.00     0.176 HD
ATOM     21  H31 UNL     1     -21.664  64.670  27.468  1.00  0.00     0.176 HD
ATOM     22  H2  UNL     1     -23.224  65.599  25.774  1.00  0.00     0.185 HD
ENDBRANCH   4  18
BRANCH   1  23
HETATM   23  N1  UNL     1     -28.405  65.640  23.103  1.00  0.00    -0.381 N 
HETATM   24  C1  UNL     1     -29.313  64.939  24.018  1.00  0.00     0.147 C 
ATOM     25  H1  UNL     1     -28.753  65.981  22.207  1.00  0.00     0.160 HD
ENDBRANCH   1  23
TORSDOF 5
ENDMDL
MODEL 3
REMARK VINA RESULT: -7.105099421      1.932      2.764
REMARK  5 active torsions:
REMARK  status: ('A' for Active; 'I' for Inactive)
REMARK    1  A    between atoms: N1_2  and  C2_4 
REMARK    2  A    between atoms: C5_7  and  N2_8 
REMARK    3  A    between atoms: C6_13  and  C7_14 
REMARK    4  A    between atoms: C8_15  and  C9_16 
REMARK    5  A    between atoms: C9_16  and  N4_17 
ROOT
HETATM    1  C2  UNL     1     -26.895  64.471  25.543  1.00  0.00     0.101 A 
HETATM    2  C3  UNL     1     -26.186  65.253  24.668  1.00  0.00     0.062 A 
HETATM    3  C4  UNL     1     -24.854  65.573  24.992  1.00  0.00     0.004 A 
HETATM    4  C5  UNL     1     -24.126  66.384  24.082  1.00  0.00     0.119 C 
HETATM    5  C6  UNL     1     -24.325  65.094  26.158  1.00  0.00     0.044 A 
HETATM    6  C13 UNL     1     -25.098  64.298  27.014  1.00  0.00     0.111 A 
HETATM    7  N6  UNL     1     -26.372  64.002  26.688  1.00  0.00    -0.351 N 
ATOM      8  H6  UNL     1     -26.938  63.423  27.309  1.00  0.00     0.166 HD
ENDROOT
BRANCH   5   9
HETATM    9  C7  UNL     1     -22.990  65.345  26.603  1.00  0.00    -0.063 C 
HETATM   10  C8  UNL     1     -21.880  65.574  27.000  1.00  0.00    -0.081 C 
BRANCH  10  11
HETATM   11  C9  UNL     1     -20.510  65.844  27.464  1.00  0.00     0.223 C 
BRANCH  11  12
HETATM   12  N4  UNL     1     -20.142  67.124  26.926  1.00  0.00    -0.341 N 
HETATM   13  C10 UNL     1     -20.736  68.292  27.190  1.00  0.00     0.110 A 
HETATM   14  C11 UNL     1     -20.106  69.309  26.489  1.00  0.00     0.106 A 
HETATM   15  N5  UNL     1     -19.120  68.716  25.798  1.00  0.00    -0.361 N 
HETATM   16  C12 UNL     1     -19.146  67.378  26.069  1.00  0.00     0.183 A 
ATOM     17  H5  UNL     1     -18.462  69.186  25.177  1.00  0.00     0.166 HD
ENDBRANCH  11  12
ENDBRANCH  10  11
ENDBRANCH   5   9
BRANCH   4  18
HETATM   18  N2  UNL     1     -22.945  66.731  24.260  1.00  0.00    -0.318 N 
HETATM   19  N3  UNL     1     -21.856  67.290  23.882  1.00  0.00    -0.345 N 
ATOM     20  H32 UNL     1     -22.107  67.613  22.948  1.00  0.00     0.176 HD
ATOM     21  H31 UNL     1     -20.887  67.575  24.029  1.00  0.00     0.176 HD
ATOM     22  H2  UNL     1     -22.731  66.392  25.198  1.00  0.00     0.185 HD
ENDBRANCH   4  18
BRANCH   1  23
HETATM   23  N1  UNL     1     -28.117  64.164  25.268  1.00  0.00    -0.381 N 
HETATM   24  C1  UNL     1     -28.828  64.844  24.181  1.00  0.00     0.147 C 
ATOM     25  H1  UNL     1     -28.592  63.443  25.811  1.00  0.00     0.160 HD
ENDBRANCH   1  23
TORSDOF 5
ENDMDL
MODEL 4
REMARK VINA RESULT: -7.050877357      3.976      5.890
REMARK  5 active torsions:
REMARK  status: ('A' for Active; 'I' for Inactive)
REMARK    1  A    between atoms: N1_2  and  C2_4 
REMARK    2  A    between atoms: C5_7  and  N2_8 
REMARK    3  A    between atoms: C6_13  and  C7_14 
REMARK    4  A    between atoms: C8_15  and  C9_16 
REMARK    5  A    between atoms: C9_16  and  N4_17 
ROOT
HETATM    1  C2  UNL     1     -26.895  62.093  28.471  1.00  0.00     0.101 A 
HETATM    2  C3  UNL     1     -26.808  63.145  27.595  1.00  0.00     0.062 A 
HETATM    3  C4  UNL     1     -25.566  63.398  26.982  1.00  0.00     0.004 A 
HETATM    4  C5  UNL     1     -25.483  64.489  26.077  1.00  0.00     0.119 C 
HETATM    5  C6  UNL     1     -24.505  62.591  27.283  1.00  0.00     0.044 A 
HETATM    6  C13 UNL     1     -24.654  61.530  28.186  1.00  0.00     0.111 A 
HETATM    7  N6  UNL     1     -25.851  61.302  28.764  1.00  0.00    -0.351 N 
ATOM      8  H6  UNL     1     -25.963  60.531  29.422  1.00  0.00     0.166 HD
ENDROOT
BRANCH   5   9
HETATM    9  C7  UNL     1     -23.195  62.739  26.732  1.00  0.00    -0.063 C 
HETATM   10  C8  UNL     1     -22.087  62.835  26.279  1.00  0.00    -0.081 C 
BRANCH  10  11
HETATM   11  C9  UNL     1     -20.733  62.977  25.719  1.00  0.00     0.223 C 
BRANCH  11  12
HETATM   12  N4  UNL     1     -20.804  62.513  24.361  1.00  0.00    -0.341 N 
HETATM   13  C10 UNL     1     -21.626  62.971  23.412  1.00  0.00     0.110 A 
HETATM   14  C11 UNL     1     -21.407  62.283  22.228  1.00  0.00     0.106 A 
HETATM   15  N5  UNL     1     -20.430  61.402  22.496  1.00  0.00    -0.361 N 
HETATM   16  C12 UNL     1     -20.064  61.546  23.804  1.00  0.00     0.183 A 
ATOM     17  H5  UNL     1     -20.030  60.737  21.835  1.00  0.00     0.166 HD
ENDBRANCH  11  12
ENDBRANCH  10  11
ENDBRANCH   5   9
BRANCH   4  18
HETATM   18  N2  UNL     1     -24.442  64.808  25.476  1.00  0.00    -0.318 N 
HETATM   19  N3  UNL     1     -23.755  65.591  24.729  1.00  0.00    -0.345 N 
ATOM     20  H32 UNL     1     -24.430  66.332  24.539  1.00  0.00     0.176 HD
ATOM     21  H31 UNL     1     -22.901  65.853  24.237  1.00  0.00     0.176 HD
ATOM     22  H2  UNL     1     -23.796  64.047  25.689  1.00  0.00     0.185 HD
ENDBRANCH   4  18
BRANCH   1  23
HETATM   23  N1  UNL     1     -28.022  61.842  29.044  1.00  0.00    -0.381 N 
HETATM   24  C1  UNL     1     -28.766  62.908  29.724  1.00  0.00     0.147 C 
ATOM     25  H1  UNL     1     -28.399  60.894  29.025  1.00  0.00     0.160 HD
ENDBRANCH   1  23
TORSDOF 5
ENDMDL
MODEL 5
REMARK VINA RESULT: -7.002513093      2.095      3.536
REMARK  5 active torsions:
REMARK  status: ('A' for Active; 'I' for Inactive)
REMARK    1  A    between atoms: N1_2  and  C2_4 
REMARK    2  A    between atoms: C5_7  and  N2_8 
REMARK    3  A    between atoms: C6_13  and  C7_14 
REMARK    4  A    between atoms: C8_15  and  C9_16 
REMARK    5  A    between atoms: C9_16  and  N4_17 
ROOT
HETATM    1  C2  UNL     1     -26.631  63.383  27.255  1.00  0.00     0.101 A 
HETATM    2  C3  UNL     1     -26.916  64.043  26.087  1.00  0.00     0.062 A 
HETATM    3  C4  UNL     1     -25.900  64.820  25.499  1.00  0.00     0.004 A 
HETATM    4  C5  UNL     1     -26.201  65.501  24.290  1.00  0.00     0.119 C 
HETATM    5  C6  UNL     1     -24.679  64.884  26.112  1.00  0.00     0.044 A 
HETATM    6  C13 UNL     1     -24.446  64.188  27.305  1.00  0.00     0.111 A 
HETATM    7  N6  UNL     1     -25.432  63.449  27.855  1.00  0.00    -0.351 N 
ATOM      8  H6  UNL     1     -25.266  62.941  28.723  1.00  0.00     0.166 HD
ENDROOT
BRANCH   5   9
HETATM    9  C7  UNL     1     -23.566  65.634  25.620  1.00  0.00    -0.063 C 
HETATM   10  C8  UNL     1     -22.614  66.253  25.230  1.00  0.00    -0.081 C 
BRANCH  10  11
HETATM   11  C9  UNL     1     -21.462  67.023  24.736  1.00  0.00     0.223 C 
BRANCH  11  12
HETATM   12  N4  UNL     1     -21.068  67.898  25.807  1.00  0.00    -0.341 N 
HETATM   13  C10 UNL     1     -21.029  67.587  27.107  1.00  0.00     0.110 A 
HETATM   14  C11 UNL     1     -20.600  68.683  27.839  1.00  0.00     0.106 A 
HETATM   15  N5  UNL     1     -20.384  69.657  26.941  1.00  0.00    -0.361 N 
HETATM   16  C12 UNL     1     -20.672  69.172  25.697  1.00  0.00     0.183 A 
ATOM     17  H5  UNL     1     -20.059  70.600  27.152  1.00  0.00     0.166 HD
ENDBRANCH  11  12
ENDBRANCH  10  11
ENDBRANCH   5   9
BRANCH   4  18
HETATM   18  N2  UNL     1     -25.385  66.214  23.679  1.00  0.00    -0.318 N 
HETATM   19  N3  UNL     1     -25.083  67.105  22.808  1.00  0.00    -0.345 N 
ATOM     20  H32 UNL     1     -26.002  67.337  22.430  1.00  0.00     0.176 HD
ATOM     21  H31 UNL     1     -24.415  67.690  22.308  1.00  0.00     0.176 HD
ATOM     22  H2  UNL     1     -24.485  65.954  24.083  1.00  0.00     0.185 HD
ENDBRANCH   4  18
BRANCH   1  23
HETATM   23  N1  UNL     1     -27.546  62.665  27.813  1.00  0.00    -0.381 N 
HETATM   24  C1  UNL     1     -27.230  61.828  28.976  1.00  0.00     0.147 C 
ATOM     25  H1  UNL     1     -28.496  62.680  27.443  1.00  0.00     0.160 HD
ENDBRANCH   1  23
TORSDOF 5
ENDMDL
