MODEL 1
REMARK VINA RESULT: -7.092975827      0.000      0.000
REMARK  3 active torsions:
REMARK  status: ('A' for Active; 'I' for Inactive)
REMARK    1  A    between atoms: N2_8  and  C5_9 
REMARK    2  A    between atoms: C9_13  and  C10_14 
REMARK    3  A    between atoms: C11_15  and  N3_16 
REMARK       I    between atoms: N3_16  and  C12_18 
ROOT
HETATM    1  C1  UNL     1     -27.898  63.958  25.839  1.00  0.00     0.014 C 
HETATM    2  C2  UNL     1     -26.874  63.974  26.488  1.00  0.00    -0.089 C 
HETATM    3  C3  UNL     1     -25.660  64.011  27.265  1.00  0.00     0.189 C 
HETATM    4  N1  UNL     1     -25.337  62.655  27.671  1.00  0.00    -0.350 N 
ATOM      5  H1  UNL     1     -25.992  61.947  28.002  1.00  0.00     0.163 HD
HETATM    6  C4  UNL     1     -23.924  62.505  27.516  1.00  0.00     0.172 C 
HETATM    7  S1  UNL     1     -23.113  61.272  28.236  1.00  0.00    -0.041 SA
HETATM    8  N2  UNL     1     -23.413  63.539  26.695  1.00  0.00    -0.339 N 
HETATM    9  C9  UNL     1     -24.454  64.475  26.471  1.00  0.00     0.146 C 
ENDROOT
BRANCH   9  10
HETATM   10  C10 UNL     1     -24.881  64.616  25.075  1.00  0.00     0.018 C 
HETATM   11  C11 UNL     1     -24.874  65.748  24.387  1.00  0.00     0.089 C 
BRANCH  11  12
HETATM   12  N3  UNL     1     -25.279  65.886  23.058  1.00  0.00    -0.338 N 
HETATM   13  C12 UNL     1     -26.430  66.689  22.859  1.00  0.00     0.217 C 
HETATM   14  C13 UNL     1     -27.808  66.192  22.748  1.00  0.00     0.117 C 
HETATM   15  O1  UNL     1     -26.218  67.892  22.779  1.00  0.00    -0.274 OA
ATOM     16  H3  UNL     1     -24.783  65.440  22.286  1.00  0.00     0.168 HD
ENDBRANCH  11  12
ENDBRANCH   9  10
BRANCH   8  17
HETATM   17  C5  UNL     1     -22.068  63.604  26.188  1.00  0.00     0.025 C 
HETATM   18  C6  UNL     1     -21.695  65.004  25.743  1.00  0.00     0.037 C 
HETATM   19  C7  UNL     1     -21.888  62.643  25.008  1.00  0.00     0.037 C 
HETATM   20  C8  UNL     1     -21.047  63.190  27.239  1.00  0.00     0.037 C 
ENDBRANCH   8  17
TORSDOF 3
ENDMDL
MODEL 2
REMARK VINA RESULT: -6.983019695      1.397      1.830
REMARK  3 active torsions:
REMARK  status: ('A' for Active; 'I' for Inactive)
REMARK    1  A    between atoms: N2_8  and  C5_9 
REMARK    2  A    between atoms: C9_13  and  C10_14 
REMARK    3  A    between atoms: C11_15  and  N3_16 
REMARK       I    between atoms: N3_16  and  C12_18 
ROOT
HETATM    1  C1  UNL     1     -26.373  63.718  26.686  1.00  0.00     0.014 C 
HETATM    2  C2  UNL     1     -25.263  64.125  26.954  1.00  0.00    -0.089 C 
HETATM    3  C3  UNL     1     -23.950  64.624  27.278  1.00  0.00     0.189 C 
HETATM    4  N1  UNL     1     -23.107  63.495  27.628  1.00  0.00    -0.350 N 
ATOM      5  H1  UNL     1     -23.371  62.692  28.198  1.00  0.00     0.163 HD
HETATM    6  C4  UNL     1     -21.835  63.728  27.019  1.00  0.00     0.172 C 
HETATM    7  S1  UNL     1     -20.498  62.903  27.495  1.00  0.00    -0.041 SA
HETATM    8  N2  UNL     1     -21.951  64.723  26.018  1.00  0.00    -0.339 N 
HETATM    9  C9  UNL     1     -23.252  65.279  26.102  1.00  0.00     0.146 C 
ENDROOT
BRANCH   9  10
HETATM   10  C10 UNL     1     -24.099  65.074  24.923  1.00  0.00     0.018 C 
HETATM   11  C11 UNL     1     -24.545  66.036  24.129  1.00  0.00     0.089 C 
BRANCH  11  12
HETATM   12  N3  UNL     1     -25.352  65.843  23.006  1.00  0.00    -0.338 N 
HETATM   13  C12 UNL     1     -26.540  66.614  22.979  1.00  0.00     0.217 C 
HETATM   14  C13 UNL     1     -27.860  66.162  23.436  1.00  0.00     0.117 C 
HETATM   15  O1  UNL     1     -26.417  67.746  22.530  1.00  0.00    -0.274 OA
ATOM     16  H3  UNL     1     -25.103  65.194  22.259  1.00  0.00     0.168 HD
ENDBRANCH  11  12
ENDBRANCH   9  10
BRANCH   8  17
HETATM   17  C5  UNL     1     -20.913  65.085  25.089  1.00  0.00     0.025 C 
HETATM   18  C6  UNL     1     -21.174  66.430  24.441  1.00  0.00     0.037 C 
HETATM   19  C7  UNL     1     -20.777  64.024  23.991  1.00  0.00     0.037 C 
HETATM   20  C8  UNL     1     -19.553  65.178  25.767  1.00  0.00     0.037 C 
ENDBRANCH   8  17
TORSDOF 3
ENDMDL
MODEL 3
REMARK VINA RESULT: -6.541656736      4.668      6.617
REMARK  3 active torsions:
REMARK  status: ('A' for Active; 'I' for Inactive)
REMARK    1  A    between atoms: N2_8  and  C5_9 
REMARK    2  A    between atoms: C9_13  and  C10_14 
REMARK    3  A    between atoms: C11_15  and  N3_16 
REMARK       I    between atoms: N3_16  and  C12_18 
ROOT
HETATM    1  C1  UNL     1     -17.007  66.822  25.535  1.00  0.00     0.014 C 
HETATM    2  C2  UNL     1     -17.367  65.880  24.863  1.00  0.00    -0.089 C 
HETATM    3  C3  UNL     1     -17.792  64.770  24.047  1.00  0.00     0.189 C 
HETATM    4  N1  UNL     1     -17.561  63.544  24.789  1.00  0.00    -0.350 N 
ATOM      5  H1  UNL     1     -16.744  63.322  25.356  1.00  0.00     0.163 HD
HETATM    6  C4  UNL     1     -18.701  62.710  24.570  1.00  0.00     0.172 C 
HETATM    7  S1  UNL     1     -18.657  61.102  24.899  1.00  0.00    -0.041 SA
HETATM    8  N2  UNL     1     -19.774  63.479  24.059  1.00  0.00    -0.339 N 
HETATM    9  C9  UNL     1     -19.282  64.774  23.760  1.00  0.00     0.146 C 
ENDROOT
BRANCH   9  10
HETATM   10  C10 UNL     1     -19.873  65.865  24.541  1.00  0.00     0.018 C 
HETATM   11  C11 UNL     1     -20.408  66.964  24.030  1.00  0.00     0.089 C 
BRANCH  11  12
HETATM   12  N3  UNL     1     -20.971  68.005  24.770  1.00  0.00    -0.338 N 
HETATM   13  C12 UNL     1     -20.132  68.557  25.769  1.00  0.00     0.217 C 
HETATM   14  C13 UNL     1     -20.121  68.167  27.185  1.00  0.00     0.117 C 
HETATM   15  O1  UNL     1     -19.363  69.427  25.382  1.00  0.00    -0.274 OA
ATOM     16  H3  UNL     1     -21.920  68.344  24.604  1.00  0.00     0.168 HD
ENDBRANCH  11  12
ENDBRANCH   9  10
BRANCH   8  17
HETATM   17  C5  UNL     1     -21.122  63.004  23.884  1.00  0.00     0.025 C 
HETATM   18  C6  UNL     1     -21.546  62.073  25.002  1.00  0.00     0.037 C 
HETATM   19  C7  UNL     1     -21.267  62.271  22.546  1.00  0.00     0.037 C 
HETATM   20  C8  UNL     1     -22.126  64.148  23.859  1.00  0.00     0.037 C 
ENDBRANCH   8  17
TORSDOF 3
ENDMDL
MODEL 4
REMARK VINA RESULT: -6.526721373      4.294      6.342
REMARK  3 active torsions:
REMARK  status: ('A' for Active; 'I' for Inactive)
REMARK    1  A    between atoms: N2_8  and  C5_9 
REMARK    2  A    between atoms: C9_13  and  C10_14 
REMARK    3  A    between atoms: C11_15  and  N3_16 
REMARK       I    between atoms: N3_16  and  C12_18 
ROOT
HETATM    1  C1  UNL     1     -17.659  66.747  22.576  1.00  0.00     0.014 C 
HETATM    2  C2  UNL     1     -18.300  65.719  22.620  1.00  0.00    -0.089 C 
HETATM    3  C3  UNL     1     -19.071  64.502  22.657  1.00  0.00     0.189 C 
HETATM    4  N1  UNL     1     -18.260  63.466  23.269  1.00  0.00    -0.350 N 
ATOM      5  H1  UNL     1     -17.268  63.295  23.106  1.00  0.00     0.163 HD
HETATM    6  C4  UNL     1     -19.121  62.732  24.143  1.00  0.00     0.172 C 
HETATM    7  S1  UNL     1     -18.698  61.251  24.711  1.00  0.00    -0.041 SA
HETATM    8  N2  UNL     1     -20.301  63.472  24.396  1.00  0.00    -0.339 N 
HETATM    9  C9  UNL     1     -20.303  64.600  23.537  1.00  0.00     0.146 C 
ENDROOT
BRANCH   9  10
HETATM   10  C10 UNL     1     -20.253  65.901  24.211  1.00  0.00     0.018 C 
HETATM   11  C11 UNL     1     -21.115  66.890  24.023  1.00  0.00     0.089 C 
BRANCH  11  12
HETATM   12  N3  UNL     1     -21.071  68.130  24.664  1.00  0.00    -0.338 N 
HETATM   13  C12 UNL     1     -20.131  68.229  25.719  1.00  0.00     0.217 C 
HETATM   14  C13 UNL     1     -20.421  68.018  27.143  1.00  0.00     0.117 C 
HETATM   15  O1  UNL     1     -18.991  68.515  25.376  1.00  0.00    -0.274 OA
ATOM     16  H3  UNL     1     -21.672  68.908  24.392  1.00  0.00     0.168 HD
ENDBRANCH  11  12
ENDBRANCH   9  10
BRANCH   8  17
HETATM   17  C5  UNL     1     -21.308  63.119  25.362  1.00  0.00     0.025 C 
HETATM   18  C6  UNL     1     -22.645  63.762  25.052  1.00  0.00     0.037 C 
HETATM   19  C7  UNL     1     -20.872  63.536  26.772  1.00  0.00     0.037 C 
HETATM   20  C8  UNL     1     -21.542  61.616  25.411  1.00  0.00     0.037 C 
ENDBRANCH   8  17
TORSDOF 3
ENDMDL
MODEL 5
REMARK VINA RESULT: -6.523932408      4.728      6.929
REMARK  3 active torsions:
REMARK  status: ('A' for Active; 'I' for Inactive)
REMARK    1  A    between atoms: N2_8  and  C5_9 
REMARK    2  A    between atoms: C9_13  and  C10_14 
REMARK    3  A    between atoms: C11_15  and  N3_16 
REMARK       I    between atoms: N3_16  and  C12_18 
ROOT
HETATM    1  C1  UNL     1     -16.418  66.724  25.369  1.00  0.00     0.014 C 
HETATM    2  C2  UNL     1     -16.977  65.824  24.781  1.00  0.00    -0.089 C 
HETATM    3  C3  UNL     1     -17.642  64.763  24.066  1.00  0.00     0.189 C 
HETATM    4  N1  UNL     1     -17.232  63.496  24.645  1.00  0.00    -0.350 N 
ATOM      5  H1  UNL     1     -16.291  63.238  24.939  1.00  0.00     0.163 HD
HETATM    6  C4  UNL     1     -18.404  62.681  24.722  1.00  0.00     0.172 C 
HETATM    7  S1  UNL     1     -18.300  61.057  24.939  1.00  0.00    -0.041 SA
HETATM    8  N2  UNL     1     -19.563  63.483  24.584  1.00  0.00    -0.339 N 
HETATM    9  C9  UNL     1     -19.151  64.790  24.222  1.00  0.00     0.146 C 
ENDROOT
BRANCH   9  10
HETATM   10  C10 UNL     1     -19.468  65.839  25.197  1.00  0.00     0.018 C 
HETATM   11  C11 UNL     1     -20.247  66.885  24.963  1.00  0.00     0.089 C 
BRANCH  11  12
HETATM   12  N3  UNL     1     -20.551  67.885  25.888  1.00  0.00    -0.338 N 
HETATM   13  C12 UNL     1     -19.465  68.720  26.252  1.00  0.00     0.217 C 
HETATM   14  C13 UNL     1     -18.603  68.534  27.426  1.00  0.00     0.117 C 
HETATM   15  O1  UNL     1     -19.259  69.664  25.501  1.00  0.00    -0.274 OA
ATOM     16  H3  UNL     1     -21.488  68.006  26.275  1.00  0.00     0.168 HD
ENDBRANCH  11  12
ENDBRANCH   9  10
BRANCH   8  17
HETATM   17  C5  UNL     1     -20.913  63.025  24.781  1.00  0.00     0.025 C 
HETATM   18  C6  UNL     1     -21.925  63.933  24.113  1.00  0.00     0.037 C 
HETATM   19  C7  UNL     1     -21.239  62.935  26.277  1.00  0.00     0.037 C 
HETATM   20  C8  UNL     1     -21.127  61.630  24.210  1.00  0.00     0.037 C 
ENDBRANCH   8  17
TORSDOF 3
ENDMDL
