MODEL 1
REMARK VINA RESULT: -7.074383999      0.000      0.000
REMARK  3 active torsions:
REMARK  status: ('A' for Active; 'I' for Inactive)
REMARK    1  A    between atoms: C4_7  and  C5_8 
REMARK    2  A    between atoms: C5_8  and  C6_9 
REMARK    3  A    between atoms: C6_9  and  N3_12 
ROOT
HETATM    1  C1  UNL     1     -28.625  64.810  23.998  1.00  0.00     0.233 C 
HETATM    2  N1  UNL     1     -27.546  64.947  24.395  1.00  0.00    -0.395 NA
HETATM    3  C2  UNL     1     -26.260  65.124  24.861  1.00  0.00     0.261 A 
HETATM    4  N2  UNL     1     -25.709  64.577  25.973  1.00  0.00    -0.312 N 
ATOM      5  H2  UNL     1     -26.198  63.950  26.613  1.00  0.00     0.170 HD
HETATM    6  C3  UNL     1     -24.430  64.971  26.120  1.00  0.00     0.086 A 
HETATM    7  C4  UNL     1     -23.434  64.699  27.048  1.00  0.00     0.043 A 
HETATM    8  N4  UNL     1     -22.213  65.258  26.879  1.00  0.00    -0.356 N 
HETATM    9  C9  UNL     1     -21.089  65.051  27.757  1.00  0.00     0.156 C 
HETATM   10  C10 UNL     1     -21.931  66.085  25.825  1.00  0.00     0.009 A 
HETATM   11  C11 UNL     1     -20.563  66.697  25.658  1.00  0.00     0.068 C 
HETATM   12  C12 UNL     1     -22.896  66.373  24.893  1.00  0.00     0.057 A 
HETATM   13  C13 UNL     1     -24.146  65.807  25.054  1.00  0.00     0.068 A 
HETATM   14  N5  UNL     1     -25.287  65.869  24.320  1.00  0.00    -0.309 N 
HETATM   15  C14 UNL     1     -25.367  66.667  23.105  1.00  0.00     0.161 C 
ENDROOT
BRANCH   7  16
HETATM   16  C5  UNL     1     -23.719  63.871  28.209  1.00  0.00     0.097 C 
BRANCH  16  17
HETATM   17  C6  UNL     1     -23.657  62.406  28.080  1.00  0.00     0.121 C 
HETATM   18  C7  UNL     1     -22.886  61.830  26.937  1.00  0.00     0.046 C 
HETATM   19  C8  UNL     1     -24.988  61.691  28.098  1.00  0.00     0.046 C 
BRANCH  17  20
HETATM   20  N3  UNL     1     -22.954  61.924  29.295  1.00  0.00    -0.071 N 
ATOM     21  H33 UNL     1     -21.941  62.038  29.252  1.00  0.00     0.275 HD
ATOM     22  H32 UNL     1     -23.108  62.510  30.115  1.00  0.00     0.275 HD
ATOM     23  H31 UNL     1     -23.251  60.957  29.421  1.00  0.00     0.275 HD
ENDBRANCH  17  20
ENDBRANCH  16  17
ENDBRANCH   7  16
TORSDOF 3
ENDMDL
MODEL 2
REMARK VINA RESULT: -6.943260277      1.498      4.606
REMARK  3 active torsions:
REMARK  status: ('A' for Active; 'I' for Inactive)
REMARK    1  A    between atoms: C4_7  and  C5_8 
REMARK    2  A    between atoms: C5_8  and  C6_9 
REMARK    3  A    between atoms: C6_9  and  N3_12 
ROOT
HETATM    1  C1  UNL     1     -18.324  66.789  27.760  1.00  0.00     0.233 C 
HETATM    2  N1  UNL     1     -19.395  66.490  27.439  1.00  0.00    -0.395 NA
HETATM    3  C2  UNL     1     -20.668  66.136  27.043  1.00  0.00     0.261 A 
HETATM    4  N2  UNL     1     -21.519  65.292  27.678  1.00  0.00    -0.312 N 
ATOM      5  H2  UNL     1     -21.309  64.806  28.551  1.00  0.00     0.170 HD
HETATM    6  C3  UNL     1     -22.679  65.180  27.003  1.00  0.00     0.086 A 
HETATM    7  C4  UNL     1     -23.859  64.482  27.217  1.00  0.00     0.043 A 
HETATM    8  N4  UNL     1     -24.870  64.618  26.327  1.00  0.00    -0.356 N 
HETATM    9  C9  UNL     1     -26.149  63.962  26.434  1.00  0.00     0.156 C 
HETATM   10  C10 UNL     1     -24.762  65.419  25.221  1.00  0.00     0.009 A 
HETATM   11  C11 UNL     1     -25.901  65.554  24.243  1.00  0.00     0.068 C 
HETATM   12  C12 UNL     1     -23.607  66.120  24.983  1.00  0.00     0.057 A 
HETATM   13  C13 UNL     1     -22.569  65.990  25.886  1.00  0.00     0.068 A 
HETATM   14  N5  UNL     1     -21.332  66.547  25.955  1.00  0.00    -0.309 N 
HETATM   15  C14 UNL     1     -20.856  67.470  24.934  1.00  0.00     0.161 C 
ENDROOT
BRANCH   7  16
HETATM   16  C5  UNL     1     -23.983  63.579  28.351  1.00  0.00     0.097 C 
BRANCH  16  17
HETATM   17  C6  UNL     1     -23.438  62.216  28.247  1.00  0.00     0.121 C 
HETATM   18  C7  UNL     1     -22.350  61.817  29.191  1.00  0.00     0.046 C 
HETATM   19  C8  UNL     1     -22.979  61.799  26.869  1.00  0.00     0.046 C 
BRANCH  17  20
HETATM   20  N3  UNL     1     -24.566  61.305  28.560  1.00  0.00    -0.071 N 
ATOM     21  H33 UNL     1     -24.272  60.412  28.954  1.00  0.00     0.275 HD
ATOM     22  H32 UNL     1     -25.128  61.610  29.356  1.00  0.00     0.275 HD
ATOM     23  H31 UNL     1     -25.098  61.215  27.695  1.00  0.00     0.275 HD
ENDBRANCH  17  20
ENDBRANCH  16  17
ENDBRANCH   7  16
TORSDOF 3
ENDMDL
MODEL 3
REMARK VINA RESULT: -6.709072212      2.745      4.914
REMARK  3 active torsions:
REMARK  status: ('A' for Active; 'I' for Inactive)
REMARK    1  A    between atoms: C4_7  and  C5_8 
REMARK    2  A    between atoms: C5_8  and  C6_9 
REMARK    3  A    between atoms: C6_9  and  N3_12 
ROOT
HETATM    1  C1  UNL     1     -18.030  61.015  24.817  1.00  0.00     0.233 C 
HETATM    2  N1  UNL     1     -19.047  61.564  24.879  1.00  0.00    -0.395 NA
HETATM    3  C2  UNL     1     -20.259  62.220  24.939  1.00  0.00     0.261 A 
HETATM    4  N2  UNL     1     -21.260  62.014  25.831  1.00  0.00    -0.312 N 
ATOM      5  H2  UNL     1     -21.230  61.327  26.585  1.00  0.00     0.170 HD
HETATM    6  C3  UNL     1     -22.298  62.836  25.587  1.00  0.00     0.086 A 
HETATM    7  C4  UNL     1     -23.529  63.044  26.193  1.00  0.00     0.043 A 
HETATM    8  N4  UNL     1     -24.349  63.999  25.694  1.00  0.00    -0.356 N 
HETATM    9  C9  UNL     1     -25.646  64.326  26.231  1.00  0.00     0.156 C 
HETATM   10  C10 UNL     1     -24.004  64.762  24.610  1.00  0.00     0.009 A 
HETATM   11  C11 UNL     1     -24.934  65.818  24.072  1.00  0.00     0.068 C 
HETATM   12  C12 UNL     1     -22.793  64.577  23.991  1.00  0.00     0.057 A 
HETATM   13  C13 UNL     1     -21.948  63.607  24.492  1.00  0.00     0.068 A 
HETATM   14  N5  UNL     1     -20.703  63.195  24.134  1.00  0.00    -0.309 N 
HETATM   15  C14 UNL     1     -20.001  63.789  23.006  1.00  0.00     0.161 C 
ENDROOT
BRANCH   7  16
HETATM   16  C5  UNL     1     -23.949  62.212  27.309  1.00  0.00     0.097 C 
BRANCH  16  17
HETATM   17  C6  UNL     1     -23.480  62.538  28.664  1.00  0.00     0.121 C 
HETATM   18  C7  UNL     1     -23.031  63.936  28.939  1.00  0.00     0.046 C 
HETATM   19  C8  UNL     1     -22.408  61.630  29.222  1.00  0.00     0.046 C 
BRANCH  17  20
HETATM   20  N3  UNL     1     -24.648  62.332  29.556  1.00  0.00    -0.071 N 
ATOM     21  H33 UNL     1     -24.440  62.483  30.543  1.00  0.00     0.275 HD
ATOM     22  H32 UNL     1     -25.361  63.056  29.469  1.00  0.00     0.275 HD
ATOM     23  H31 UNL     1     -24.992  61.394  29.351  1.00  0.00     0.275 HD
ENDBRANCH  17  20
ENDBRANCH  16  17
ENDBRANCH   7  16
TORSDOF 3
ENDMDL
MODEL 4
REMARK VINA RESULT: -6.630167733      2.100      4.746
REMARK  3 active torsions:
REMARK  status: ('A' for Active; 'I' for Inactive)
REMARK    1  A    between atoms: C4_7  and  C5_8 
REMARK    2  A    between atoms: C5_8  and  C6_9 
REMARK    3  A    between atoms: C6_9  and  N3_12 
ROOT
HETATM    1  C1  UNL     1     -25.429  66.905  22.834  1.00  0.00     0.233 C 
HETATM    2  N1  UNL     1     -24.739  66.594  23.709  1.00  0.00    -0.395 NA
HETATM    3  C2  UNL     1     -23.924  66.210  24.754  1.00  0.00     0.261 A 
HETATM    4  N2  UNL     1     -22.655  66.624  24.998  1.00  0.00    -0.312 N 
ATOM      5  H2  UNL     1     -22.142  67.289  24.419  1.00  0.00     0.170 HD
HETATM    6  C3  UNL     1     -22.164  66.039  26.108  1.00  0.00     0.086 A 
HETATM    7  C4  UNL     1     -20.960  66.123  26.793  1.00  0.00     0.043 A 
HETATM    8  N4  UNL     1     -20.800  65.398  27.925  1.00  0.00    -0.356 N 
HETATM    9  C9  UNL     1     -19.610  65.400  28.738  1.00  0.00     0.156 C 
HETATM   10  C10 UNL     1     -21.787  64.582  28.412  1.00  0.00     0.009 A 
HETATM   11  C11 UNL     1     -21.586  63.783  29.674  1.00  0.00     0.068 C 
HETATM   12  C12 UNL     1     -22.987  64.479  27.755  1.00  0.00     0.057 A 
HETATM   13  C13 UNL     1     -23.162  65.216  26.600  1.00  0.00     0.068 A 
HETATM   14  N5  UNL     1     -24.208  65.353  25.743  1.00  0.00    -0.309 N 
HETATM   15  C14 UNL     1     -25.454  64.626  25.943  1.00  0.00     0.161 C 
ENDROOT
BRANCH   7  16
HETATM   16  C5  UNL     1     -19.873  66.935  26.270  1.00  0.00     0.097 C 
BRANCH  16  17
HETATM   17  C6  UNL     1     -19.742  68.332  26.713  1.00  0.00     0.121 C 
HETATM   18  C7  UNL     1     -18.497  68.728  27.440  1.00  0.00     0.046 C 
HETATM   19  C8  UNL     1     -20.897  68.873  27.523  1.00  0.00     0.046 C 
BRANCH  17  20
HETATM   20  N3  UNL     1     -19.735  69.150  25.475  1.00  0.00    -0.071 N 
ATOM     21  H33 UNL     1     -19.224  70.027  25.567  1.00  0.00     0.275 HD
ATOM     22  H32 UNL     1     -19.164  68.754  24.727  1.00  0.00     0.275 HD
ATOM     23  H31 UNL     1     -20.714  69.273  25.218  1.00  0.00     0.275 HD
ENDBRANCH  17  20
ENDBRANCH  16  17
ENDBRANCH   7  16
TORSDOF 3
ENDMDL
MODEL 5
REMARK VINA RESULT: -6.627599738      2.834      6.781
REMARK  3 active torsions:
REMARK  status: ('A' for Active; 'I' for Inactive)
REMARK    1  A    between atoms: C4_7  and  C5_8 
REMARK    2  A    between atoms: C5_8  and  C6_9 
REMARK    3  A    between atoms: C6_9  and  N3_12 
ROOT
HETATM    1  C1  UNL     1     -18.546  61.853  31.284  1.00  0.00     0.233 C 
HETATM    2  N1  UNL     1     -19.149  62.469  30.512  1.00  0.00    -0.395 NA
HETATM    3  C2  UNL     1     -19.880  63.199  29.598  1.00  0.00     0.261 A 
HETATM    4  N2  UNL     1     -19.521  64.365  29.005  1.00  0.00    -0.312 N 
ATOM      5  H2  UNL     1     -18.639  64.851  29.171  1.00  0.00     0.170 HD
HETATM    6  C3  UNL     1     -20.484  64.794  28.167  1.00  0.00     0.086 A 
HETATM    7  C4  UNL     1     -20.613  65.888  27.322  1.00  0.00     0.043 A 
HETATM    8  N4  UNL     1     -21.736  66.007  26.575  1.00  0.00    -0.356 N 
HETATM    9  C9  UNL     1     -21.994  67.083  25.651  1.00  0.00     0.156 C 
HETATM   10  C10 UNL     1     -22.748  65.085  26.629  1.00  0.00     0.009 A 
HETATM   11  C11 UNL     1     -23.989  65.240  25.788  1.00  0.00     0.068 C 
HETATM   12  C12 UNL     1     -22.647  63.995  27.456  1.00  0.00     0.057 A 
HETATM   13  C13 UNL     1     -21.505  63.862  28.222  1.00  0.00     0.068 A 
HETATM   14  N5  UNL     1     -21.093  62.915  29.105  1.00  0.00    -0.309 N 
HETATM   15  C14 UNL     1     -21.921  61.761  29.423  1.00  0.00     0.161 C 
ENDROOT
BRANCH   7  16
HETATM   16  C5  UNL     1     -19.583  66.913  27.285  1.00  0.00     0.097 C 
BRANCH  16  17
HETATM   17  C6  UNL     1     -19.568  67.955  28.324  1.00  0.00     0.121 C 
HETATM   18  C7  UNL     1     -20.635  67.925  29.370  1.00  0.00     0.046 C 
HETATM   19  C8  UNL     1     -19.505  69.379  27.822  1.00  0.00     0.046 C 
BRANCH  17  20
HETATM   20  N3  UNL     1     -18.299  67.762  29.070  1.00  0.00    -0.071 N 
ATOM     21  H33 UNL     1     -18.433  67.603  30.068  1.00  0.00     0.275 HD
ATOM     22  H32 UNL     1     -17.836  66.877  28.866  1.00  0.00     0.275 HD
ATOM     23  H31 UNL     1     -17.727  68.580  28.861  1.00  0.00     0.275 HD
ENDBRANCH  17  20
ENDBRANCH  16  17
ENDBRANCH   7  16
TORSDOF 3
ENDMDL
