MODEL 1
REMARK VINA RESULT: -8.714438967      0.000      0.000
REMARK  3 active torsions:
REMARK  status: ('A' for Active; 'I' for Inactive)
REMARK       I    between atoms: N1_2  and  C2_4 
REMARK       I    between atoms: C2_4  and  N2_6 
REMARK    1  A    between atoms: C5_9  and  C6_10 
REMARK    2  A    between atoms: C6_10  and  N3_11 
REMARK       I    between atoms: N3_11  and  C7_13 
REMARK       I    between atoms: C7_13  and  N4_15 
REMARK    3  A    between atoms: N4_15  and  C8_17 
ROOT
HETATM    1  N3  UNL     1      24.428  13.902  24.487  1.00  0.00    -0.343 N 
ATOM      2  H3  UNL     1      23.593  14.189  23.977  1.00  0.00     0.164 HD
HETATM    3  C7  UNL     1      24.845  14.677  25.593  1.00  0.00     0.316 C 
HETATM    4  O2  UNL     1      25.882  14.287  26.196  1.00  0.00    -0.247 OA
HETATM    5  N4  UNL     1      24.122  15.830  25.990  1.00  0.00    -0.334 N 
ATOM      6  H4  UNL     1      23.293  16.084  25.453  1.00  0.00     0.165 HD
ENDROOT
BRANCH   1   7
HETATM    7  C6  UNL     1      25.139  12.714  24.046  1.00  0.00     0.130 C 
BRANCH   7   8
HETATM    8  C5  UNL     1      24.351  11.510  24.481  1.00  0.00     0.023 C 
HETATM    9  C4  UNL     1      24.128  10.536  23.337  1.00  0.00     0.028 C 
HETATM   10  C3  UNL     1      23.718   9.286  24.087  1.00  0.00     0.128 C 
HETATM   11  N2  UNL     1      24.503   9.330  25.304  1.00  0.00    -0.334 N 
HETATM   12  C2  UNL     1      24.669   8.274  26.238  1.00  0.00     0.317 C 
HETATM   13  C17 UNL     1      25.122  10.646  25.456  1.00  0.00     0.134 C 
HETATM   14  N1  UNL     1      25.460   8.409  27.409  1.00  0.00    -0.347 N 
HETATM   15  O1  UNL     1      24.089   7.158  26.023  1.00  0.00    -0.247 OA
HETATM   16  C1  UNL     1      25.612   7.319  28.341  1.00  0.00     0.151 C 
ATOM     17  H1  UNL     1      25.930   9.295  27.595  1.00  0.00     0.163 HD
ENDBRANCH   7   8
ENDBRANCH   1   7
BRANCH   5  18
HETATM   18  C8  UNL     1      24.488  16.660  27.100  1.00  0.00     0.035 C 
HETATM   19  C9  UNL     1      24.978  15.752  28.208  1.00  0.00     0.031 C 
HETATM   20  C10 UNL     1      24.301  16.196  29.477  1.00  0.00     0.007 C 
HETATM   21  C11 UNL     1      23.811  17.589  29.138  1.00  0.00    -0.012 C 
HETATM   22  C12 UNL     1      25.026  18.488  29.107  1.00  0.00     0.009 C 
HETATM   23  C16 UNL     1      23.293  17.361  27.711  1.00  0.00     0.035 C 
HETATM   24  C13 UNL     1      25.432  18.881  27.725  1.00  0.00    -0.016 C 
HETATM   25  C14 UNL     1      26.810  19.504  27.781  1.00  0.00     0.010 C 
HETATM   26  C15 UNL     1      25.509  17.709  26.767  1.00  0.00     0.035 C 
ENDBRANCH   5  18
TORSDOF 3
ENDMDL
MODEL 2
REMARK VINA RESULT: -8.623717374      5.025      7.367
REMARK  3 active torsions:
REMARK  status: ('A' for Active; 'I' for Inactive)
REMARK       I    between atoms: N1_2  and  C2_4 
REMARK       I    between atoms: C2_4  and  N2_6 
REMARK    1  A    between atoms: C5_9  and  C6_10 
REMARK    2  A    between atoms: C6_10  and  N3_11 
REMARK       I    between atoms: N3_11  and  C7_13 
REMARK       I    between atoms: C7_13  and  N4_15 
REMARK    3  A    between atoms: N4_15  and  C8_17 
ROOT
HETATM    1  N3  UNL     1      27.090  15.847  24.260  1.00  0.00    -0.343 N 
ATOM      2  H3  UNL     1      27.497  14.932  24.456  1.00  0.00     0.164 HD
HETATM    3  C7  UNL     1      26.363  16.496  25.283  1.00  0.00     0.316 C 
HETATM    4  O2  UNL     1      25.876  17.625  25.001  1.00  0.00    -0.247 OA
HETATM    5  N4  UNL     1      26.199  15.895  26.556  1.00  0.00    -0.334 N 
ATOM      6  H4  UNL     1      26.621  14.979  26.712  1.00  0.00     0.165 HD
ENDROOT
BRANCH   1   7
HETATM    7  C6  UNL     1      27.282  16.426  22.941  1.00  0.00     0.130 C 
BRANCH   7   8
HETATM    8  C5  UNL     1      28.758  16.468  22.661  1.00  0.00     0.023 C 
HETATM    9  C4  UNL     1      29.053  16.994  21.267  1.00  0.00     0.028 C 
HETATM   10  C3  UNL     1      30.526  17.331  21.383  1.00  0.00     0.128 C 
HETATM   11  N2  UNL     1      30.675  17.799  22.745  1.00  0.00    -0.334 N 
HETATM   12  C2  UNL     1      31.808  18.459  23.290  1.00  0.00     0.317 C 
HETATM   13  C17 UNL     1      29.472  17.493  23.518  1.00  0.00     0.134 C 
HETATM   14  N1  UNL     1      31.866  18.883  24.643  1.00  0.00    -0.347 N 
HETATM   15  O1  UNL     1      32.815  18.684  22.539  1.00  0.00    -0.247 OA
HETATM   16  C1  UNL     1      33.030  19.554  25.170  1.00  0.00     0.151 C 
ATOM     17  H1  UNL     1      31.069  18.710  25.255  1.00  0.00     0.163 HD
ENDBRANCH   7   8
ENDBRANCH   1   7
BRANCH   5  18
HETATM   18  C8  UNL     1      25.475  16.496  27.638  1.00  0.00     0.035 C 
HETATM   19  C9  UNL     1      25.745  15.676  28.881  1.00  0.00     0.031 C 
HETATM   20  C10 UNL     1      24.417  15.426  29.545  1.00  0.00     0.007 C 
HETATM   21  C11 UNL     1      23.516  16.471  28.918  1.00  0.00    -0.012 C 
HETATM   22  C12 UNL     1      23.911  17.806  29.508  1.00  0.00     0.009 C 
HETATM   23  C16 UNL     1      23.976  16.391  27.455  1.00  0.00     0.035 C 
HETATM   24  C13 UNL     1      24.669  18.670  28.556  1.00  0.00    -0.016 C 
HETATM   25  C14 UNL     1      25.279  19.823  29.323  1.00  0.00     0.010 C 
HETATM   26  C15 UNL     1      25.805  17.943  27.862  1.00  0.00     0.035 C 
ENDBRANCH   5  18
TORSDOF 3
ENDMDL
MODEL 3
REMARK VINA RESULT: -8.547975479      1.163      1.921
REMARK  3 active torsions:
REMARK  status: ('A' for Active; 'I' for Inactive)
REMARK       I    between atoms: N1_2  and  C2_4 
REMARK       I    between atoms: C2_4  and  N2_6 
REMARK    1  A    between atoms: C5_9  and  C6_10 
REMARK    2  A    between atoms: C6_10  and  N3_11 
REMARK       I    between atoms: N3_11  and  C7_13 
REMARK       I    between atoms: C7_13  and  N4_15 
REMARK    3  A    between atoms: N4_15  and  C8_17 
ROOT
HETATM    1  N3  UNL     1      24.414  13.786  24.577  1.00  0.00    -0.343 N 
ATOM      2  H3  UNL     1      23.472  14.137  24.402  1.00  0.00     0.164 HD
HETATM    3  C7  UNL     1      25.212  14.444  25.539  1.00  0.00     0.316 C 
HETATM    4  O2  UNL     1      26.370  13.979  25.726  1.00  0.00    -0.247 OA
HETATM    5  N4  UNL     1      24.721  15.568  26.250  1.00  0.00    -0.334 N 
ATOM      6  H4  UNL     1      23.775  15.888  26.045  1.00  0.00     0.165 HD
ENDROOT
BRANCH   1   7
HETATM    7  C6  UNL     1      24.877  12.632  23.825  1.00  0.00     0.130 C 
BRANCH   7   8
HETATM    8  C5  UNL     1      24.145  11.421  24.332  1.00  0.00     0.023 C 
HETATM    9  C4  UNL     1      23.917  10.398  23.233  1.00  0.00     0.028 C 
HETATM   10  C3  UNL     1      23.574   9.164  24.043  1.00  0.00     0.128 C 
HETATM   11  N2  UNL     1      24.398   9.280  25.229  1.00  0.00    -0.334 N 
HETATM   12  C2  UNL     1      24.631   8.266  26.195  1.00  0.00     0.317 C 
HETATM   13  C17 UNL     1      24.978  10.619  25.311  1.00  0.00     0.134 C 
HETATM   14  N1  UNL     1      25.456   8.471  27.331  1.00  0.00    -0.347 N 
HETATM   15  O1  UNL     1      24.081   7.125  26.042  1.00  0.00    -0.247 OA
HETATM   16  C1  UNL     1      25.676   7.422  28.297  1.00  0.00     0.151 C 
ATOM     17  H1  UNL     1      25.902   9.377  27.468  1.00  0.00     0.163 HD
ENDBRANCH   7   8
ENDBRANCH   1   7
BRANCH   5  18
HETATM   18  C8  UNL     1      25.476  16.281  27.238  1.00  0.00     0.035 C 
HETATM   19  C9  UNL     1      24.528  17.230  27.940  1.00  0.00     0.031 C 
HETATM   20  C10 UNL     1      25.207  18.573  28.000  1.00  0.00     0.007 C 
HETATM   21  C11 UNL     1      26.662  18.235  27.742  1.00  0.00    -0.012 C 
HETATM   22  C12 UNL     1      27.188  17.567  28.992  1.00  0.00     0.009 C 
HETATM   23  C16 UNL     1      26.511  17.198  26.620  1.00  0.00     0.035 C 
HETATM   24  C13 UNL     1      27.380  16.095  28.837  1.00  0.00    -0.016 C 
HETATM   25  C14 UNL     1      27.600  15.485  30.204  1.00  0.00     0.010 C 
HETATM   26  C15 UNL     1      26.183  15.396  28.222  1.00  0.00     0.035 C 
ENDBRANCH   5  18
TORSDOF 3
ENDMDL
MODEL 4
REMARK VINA RESULT: -8.533820485      4.680      9.005
REMARK  3 active torsions:
REMARK  status: ('A' for Active; 'I' for Inactive)
REMARK       I    between atoms: N1_2  and  C2_4 
REMARK       I    between atoms: C2_4  and  N2_6 
REMARK    1  A    between atoms: C5_9  and  C6_10 
REMARK    2  A    between atoms: C6_10  and  N3_11 
REMARK       I    between atoms: N3_11  and  C7_13 
REMARK       I    between atoms: C7_13  and  N4_15 
REMARK    3  A    between atoms: N4_15  and  C8_17 
ROOT
HETATM    1  N3  UNL     1      27.318  16.414  24.625  1.00  0.00    -0.343 N 
ATOM      2  H3  UNL     1      27.314  16.488  23.607  1.00  0.00     0.164 HD
HETATM    3  C7  UNL     1      27.100  15.146  25.211  1.00  0.00     0.316 C 
HETATM    4  O2  UNL     1      27.113  15.097  26.471  1.00  0.00    -0.247 OA
HETATM    5  N4  UNL     1      26.879  14.000  24.408  1.00  0.00    -0.334 N 
ATOM      6  H4  UNL     1      26.881  14.116  23.395  1.00  0.00     0.165 HD
ENDROOT
BRANCH   1   7
HETATM    7  C6  UNL     1      27.548  17.615  25.409  1.00  0.00     0.130 C 
BRANCH   7   8
HETATM    8  C5  UNL     1      28.841  18.230  24.954  1.00  0.00     0.023 C 
HETATM    9  C4  UNL     1      30.007  17.267  25.100  1.00  0.00     0.028 C 
HETATM   10  C3  UNL     1      31.049  17.928  24.221  1.00  0.00     0.128 C 
HETATM   11  N2  UNL     1      30.283  18.507  23.138  1.00  0.00    -0.334 N 
HETATM   12  C2  UNL     1      30.801  19.032  21.925  1.00  0.00     0.317 C 
HETATM   13  C17 UNL     1      28.857  18.485  23.461  1.00  0.00     0.134 C 
HETATM   14  N1  UNL     1      29.970  19.583  20.915  1.00  0.00    -0.347 N 
HETATM   15  O1  UNL     1      32.062  19.010  21.728  1.00  0.00    -0.247 OA
HETATM   16  C1  UNL     1      30.525  20.109  19.691  1.00  0.00     0.151 C 
ATOM     17  H1  UNL     1      28.961  19.608  21.057  1.00  0.00     0.163 HD
ENDBRANCH   7   8
ENDBRANCH   1   7
BRANCH   5  18
HETATM   18  C8  UNL     1      26.652  12.686  24.935  1.00  0.00     0.035 C 
HETATM   19  C9  UNL     1      26.434  11.753  23.762  1.00  0.00     0.031 C 
HETATM   20  C10 UNL     1      25.216  10.925  24.074  1.00  0.00     0.007 C 
HETATM   21  C11 UNL     1      25.057  11.095  25.571  1.00  0.00    -0.012 C 
HETATM   22  C12 UNL     1      26.155  10.288  26.226  1.00  0.00     0.009 C 
HETATM   23  C16 UNL     1      25.355  12.595  25.712  1.00  0.00     0.035 C 
HETATM   24  C13 UNL     1      27.248  11.133  26.792  1.00  0.00    -0.016 C 
HETATM   25  C14 UNL     1      28.424  10.242  27.134  1.00  0.00     0.010 C 
HETATM   26  C15 UNL     1      27.752  12.188  25.826  1.00  0.00     0.035 C 
ENDBRANCH   5  18
TORSDOF 3
ENDMDL
MODEL 5
REMARK VINA RESULT: -8.497487258      4.946      7.521
REMARK  3 active torsions:
REMARK  status: ('A' for Active; 'I' for Inactive)
REMARK       I    between atoms: N1_2  and  C2_4 
REMARK       I    between atoms: C2_4  and  N2_6 
REMARK    1  A    between atoms: C5_9  and  C6_10 
REMARK    2  A    between atoms: C6_10  and  N3_11 
REMARK       I    between atoms: N3_11  and  C7_13 
REMARK       I    between atoms: C7_13  and  N4_15 
REMARK    3  A    between atoms: N4_15  and  C8_17 
ROOT
HETATM    1  N3  UNL     1      26.814  17.269  24.164  1.00  0.00    -0.343 N 
ATOM      2  H3  UNL     1      27.104  18.245  24.222  1.00  0.00     0.164 HD
HETATM    3  C7  UNL     1      26.166  16.689  25.277  1.00  0.00     0.316 C 
HETATM    4  O2  UNL     1      25.823  15.480  25.164  1.00  0.00    -0.247 OA
HETATM    5  N4  UNL     1      25.922  17.441  26.453  1.00  0.00    -0.334 N 
ATOM      6  H4  UNL     1      26.228  18.414  26.472  1.00  0.00     0.165 HD
ENDROOT
BRANCH   1   7
HETATM    7  C6  UNL     1      27.084  16.535  22.939  1.00  0.00     0.130 C 
BRANCH   7   8
HETATM    8  C5  UNL     1      28.570  16.534  22.714  1.00  0.00     0.023 C 
HETATM    9  C4  UNL     1      28.926  16.906  21.285  1.00  0.00     0.028 C 
HETATM   10  C3  UNL     1      30.398  17.239  21.424  1.00  0.00     0.128 C 
HETATM   11  N2  UNL     1      30.501  17.847  22.734  1.00  0.00    -0.334 N 
HETATM   12  C2  UNL     1      31.620  18.552  23.251  1.00  0.00     0.317 C 
HETATM   13  C17 UNL     1      29.265  17.636  23.486  1.00  0.00     0.134 C 
HETATM   14  N1  UNL     1      31.632  19.116  24.553  1.00  0.00    -0.347 N 
HETATM   15  O1  UNL     1      32.659  18.686  22.521  1.00  0.00    -0.247 OA
HETATM   16  C1  UNL     1      32.784  19.827  25.051  1.00  0.00     0.151 C 
ATOM     17  H1  UNL     1      30.810  19.016  25.147  1.00  0.00     0.163 HD
ENDBRANCH   7   8
ENDBRANCH   1   7
BRANCH   5  18
HETATM   18  C8  UNL     1      25.270  16.916  27.618  1.00  0.00     0.035 C 
HETATM   19  C9  UNL     1      23.877  16.488  27.208  1.00  0.00     0.031 C 
HETATM   20  C10 UNL     1      22.924  17.038  28.236  1.00  0.00     0.007 C 
HETATM   21  C11 UNL     1      23.829  17.364  29.407  1.00  0.00    -0.012 C 
HETATM   22  C12 UNL     1      24.233  16.048  30.032  1.00  0.00     0.009 C 
HETATM   23  C16 UNL     1      25.026  17.979  28.668  1.00  0.00     0.035 C 
HETATM   24  C13 UNL     1      25.647  15.667  29.743  1.00  0.00    -0.016 C 
HETATM   25  C14 UNL     1      25.852  14.220  30.135  1.00  0.00     0.010 C 
HETATM   26  C15 UNL     1      26.012  15.789  28.276  1.00  0.00     0.035 C 
ENDBRANCH   5  18
TORSDOF 3
ENDMDL
