MODEL 1
REMARK VINA RESULT: -8.104099358      0.000      0.000
REMARK  17 active torsions:
REMARK  status: ('A' for Active; 'I' for Inactive)
REMARK    1  A    between atoms: N2_5  and  C4_6 
REMARK    2  A    between atoms: C4_6  and  N3_8 
REMARK       I    between atoms: N3_8  and  C5_10 
REMARK       I    between atoms: C5_10  and  N7_33 
REMARK       I    between atoms: N4_11  and  C6_13 
REMARK    3  A    between atoms: C6_13  and  C7_15 
REMARK    4  A    between atoms: C7_15  and  C8_16 
REMARK    5  A    between atoms: C8_16  and  C9_17 
REMARK    6  A    between atoms: C9_17  and  C10_18 
REMARK    7  A    between atoms: C10_18  and  C11_19 
REMARK    8  A    between atoms: C11_19  and  C12_20 
REMARK    9  A    between atoms: C12_20  and  C13_21 
REMARK   10  A    between atoms: C13_21  and  C14_22 
REMARK   11  A    between atoms: C14_22  and  C15_23 
REMARK   12  A    between atoms: C15_23  and  C16_24 
REMARK   13  A    between atoms: C16_24  and  C17_25 
REMARK   14  A    between atoms: C17_25  and  C18_26 
REMARK   15  A    between atoms: C18_26  and  C19_27 
REMARK   16  A    between atoms: C19_27  and  N5_28 
REMARK       I    between atoms: N5_28  and  C20_30 
REMARK   17  A    between atoms: N7_33  and  N8_35 
ROOT
HETATM    1  N3  UNL     1      38.861  10.803 105.930  1.00  0.00    -0.165 N 
ATOM      2  H3  UNL     1      38.381  11.022 106.804  1.00  0.00     0.186 HD
HETATM    3  C5  UNL     1      39.133  11.887 105.079  1.00  0.00     0.702 C 
HETATM    4  N4  UNL     1      40.109  12.694 105.349  1.00  0.00    -0.158 N 
ATOM      5  H4  UNL     1      40.280  13.468 104.707  1.00  0.00     0.187 HD
HETATM    6  C6  UNL     1      40.953  12.569 106.476  1.00  0.00     0.235 C 
HETATM    7  O1  UNL     1      40.423  12.106 107.542  1.00  0.00    -0.273 OA
HETATM    8  N7  UNL     1      38.343  12.181 103.929  1.00  0.00    -0.118 N 
ATOM      9  H7  UNL     1      37.808  11.437 103.480  1.00  0.00     0.207 HD
ENDROOT
BRANCH   6  10
HETATM   10  C7  UNL     1      42.409  12.948 106.467  1.00  0.00     0.103 C 
BRANCH  10  11
HETATM   11  C8  UNL     1      43.032  12.600 107.766  1.00  0.00     0.009 C 
BRANCH  11  12
HETATM   12  C9  UNL     1      43.824  13.671 108.441  1.00  0.00     0.000 C 
BRANCH  12  13
HETATM   13  C10 UNL     1      43.293  15.038 108.112  1.00  0.00     0.000 C 
BRANCH  13  14
HETATM   14  C11 UNL     1      42.449  15.655 109.157  1.00  0.00     0.000 C 
BRANCH  14  15
HETATM   15  C12 UNL     1      40.977  15.668 108.841  1.00  0.00     0.000 C 
BRANCH  15  16
HETATM   16  C13 UNL     1      40.335  14.783 109.929  1.00  0.00     0.000 C 
BRANCH  16  17
HETATM   17  C14 UNL     1      41.182  14.742 111.154  1.00  0.00     0.000 C 
BRANCH  17  18
HETATM   18  C15 UNL     1      40.699  13.644 112.064  1.00  0.00     0.000 C 
BRANCH  18  19
HETATM   19  C16 UNL     1      41.716  12.572 112.274  1.00  0.00     0.000 C 
BRANCH  19  20
HETATM   20  C17 UNL     1      41.879  11.653 111.060  1.00  0.00     0.002 C 
BRANCH  20  21
HETATM   21  C18 UNL     1      41.416  10.271 111.471  1.00  0.00     0.020 C 
BRANCH  21  22
HETATM   22  C19 UNL     1      41.886   9.851 112.818  1.00  0.00     0.124 C 
BRANCH  22  23
HETATM   23  N5  UNL     1      41.634   8.483 113.168  1.00  0.00    -0.345 N 
HETATM   24  C20 UNL     1      42.642   7.498 113.085  1.00  0.00     0.328 C 
HETATM   25  N6  UNL     1      42.378   6.158 113.433  1.00  0.00    -0.040 NA
HETATM   26  O2  UNL     1      43.786   7.819 112.696  1.00  0.00    -0.251 OA
ATOM     27  H5  UNL     1      40.702   8.215 113.485  1.00  0.00     0.163 HD
ENDBRANCH  22  23
ENDBRANCH  21  22
ENDBRANCH  20  21
ENDBRANCH  19  20
ENDBRANCH  18  19
ENDBRANCH  17  18
ENDBRANCH  16  17
ENDBRANCH  15  16
ENDBRANCH  14  15
ENDBRANCH  13  14
ENDBRANCH  12  13
ENDBRANCH  11  12
ENDBRANCH  10  11
ENDBRANCH   6  10
BRANCH   1  28
HETATM   28  C4  UNL     1      39.173   9.466 105.713  1.00  0.00     0.188 C 
HETATM   29  S1  UNL     1      38.248   8.707 104.498  1.00  0.00    -0.040 SA
BRANCH  28  30
HETATM   30  N2  UNL     1      40.124   8.702 106.366  1.00  0.00    -0.355 N 
HETATM   31  C3  UNL     1      41.559   9.018 106.082  1.00  0.00     0.144 C 
HETATM   32  C2  UNL     1      42.211   9.064 107.473  1.00  0.00     0.136 C 
HETATM   33  N1  UNL     1      42.266   7.717 107.928  1.00  0.00    -0.414 N 
HETATM   34  C1  UNL     1      42.669   7.534 109.289  1.00  0.00     0.143 C 
HETATM   35  C22 UNL     1      41.276   6.831 107.440  1.00  0.00     0.136 C 
HETATM   36  C21 UNL     1      39.950   7.633 107.291  1.00  0.00     0.144 C 
ENDBRANCH  28  30
ENDBRANCH   1  28
BRANCH   8  37
HETATM   37  N8  UNL     1      38.294  13.477 103.412  1.00  0.00    -0.235 N 
HETATM   38  N9  UNL     1      37.252  14.198 103.381  1.00  0.00    -0.330 N 
ATOM     39  H92 UNL     1      36.401  13.788 103.763  1.00  0.00     0.178 HD
ATOM     40  H91 UNL     1      37.216  15.144 103.004  1.00  0.00     0.178 HD
ATOM     41  H8  UNL     1      39.155  13.870 103.035  1.00  0.00     0.208 HD
ENDBRANCH   8  37
TORSDOF 17
ENDMDL
MODEL 2
REMARK VINA RESULT: -8.016849589      3.097      7.436
REMARK  17 active torsions:
REMARK  status: ('A' for Active; 'I' for Inactive)
REMARK    1  A    between atoms: N2_5  and  C4_6 
REMARK    2  A    between atoms: C4_6  and  N3_8 
REMARK       I    between atoms: N3_8  and  C5_10 
REMARK       I    between atoms: C5_10  and  N7_33 
REMARK       I    between atoms: N4_11  and  C6_13 
REMARK    3  A    between atoms: C6_13  and  C7_15 
REMARK    4  A    between atoms: C7_15  and  C8_16 
REMARK    5  A    between atoms: C8_16  and  C9_17 
REMARK    6  A    between atoms: C9_17  and  C10_18 
REMARK    7  A    between atoms: C10_18  and  C11_19 
REMARK    8  A    between atoms: C11_19  and  C12_20 
REMARK    9  A    between atoms: C12_20  and  C13_21 
REMARK   10  A    between atoms: C13_21  and  C14_22 
REMARK   11  A    between atoms: C14_22  and  C15_23 
REMARK   12  A    between atoms: C15_23  and  C16_24 
REMARK   13  A    between atoms: C16_24  and  C17_25 
REMARK   14  A    between atoms: C17_25  and  C18_26 
REMARK   15  A    between atoms: C18_26  and  C19_27 
REMARK   16  A    between atoms: C19_27  and  N5_28 
REMARK       I    between atoms: N5_28  and  C20_30 
REMARK   17  A    between atoms: N7_33  and  N8_35 
ROOT
HETATM    1  N3  UNL     1      42.147  13.797 108.738  1.00  0.00    -0.165 N 
ATOM      2  H3  UNL     1      43.155  13.650 108.798  1.00  0.00     0.186 HD
HETATM    3  C5  UNL     1      41.464  13.058 107.757  1.00  0.00     0.702 C 
HETATM    4  N4  UNL     1      41.214  11.803 107.949  1.00  0.00    -0.158 N 
ATOM      5  H4  UNL     1      40.714  11.298 107.217  1.00  0.00     0.187 HD
HETATM    6  C6  UNL     1      41.589  11.087 109.109  1.00  0.00     0.235 C 
HETATM    7  O1  UNL     1      42.683  11.435 109.670  1.00  0.00    -0.273 OA
HETATM    8  N7  UNL     1      41.063  13.620 106.510  1.00  0.00    -0.118 N 
ATOM      9  H7  UNL     1      40.919  14.627 106.433  1.00  0.00     0.207 HD
ENDROOT
BRANCH   6  10
HETATM   10  C7  UNL     1      40.773   9.966 109.691  1.00  0.00     0.103 C 
BRANCH  10  11
HETATM   11  C8  UNL     1      40.737  10.076 111.169  1.00  0.00     0.009 C 
BRANCH  11  12
HETATM   12  C9  UNL     1      40.944   8.816 111.943  1.00  0.00     0.000 C 
BRANCH  12  13
HETATM   13  C10 UNL     1      41.709   7.798 111.144  1.00  0.00     0.000 C 
BRANCH  13  14
HETATM   14  C11 UNL     1      43.157   7.726 111.437  1.00  0.00     0.000 C 
BRANCH  14  15
HETATM   15  C12 UNL     1      44.019   8.553 110.521  1.00  0.00     0.000 C 
BRANCH  15  16
HETATM   16  C13 UNL     1      44.358   7.612 109.347  1.00  0.00     0.000 C 
BRANCH  16  17
HETATM   17  C14 UNL     1      43.628   8.014 108.112  1.00  0.00     0.000 C 
BRANCH  17  18
HETATM   18  C15 UNL     1      42.814   6.851 107.608  1.00  0.00     0.000 C 
BRANCH  18  19
HETATM   19  C16 UNL     1      41.408   7.225 107.277  1.00  0.00     0.000 C 
BRANCH  19  20
HETATM   20  C17 UNL     1      40.373   6.302 107.928  1.00  0.00     0.002 C 
BRANCH  20  21
HETATM   21  C18 UNL     1      39.120   7.119 108.165  1.00  0.00     0.020 C 
BRANCH  21  22
HETATM   22  C19 UNL     1      38.582   7.769 106.941  1.00  0.00     0.124 C 
BRANCH  22  23
HETATM   23  N5  UNL     1      38.095   9.108 107.109  1.00  0.00    -0.345 N 
HETATM   24  C20 UNL     1      38.758  10.216 106.537  1.00  0.00     0.328 C 
HETATM   25  N6  UNL     1      38.265  11.526 106.712  1.00  0.00    -0.040 NA
HETATM   26  O2  UNL     1      39.796  10.034 105.866  1.00  0.00    -0.251 OA
ATOM     27  H5  UNL     1      37.249   9.264 107.656  1.00  0.00     0.163 HD
ENDBRANCH  22  23
ENDBRANCH  21  22
ENDBRANCH  20  21
ENDBRANCH  19  20
ENDBRANCH  18  19
ENDBRANCH  17  18
ENDBRANCH  16  17
ENDBRANCH  15  16
ENDBRANCH  14  15
ENDBRANCH  13  14
ENDBRANCH  12  13
ENDBRANCH  11  12
ENDBRANCH  10  11
ENDBRANCH   6  10
BRANCH   1  28
HETATM   28  C4  UNL     1      41.600  14.705 109.637  1.00  0.00     0.188 C 
HETATM   29  S1  UNL     1      41.073  14.023 111.109  1.00  0.00    -0.040 SA
BRANCH  28  30
HETATM   30  N2  UNL     1      41.434  16.068 109.467  1.00  0.00    -0.355 N 
HETATM   31  C3  UNL     1      42.341  16.745 108.488  1.00  0.00     0.144 C 
HETATM   32  C2  UNL     1      41.395  17.620 107.650  1.00  0.00     0.136 C 
HETATM   33  N1  UNL     1      40.990  18.688 108.498  1.00  0.00    -0.414 N 
HETATM   34  C1  UNL     1      39.954  19.534 107.988  1.00  0.00     0.143 C 
HETATM   35  C22 UNL     1      40.962  18.430 109.890  1.00  0.00     0.136 C 
HETATM   36  C21 UNL     1      40.511  16.955 110.093  1.00  0.00     0.144 C 
ENDBRANCH  28  30
ENDBRANCH   1  28
BRANCH   8  37
HETATM   37  N8  UNL     1      40.867  12.806 105.393  1.00  0.00    -0.235 N 
HETATM   38  N9  UNL     1      39.899  12.919 104.583  1.00  0.00    -0.330 N 
ATOM     39  H92 UNL     1      39.227  13.661 104.775  1.00  0.00     0.178 HD
ATOM     40  H91 UNL     1      39.756  12.325 103.767  1.00  0.00     0.178 HD
ATOM     41  H8  UNL     1      41.549  12.069 105.217  1.00  0.00     0.208 HD
ENDBRANCH   8  37
TORSDOF 17
ENDMDL
MODEL 3
REMARK VINA RESULT: -7.987929667      3.119      6.401
REMARK  17 active torsions:
REMARK  status: ('A' for Active; 'I' for Inactive)
REMARK    1  A    between atoms: N2_5  and  C4_6 
REMARK    2  A    between atoms: C4_6  and  N3_8 
REMARK       I    between atoms: N3_8  and  C5_10 
REMARK       I    between atoms: C5_10  and  N7_33 
REMARK       I    between atoms: N4_11  and  C6_13 
REMARK    3  A    between atoms: C6_13  and  C7_15 
REMARK    4  A    between atoms: C7_15  and  C8_16 
REMARK    5  A    between atoms: C8_16  and  C9_17 
REMARK    6  A    between atoms: C9_17  and  C10_18 
REMARK    7  A    between atoms: C10_18  and  C11_19 
REMARK    8  A    between atoms: C11_19  and  C12_20 
REMARK    9  A    between atoms: C12_20  and  C13_21 
REMARK   10  A    between atoms: C13_21  and  C14_22 
REMARK   11  A    between atoms: C14_22  and  C15_23 
REMARK   12  A    between atoms: C15_23  and  C16_24 
REMARK   13  A    between atoms: C16_24  and  C17_25 
REMARK   14  A    between atoms: C17_25  and  C18_26 
REMARK   15  A    between atoms: C18_26  and  C19_27 
REMARK   16  A    between atoms: C19_27  and  N5_28 
REMARK       I    between atoms: N5_28  and  C20_30 
REMARK   17  A    between atoms: N7_33  and  N8_35 
ROOT
HETATM    1  N3  UNL     1      42.131  12.293 106.095  1.00  0.00    -0.165 N 
ATOM      2  H3  UNL     1      42.966  12.185 105.519  1.00  0.00     0.186 HD
HETATM    3  C5  UNL     1      40.906  11.965 105.489  1.00  0.00     0.702 C 
HETATM    4  N4  UNL     1      40.572  10.724 105.335  1.00  0.00    -0.158 N 
ATOM      5  H4  UNL     1      39.674  10.522 104.893  1.00  0.00     0.187 HD
HETATM    6  C6  UNL     1      41.371   9.631 105.740  1.00  0.00     0.235 C 
HETATM    7  O1  UNL     1      42.637   9.785 105.663  1.00  0.00    -0.273 OA
HETATM    8  N7  UNL     1      40.011  12.950 104.980  1.00  0.00    -0.118 N 
ATOM      9  H7  UNL     1      40.036  13.898 105.355  1.00  0.00     0.207 HD
ENDROOT
BRANCH   6  10
HETATM   10  C7  UNL     1      40.804   8.332 106.243  1.00  0.00     0.103 C 
BRANCH  10  11
HETATM   11  C8  UNL     1      41.900   7.375 106.527  1.00  0.00     0.009 C 
BRANCH  11  12
HETATM   12  C9  UNL     1      42.354   7.274 107.947  1.00  0.00     0.000 C 
BRANCH  12  13
HETATM   13  C10 UNL     1      43.806   7.638 108.088  1.00  0.00     0.000 C 
BRANCH  13  14
HETATM   14  C11 UNL     1      44.344   7.558 109.463  1.00  0.00     0.000 C 
BRANCH  14  15
HETATM   15  C12 UNL     1      43.864   8.647 110.384  1.00  0.00     0.000 C 
BRANCH  15  16
HETATM   16  C13 UNL     1      43.467   7.916 111.683  1.00  0.00     0.000 C 
BRANCH  16  17
HETATM   17  C14 UNL     1      42.187   8.450 112.228  1.00  0.00     0.000 C 
BRANCH  17  18
HETATM   18  C15 UNL     1      41.090   8.259 111.215  1.00  0.00     0.000 C 
BRANCH  18  19
HETATM   19  C16 UNL     1      40.355   9.520 110.908  1.00  0.00     0.000 C 
BRANCH  19  20
HETATM   20  C17 UNL     1      39.863   9.591 109.459  1.00  0.00     0.002 C 
BRANCH  20  21
HETATM   21  C18 UNL     1      38.883   8.455 109.254  1.00  0.00     0.020 C 
BRANCH  21  22
HETATM   22  C19 UNL     1      37.784   8.769 108.303  1.00  0.00     0.124 C 
BRANCH  22  23
HETATM   23  N5  UNL     1      37.640  10.152 107.950  1.00  0.00    -0.345 N 
HETATM   24  C20 UNL     1      37.573  10.571 106.603  1.00  0.00     0.328 C 
HETATM   25  N6  UNL     1      37.431  11.934 106.274  1.00  0.00    -0.040 NA
HETATM   26  O2  UNL     1      37.640   9.721 105.690  1.00  0.00    -0.251 OA
ATOM     27  H5  UNL     1      37.585  10.851 108.691  1.00  0.00     0.163 HD
ENDBRANCH  22  23
ENDBRANCH  21  22
ENDBRANCH  20  21
ENDBRANCH  19  20
ENDBRANCH  18  19
ENDBRANCH  17  18
ENDBRANCH  16  17
ENDBRANCH  15  16
ENDBRANCH  14  15
ENDBRANCH  13  14
ENDBRANCH  12  13
ENDBRANCH  11  12
ENDBRANCH  10  11
ENDBRANCH   6  10
BRANCH   1  28
HETATM   28  C4  UNL     1      42.329  12.748 107.393  1.00  0.00     0.188 C 
HETATM   29  S1  UNL     1      42.927  11.574 108.477  1.00  0.00    -0.040 SA
BRANCH  28  30
HETATM   30  N2  UNL     1      42.092  14.017 107.891  1.00  0.00    -0.355 N 
HETATM   31  C3  UNL     1      43.279  14.912 108.060  1.00  0.00     0.144 C 
HETATM   32  C2  UNL     1      42.829  16.246 107.444  1.00  0.00     0.136 C 
HETATM   33  N1  UNL     1      41.882  16.800 108.350  1.00  0.00    -0.414 N 
HETATM   34  C1  UNL     1      41.184  17.962 107.890  1.00  0.00     0.143 C 
HETATM   35  C22 UNL     1      41.139  15.891 109.141  1.00  0.00     0.136 C 
HETATM   36  C21 UNL     1      40.863  14.624 108.279  1.00  0.00     0.144 C 
ENDBRANCH  28  30
ENDBRANCH   1  28
BRANCH   8  37
HETATM   37  N8  UNL     1      39.100  12.630 103.971  1.00  0.00    -0.235 N 
HETATM   38  N9  UNL     1      38.259  13.440 103.479  1.00  0.00    -0.330 N 
ATOM     39  H92 UNL     1      38.261  14.387 103.858  1.00  0.00     0.178 HD
ATOM     40  H91 UNL     1      37.594  13.207 102.742  1.00  0.00     0.178 HD
ATOM     41  H8  UNL     1      39.113  11.679 103.604  1.00  0.00     0.208 HD
ENDBRANCH   8  37
TORSDOF 17
ENDMDL
MODEL 4
REMARK VINA RESULT: -7.982827296      2.961      6.121
REMARK  17 active torsions:
REMARK  status: ('A' for Active; 'I' for Inactive)
REMARK    1  A    between atoms: N2_5  and  C4_6 
REMARK    2  A    between atoms: C4_6  and  N3_8 
REMARK       I    between atoms: N3_8  and  C5_10 
REMARK       I    between atoms: C5_10  and  N7_33 
REMARK       I    between atoms: N4_11  and  C6_13 
REMARK    3  A    between atoms: C6_13  and  C7_15 
REMARK    4  A    between atoms: C7_15  and  C8_16 
REMARK    5  A    between atoms: C8_16  and  C9_17 
REMARK    6  A    between atoms: C9_17  and  C10_18 
REMARK    7  A    between atoms: C10_18  and  C11_19 
REMARK    8  A    between atoms: C11_19  and  C12_20 
REMARK    9  A    between atoms: C12_20  and  C13_21 
REMARK   10  A    between atoms: C13_21  and  C14_22 
REMARK   11  A    between atoms: C14_22  and  C15_23 
REMARK   12  A    between atoms: C15_23  and  C16_24 
REMARK   13  A    between atoms: C16_24  and  C17_25 
REMARK   14  A    between atoms: C17_25  and  C18_26 
REMARK   15  A    between atoms: C18_26  and  C19_27 
REMARK   16  A    between atoms: C19_27  and  N5_28 
REMARK       I    between atoms: N5_28  and  C20_30 
REMARK   17  A    between atoms: N7_33  and  N8_35 
ROOT
HETATM    1  N3  UNL     1      43.471  14.048 108.291  1.00  0.00    -0.165 N 
ATOM      2  H3  UNL     1      44.428  14.102 107.939  1.00  0.00     0.186 HD
HETATM    3  C5  UNL     1      42.612  13.153 107.631  1.00  0.00     0.702 C 
HETATM    4  N4  UNL     1      42.706  11.881 107.852  1.00  0.00    -0.158 N 
ATOM      5  H4  UNL     1      42.064  11.261 107.358  1.00  0.00     0.187 HD
HETATM    6  C6  UNL     1      43.643  11.297 108.736  1.00  0.00     0.235 C 
HETATM    7  O1  UNL     1      44.780  11.873 108.831  1.00  0.00    -0.273 OA
HETATM    8  N7  UNL     1      41.647  13.578 106.671  1.00  0.00    -0.118 N 
ATOM      9  H7  UNL     1      41.292  14.534 106.701  1.00  0.00     0.207 HD
ENDROOT
BRANCH   6  10
HETATM   10  C7  UNL     1      43.359  10.062 109.545  1.00  0.00     0.103 C 
BRANCH  10  11
HETATM   11  C8  UNL     1      44.398   9.036 109.288  1.00  0.00     0.009 C 
BRANCH  11  12
HETATM   12  C9  UNL     1      43.934   7.620 109.186  1.00  0.00     0.000 C 
BRANCH  12  13
HETATM   13  C10 UNL     1      43.549   7.266 107.777  1.00  0.00     0.000 C 
BRANCH  13  14
HETATM   14  C11 UNL     1      42.099   7.298 107.493  1.00  0.00     0.000 C 
BRANCH  14  15
HETATM   15  C12 UNL     1      41.305   6.220 108.181  1.00  0.00     0.000 C 
BRANCH  15  16
HETATM   16  C13 UNL     1      39.831   6.592 107.923  1.00  0.00     0.000 C 
BRANCH  16  17
HETATM   17  C14 UNL     1      39.653   8.071 107.878  1.00  0.00     0.000 C 
BRANCH  17  18
HETATM   18  C15 UNL     1      38.994   8.538 109.149  1.00  0.00     0.000 C 
BRANCH  18  19
HETATM   19  C16 UNL     1      39.842   9.484 109.931  1.00  0.00     0.000 C 
BRANCH  19  20
HETATM   20  C17 UNL     1      40.398   8.868 111.219  1.00  0.00     0.002 C 
BRANCH  20  21
HETATM   21  C18 UNL     1      40.874  10.005 112.098  1.00  0.00     0.020 C 
BRANCH  21  22
HETATM   22  C19 UNL     1      41.913   9.611 113.086  1.00  0.00     0.124 C 
BRANCH  22  23
HETATM   23  N5  UNL     1      41.790   8.288 113.627  1.00  0.00    -0.345 N 
HETATM   24  C20 UNL     1      42.839   7.346 113.529  1.00  0.00     0.328 C 
HETATM   25  N6  UNL     1      42.701   6.050 114.066  1.00  0.00    -0.040 NA
HETATM   26  O2  UNL     1      43.903   7.666 112.958  1.00  0.00    -0.251 OA
ATOM     27  H5  UNL     1      40.924   8.020 114.093  1.00  0.00     0.163 HD
ENDBRANCH  22  23
ENDBRANCH  21  22
ENDBRANCH  20  21
ENDBRANCH  19  20
ENDBRANCH  18  19
ENDBRANCH  17  18
ENDBRANCH  16  17
ENDBRANCH  15  16
ENDBRANCH  14  15
ENDBRANCH  13  14
ENDBRANCH  12  13
ENDBRANCH  11  12
ENDBRANCH  10  11
ENDBRANCH   6  10
BRANCH   1  28
HETATM   28  C4  UNL     1      43.162  14.867 109.371  1.00  0.00     0.188 C 
HETATM   29  S1  UNL     1      43.912  16.399 109.340  1.00  0.00    -0.040 SA
BRANCH  28  30
HETATM   30  N2  UNL     1      42.339  14.577 110.444  1.00  0.00    -0.355 N 
HETATM   31  C3  UNL     1      42.814  13.527 111.399  1.00  0.00     0.144 C 
HETATM   32  C2  UNL     1      42.587  14.154 112.783  1.00  0.00     0.136 C 
HETATM   33  N1  UNL     1      41.179  14.157 112.989  1.00  0.00    -0.414 N 
HETATM   34  C1  UNL     1      40.718  14.869 114.142  1.00  0.00     0.143 C 
HETATM   35  C22 UNL     1      40.360  14.227 111.837  1.00  0.00     0.136 C 
HETATM   36  C21 UNL     1      41.077  15.136 110.796  1.00  0.00     0.144 C 
ENDBRANCH  28  30
ENDBRANCH   1  28
BRANCH   8  37
HETATM   37  N8  UNL     1      41.185  12.699 105.690  1.00  0.00    -0.235 N 
HETATM   38  N9  UNL     1      40.143  12.885 104.993  1.00  0.00    -0.330 N 
ATOM     39  H92 UNL     1      39.619  13.740 105.173  1.00  0.00     0.178 HD
ATOM     40  H91 UNL     1      39.805  12.243 104.276  1.00  0.00     0.178 HD
ATOM     41  H8  UNL     1      41.722  11.849 105.524  1.00  0.00     0.208 HD
ENDBRANCH   8  37
TORSDOF 17
ENDMDL
MODEL 5
REMARK VINA RESULT: -7.938492116      3.142      6.599
REMARK  17 active torsions:
REMARK  status: ('A' for Active; 'I' for Inactive)
REMARK    1  A    between atoms: N2_5  and  C4_6 
REMARK    2  A    between atoms: C4_6  and  N3_8 
REMARK       I    between atoms: N3_8  and  C5_10 
REMARK       I    between atoms: C5_10  and  N7_33 
REMARK       I    between atoms: N4_11  and  C6_13 
REMARK    3  A    between atoms: C6_13  and  C7_15 
REMARK    4  A    between atoms: C7_15  and  C8_16 
REMARK    5  A    between atoms: C8_16  and  C9_17 
REMARK    6  A    between atoms: C9_17  and  C10_18 
REMARK    7  A    between atoms: C10_18  and  C11_19 
REMARK    8  A    between atoms: C11_19  and  C12_20 
REMARK    9  A    between atoms: C12_20  and  C13_21 
REMARK   10  A    between atoms: C13_21  and  C14_22 
REMARK   11  A    between atoms: C14_22  and  C15_23 
REMARK   12  A    between atoms: C15_23  and  C16_24 
REMARK   13  A    between atoms: C16_24  and  C17_25 
REMARK   14  A    between atoms: C17_25  and  C18_26 
REMARK   15  A    between atoms: C18_26  and  C19_27 
REMARK   16  A    between atoms: C19_27  and  N5_28 
REMARK       I    between atoms: N5_28  and  C20_30 
REMARK   17  A    between atoms: N7_33  and  N8_35 
ROOT
HETATM    1  N3  UNL     1      43.480  14.196 108.022  1.00  0.00    -0.165 N 
ATOM      2  H3  UNL     1      44.442  14.209 107.682  1.00  0.00     0.186 HD
HETATM    3  C5  UNL     1      42.599  13.317 107.369  1.00  0.00     0.702 C 
HETATM    4  N4  UNL     1      42.646  12.048 107.620  1.00  0.00    -0.158 N 
ATOM      5  H4  UNL     1      41.990  11.439 107.130  1.00  0.00     0.187 HD
HETATM    6  C6  UNL     1      43.549  11.452 108.529  1.00  0.00     0.235 C 
HETATM    7  O1  UNL     1      44.704  11.990 108.628  1.00  0.00    -0.273 OA
HETATM    8  N7  UNL     1      41.663  13.753 106.386  1.00  0.00    -0.118 N 
ATOM      9  H7  UNL     1      41.341  14.722 106.389  1.00  0.00     0.207 HD
ENDROOT
BRANCH   6  10
HETATM   10  C7  UNL     1      43.211  10.246 109.362  1.00  0.00     0.103 C 
BRANCH  10  11
HETATM   11  C8  UNL     1      44.432   9.442 109.611  1.00  0.00     0.009 C 
BRANCH  11  12
HETATM   12  C9  UNL     1      44.347   7.980 109.317  1.00  0.00     0.000 C 
BRANCH  12  13
HETATM   13  C10 UNL     1      43.829   7.727 107.929  1.00  0.00     0.000 C 
BRANCH  13  14
HETATM   14  C11 UNL     1      42.687   6.792 107.843  1.00  0.00     0.000 C 
BRANCH  14  15
HETATM   15  C12 UNL     1      41.724   7.086 106.724  1.00  0.00     0.000 C 
BRANCH  15  16
HETATM   16  C13 UNL     1      42.052   8.531 106.294  1.00  0.00     0.000 C 
BRANCH  16  17
HETATM   17  C14 UNL     1      40.816   9.267 105.904  1.00  0.00     0.000 C 
BRANCH  17  18
HETATM   18  C15 UNL     1      39.708   8.937 106.868  1.00  0.00     0.000 C 
BRANCH  18  19
HETATM   19  C16 UNL     1      39.733   9.784 108.096  1.00  0.00     0.000 C 
BRANCH  19  20
HETATM   20  C17 UNL     1      39.101   9.099 109.311  1.00  0.00     0.002 C 
BRANCH  20  21
HETATM   21  C18 UNL     1      40.125   8.139 109.877  1.00  0.00     0.020 C 
BRANCH  21  22
HETATM   22  C19 UNL     1      40.662   8.540 111.204  1.00  0.00     0.124 C 
BRANCH  22  23
HETATM   23  N5  UNL     1      41.829   7.832 111.645  1.00  0.00    -0.345 N 
HETATM   24  C20 UNL     1      42.648   8.326 112.684  1.00  0.00     0.328 C 
HETATM   25  N6  UNL     1      43.792   7.618 113.106  1.00  0.00    -0.040 NA
HETATM   26  O2  UNL     1      42.355   9.407 113.239  1.00  0.00    -0.251 OA
ATOM     27  H5  UNL     1      42.074   6.950 111.197  1.00  0.00     0.163 HD
ENDBRANCH  22  23
ENDBRANCH  21  22
ENDBRANCH  20  21
ENDBRANCH  19  20
ENDBRANCH  18  19
ENDBRANCH  17  18
ENDBRANCH  16  17
ENDBRANCH  15  16
ENDBRANCH  14  15
ENDBRANCH  13  14
ENDBRANCH  12  13
ENDBRANCH  11  12
ENDBRANCH  10  11
ENDBRANCH   6  10
BRANCH   1  28
HETATM   28  C4  UNL     1      43.184  15.049 109.078  1.00  0.00     0.188 C 
HETATM   29  S1  UNL     1      44.313  15.016 110.358  1.00  0.00    -0.040 SA
BRANCH  28  30
HETATM   30  N2  UNL     1      42.097  15.895 109.205  1.00  0.00    -0.355 N 
HETATM   31  C3  UNL     1      40.940  15.395 110.012  1.00  0.00     0.144 C 
HETATM   32  C2  UNL     1      40.593  16.575 110.933  1.00  0.00     0.136 C 
HETATM   33  N1  UNL     1      39.996  17.563 110.102  1.00  0.00    -0.414 N 
HETATM   34  C1  UNL     1      39.759  18.835 110.714  1.00  0.00     0.143 C 
HETATM   35  C22 UNL     1      40.390  17.584 108.742  1.00  0.00     0.136 C 
HETATM   36  C21 UNL     1      41.897  17.202 108.676  1.00  0.00     0.144 C 
ENDBRANCH  28  30
ENDBRANCH   1  28
BRANCH   8  37
HETATM   37  N8  UNL     1      41.184  12.869 105.418  1.00  0.00    -0.235 N 
HETATM   38  N9  UNL     1      39.966  12.760 105.085  1.00  0.00    -0.330 N 
ATOM     39  H92 UNL     1      39.304  13.368 105.566  1.00  0.00     0.178 HD
ATOM     40  H91 UNL     1      39.616  12.115 104.377  1.00  0.00     0.178 HD
ATOM     41  H8  UNL     1      41.860  12.269 104.947  1.00  0.00     0.208 HD
ENDBRANCH   8  37
TORSDOF 17
ENDMDL
