MODEL 1
REMARK VINA RESULT: -8.580458542      0.000      0.000
REMARK  17 active torsions:
REMARK  status: ('A' for Active; 'I' for Inactive)
REMARK    1  A    between atoms: C2_2  and  C3_3 
REMARK    2  A    between atoms: C3_3  and  C4_4 
REMARK    3  A    between atoms: C3_3  and  C5_7 
REMARK    4  A    between atoms: C3_3  and  C19_25 
REMARK    5  A    between atoms: C4_4  and  O1_5 
REMARK    6  A    between atoms: C5_7  and  C6_8 
REMARK    7  A    between atoms: C7_9  and  C8_10 
REMARK    8  A    between atoms: C8_10  and  C9_11 
REMARK    9  A    between atoms: C9_11  and  C10_12 
REMARK   10  A    between atoms: C10_12  and  N1_13 
REMARK   11  A    between atoms: N1_13  and  C13_16 
REMARK   12  A    between atoms: C13_16  and  C14_17 
REMARK   13  A    between atoms: C19_25  and  C20_26 
REMARK   14  A    between atoms: C20_26  and  C21_27 
REMARK   15  A    between atoms: C21_27  and  N3_28 
REMARK       I    between atoms: N3_28  and  C22_30 
REMARK   16  A    between atoms: C22_30  and  C23_32 
REMARK   17  A    between atoms: C24_37  and  N6_38 
ROOT
HETATM    1  C3  UNL     1      42.310   8.256 111.753  1.00  0.00     0.001 C 
ENDROOT
BRANCH   1   2
HETATM    2  C2  UNL     1      42.285   7.266 112.851  1.00  0.00    -0.025 C 
HETATM    3  C1  UNL     1      42.968   7.439 113.956  1.00  0.00     0.008 C 
ENDBRANCH   1   2
BRANCH   1   4
HETATM    4  C4  UNL     1      43.655   8.172 111.058  1.00  0.00     0.177 C 
BRANCH   4   5
HETATM    5  O1  UNL     1      44.252   9.433 110.917  1.00  0.00    -0.400 OA
ATOM      6  H1  UNL     1      45.198   9.390 110.998  1.00  0.00     0.209 HD
ENDBRANCH   4   5
ENDBRANCH   1   4
BRANCH   1   7
HETATM    7  C5  UNL     1      41.247   7.998 110.746  1.00  0.00     0.042 C 
BRANCH   7   8
HETATM    8  C6  UNL     1      41.832   7.752 109.400  1.00  0.00    -0.029 C 
HETATM    9  C7  UNL     1      41.229   6.980 108.518  1.00  0.00    -0.031 C 
BRANCH   9  10
HETATM   10  C8  UNL     1      41.822   6.752 107.184  1.00  0.00     0.028 C 
BRANCH  10  11
HETATM   11  C9  UNL     1      41.866   7.935 106.278  1.00  0.00     0.032 C 
BRANCH  11  12
HETATM   12  C10 UNL     1      40.640   8.637 105.914  1.00  0.00     0.237 C 
BRANCH  12  13
HETATM   13  N1  UNL     1      40.260   9.871 106.495  1.00  0.00    -0.073 N 
HETATM   14  C11 UNL     1      39.431   9.907 107.631  1.00  0.00     0.272 C 
HETATM   15  C12 UNL     1      41.526  10.538 106.919  1.00  0.00     0.272 C 
BRANCH  13  16
HETATM   16  C13 UNL     1      39.660  10.659 105.437  1.00  0.00     0.269 C 
BRANCH  16  17
HETATM   17  C14 UNL     1      38.205  10.706 105.305  1.00  0.00     0.211 C 
HETATM   18  C15 UNL     1      37.863  12.224 105.272  1.00  0.00     0.034 C 
HETATM   19  C16 UNL     1      36.386  12.415 105.187  1.00  0.00     0.004 C 
HETATM   20  C17 UNL     1      35.747  11.655 104.050  1.00  0.00     0.027 C 
HETATM   21  C18 UNL     1      36.244  10.227 104.114  1.00  0.00     0.233 C 
HETATM   22  N2  UNL     1      37.688  10.274 103.991  1.00  0.00    -0.069 N 
ATOM     23  H22 UNL     1      38.009  10.859 103.218  1.00  0.00     0.277 HD
ATOM     24  H21 UNL     1      38.095   9.398 103.664  1.00  0.00     0.277 HD
ENDBRANCH  16  17
ENDBRANCH  13  16
ENDBRANCH  12  13
ENDBRANCH  11  12
ENDBRANCH  10  11
ENDBRANCH   9  10
ENDBRANCH   7   8
ENDBRANCH   1   7
BRANCH   1  25
HETATM   25  C19 UNL     1      42.134   9.623 112.407  1.00  0.00     0.017 C 
BRANCH  25  26
HETATM   26  C20 UNL     1      41.017  10.425 111.768  1.00  0.00     0.021 C 
BRANCH  26  27
HETATM   27  C21 UNL     1      41.606  11.698 111.257  1.00  0.00     0.123 C 
BRANCH  27  28
HETATM   28  N3  UNL     1      41.048  12.900 111.823  1.00  0.00    -0.354 N 
HETATM   29  C22 UNL     1      41.646  13.610 112.884  1.00  0.00     0.287 C 
HETATM   30  O2  UNL     1      42.742  13.207 113.409  1.00  0.00    -0.264 OA
ATOM     31  H3  UNL     1      40.173  13.255 111.437  1.00  0.00     0.162 HD
BRANCH  29  32
HETATM   32  C23 UNL     1      40.999  14.817 113.383  1.00  0.00     0.206 A 
HETATM   33  N4  UNL     1      40.774  15.110 114.671  1.00  0.00    -0.266 N 
HETATM   34  N5  UNL     1      40.167  16.281 114.779  1.00  0.00    -0.130 N 
ATOM     35  H4  UNL     1      41.034  14.514 115.457  1.00  0.00     0.189 HD
HETATM   36  C24 UNL     1      39.989  16.773 113.531  1.00  0.00     0.696 A 
ATOM     37  H5  UNL     1      39.883  16.732 115.650  1.00  0.00     0.205 HD
HETATM   38  N7  UNL     1      40.507  15.856 112.687  1.00  0.00    -0.165 N 
HETATM   39  C26 UNL     1      40.547  15.946 111.242  1.00  0.00     0.177 C 
BRANCH  36  40
HETATM   40  N6  UNL     1      39.438  17.888 113.178  1.00  0.00    -0.229 N 
HETATM   41  C25 UNL     1      40.263  19.053 112.934  1.00  0.00     0.165 C 
ATOM     42  H6  UNL     1      38.425  17.947 113.071  1.00  0.00     0.177 HD
ENDBRANCH  36  40
ENDBRANCH  29  32
ENDBRANCH  27  28
ENDBRANCH  26  27
ENDBRANCH  25  26
ENDBRANCH   1  25
TORSDOF 17
ENDMDL
MODEL 2
REMARK VINA RESULT: -8.541825140      1.634      2.421
REMARK  17 active torsions:
REMARK  status: ('A' for Active; 'I' for Inactive)
REMARK    1  A    between atoms: C2_2  and  C3_3 
REMARK    2  A    between atoms: C3_3  and  C4_4 
REMARK    3  A    between atoms: C3_3  and  C5_7 
REMARK    4  A    between atoms: C3_3  and  C19_25 
REMARK    5  A    between atoms: C4_4  and  O1_5 
REMARK    6  A    between atoms: C5_7  and  C6_8 
REMARK    7  A    between atoms: C7_9  and  C8_10 
REMARK    8  A    between atoms: C8_10  and  C9_11 
REMARK    9  A    between atoms: C9_11  and  C10_12 
REMARK   10  A    between atoms: C10_12  and  N1_13 
REMARK   11  A    between atoms: N1_13  and  C13_16 
REMARK   12  A    between atoms: C13_16  and  C14_17 
REMARK   13  A    between atoms: C19_25  and  C20_26 
REMARK   14  A    between atoms: C20_26  and  C21_27 
REMARK   15  A    between atoms: C21_27  and  N3_28 
REMARK       I    between atoms: N3_28  and  C22_30 
REMARK   16  A    between atoms: C22_30  and  C23_32 
REMARK   17  A    between atoms: C24_37  and  N6_38 
ROOT
HETATM    1  C3  UNL     1      42.555   8.450 110.718  1.00  0.00     0.001 C 
ENDROOT
BRANCH   1   2
HETATM    2  C2  UNL     1      41.108   8.558 110.437  1.00  0.00    -0.025 C 
HETATM    3  C1  UNL     1      40.354   9.456 111.022  1.00  0.00     0.008 C 
ENDBRANCH   1   2
BRANCH   1   4
HETATM    4  C4  UNL     1      42.736   7.778 112.065  1.00  0.00     0.177 C 
BRANCH   4   5
HETATM    5  O1  UNL     1      44.080   7.766 112.468  1.00  0.00    -0.400 OA
ATOM      6  H1  UNL     1      44.391   8.636 112.692  1.00  0.00     0.209 HD
ENDBRANCH   4   5
ENDBRANCH   1   4
BRANCH   1   7
HETATM    7  C5  UNL     1      43.262   7.637 109.693  1.00  0.00     0.042 C 
BRANCH   7   8
HETATM    8  C6  UNL     1      42.394   7.391 108.510  1.00  0.00    -0.029 C 
HETATM    9  C7  UNL     1      42.670   7.914 107.332  1.00  0.00    -0.031 C 
BRANCH   9  10
HETATM   10  C8  UNL     1      41.798   7.653 106.168  1.00  0.00     0.028 C 
BRANCH  10  11
HETATM   11  C9  UNL     1      41.374   8.851 105.388  1.00  0.00     0.032 C 
BRANCH  11  12
HETATM   12  C10 UNL     1      41.635  10.195 105.892  1.00  0.00     0.237 C 
BRANCH  12  13
HETATM   13  N1  UNL     1      40.619  11.026 106.422  1.00  0.00    -0.073 N 
HETATM   14  C11 UNL     1      39.771  10.564 107.445  1.00  0.00     0.272 C 
HETATM   15  C12 UNL     1      41.311  12.213 107.002  1.00  0.00     0.272 C 
BRANCH  13  16
HETATM   16  C13 UNL     1      39.818  11.469 105.297  1.00  0.00     0.269 C 
BRANCH  16  17
HETATM   17  C14 UNL     1      38.421  11.051 105.193  1.00  0.00     0.211 C 
HETATM   18  C15 UNL     1      37.647  12.354 104.840  1.00  0.00     0.034 C 
HETATM   19  C16 UNL     1      36.185  12.074 104.752  1.00  0.00     0.004 C 
HETATM   20  C17 UNL     1      35.847  10.934 103.822  1.00  0.00     0.027 C 
HETATM   21  C18 UNL     1      36.741   9.766 104.182  1.00  0.00     0.233 C 
HETATM   22  N2  UNL     1      38.111  10.214 104.017  1.00  0.00    -0.069 N 
ATOM     23  H22 UNL     1      38.277  10.689 103.129  1.00  0.00     0.277 HD
ATOM     24  H21 UNL     1      38.772   9.451 103.878  1.00  0.00     0.277 HD
ENDBRANCH  16  17
ENDBRANCH  13  16
ENDBRANCH  12  13
ENDBRANCH  11  12
ENDBRANCH  10  11
ENDBRANCH   9  10
ENDBRANCH   7   8
ENDBRANCH   1   7
BRANCH   1  25
HETATM   25  C19 UNL     1      43.090   9.877 110.759  1.00  0.00     0.017 C 
BRANCH  25  26
HETATM   26  C20 UNL     1      44.331  10.051 109.905  1.00  0.00     0.021 C 
BRANCH  26  27
HETATM   27  C21 UNL     1      44.368  11.469 109.439  1.00  0.00     0.123 C 
BRANCH  27  28
HETATM   28  N3  UNL     1      43.323  12.311 109.964  1.00  0.00    -0.354 N 
HETATM   29  C22 UNL     1      43.560  13.579 110.533  1.00  0.00     0.287 C 
HETATM   30  O2  UNL     1      44.747  14.052 110.615  1.00  0.00    -0.264 OA
ATOM     31  H3  UNL     1      42.362  11.972 109.921  1.00  0.00     0.162 HD
BRANCH  29  32
HETATM   32  C23 UNL     1      42.430  14.353 111.034  1.00  0.00     0.206 A 
HETATM   33  N4  UNL     1      42.015  15.532 110.553  1.00  0.00    -0.266 N 
HETATM   34  N5  UNL     1      40.965  15.964 111.233  1.00  0.00    -0.130 N 
ATOM     35  H4  UNL     1      42.447  16.027 109.773  1.00  0.00     0.189 HD
HETATM   36  C24 UNL     1      40.680  15.045 112.185  1.00  0.00     0.696 A 
ATOM     37  H5  UNL     1      40.460  16.836 111.068  1.00  0.00     0.205 HD
HETATM   38  N7  UNL     1      41.594  14.062 112.045  1.00  0.00    -0.165 N 
HETATM   39  C26 UNL     1      41.690  12.859 112.846  1.00  0.00     0.177 C 
BRANCH  36  40
HETATM   40  N6  UNL     1      39.735  15.068 113.067  1.00  0.00    -0.229 N 
HETATM   41  C25 UNL     1      39.840  15.948 114.213  1.00  0.00     0.165 C 
ATOM     42  H6  UNL     1      38.918  14.469 112.956  1.00  0.00     0.177 HD
ENDBRANCH  36  40
ENDBRANCH  29  32
ENDBRANCH  27  28
ENDBRANCH  26  27
ENDBRANCH  25  26
ENDBRANCH   1  25
TORSDOF 17
ENDMDL
MODEL 3
REMARK VINA RESULT: -8.454158458      4.133      6.839
REMARK  17 active torsions:
REMARK  status: ('A' for Active; 'I' for Inactive)
REMARK    1  A    between atoms: C2_2  and  C3_3 
REMARK    2  A    between atoms: C3_3  and  C4_4 
REMARK    3  A    between atoms: C3_3  and  C5_7 
REMARK    4  A    between atoms: C3_3  and  C19_25 
REMARK    5  A    between atoms: C4_4  and  O1_5 
REMARK    6  A    between atoms: C5_7  and  C6_8 
REMARK    7  A    between atoms: C7_9  and  C8_10 
REMARK    8  A    between atoms: C8_10  and  C9_11 
REMARK    9  A    between atoms: C9_11  and  C10_12 
REMARK   10  A    between atoms: C10_12  and  N1_13 
REMARK   11  A    between atoms: N1_13  and  C13_16 
REMARK   12  A    between atoms: C13_16  and  C14_17 
REMARK   13  A    between atoms: C19_25  and  C20_26 
REMARK   14  A    between atoms: C20_26  and  C21_27 
REMARK   15  A    between atoms: C21_27  and  N3_28 
REMARK       I    between atoms: N3_28  and  C22_30 
REMARK   16  A    between atoms: C22_30  and  C23_32 
REMARK   17  A    between atoms: C24_37  and  N6_38 
ROOT
HETATM    1  C3  UNL     1      42.888  10.003 109.526  1.00  0.00     0.001 C 
ENDROOT
BRANCH   1   2
HETATM    2  C2  UNL     1      43.157   8.984 108.489  1.00  0.00    -0.025 C 
HETATM    3  C1  UNL     1      43.371   7.727 108.791  1.00  0.00     0.008 C 
ENDBRANCH   1   2
BRANCH   1   4
HETATM    4  C4  UNL     1      44.083  10.931 109.614  1.00  0.00     0.177 C 
BRANCH   4   5
HETATM    5  O1  UNL     1      45.200  10.412 108.942  1.00  0.00    -0.400 OA
ATOM      6  H1  UNL     1      45.994  10.494 109.458  1.00  0.00     0.209 HD
ENDBRANCH   4   5
ENDBRANCH   1   4
BRANCH   1   7
HETATM    7  C5  UNL     1      41.686  10.819 109.206  1.00  0.00     0.042 C 
BRANCH   7   8
HETATM    8  C6  UNL     1      41.640  11.162 107.759  1.00  0.00    -0.029 C 
HETATM    9  C7  UNL     1      40.631  11.836 107.243  1.00  0.00    -0.031 C 
BRANCH   9  10
HETATM   10  C8  UNL     1      40.606  12.172 105.804  1.00  0.00     0.028 C 
BRANCH  10  11
HETATM   11  C9  UNL     1      39.379  11.767 105.061  1.00  0.00     0.032 C 
BRANCH  11  12
HETATM   12  C10 UNL     1      39.183  10.381 104.652  1.00  0.00     0.237 C 
BRANCH  12  13
HETATM   13  N1  UNL     1      37.901   9.813 104.456  1.00  0.00    -0.073 N 
HETATM   14  C11 UNL     1      36.807  10.616 104.086  1.00  0.00     0.272 C 
HETATM   15  C12 UNL     1      38.048   8.825 103.347  1.00  0.00     0.272 C 
BRANCH  13  16
HETATM   16  C13 UNL     1      37.578   9.090 105.671  1.00  0.00     0.269 C 
BRANCH  16  17
HETATM   17  C14 UNL     1      38.648   8.701 106.588  1.00  0.00     0.211 C 
HETATM   18  C15 UNL     1      38.105   9.062 108.001  1.00  0.00     0.034 C 
HETATM   19  C16 UNL     1      39.131   8.757 109.039  1.00  0.00     0.004 C 
HETATM   20  C17 UNL     1      39.655   7.343 108.967  1.00  0.00     0.027 C 
HETATM   21  C18 UNL     1      40.041   7.067 107.529  1.00  0.00     0.233 C 
HETATM   22  N2  UNL     1      38.845   7.245 106.728  1.00  0.00    -0.069 N 
ATOM     23  H22 UNL     1      38.030   6.762 107.106  1.00  0.00     0.277 HD
ATOM     24  H21 UNL     1      38.880   6.754 105.835  1.00  0.00     0.277 HD
ENDBRANCH  16  17
ENDBRANCH  13  16
ENDBRANCH  12  13
ENDBRANCH  11  12
ENDBRANCH  10  11
ENDBRANCH   9  10
ENDBRANCH   7   8
ENDBRANCH   1   7
BRANCH   1  25
HETATM   25  C19 UNL     1      42.708   9.242 110.836  1.00  0.00     0.017 C 
BRANCH  25  26
HETATM   26  C20 UNL     1      41.737   9.932 111.773  1.00  0.00     0.021 C 
BRANCH  26  27
HETATM   27  C21 UNL     1      41.218   8.907 112.726  1.00  0.00     0.123 C 
BRANCH  27  28
HETATM   28  N3  UNL     1      42.149   8.496 113.746  1.00  0.00    -0.354 N 
HETATM   29  C22 UNL     1      42.620   7.174 113.881  1.00  0.00     0.287 C 
HETATM   30  O2  UNL     1      42.230   6.252 113.083  1.00  0.00    -0.264 OA
ATOM     31  H3  UNL     1      42.484   9.199 114.406  1.00  0.00     0.162 HD
BRANCH  29  32
HETATM   32  C23 UNL     1      43.565   6.864 114.948  1.00  0.00     0.206 A 
HETATM   33  N4  UNL     1      44.887   7.073 114.909  1.00  0.00    -0.266 N 
HETATM   34  N5  UNL     1      45.451   6.680 116.039  1.00  0.00    -0.130 N 
ATOM     35  H4  UNL     1      45.388   7.478 114.118  1.00  0.00     0.189 HD
HETATM   36  C24 UNL     1      44.475   6.201 116.846  1.00  0.00     0.696 A 
ATOM     37  H5  UNL     1      46.446   6.729 116.263  1.00  0.00     0.205 HD
HETATM   38  N7  UNL     1      43.322   6.323 116.154  1.00  0.00    -0.165 N 
HETATM   39  C26 UNL     1      42.002   5.940 116.612  1.00  0.00     0.177 C 
BRANCH  36  40
HETATM   40  N6  UNL     1      44.584   5.716 118.039  1.00  0.00    -0.229 N 
HETATM   41  C25 UNL     1      45.525   6.301 118.971  1.00  0.00     0.165 C 
ATOM     42  H6  UNL     1      44.008   4.924 118.323  1.00  0.00     0.177 HD
ENDBRANCH  36  40
ENDBRANCH  29  32
ENDBRANCH  27  28
ENDBRANCH  26  27
ENDBRANCH  25  26
ENDBRANCH   1  25
TORSDOF 17
ENDMDL
MODEL 4
REMARK VINA RESULT: -8.446237624      1.523      3.060
REMARK  17 active torsions:
REMARK  status: ('A' for Active; 'I' for Inactive)
REMARK    1  A    between atoms: C2_2  and  C3_3 
REMARK    2  A    between atoms: C3_3  and  C4_4 
REMARK    3  A    between atoms: C3_3  and  C5_7 
REMARK    4  A    between atoms: C3_3  and  C19_25 
REMARK    5  A    between atoms: C4_4  and  O1_5 
REMARK    6  A    between atoms: C5_7  and  C6_8 
REMARK    7  A    between atoms: C7_9  and  C8_10 
REMARK    8  A    between atoms: C8_10  and  C9_11 
REMARK    9  A    between atoms: C9_11  and  C10_12 
REMARK   10  A    between atoms: C10_12  and  N1_13 
REMARK   11  A    between atoms: N1_13  and  C13_16 
REMARK   12  A    between atoms: C13_16  and  C14_17 
REMARK   13  A    between atoms: C19_25  and  C20_26 
REMARK   14  A    between atoms: C20_26  and  C21_27 
REMARK   15  A    between atoms: C21_27  and  N3_28 
REMARK       I    between atoms: N3_28  and  C22_30 
REMARK   16  A    between atoms: C22_30  and  C23_32 
REMARK   17  A    between atoms: C24_37  and  N6_38 
ROOT
HETATM    1  C3  UNL     1      42.918   8.314 110.050  1.00  0.00     0.001 C 
ENDROOT
BRANCH   1   2
HETATM    2  C2  UNL     1      43.353   7.706 111.325  1.00  0.00    -0.025 C 
HETATM    3  C1  UNL     1      42.496   7.353 112.252  1.00  0.00     0.008 C 
ENDBRANCH   1   2
BRANCH   1   4
HETATM    4  C4  UNL     1      44.125   8.934 109.373  1.00  0.00     0.177 C 
BRANCH   4   5
HETATM    5  O1  UNL     1      44.338   8.403 108.093  1.00  0.00    -0.400 OA
ATOM      6  H1  UNL     1      43.963   8.952 107.414  1.00  0.00     0.209 HD
ENDBRANCH   4   5
ENDBRANCH   1   4
BRANCH   1   7
HETATM    7  C5  UNL     1      42.331   7.307 109.125  1.00  0.00     0.042 C 
BRANCH   7   8
HETATM    8  C6  UNL     1      40.866   7.514 108.966  1.00  0.00    -0.029 C 
HETATM    9  C7  UNL     1      40.228   7.117 107.883  1.00  0.00    -0.031 C 
BRANCH   9  10
HETATM   10  C8  UNL     1      38.771   7.326 107.746  1.00  0.00     0.028 C 
BRANCH  10  11
HETATM   11  C9  UNL     1      38.341   8.705 107.378  1.00  0.00     0.032 C 
BRANCH  11  12
HETATM   12  C10 UNL     1      38.087   9.055 105.985  1.00  0.00     0.237 C 
BRANCH  12  13
HETATM   13  N1  UNL     1      38.092  10.391 105.516  1.00  0.00    -0.073 N 
HETATM   14  C11 UNL     1      37.269  10.781 104.444  1.00  0.00     0.272 C 
HETATM   15  C12 UNL     1      37.657  11.237 106.665  1.00  0.00     0.272 C 
BRANCH  13  16
HETATM   16  C13 UNL     1      39.471  10.715 105.206  1.00  0.00     0.269 C 
BRANCH  16  17
HETATM   17  C14 UNL     1      40.222  11.604 106.090  1.00  0.00     0.211 C 
HETATM   18  C15 UNL     1      41.400  10.733 106.615  1.00  0.00     0.034 C 
HETATM   19  C16 UNL     1      42.228  11.514 107.578  1.00  0.00     0.004 C 
HETATM   20  C17 UNL     1      42.693  12.842 107.030  1.00  0.00     0.027 C 
HETATM   21  C18 UNL     1      41.488  13.546 106.443  1.00  0.00     0.233 C 
HETATM   22  N2  UNL     1      40.958  12.684 105.403  1.00  0.00    -0.069 N 
ATOM     23  H22 UNL     1      41.672  12.341 104.760  1.00  0.00     0.277 HD
ATOM     24  H21 UNL     1      40.396  13.182 104.714  1.00  0.00     0.277 HD
ENDBRANCH  16  17
ENDBRANCH  13  16
ENDBRANCH  12  13
ENDBRANCH  11  12
ENDBRANCH  10  11
ENDBRANCH   9  10
ENDBRANCH   7   8
ENDBRANCH   1   7
BRANCH   1  25
HETATM   25  C19 UNL     1      41.901   9.391 110.414  1.00  0.00     0.017 C 
BRANCH  25  26
HETATM   26  C20 UNL     1      42.548  10.590 111.078  1.00  0.00     0.021 C 
BRANCH  26  27
HETATM   27  C21 UNL     1      41.641  11.049 112.172  1.00  0.00     0.123 C 
BRANCH  27  28
HETATM   28  N3  UNL     1      41.150  12.396 112.033  1.00  0.00    -0.354 N 
HETATM   29  C22 UNL     1      41.716  13.502 112.698  1.00  0.00     0.287 C 
HETATM   30  O2  UNL     1      42.719  13.357 113.480  1.00  0.00    -0.264 OA
ATOM     31  H3  UNL     1      40.350  12.558 111.421  1.00  0.00     0.162 HD
BRANCH  29  32
HETATM   32  C23 UNL     1      41.143  14.827 112.486  1.00  0.00     0.206 A 
HETATM   33  N4  UNL     1      41.113  15.489 111.322  1.00  0.00    -0.266 N 
HETATM   34  N5  UNL     1      40.523  16.664 111.473  1.00  0.00    -0.130 N 
ATOM     35  H4  UNL     1      41.492  15.137 110.442  1.00  0.00     0.189 HD
HETATM   36  C24 UNL     1      40.153  16.777 112.771  1.00  0.00     0.696 A 
ATOM     37  H5  UNL     1      40.374  17.360 110.742  1.00  0.00     0.205 HD
HETATM   38  N7  UNL     1      40.545  15.636 113.376  1.00  0.00    -0.165 N 
HETATM   39  C26 UNL     1      40.363  15.299 114.773  1.00  0.00     0.177 C 
BRANCH  36  40
HETATM   40  N6  UNL     1      39.548  17.761 113.350  1.00  0.00    -0.229 N 
HETATM   41  C25 UNL     1      39.905  19.124 113.017  1.00  0.00     0.165 C 
ATOM     42  H6  UNL     1      38.819  17.578 114.041  1.00  0.00     0.177 HD
ENDBRANCH  36  40
ENDBRANCH  29  32
ENDBRANCH  27  28
ENDBRANCH  26  27
ENDBRANCH  25  26
ENDBRANCH   1  25
TORSDOF 17
ENDMDL
MODEL 5
REMARK VINA RESULT: -8.437730857      3.808      7.538
REMARK  17 active torsions:
REMARK  status: ('A' for Active; 'I' for Inactive)
REMARK    1  A    between atoms: C2_2  and  C3_3 
REMARK    2  A    between atoms: C3_3  and  C4_4 
REMARK    3  A    between atoms: C3_3  and  C5_7 
REMARK    4  A    between atoms: C3_3  and  C19_25 
REMARK    5  A    between atoms: C4_4  and  O1_5 
REMARK    6  A    between atoms: C5_7  and  C6_8 
REMARK    7  A    between atoms: C7_9  and  C8_10 
REMARK    8  A    between atoms: C8_10  and  C9_11 
REMARK    9  A    between atoms: C9_11  and  C10_12 
REMARK   10  A    between atoms: C10_12  and  N1_13 
REMARK   11  A    between atoms: N1_13  and  C13_16 
REMARK   12  A    between atoms: C13_16  and  C14_17 
REMARK   13  A    between atoms: C19_25  and  C20_26 
REMARK   14  A    between atoms: C20_26  and  C21_27 
REMARK   15  A    between atoms: C21_27  and  N3_28 
REMARK       I    between atoms: N3_28  and  C22_30 
REMARK   16  A    between atoms: C22_30  and  C23_32 
REMARK   17  A    between atoms: C24_37  and  N6_38 
ROOT
HETATM    1  C3  UNL     1      42.312  15.421 109.081  1.00  0.00     0.001 C 
ENDROOT
BRANCH   1   2
HETATM    2  C2  UNL     1      42.217  16.888 108.919  1.00  0.00    -0.025 C 
HETATM    3  C1  UNL     1      41.544  17.434 107.936  1.00  0.00     0.008 C 
ENDBRANCH   1   2
BRANCH   1   4
HETATM    4  C4  UNL     1      43.653  15.091 109.707  1.00  0.00     0.177 C 
BRANCH   4   5
HETATM    5  O1  UNL     1      44.364  16.247 110.062  1.00  0.00    -0.400 OA
ATOM      6  H1  UNL     1      45.166  16.339 109.560  1.00  0.00     0.209 HD
ENDBRANCH   4   5
ENDBRANCH   1   4
BRANCH   1   7
HETATM    7  C5  UNL     1      41.241  14.886 109.963  1.00  0.00     0.042 C 
BRANCH   7   8
HETATM    8  C6  UNL     1      41.792  13.924 110.954  1.00  0.00    -0.029 C 
HETATM    9  C7  UNL     1      41.211  12.763 111.184  1.00  0.00    -0.031 C 
BRANCH   9  10
HETATM   10  C8  UNL     1      41.777  11.818 112.168  1.00  0.00     0.028 C 
BRANCH  10  11
HETATM   11  C9  UNL     1      41.710  10.374 111.801  1.00  0.00     0.032 C 
BRANCH  11  12
HETATM   12  C10 UNL     1      42.732   9.776 110.950  1.00  0.00     0.237 C 
BRANCH  12  13
HETATM   13  N1  UNL     1      42.446   8.766 110.001  1.00  0.00    -0.073 N 
HETATM   14  C11 UNL     1      43.471   8.199 109.221  1.00  0.00     0.272 C 
HETATM   15  C12 UNL     1      41.869   7.624 110.769  1.00  0.00     0.272 C 
BRANCH  13  16
HETATM   16  C13 UNL     1      41.417   9.297 109.129  1.00  0.00     0.269 C 
BRANCH  16  17
HETATM   17  C14 UNL     1      40.312   8.438 108.707  1.00  0.00     0.211 C 
HETATM   18  C15 UNL     1      39.031   9.275 108.998  1.00  0.00     0.034 C 
HETATM   19  C16 UNL     1      37.814   8.486 108.653  1.00  0.00     0.004 C 
HETATM   20  C17 UNL     1      37.834   7.934 107.248  1.00  0.00     0.027 C 
HETATM   21  C18 UNL     1      39.168   7.248 107.042  1.00  0.00     0.233 C 
HETATM   22  N2  UNL     1      40.196   8.250 107.247  1.00  0.00    -0.069 N 
ATOM     23  H22 UNL     1      40.021   9.119 106.740  1.00  0.00     0.277 HD
ATOM     24  H21 UNL     1      41.082   8.019 106.797  1.00  0.00     0.277 HD
ENDBRANCH  16  17
ENDBRANCH  13  16
ENDBRANCH  12  13
ENDBRANCH  11  12
ENDBRANCH  10  11
ENDBRANCH   9  10
ENDBRANCH   7   8
ENDBRANCH   1   7
BRANCH   1  25
HETATM   25  C19 UNL     1      42.222  14.830 107.678  1.00  0.00     0.017 C 
BRANCH  25  26
HETATM   26  C20 UNL     1      43.162  13.656 107.487  1.00  0.00     0.021 C 
BRANCH  26  27
HETATM   27  C21 UNL     1      42.366  12.521 106.932  1.00  0.00     0.123 C 
BRANCH  27  28
HETATM   28  N3  UNL     1      41.176  12.904 106.216  1.00  0.00    -0.354 N 
HETATM   29  C22 UNL     1      40.313  11.979 105.593  1.00  0.00     0.287 C 
HETATM   30  O2  UNL     1      40.556  10.723 105.633  1.00  0.00    -0.264 OA
ATOM     31  H3  UNL     1      40.945  13.896 106.158  1.00  0.00     0.162 HD
BRANCH  29  32
HETATM   32  C23 UNL     1      39.130  12.472 104.896  1.00  0.00     0.206 A 
HETATM   33  N4  UNL     1      39.132  13.194 103.768  1.00  0.00    -0.266 N 
HETATM   34  N5  UNL     1      37.893  13.479 103.400  1.00  0.00    -0.130 N 
ATOM     35  H4  UNL     1      39.970  13.484 103.263  1.00  0.00     0.189 HD
HETATM   36  C24 UNL     1      37.053  12.928 104.309  1.00  0.00     0.696 A 
ATOM     37  H5  UNL     1      37.619  14.018 102.578  1.00  0.00     0.205 HD
HETATM   38  N7  UNL     1      37.836  12.314 105.221  1.00  0.00    -0.165 N 
HETATM   39  C26 UNL     1      37.384  11.583 106.387  1.00  0.00     0.177 C 
BRANCH  36  40
HETATM   40  N6  UNL     1      35.762  12.963 104.333  1.00  0.00    -0.229 N 
HETATM   41  C25 UNL     1      35.049  13.883 103.472  1.00  0.00     0.165 C 
ATOM     42  H6  UNL     1      35.246  12.343 104.958  1.00  0.00     0.177 HD
ENDBRANCH  36  40
ENDBRANCH  29  32
ENDBRANCH  27  28
ENDBRANCH  26  27
ENDBRANCH  25  26
ENDBRANCH   1  25
TORSDOF 17
ENDMDL
