MODEL 1
REMARK VINA RESULT: -8.022921287      0.000      0.000
REMARK  19 active torsions:
REMARK  status: ('A' for Active; 'I' for Inactive)
REMARK    1  A    between atoms: C2_2  and  N1_3 
REMARK    2  A    between atoms: N1_3  and  C3_4 
REMARK    3  A    between atoms: N1_3  and  C13_17 
REMARK    4  A    between atoms: C3_4  and  C4_5 
REMARK    5  A    between atoms: C4_5  and  C5_6 
REMARK    6  A    between atoms: C5_6  and  C6_7 
REMARK    7  A    between atoms: C6_7  and  C7_8 
REMARK    8  A    between atoms: C7_8  and  C8_9 
REMARK    9  A    between atoms: C8_9  and  C9_10 
REMARK   10  A    between atoms: C9_10  and  C10_11 
REMARK   11  A    between atoms: C10_11  and  N2_12 
REMARK   12  A    between atoms: C13_17  and  O1_18 
REMARK   13  A    between atoms: C13_17  and  N4_20 
REMARK   14  A    between atoms: N4_20  and  C14_21 
REMARK   15  A    between atoms: C14_21  and  C15_22 
REMARK   16  A    between atoms: C15_22  and  C16_23 
REMARK   17  A    between atoms: C16_23  and  C17_24 
REMARK   18  A    between atoms: C17_24  and  N5_25 
REMARK       I    between atoms: N5_25  and  C18_27 
REMARK       I    between atoms: N7_29  and  C19_31 
REMARK   19  A    between atoms: C19_31  and  C20_33 
REMARK       I    between atoms: N8_35  and  C22_36 
ROOT
HETATM    1  C14 UNL     1      39.333  12.015 105.655  1.00  0.00     0.159 C 
ENDROOT
BRANCH   1   2
HETATM    2  N4  UNL     1      40.609  12.414 105.969  1.00  0.00    -0.382 NA
BRANCH   2   3
HETATM    3  C13 UNL     1      41.836  12.795 106.261  1.00  0.00     0.299 C 
BRANCH   3   4
HETATM    4  N1  UNL     1      42.286  13.577 107.463  1.00  0.00    -0.312 N 
BRANCH   4   5
HETATM    5  C2  UNL     1      43.511  13.043 107.997  1.00  0.00     0.128 C 
HETATM    6  C1  UNL     1      44.190  13.941 108.969  1.00  0.00     0.027 C 
ENDBRANCH   4   5
BRANCH   4   7
HETATM    7  C3  UNL     1      41.423  14.591 107.929  1.00  0.00     0.095 C 
BRANCH   7   8
HETATM    8  C4  UNL     1      40.341  14.429 108.880  1.00  0.00     0.013 C 
BRANCH   8   9
HETATM    9  C5  UNL     1      40.528  14.420 110.321  1.00  0.00    -0.025 C 
BRANCH   9  10
HETATM   10  C6  UNL     1      41.293  13.430 111.059  1.00  0.00     0.027 C 
BRANCH  10  11
HETATM   11  C7  UNL     1      41.150  13.531 112.580  1.00  0.00     0.004 C 
BRANCH  11  12
HETATM   12  C8  UNL     1      39.990  14.363 113.021  1.00  0.00     0.002 C 
BRANCH  12  13
HETATM   13  C9  UNL     1      40.333  15.192 114.249  1.00  0.00     0.020 C 
BRANCH  13  14
HETATM   14  C10 UNL     1      39.963  16.633 114.023  1.00  0.00     0.120 C 
BRANCH  14  15
HETATM   15  N2  UNL     1      39.966  16.983 112.610  1.00  0.00    -0.382 N 
HETATM   16  C11 UNL     1      40.001  18.207 112.199  1.00  0.00     0.085 C 
HETATM   17  C12 UNL     1      40.002  18.447 110.738  1.00  0.00     0.085 C 
HETATM   18  N3  UNL     1      40.038  19.310 113.100  1.00  0.00    -0.088 NA
ATOM     19  H2  UNL     1      39.941  16.233 111.919  1.00  0.00     0.160 HD
ENDBRANCH  14  15
ENDBRANCH  13  14
ENDBRANCH  12  13
ENDBRANCH  11  12
ENDBRANCH  10  11
ENDBRANCH   9  10
ENDBRANCH   8   9
ENDBRANCH   7   8
ENDBRANCH   4   7
ENDBRANCH   3   4
BRANCH   3  20
HETATM   20  O1  UNL     1      42.899  12.562 105.537  1.00  0.00    -0.321 OA
ATOM     21  H1  UNL     1      42.818  13.086 104.749  1.00  0.00     0.222 HD
ENDBRANCH   3  20
ENDBRANCH   2   3
ENDBRANCH   1   2
BRANCH   1  22
HETATM   22  C15 UNL     1      38.939  11.405 104.357  1.00  0.00     0.061 C 
BRANCH  22  23
HETATM   23  C16 UNL     1      38.554   9.954 104.427  1.00  0.00     0.026 C 
BRANCH  23  24
HETATM   24  C17 UNL     1      39.486   9.081 105.173  1.00  0.00     0.122 C 
BRANCH  24  25
HETATM   25  N5  UNL     1      39.067   8.512 106.405  1.00  0.00    -0.364 N 
HETATM   26  C18 UNL     1      40.129   7.948 107.245  1.00  0.00     0.190 C 
HETATM   27  N6  UNL     1      40.089   6.583 107.563  1.00  0.00    -0.063 NA
HETATM   28  N7  UNL     1      41.018   8.761 107.612  1.00  0.00    -0.301 N 
HETATM   29  C19 UNL     1      42.148   8.646 108.377  1.00  0.00     0.231 C 
ATOM     30  H7  UNL     1      40.863   9.708 107.266  1.00  0.00     0.171 HD
HETATM   31  O2  UNL     1      43.176   9.325 107.983  1.00  0.00    -0.273 OA
ATOM     32  H5  UNL     1      38.087   8.497 106.688  1.00  0.00     0.162 HD
BRANCH  29  33
HETATM   33  C20 UNL     1      42.322   7.847 109.577  1.00  0.00     0.114 C 
HETATM   34  C21 UNL     1      41.228   8.067 110.635  1.00  0.00     0.141 C 
HETATM   35  N8  UNL     1      42.240   7.915 111.645  1.00  0.00    -0.354 N 
HETATM   36  C22 UNL     1      42.255   7.512 113.000  1.00  0.00     0.184 C 
HETATM   37  C23 UNL     1      43.222   8.346 110.664  1.00  0.00     0.141 C 
HETATM   38  N9  UNL     1      42.220   8.401 113.927  1.00  0.00    -0.374 N 
HETATM   39  N10 UNL     1      42.304   6.152 113.398  1.00  0.00    -0.064 NA
ATOM     40  H92 UNL     1      42.185   9.380 113.641  1.00  0.00     0.158 HD
ATOM     41  H91 UNL     1      42.231   8.110 114.905  1.00  0.00     0.158 HD
ENDBRANCH  29  33
ENDBRANCH  24  25
ENDBRANCH  23  24
ENDBRANCH  22  23
ENDBRANCH   1  22
TORSDOF 19
ENDMDL
MODEL 2
REMARK VINA RESULT: -7.954027826      3.873      7.571
REMARK  19 active torsions:
REMARK  status: ('A' for Active; 'I' for Inactive)
REMARK    1  A    between atoms: C2_2  and  N1_3 
REMARK    2  A    between atoms: N1_3  and  C3_4 
REMARK    3  A    between atoms: N1_3  and  C13_17 
REMARK    4  A    between atoms: C3_4  and  C4_5 
REMARK    5  A    between atoms: C4_5  and  C5_6 
REMARK    6  A    between atoms: C5_6  and  C6_7 
REMARK    7  A    between atoms: C6_7  and  C7_8 
REMARK    8  A    between atoms: C7_8  and  C8_9 
REMARK    9  A    between atoms: C8_9  and  C9_10 
REMARK   10  A    between atoms: C9_10  and  C10_11 
REMARK   11  A    between atoms: C10_11  and  N2_12 
REMARK   12  A    between atoms: C13_17  and  O1_18 
REMARK   13  A    between atoms: C13_17  and  N4_20 
REMARK   14  A    between atoms: N4_20  and  C14_21 
REMARK   15  A    between atoms: C14_21  and  C15_22 
REMARK   16  A    between atoms: C15_22  and  C16_23 
REMARK   17  A    between atoms: C16_23  and  C17_24 
REMARK   18  A    between atoms: C17_24  and  N5_25 
REMARK       I    between atoms: N5_25  and  C18_27 
REMARK       I    between atoms: N7_29  and  C19_31 
REMARK   19  A    between atoms: C19_31  and  C20_33 
REMARK       I    between atoms: N8_35  and  C22_36 
ROOT
HETATM    1  C14 UNL     1      39.692   9.197 110.775  1.00  0.00     0.159 C 
ENDROOT
BRANCH   1   2
HETATM    2  N4  UNL     1      38.907   8.846 109.705  1.00  0.00    -0.382 NA
BRANCH   2   3
HETATM    3  C13 UNL     1      38.158   8.502 108.677  1.00  0.00     0.299 C 
BRANCH   3   4
HETATM    4  N1  UNL     1      38.618   8.164 107.286  1.00  0.00    -0.312 N 
BRANCH   4   5
HETATM    5  C2  UNL     1      38.085   9.094 106.327  1.00  0.00     0.128 C 
HETATM    6  C1  UNL     1      38.218   8.650 104.914  1.00  0.00     0.027 C 
ENDBRANCH   4   5
BRANCH   4   7
HETATM    7  C3  UNL     1      39.369   6.980 107.129  1.00  0.00     0.095 C 
BRANCH   7   8
HETATM    8  C4  UNL     1      40.767   6.798 107.469  1.00  0.00     0.013 C 
BRANCH   8   9
HETATM    9  C5  UNL     1      41.834   7.658 106.984  1.00  0.00    -0.025 C 
BRANCH   9  10
HETATM   10  C6  UNL     1      41.802   8.412 105.744  1.00  0.00     0.027 C 
BRANCH  10  11
HETATM   11  C7  UNL     1      41.691   9.927 105.931  1.00  0.00     0.004 C 
BRANCH  11  12
HETATM   12  C8  UNL     1      41.516  10.345 107.355  1.00  0.00     0.002 C 
BRANCH  12  13
HETATM   13  C9  UNL     1      40.554  11.518 107.478  1.00  0.00     0.020 C 
BRANCH  13  14
HETATM   14  C10 UNL     1      40.915  12.591 106.487  1.00  0.00     0.120 C 
BRANCH  14  15
HETATM   15  N2  UNL     1      41.362  13.811 107.142  1.00  0.00    -0.382 N 
HETATM   16  C11 UNL     1      42.613  14.102 107.288  1.00  0.00     0.085 C 
HETATM   17  C12 UNL     1      42.954  15.372 107.969  1.00  0.00     0.085 C 
HETATM   18  N3  UNL     1      43.651  13.247 106.817  1.00  0.00    -0.088 NA
ATOM     19  H2  UNL     1      40.663  14.461 107.500  1.00  0.00     0.160 HD
ENDBRANCH  14  15
ENDBRANCH  13  14
ENDBRANCH  12  13
ENDBRANCH  11  12
ENDBRANCH  10  11
ENDBRANCH   9  10
ENDBRANCH   8   9
ENDBRANCH   7   8
ENDBRANCH   4   7
ENDBRANCH   3   4
BRANCH   3  20
HETATM   20  O1  UNL     1      36.856   8.399 108.684  1.00  0.00    -0.321 OA
ATOM     21  H1  UNL     1      36.609   7.942 107.889  1.00  0.00     0.222 HD
ENDBRANCH   3  20
ENDBRANCH   2   3
ENDBRANCH   1   2
BRANCH   1  22
HETATM   22  C15 UNL     1      41.175   9.086 110.802  1.00  0.00     0.061 C 
BRANCH  22  23
HETATM   23  C16 UNL     1      41.708   7.681 110.826  1.00  0.00     0.026 C 
BRANCH  23  24
HETATM   24  C17 UNL     1      42.505   7.320 112.017  1.00  0.00     0.122 C 
BRANCH  24  25
HETATM   25  N5  UNL     1      41.951   7.519 113.309  1.00  0.00    -0.364 N 
HETATM   26  C18 UNL     1      42.656   6.867 114.418  1.00  0.00     0.190 C 
HETATM   27  N6  UNL     1      41.973   5.916 115.189  1.00  0.00    -0.063 NA
HETATM   28  N7  UNL     1      43.853   7.222 114.581  1.00  0.00    -0.301 N 
HETATM   29  C19 UNL     1      44.833   6.867 115.470  1.00  0.00     0.231 C 
ATOM     30  H7  UNL     1      44.159   7.924 113.907  1.00  0.00     0.171 HD
HETATM   31  O2  UNL     1      46.030   6.770 114.992  1.00  0.00    -0.273 OA
ATOM     32  H5  UNL     1      41.112   8.082 113.457  1.00  0.00     0.162 HD
BRANCH  29  33
HETATM   33  C20 UNL     1      44.678   6.587 116.886  1.00  0.00     0.114 C 
HETATM   34  C21 UNL     1      45.626   7.396 117.788  1.00  0.00     0.141 C 
HETATM   35  N8  UNL     1      45.729   6.240 118.636  1.00  0.00    -0.354 N 
HETATM   36  C22 UNL     1      46.021   6.018 120.002  1.00  0.00     0.184 C 
HETATM   37  C23 UNL     1      45.397   5.418 117.483  1.00  0.00     0.141 C 
HETATM   38  N9  UNL     1      47.221   5.722 120.354  1.00  0.00    -0.374 N 
HETATM   39  N10 UNL     1      45.042   6.111 121.023  1.00  0.00    -0.064 NA
ATOM     40  H92 UNL     1      47.925   5.655 119.618  1.00  0.00     0.158 HD
ATOM     41  H91 UNL     1      47.432   5.562 121.339  1.00  0.00     0.158 HD
ENDBRANCH  29  33
ENDBRANCH  24  25
ENDBRANCH  23  24
ENDBRANCH  22  23
ENDBRANCH   1  22
TORSDOF 19
ENDMDL
MODEL 3
REMARK VINA RESULT: -7.884139854      4.007      7.583
REMARK  19 active torsions:
REMARK  status: ('A' for Active; 'I' for Inactive)
REMARK    1  A    between atoms: C2_2  and  N1_3 
REMARK    2  A    between atoms: N1_3  and  C3_4 
REMARK    3  A    between atoms: N1_3  and  C13_17 
REMARK    4  A    between atoms: C3_4  and  C4_5 
REMARK    5  A    between atoms: C4_5  and  C5_6 
REMARK    6  A    between atoms: C5_6  and  C6_7 
REMARK    7  A    between atoms: C6_7  and  C7_8 
REMARK    8  A    between atoms: C7_8  and  C8_9 
REMARK    9  A    between atoms: C8_9  and  C9_10 
REMARK   10  A    between atoms: C9_10  and  C10_11 
REMARK   11  A    between atoms: C10_11  and  N2_12 
REMARK   12  A    between atoms: C13_17  and  O1_18 
REMARK   13  A    between atoms: C13_17  and  N4_20 
REMARK   14  A    between atoms: N4_20  and  C14_21 
REMARK   15  A    between atoms: C14_21  and  C15_22 
REMARK   16  A    between atoms: C15_22  and  C16_23 
REMARK   17  A    between atoms: C16_23  and  C17_24 
REMARK   18  A    between atoms: C17_24  and  N5_25 
REMARK       I    between atoms: N5_25  and  C18_27 
REMARK       I    between atoms: N7_29  and  C19_31 
REMARK   19  A    between atoms: C19_31  and  C20_33 
REMARK       I    between atoms: N8_35  and  C22_36 
ROOT
HETATM    1  C14 UNL     1      39.914   9.297 110.057  1.00  0.00     0.159 C 
ENDROOT
BRANCH   1   2
HETATM    2  N4  UNL     1      39.516   8.577 108.957  1.00  0.00    -0.382 NA
BRANCH   2   3
HETATM    3  C13 UNL     1      39.142   7.889 107.898  1.00  0.00     0.299 C 
BRANCH   3   4
HETATM    4  N1  UNL     1      39.088   8.366 106.473  1.00  0.00    -0.312 N 
BRANCH   4   5
HETATM    5  C2  UNL     1      37.819   8.051 105.872  1.00  0.00     0.128 C 
HETATM    6  C1  UNL     1      37.466   8.917 104.715  1.00  0.00     0.027 C 
ENDBRANCH   4   5
BRANCH   4   7
HETATM    7  C3  UNL     1      40.270   8.919 105.936  1.00  0.00     0.095 C 
BRANCH   7   8
HETATM    8  C4  UNL     1      41.538   8.236 105.768  1.00  0.00     0.013 C 
BRANCH   8   9
HETATM    9  C5  UNL     1      42.557   8.161 106.801  1.00  0.00    -0.025 C 
BRANCH   9  10
HETATM   10  C6  UNL     1      42.687   7.087 107.770  1.00  0.00     0.027 C 
BRANCH  10  11
HETATM   11  C7  UNL     1      43.094   7.550 109.171  1.00  0.00     0.004 C 
BRANCH  11  12
HETATM   12  C8  UNL     1      44.355   8.351 109.197  1.00  0.00     0.002 C 
BRANCH  12  13
HETATM   13  C9  UNL     1      44.247   9.529 110.154  1.00  0.00     0.020 C 
BRANCH  13  14
HETATM   14  C10 UNL     1      43.336  10.581 109.581  1.00  0.00     0.120 C 
BRANCH  14  15
HETATM   15  N2  UNL     1      43.561  11.886 110.185  1.00  0.00    -0.382 N 
HETATM   16  C11 UNL     1      44.363  12.760 109.671  1.00  0.00     0.085 C 
HETATM   17  C12 UNL     1      44.514  14.056 110.369  1.00  0.00     0.085 C 
HETATM   18  N3  UNL     1      45.090  12.509 108.471  1.00  0.00    -0.088 NA
ATOM     19  H2  UNL     1      43.067  12.121 111.046  1.00  0.00     0.160 HD
ENDBRANCH  14  15
ENDBRANCH  13  14
ENDBRANCH  12  13
ENDBRANCH  11  12
ENDBRANCH  10  11
ENDBRANCH   9  10
ENDBRANCH   8   9
ENDBRANCH   7   8
ENDBRANCH   4   7
ENDBRANCH   3   4
BRANCH   3  20
HETATM   20  O1  UNL     1      38.735   6.648 107.901  1.00  0.00    -0.321 OA
ATOM     21  H1  UNL     1      39.086   6.238 107.119  1.00  0.00     0.222 HD
ENDBRANCH   3  20
ENDBRANCH   2   3
ENDBRANCH   1   2
BRANCH   1  22
HETATM   22  C15 UNL     1      40.494   8.698 111.288  1.00  0.00     0.061 C 
BRANCH  22  23
HETATM   23  C16 UNL     1      40.847   9.681 112.369  1.00  0.00     0.026 C 
BRANCH  23  24
HETATM   24  C17 UNL     1      41.908   9.249 113.304  1.00  0.00     0.122 C 
BRANCH  24  25
HETATM   25  N5  UNL     1      42.721   8.136 112.963  1.00  0.00    -0.364 N 
HETATM   26  C18 UNL     1      43.232   7.345 114.088  1.00  0.00     0.190 C 
HETATM   27  N6  UNL     1      44.619   7.239 114.267  1.00  0.00    -0.063 NA
HETATM   28  N7  UNL     1      42.355   6.822 114.824  1.00  0.00    -0.301 N 
HETATM   29  C19 UNL     1      42.406   6.036 115.944  1.00  0.00     0.231 C 
ATOM     30  H7  UNL     1      41.403   7.029 114.522  1.00  0.00     0.171 HD
HETATM   31  O2  UNL     1      41.518   6.278 116.853  1.00  0.00    -0.273 OA
ATOM     32  H5  UNL     1      42.937   7.901 111.993  1.00  0.00     0.162 HD
BRANCH  29  33
HETATM   33  C20 UNL     1      43.343   4.964 116.226  1.00  0.00     0.114 C 
HETATM   34  C21 UNL     1      42.804   3.909 117.207  1.00  0.00     0.141 C 
HETATM   35  N8  UNL     1      44.132   3.803 117.749  1.00  0.00    -0.354 N 
HETATM   36  C22 UNL     1      44.863   2.802 118.429  1.00  0.00     0.184 C 
HETATM   37  C23 UNL     1      44.381   5.159 117.286  1.00  0.00     0.141 C 
HETATM   38  N9  UNL     1      44.917   2.818 119.713  1.00  0.00    -0.374 N 
HETATM   39  N10 UNL     1      45.551   1.762 117.757  1.00  0.00    -0.064 NA
ATOM     40  H92 UNL     1      44.421   3.567 120.197  1.00  0.00     0.158 HD
ATOM     41  H91 UNL     1      45.445   2.096 120.204  1.00  0.00     0.158 HD
ENDBRANCH  29  33
ENDBRANCH  24  25
ENDBRANCH  23  24
ENDBRANCH  22  23
ENDBRANCH   1  22
TORSDOF 19
ENDMDL
MODEL 4
REMARK VINA RESULT: -7.875875206      4.890      8.383
REMARK  19 active torsions:
REMARK  status: ('A' for Active; 'I' for Inactive)
REMARK    1  A    between atoms: C2_2  and  N1_3 
REMARK    2  A    between atoms: N1_3  and  C3_4 
REMARK    3  A    between atoms: N1_3  and  C13_17 
REMARK    4  A    between atoms: C3_4  and  C4_5 
REMARK    5  A    between atoms: C4_5  and  C5_6 
REMARK    6  A    between atoms: C5_6  and  C6_7 
REMARK    7  A    between atoms: C6_7  and  C7_8 
REMARK    8  A    between atoms: C7_8  and  C8_9 
REMARK    9  A    between atoms: C8_9  and  C9_10 
REMARK   10  A    between atoms: C9_10  and  C10_11 
REMARK   11  A    between atoms: C10_11  and  N2_12 
REMARK   12  A    between atoms: C13_17  and  O1_18 
REMARK   13  A    between atoms: C13_17  and  N4_20 
REMARK   14  A    between atoms: N4_20  and  C14_21 
REMARK   15  A    between atoms: C14_21  and  C15_22 
REMARK   16  A    between atoms: C15_22  and  C16_23 
REMARK   17  A    between atoms: C16_23  and  C17_24 
REMARK   18  A    between atoms: C17_24  and  N5_25 
REMARK       I    between atoms: N5_25  and  C18_27 
REMARK       I    between atoms: N7_29  and  C19_31 
REMARK   19  A    between atoms: C19_31  and  C20_33 
REMARK       I    between atoms: N8_35  and  C22_36 
ROOT
HETATM    1  C14 UNL     1      39.560   8.896 110.297  1.00  0.00     0.159 C 
ENDROOT
BRANCH   1   2
HETATM    2  N4  UNL     1      39.858   8.066 109.245  1.00  0.00    -0.382 NA
BRANCH   2   3
HETATM    3  C13 UNL     1      40.153   7.271 108.237  1.00  0.00     0.299 C 
BRANCH   3   4
HETATM    4  N1  UNL     1      41.262   7.441 107.236  1.00  0.00    -0.312 N 
BRANCH   4   5
HETATM    5  C2  UNL     1      42.339   6.525 107.499  1.00  0.00     0.128 C 
HETATM    6  C1  UNL     1      43.489   7.132 108.222  1.00  0.00     0.027 C 
ENDBRANCH   4   5
BRANCH   4   7
HETATM    7  C3  UNL     1      41.133   8.497 106.309  1.00  0.00     0.095 C 
BRANCH   7   8
HETATM    8  C4  UNL     1      40.008   8.732 105.426  1.00  0.00     0.013 C 
BRANCH   8   9
HETATM    9  C5  UNL     1      39.445  10.048 105.169  1.00  0.00    -0.025 C 
BRANCH   9  10
HETATM   10  C6  UNL     1      39.933  11.291 105.739  1.00  0.00     0.027 C 
BRANCH  10  11
HETATM   11  C7  UNL     1      38.877  12.084 106.514  1.00  0.00     0.004 C 
BRANCH  11  12
HETATM   12  C8  UNL     1      37.501  11.511 106.414  1.00  0.00     0.002 C 
BRANCH  12  13
HETATM   13  C9  UNL     1      36.615  12.342 105.498  1.00  0.00     0.020 C 
BRANCH  13  14
HETATM   14  C10 UNL     1      36.753  11.872 104.076  1.00  0.00     0.120 C 
BRANCH  14  15
HETATM   15  N2  UNL     1      35.542  11.222 103.595  1.00  0.00    -0.382 N 
HETATM   16  C11 UNL     1      35.433   9.938 103.504  1.00  0.00     0.085 C 
HETATM   17  C12 UNL     1      34.154   9.385 103.003  1.00  0.00     0.085 C 
HETATM   18  N3  UNL     1      36.494   9.058 103.868  1.00  0.00    -0.088 NA
ATOM     19  H2  UNL     1      34.750  11.803 103.320  1.00  0.00     0.160 HD
ENDBRANCH  14  15
ENDBRANCH  13  14
ENDBRANCH  12  13
ENDBRANCH  11  12
ENDBRANCH  10  11
ENDBRANCH   9  10
ENDBRANCH   8   9
ENDBRANCH   7   8
ENDBRANCH   4   7
ENDBRANCH   3   4
BRANCH   3  20
HETATM   20  O1  UNL     1      39.514   6.177 107.917  1.00  0.00    -0.321 OA
ATOM     21  H1  UNL     1      38.701   6.441 107.504  1.00  0.00     0.222 HD
ENDBRANCH   3  20
ENDBRANCH   2   3
ENDBRANCH   1   2
BRANCH   1  22
HETATM   22  C15 UNL     1      40.467   9.156 111.446  1.00  0.00     0.061 C 
BRANCH  22  23
HETATM   23  C16 UNL     1      41.857   8.604 111.298  1.00  0.00     0.026 C 
BRANCH  23  24
HETATM   24  C17 UNL     1      42.195   7.474 112.190  1.00  0.00     0.122 C 
BRANCH  24  25
HETATM   25  N5  UNL     1      41.722   7.483 113.529  1.00  0.00    -0.364 N 
HETATM   26  C18 UNL     1      42.573   6.809 114.515  1.00  0.00     0.190 C 
HETATM   27  N6  UNL     1      42.053   5.717 115.225  1.00  0.00    -0.063 NA
HETATM   28  N7  UNL     1      43.736   7.277 114.637  1.00  0.00    -0.301 N 
HETATM   29  C19 UNL     1      44.812   6.947 115.418  1.00  0.00     0.231 C 
ATOM     30  H7  UNL     1      43.915   8.070 114.021  1.00  0.00     0.171 HD
HETATM   31  O2  UNL     1      45.973   7.031 114.855  1.00  0.00    -0.273 OA
ATOM     32  H5  UNL     1      40.843   7.932 113.789  1.00  0.00     0.162 HD
BRANCH  29  33
HETATM   33  C20 UNL     1      44.795   6.515 116.803  1.00  0.00     0.114 C 
HETATM   34  C21 UNL     1      45.749   7.306 117.714  1.00  0.00     0.141 C 
HETATM   35  N8  UNL     1      46.008   6.084 118.425  1.00  0.00    -0.354 N 
HETATM   36  C22 UNL     1      46.428   5.752 119.734  1.00  0.00     0.184 C 
HETATM   37  C23 UNL     1      45.647   5.356 117.219  1.00  0.00     0.141 C 
HETATM   38  N9  UNL     1      47.671   5.523 119.963  1.00  0.00    -0.374 N 
HETATM   39  N10 UNL     1      45.531   5.660 120.828  1.00  0.00    -0.064 NA
ATOM     40  H92 UNL     1      48.316   5.590 119.175  1.00  0.00     0.158 HD
ATOM     41  H91 UNL     1      47.973   5.284 120.908  1.00  0.00     0.158 HD
ENDBRANCH  29  33
ENDBRANCH  24  25
ENDBRANCH  23  24
ENDBRANCH  22  23
ENDBRANCH   1  22
TORSDOF 19
ENDMDL
MODEL 5
REMARK VINA RESULT: -7.831563655      3.788      7.881
REMARK  19 active torsions:
REMARK  status: ('A' for Active; 'I' for Inactive)
REMARK    1  A    between atoms: C2_2  and  N1_3 
REMARK    2  A    between atoms: N1_3  and  C3_4 
REMARK    3  A    between atoms: N1_3  and  C13_17 
REMARK    4  A    between atoms: C3_4  and  C4_5 
REMARK    5  A    between atoms: C4_5  and  C5_6 
REMARK    6  A    between atoms: C5_6  and  C6_7 
REMARK    7  A    between atoms: C6_7  and  C7_8 
REMARK    8  A    between atoms: C7_8  and  C8_9 
REMARK    9  A    between atoms: C8_9  and  C9_10 
REMARK   10  A    between atoms: C9_10  and  C10_11 
REMARK   11  A    between atoms: C10_11  and  N2_12 
REMARK   12  A    between atoms: C13_17  and  O1_18 
REMARK   13  A    between atoms: C13_17  and  N4_20 
REMARK   14  A    between atoms: N4_20  and  C14_21 
REMARK   15  A    between atoms: C14_21  and  C15_22 
REMARK   16  A    between atoms: C15_22  and  C16_23 
REMARK   17  A    between atoms: C16_23  and  C17_24 
REMARK   18  A    between atoms: C17_24  and  N5_25 
REMARK       I    between atoms: N5_25  and  C18_27 
REMARK       I    between atoms: N7_29  and  C19_31 
REMARK   19  A    between atoms: C19_31  and  C20_33 
REMARK       I    between atoms: N8_35  and  C22_36 
ROOT
HETATM    1  C14 UNL     1      44.242   9.272 109.497  1.00  0.00     0.159 C 
ENDROOT
BRANCH   1   2
HETATM    2  N4  UNL     1      44.201  10.590 109.113  1.00  0.00    -0.382 NA
BRANCH   2   3
HETATM    3  C13 UNL     1      44.156  11.856 108.751  1.00  0.00     0.299 C 
BRANCH   3   4
HETATM    4  N1  UNL     1      42.933  12.711 108.571  1.00  0.00    -0.312 N 
BRANCH   4   5
HETATM    5  C2  UNL     1      42.321  13.008 109.839  1.00  0.00     0.128 C 
HETATM    6  C1  UNL     1      41.323  11.997 110.282  1.00  0.00     0.027 C 
ENDBRANCH   4   5
BRANCH   4   7
HETATM    7  C3  UNL     1      42.528  12.981 107.247  1.00  0.00     0.095 C 
BRANCH   7   8
HETATM    8  C4  UNL     1      41.546  12.240 106.481  1.00  0.00     0.013 C 
BRANCH   8   9
HETATM    9  C5  UNL     1      41.741  10.874 106.024  1.00  0.00    -0.025 C 
BRANCH   9  10
HETATM   10  C6  UNL     1      41.427   9.683 106.792  1.00  0.00     0.027 C 
BRANCH  10  11
HETATM   11  C7  UNL     1      42.065   8.400 106.253  1.00  0.00     0.004 C 
BRANCH  11  12
HETATM   12  C8  UNL     1      42.588   7.494 107.319  1.00  0.00     0.002 C 
BRANCH  12  13
HETATM   13  C9  UNL     1      41.917   6.129 107.269  1.00  0.00     0.020 C 
BRANCH  13  14
HETATM   14  C10 UNL     1      40.798   6.063 108.273  1.00  0.00     0.120 C 
BRANCH  14  15
HETATM   15  N2  UNL     1      39.530   6.498 107.707  1.00  0.00    -0.382 N 
HETATM   16  C11 UNL     1      38.840   7.467 108.213  1.00  0.00     0.085 C 
HETATM   17  C12 UNL     1      37.564   7.826 107.554  1.00  0.00     0.085 C 
HETATM   18  N3  UNL     1      39.272   8.183 109.367  1.00  0.00    -0.088 NA
ATOM     19  H2  UNL     1      39.172   6.021 106.880  1.00  0.00     0.160 HD
ENDBRANCH  14  15
ENDBRANCH  13  14
ENDBRANCH  12  13
ENDBRANCH  11  12
ENDBRANCH  10  11
ENDBRANCH   9  10
ENDBRANCH   8   9
ENDBRANCH   7   8
ENDBRANCH   4   7
ENDBRANCH   3   4
BRANCH   3  20
HETATM   20  O1  UNL     1      45.190  12.604 108.471  1.00  0.00    -0.321 OA
ATOM     21  H1  UNL     1      45.929  12.021 108.345  1.00  0.00     0.222 HD
ENDBRANCH   3  20
ENDBRANCH   2   3
ENDBRANCH   1   2
BRANCH   1  22
HETATM   22  C15 UNL     1      43.948   8.789 110.872  1.00  0.00     0.061 C 
BRANCH  22  23
HETATM   23  C16 UNL     1      42.522   8.378 111.112  1.00  0.00     0.026 C 
BRANCH  23  24
HETATM   24  C17 UNL     1      42.332   7.239 112.035  1.00  0.00     0.122 C 
BRANCH  24  25
HETATM   25  N5  UNL     1      41.833   7.482 113.342  1.00  0.00    -0.364 N 
HETATM   26  C18 UNL     1      42.574   6.849 114.440  1.00  0.00     0.190 C 
HETATM   27  N6  UNL     1      41.908   5.930 115.264  1.00  0.00    -0.063 NA
HETATM   28  N7  UNL     1      43.782   7.189 114.545  1.00  0.00    -0.301 N 
HETATM   29  C19 UNL     1      44.791   6.842 115.403  1.00  0.00     0.231 C 
ATOM     30  H7  UNL     1      44.070   7.867 113.839  1.00  0.00     0.171 HD
HETATM   31  O2  UNL     1      45.966   6.713 114.880  1.00  0.00    -0.273 OA
ATOM     32  H5  UNL     1      41.010   8.062 113.508  1.00  0.00     0.162 HD
BRANCH  29  33
HETATM   33  C20 UNL     1      44.689   6.603 116.831  1.00  0.00     0.114 C 
HETATM   34  C21 UNL     1      45.521   7.575 117.685  1.00  0.00     0.141 C 
HETATM   35  N8  UNL     1      45.794   6.482 118.579  1.00  0.00    -0.354 N 
HETATM   36  C22 UNL     1      46.127   6.361 119.948  1.00  0.00     0.184 C 
HETATM   37  C23 UNL     1      45.572   5.573 117.465  1.00  0.00     0.141 C 
HETATM   38  N9  UNL     1      47.360   6.252 120.293  1.00  0.00    -0.374 N 
HETATM   39  N10 UNL     1      45.154   6.358 120.978  1.00  0.00    -0.064 NA
ATOM     40  H92 UNL     1      48.060   6.254 119.551  1.00  0.00     0.158 HD
ATOM     41  H91 UNL     1      47.600   6.164 121.281  1.00  0.00     0.158 HD
ENDBRANCH  29  33
ENDBRANCH  24  25
ENDBRANCH  23  24
ENDBRANCH  22  23
ENDBRANCH   1  22
TORSDOF 19
ENDMDL
