MODEL 1
REMARK VINA RESULT: -7.799960538      0.000      0.000
REMARK  16 active torsions:
REMARK  status: ('A' for Active; 'I' for Inactive)
REMARK    1  A    between atoms: C3_7  and  N3_8 
REMARK    2  A    between atoms: C10_15  and  O1_17 
REMARK    3  A    between atoms: C12_19  and  C13_20 
REMARK    4  A    between atoms: C13_20  and  C14_21 
REMARK    5  A    between atoms: C14_21  and  C15_22 
REMARK    6  A    between atoms: C15_22  and  C16_23 
REMARK    7  A    between atoms: C16_23  and  N4_24 
REMARK    8  A    between atoms: N4_24  and  C17_26 
REMARK    9  A    between atoms: C17_26  and  C18_27 
REMARK   10  A    between atoms: C18_27  and  C19_28 
REMARK   11  A    between atoms: C19_28  and  C20_29 
REMARK   12  A    between atoms: C20_29  and  N5_30 
REMARK   13  A    between atoms: N5_30  and  C23_33 
REMARK   14  A    between atoms: C23_33  and  C24_34 
REMARK   15  A    between atoms: C24_34  and  C25_35 
REMARK   16  A    between atoms: C25_35  and  N6_36 
ROOT
HETATM    1  C13 UNL     1      42.563  14.115 109.587  1.00  0.00     0.015 C 
ENDROOT
BRANCH   1   2
HETATM    2  C12 UNL     1      41.282  14.899 109.566  1.00  0.00     0.087 C 
HETATM    3  C2  UNL     1      40.794  15.156 110.930  1.00  0.00     0.081 C 
HETATM    4  N1  UNL     1      40.233  14.213 111.594  1.00  0.00    -0.384 N 
HETATM    5  N2  UNL     1      40.940  16.469 111.511  1.00  0.00    -0.351 N 
HETATM    6  C1  UNL     1      39.725  14.403 112.926  1.00  0.00     0.147 C 
ATOM      7  H1  UNL     1      40.142  13.294 111.162  1.00  0.00     0.160 HD
HETATM    8  C3  UNL     1      40.870  17.682 110.734  1.00  0.00     0.299 C 
ATOM      9  H2  UNL     1      41.099  16.543 112.515  1.00  0.00     0.163 HD
HETATM   10  C7  UNL     1      40.536  17.309 109.322  1.00  0.00     0.030 C 
HETATM   11  C8  UNL     1      39.165  16.693 109.151  1.00  0.00     0.022 C 
HETATM   12  C9  UNL     1      40.759  18.420 108.326  1.00  0.00     0.022 C 
HETATM   13  C10 UNL     1      41.528  16.217 108.903  1.00  0.00     0.075 C 
HETATM   14  C11 UNL     1      42.956  16.685 109.053  1.00  0.00     0.047 C 
BRANCH   8  15
HETATM   15  N3  UNL     1      40.174  18.719 111.362  1.00  0.00    -0.057 N 
HETATM   16  C4  UNL     1      41.035  19.898 111.566  1.00  0.00     0.274 C 
HETATM   17  C5  UNL     1      38.947  19.198 110.843  1.00  0.00     0.274 C 
HETATM   18  C6  UNL     1      39.864  18.298 112.747  1.00  0.00     0.274 C 
ENDBRANCH   8  15
BRANCH  13  19
HETATM   19  O1  UNL     1      41.383  15.974 107.511  1.00  0.00    -0.389 OA
ATOM     20  H1  UNL     1      42.233  16.053 107.095  1.00  0.00     0.210 HD
ENDBRANCH  13  19
ENDBRANCH   1   2
BRANCH   1  21
HETATM   21  C14 UNL     1      42.495  12.727 109.062  1.00  0.00     0.002 C 
BRANCH  21  22
HETATM   22  C15 UNL     1      41.584  12.574 107.880  1.00  0.00     0.019 C 
BRANCH  22  23
HETATM   23  C16 UNL     1      42.314  12.751 106.561  1.00  0.00     0.113 C 
BRANCH  23  24
HETATM   24  N4  UNL     1      42.009  11.717 105.625  1.00  0.00    -0.421 N 
ATOM     25  H4  UNL     1      42.347  11.751 104.664  1.00  0.00     0.153 HD
BRANCH  24  26
HETATM   26  C17 UNL     1      41.216  10.643 106.093  1.00  0.00     0.113 C 
BRANCH  26  27
HETATM   27  C18 UNL     1      41.775   9.278 106.018  1.00  0.00     0.021 C 
BRANCH  27  28
HETATM   28  C19 UNL     1      42.009   8.520 107.270  1.00  0.00     0.029 C 
BRANCH  28  29
HETATM   29  C20 UNL     1      41.374   9.101 108.469  1.00  0.00     0.236 C 
BRANCH  29  30
HETATM   30  N5  UNL     1      40.728   8.112 109.348  1.00  0.00    -0.075 N 
HETATM   31  C21 UNL     1      39.476   7.794 108.588  1.00  0.00     0.272 C 
HETATM   32  C22 UNL     1      41.491   6.918 109.318  1.00  0.00     0.272 C 
BRANCH  30  33
HETATM   33  C23 UNL     1      40.313   8.625 110.595  1.00  0.00     0.238 C 
BRANCH  33  34
HETATM   34  C24 UNL     1      40.958   9.840 111.139  1.00  0.00     0.047 C 
BRANCH  34  35
HETATM   35  C25 UNL     1      41.834   9.668 112.338  1.00  0.00     0.123 C 
BRANCH  35  36
HETATM   36  N6  UNL     1      41.586   8.319 112.868  1.00  0.00    -0.367 N 
HETATM   37  C26 UNL     1      42.545   7.481 112.921  1.00  0.00     0.196 C 
HETATM   38  N7  UNL     1      42.280   6.170 113.442  1.00  0.00    -0.067 NA
HETATM   39  N8  UNL     1      43.845   7.816 112.480  1.00  0.00    -0.067 NA
ATOM     40  H6  UNL     1      40.655   8.056 113.190  1.00  0.00     0.161 HD
ENDBRANCH  35  36
ENDBRANCH  34  35
ENDBRANCH  33  34
ENDBRANCH  30  33
ENDBRANCH  29  30
ENDBRANCH  28  29
ENDBRANCH  27  28
ENDBRANCH  26  27
ENDBRANCH  24  26
ENDBRANCH  23  24
ENDBRANCH  22  23
ENDBRANCH  21  22
ENDBRANCH   1  21
TORSDOF 16
ENDMDL
MODEL 2
REMARK VINA RESULT: -7.791264234      2.441      8.361
REMARK  16 active torsions:
REMARK  status: ('A' for Active; 'I' for Inactive)
REMARK    1  A    between atoms: C3_7  and  N3_8 
REMARK    2  A    between atoms: C10_15  and  O1_17 
REMARK    3  A    between atoms: C12_19  and  C13_20 
REMARK    4  A    between atoms: C13_20  and  C14_21 
REMARK    5  A    between atoms: C14_21  and  C15_22 
REMARK    6  A    between atoms: C15_22  and  C16_23 
REMARK    7  A    between atoms: C16_23  and  N4_24 
REMARK    8  A    between atoms: N4_24  and  C17_26 
REMARK    9  A    between atoms: C17_26  and  C18_27 
REMARK   10  A    between atoms: C18_27  and  C19_28 
REMARK   11  A    between atoms: C19_28  and  C20_29 
REMARK   12  A    between atoms: C20_29  and  N5_30 
REMARK   13  A    between atoms: N5_30  and  C23_33 
REMARK   14  A    between atoms: C23_33  and  C24_34 
REMARK   15  A    between atoms: C24_34  and  C25_35 
REMARK   16  A    between atoms: C25_35  and  N6_36 
ROOT
HETATM    1  C13 UNL     1      43.505   8.195 108.252  1.00  0.00     0.015 C 
ENDROOT
BRANCH   1   2
HETATM    2  C12 UNL     1      42.143   8.800 108.434  1.00  0.00     0.087 C 
HETATM    3  C2  UNL     1      42.028  10.075 107.707  1.00  0.00     0.081 C 
HETATM    4  N1  UNL     1      42.584  11.130 108.179  1.00  0.00    -0.384 N 
HETATM    5  N2  UNL     1      41.280  10.135 106.474  1.00  0.00    -0.351 N 
HETATM    6  C1  UNL     1      42.498  12.407 107.523  1.00  0.00     0.147 C 
ATOM      7  H1  UNL     1      43.107  11.061 109.051  1.00  0.00     0.160 HD
HETATM    8  C3  UNL     1      40.112   9.327 106.226  1.00  0.00     0.299 C 
ATOM      9  H2  UNL     1      41.591  10.777 105.746  1.00  0.00     0.163 HD
HETATM   10  C7  UNL     1      39.812   8.550 107.471  1.00  0.00     0.030 C 
HETATM   11  C8  UNL     1      39.412   9.406 108.653  1.00  0.00     0.022 C 
HETATM   12  C9  UNL     1      38.836   7.418 107.267  1.00  0.00     0.022 C 
HETATM   13  C10 UNL     1      41.115   7.860 107.891  1.00  0.00     0.075 C 
HETATM   14  C11 UNL     1      41.655   6.986 106.783  1.00  0.00     0.047 C 
BRANCH   8  15
HETATM   15  N3  UNL     1      39.084  10.004 105.563  1.00  0.00    -0.057 N 
HETATM   16  C4  UNL     1      38.790   9.391 104.255  1.00  0.00     0.274 C 
HETATM   17  C5  UNL     1      37.836  10.235 106.191  1.00  0.00     0.274 C 
HETATM   18  C6  UNL     1      39.578  11.348 105.190  1.00  0.00     0.274 C 
ENDBRANCH   8  15
BRANCH  13  19
HETATM   19  O1  UNL     1      40.835   6.953 108.948  1.00  0.00    -0.389 OA
ATOM     20  H1  UNL     1      40.642   7.449 109.735  1.00  0.00     0.210 HD
ENDBRANCH  13  19
ENDBRANCH   1   2
BRANCH   1  21
HETATM   21  C14 UNL     1      44.186   7.723 109.485  1.00  0.00     0.002 C 
BRANCH  21  22
HETATM   22  C15 UNL     1      44.033   8.653 110.652  1.00  0.00     0.019 C 
BRANCH  22  23
HETATM   23  C16 UNL     1      43.379   7.980 111.845  1.00  0.00     0.113 C 
BRANCH  23  24
HETATM   24  N4  UNL     1      41.985   7.746 111.642  1.00  0.00    -0.421 N 
ATOM     25  H4  UNL     1      41.646   6.888 111.207  1.00  0.00     0.153 HD
BRANCH  24  26
HETATM   26  C17 UNL     1      41.096   8.758 112.072  1.00  0.00     0.113 C 
BRANCH  26  27
HETATM   27  C18 UNL     1      41.667  10.030 112.559  1.00  0.00     0.021 C 
BRANCH  27  28
HETATM   28  C19 UNL     1      41.591  11.236 111.701  1.00  0.00     0.029 C 
BRANCH  28  29
HETATM   29  C20 UNL     1      41.148  12.459 112.397  1.00  0.00     0.236 C 
BRANCH  29  30
HETATM   30  N5  UNL     1      41.886  13.673 112.013  1.00  0.00    -0.075 N 
HETATM   31  C21 UNL     1      42.608  14.012 113.282  1.00  0.00     0.272 C 
HETATM   32  C22 UNL     1      42.905  13.308 111.096  1.00  0.00     0.272 C 
BRANCH  30  33
HETATM   33  C23 UNL     1      41.068  14.783 111.715  1.00  0.00     0.238 C 
BRANCH  33  34
HETATM   34  C24 UNL     1      40.908  15.220 110.311  1.00  0.00     0.047 C 
BRANCH  34  35
HETATM   35  C25 UNL     1      40.740  16.685 110.068  1.00  0.00     0.123 C 
BRANCH  35  36
HETATM   36  N6  UNL     1      40.057  17.245 111.244  1.00  0.00    -0.367 N 
HETATM   37  C26 UNL     1      40.269  18.458 111.573  1.00  0.00     0.196 C 
HETATM   38  N7  UNL     1      39.591  18.984 112.724  1.00  0.00    -0.067 NA
HETATM   39  N8  UNL     1      41.148  19.282 110.834  1.00  0.00    -0.067 NA
ATOM     40  H6  UNL     1      39.420  16.668 111.792  1.00  0.00     0.161 HD
ENDBRANCH  35  36
ENDBRANCH  34  35
ENDBRANCH  33  34
ENDBRANCH  30  33
ENDBRANCH  29  30
ENDBRANCH  28  29
ENDBRANCH  27  28
ENDBRANCH  26  27
ENDBRANCH  24  26
ENDBRANCH  23  24
ENDBRANCH  22  23
ENDBRANCH  21  22
ENDBRANCH   1  21
TORSDOF 16
ENDMDL
MODEL 3
REMARK VINA RESULT: -7.666298608      4.192      8.792
REMARK  16 active torsions:
REMARK  status: ('A' for Active; 'I' for Inactive)
REMARK    1  A    between atoms: C3_7  and  N3_8 
REMARK    2  A    between atoms: C10_15  and  O1_17 
REMARK    3  A    between atoms: C12_19  and  C13_20 
REMARK    4  A    between atoms: C13_20  and  C14_21 
REMARK    5  A    between atoms: C14_21  and  C15_22 
REMARK    6  A    between atoms: C15_22  and  C16_23 
REMARK    7  A    between atoms: C16_23  and  N4_24 
REMARK    8  A    between atoms: N4_24  and  C17_26 
REMARK    9  A    between atoms: C17_26  and  C18_27 
REMARK   10  A    between atoms: C18_27  and  C19_28 
REMARK   11  A    between atoms: C19_28  and  C20_29 
REMARK   12  A    between atoms: C20_29  and  N5_30 
REMARK   13  A    between atoms: N5_30  and  C23_33 
REMARK   14  A    between atoms: C23_33  and  C24_34 
REMARK   15  A    between atoms: C24_34  and  C25_35 
REMARK   16  A    between atoms: C25_35  and  N6_36 
ROOT
HETATM    1  C13 UNL     1      43.268   8.426 110.197  1.00  0.00     0.015 C 
ENDROOT
BRANCH   1   2
HETATM    2  C12 UNL     1      41.807   8.706 109.994  1.00  0.00     0.087 C 
HETATM    3  C2  UNL     1      41.597  10.051 109.436  1.00  0.00     0.081 C 
HETATM    4  N1  UNL     1      41.713  11.080 110.193  1.00  0.00    -0.384 N 
HETATM    5  N2  UNL     1      41.252  10.206 108.043  1.00  0.00    -0.351 N 
HETATM    6  C1  UNL     1      41.509  12.420 109.712  1.00  0.00     0.147 C 
ATOM      7  H1  UNL     1      41.958  10.943 111.173  1.00  0.00     0.160 HD
HETATM    8  C3  UNL     1      40.446   9.252 107.324  1.00  0.00     0.299 C 
ATOM      9  H2  UNL     1      41.593  11.028 107.545  1.00  0.00     0.163 HD
HETATM   10  C7  UNL     1      39.997   8.202 108.293  1.00  0.00     0.030 C 
HETATM   11  C8  UNL     1      39.071   8.712 109.375  1.00  0.00     0.022 C 
HETATM   12  C9  UNL     1      39.435   6.964 107.639  1.00  0.00     0.022 C 
HETATM   13  C10 UNL     1      41.249   7.709 109.029  1.00  0.00     0.075 C 
HETATM   14  C11 UNL     1      42.287   7.193 108.061  1.00  0.00     0.047 C 
BRANCH   8  15
HETATM   15  N3  UNL     1      39.522   9.833 106.451  1.00  0.00    -0.057 N 
HETATM   16  C4  UNL     1      39.590   9.223 105.110  1.00  0.00     0.274 C 
HETATM   17  C5  UNL     1      38.149   9.918 106.787  1.00  0.00     0.274 C 
HETATM   18  C6  UNL     1      39.939  11.230 106.195  1.00  0.00     0.274 C 
ENDBRANCH   8  15
BRANCH  13  19
HETATM   19  O1  UNL     1      40.906   6.575 109.812  1.00  0.00    -0.389 OA
ATOM     20  H1  UNL     1      41.693   6.075 109.990  1.00  0.00     0.210 HD
ENDBRANCH  13  19
ENDBRANCH   1   2
BRANCH   1  21
HETATM   21  C14 UNL     1      43.679   8.028 111.568  1.00  0.00     0.002 C 
BRANCH  21  22
HETATM   22  C15 UNL     1      42.602   8.214 112.598  1.00  0.00     0.019 C 
BRANCH  22  23
HETATM   23  C16 UNL     1      42.240   6.914 113.294  1.00  0.00     0.113 C 
BRANCH  23  24
HETATM   24  N4  UNL     1      42.254   7.036 114.716  1.00  0.00    -0.421 N 
ATOM     25  H4  UNL     1      42.243   7.947 115.174  1.00  0.00     0.153 HD
BRANCH  24  26
HETATM   26  C17 UNL     1      42.285   5.835 115.462  1.00  0.00     0.113 C 
BRANCH  26  27
HETATM   27  C18 UNL     1      42.119   5.918 116.928  1.00  0.00     0.021 C 
BRANCH  27  28
HETATM   28  C19 UNL     1      42.266   4.690 117.746  1.00  0.00     0.029 C 
BRANCH  28  29
HETATM   29  C20 UNL     1      42.612   3.478 116.979  1.00  0.00     0.236 C 
BRANCH  29  30
HETATM   30  N5  UNL     1      43.792   2.759 117.487  1.00  0.00    -0.075 N 
HETATM   31  C21 UNL     1      43.676   2.981 118.965  1.00  0.00     0.272 C 
HETATM   32  C22 UNL     1      43.584   1.369 117.305  1.00  0.00     0.272 C 
BRANCH  30  33
HETATM   33  C23 UNL     1      45.027   3.320 117.098  1.00  0.00     0.238 C 
BRANCH  33  34
HETATM   34  C24 UNL     1      45.867   4.009 118.101  1.00  0.00     0.047 C 
BRANCH  34  35
HETATM   35  C25 UNL     1      45.985   5.494 117.989  1.00  0.00     0.123 C 
BRANCH  35  36
HETATM   36  N6  UNL     1      45.920   5.828 116.558  1.00  0.00    -0.367 N 
HETATM   37  C26 UNL     1      45.554   6.995 116.203  1.00  0.00     0.196 C 
HETATM   38  N7  UNL     1      45.499   7.299 114.800  1.00  0.00    -0.067 NA
HETATM   39  N8  UNL     1      45.206   7.983 117.152  1.00  0.00    -0.067 NA
ATOM     40  H6  UNL     1      46.166   5.130 115.856  1.00  0.00     0.161 HD
ENDBRANCH  35  36
ENDBRANCH  34  35
ENDBRANCH  33  34
ENDBRANCH  30  33
ENDBRANCH  29  30
ENDBRANCH  28  29
ENDBRANCH  27  28
ENDBRANCH  26  27
ENDBRANCH  24  26
ENDBRANCH  23  24
ENDBRANCH  22  23
ENDBRANCH  21  22
ENDBRANCH   1  21
TORSDOF 16
ENDMDL
MODEL 4
REMARK VINA RESULT: -7.650497844      1.451      4.159
REMARK  16 active torsions:
REMARK  status: ('A' for Active; 'I' for Inactive)
REMARK    1  A    between atoms: C3_7  and  N3_8 
REMARK    2  A    between atoms: C10_15  and  O1_17 
REMARK    3  A    between atoms: C12_19  and  C13_20 
REMARK    4  A    between atoms: C13_20  and  C14_21 
REMARK    5  A    between atoms: C14_21  and  C15_22 
REMARK    6  A    between atoms: C15_22  and  C16_23 
REMARK    7  A    between atoms: C16_23  and  N4_24 
REMARK    8  A    between atoms: N4_24  and  C17_26 
REMARK    9  A    between atoms: C17_26  and  C18_27 
REMARK   10  A    between atoms: C18_27  and  C19_28 
REMARK   11  A    between atoms: C19_28  and  C20_29 
REMARK   12  A    between atoms: C20_29  and  N5_30 
REMARK   13  A    between atoms: N5_30  and  C23_33 
REMARK   14  A    between atoms: C23_33  and  C24_34 
REMARK   15  A    between atoms: C24_34  and  C25_35 
REMARK   16  A    between atoms: C25_35  and  N6_36 
ROOT
HETATM    1  C13 UNL     1      42.299  13.704 110.164  1.00  0.00     0.015 C 
ENDROOT
BRANCH   1   2
HETATM    2  C12 UNL     1      41.076  14.564 110.033  1.00  0.00     0.087 C 
HETATM    3  C2  UNL     1      40.623  15.047 111.348  1.00  0.00     0.081 C 
HETATM    4  N1  UNL     1      40.006  14.251 112.141  1.00  0.00    -0.384 N 
HETATM    5  N2  UNL     1      40.867  16.416 111.733  1.00  0.00    -0.351 N 
HETATM    6  C1  UNL     1      39.529  14.664 113.433  1.00  0.00     0.147 C 
ATOM      7  H1  UNL     1      39.847  13.288 111.844  1.00  0.00     0.160 HD
HETATM    8  C3  UNL     1      40.871  17.507 110.791  1.00  0.00     0.299 C 
ATOM      9  H2  UNL     1      41.043  16.621 112.717  1.00  0.00     0.163 HD
HETATM   10  C7  UNL     1      40.496  16.961 109.448  1.00  0.00     0.030 C 
HETATM   11  C8  UNL     1      39.084  16.426 109.370  1.00  0.00     0.022 C 
HETATM   12  C9  UNL     1      40.783  17.900 108.303  1.00  0.00     0.022 C 
HETATM   13  C10 UNL     1      41.404  15.754 109.188  1.00  0.00     0.075 C 
HETATM   14  C11 UNL     1      42.863  16.137 109.267  1.00  0.00     0.047 C 
BRANCH   8  15
HETATM   15  N3  UNL     1      40.257  18.670 111.266  1.00  0.00    -0.057 N 
HETATM   16  C4  UNL     1      41.235  19.758 111.452  1.00  0.00     0.274 C 
HETATM   17  C5  UNL     1      39.144  19.236 110.598  1.00  0.00     0.274 C 
HETATM   18  C6  UNL     1      39.786  18.416 112.646  1.00  0.00     0.274 C 
ENDBRANCH   8  15
BRANCH  13  19
HETATM   19  O1  UNL     1      41.226  15.325 107.845  1.00  0.00    -0.389 OA
ATOM     20  H1  UNL     1      42.055  15.003 107.513  1.00  0.00     0.210 HD
ENDBRANCH  13  19
ENDBRANCH   1   2
BRANCH   1  21
HETATM   21  C14 UNL     1      42.109  12.248 109.934  1.00  0.00     0.002 C 
BRANCH  21  22
HETATM   22  C15 UNL     1      42.641  11.388 111.043  1.00  0.00     0.019 C 
BRANCH  22  23
HETATM   23  C16 UNL     1      41.590  11.091 112.097  1.00  0.00     0.113 C 
BRANCH  23  24
HETATM   24  N4  UNL     1      41.701   9.767 112.619  1.00  0.00    -0.421 N 
ATOM     25  H4  UNL     1      42.207   9.574 113.483  1.00  0.00     0.153 HD
BRANCH  24  26
HETATM   26  C17 UNL     1      41.077   8.733 111.882  1.00  0.00     0.113 C 
BRANCH  26  27
HETATM   27  C18 UNL     1      39.971   9.093 110.972  1.00  0.00     0.021 C 
BRANCH  27  28
HETATM   28  C19 UNL     1      39.940   8.520 109.605  1.00  0.00     0.029 C 
BRANCH  28  29
HETATM   29  C20 UNL     1      39.871   9.518 108.520  1.00  0.00     0.236 C 
BRANCH  29  30
HETATM   30  N5  UNL     1      38.929   9.174 107.443  1.00  0.00    -0.075 N 
HETATM   31  C21 UNL     1      39.814   8.443 106.479  1.00  0.00     0.272 C 
HETATM   32  C22 UNL     1      38.027   8.195 107.930  1.00  0.00     0.272 C 
BRANCH  30  33
HETATM   33  C23 UNL     1      38.415  10.286 106.742  1.00  0.00     0.238 C 
BRANCH  33  34
HETATM   34  C24 UNL     1      39.055  11.610 106.896  1.00  0.00     0.047 C 
BRANCH  34  35
HETATM   35  C25 UNL     1      39.787  12.155 105.713  1.00  0.00     0.123 C 
BRANCH  35  36
HETATM   36  N6  UNL     1      40.938  12.915 106.225  1.00  0.00    -0.367 N 
HETATM   37  C26 UNL     1      42.109  12.426 106.117  1.00  0.00     0.196 C 
HETATM   38  N7  UNL     1      43.217  13.185 106.624  1.00  0.00    -0.067 NA
HETATM   39  N8  UNL     1      42.333  11.167 105.515  1.00  0.00    -0.067 NA
ATOM     40  H6  UNL     1      40.799  13.825 106.664  1.00  0.00     0.161 HD
ENDBRANCH  35  36
ENDBRANCH  34  35
ENDBRANCH  33  34
ENDBRANCH  30  33
ENDBRANCH  29  30
ENDBRANCH  28  29
ENDBRANCH  27  28
ENDBRANCH  26  27
ENDBRANCH  24  26
ENDBRANCH  23  24
ENDBRANCH  22  23
ENDBRANCH  21  22
ENDBRANCH   1  21
TORSDOF 16
ENDMDL
MODEL 5
REMARK VINA RESULT: -7.647794048      2.750      8.309
REMARK  16 active torsions:
REMARK  status: ('A' for Active; 'I' for Inactive)
REMARK    1  A    between atoms: C3_7  and  N3_8 
REMARK    2  A    between atoms: C10_15  and  O1_17 
REMARK    3  A    between atoms: C12_19  and  C13_20 
REMARK    4  A    between atoms: C13_20  and  C14_21 
REMARK    5  A    between atoms: C14_21  and  C15_22 
REMARK    6  A    between atoms: C15_22  and  C16_23 
REMARK    7  A    between atoms: C16_23  and  N4_24 
REMARK    8  A    between atoms: N4_24  and  C17_26 
REMARK    9  A    between atoms: C17_26  and  C18_27 
REMARK   10  A    between atoms: C18_27  and  C19_28 
REMARK   11  A    between atoms: C19_28  and  C20_29 
REMARK   12  A    between atoms: C20_29  and  N5_30 
REMARK   13  A    between atoms: N5_30  and  C23_33 
REMARK   14  A    between atoms: C23_33  and  C24_34 
REMARK   15  A    between atoms: C24_34  and  C25_35 
REMARK   16  A    between atoms: C25_35  and  N6_36 
ROOT
HETATM    1  C13 UNL     1      43.631   8.175 108.305  1.00  0.00     0.015 C 
ENDROOT
BRANCH   1   2
HETATM    2  C12 UNL     1      42.267   8.761 108.528  1.00  0.00     0.087 C 
HETATM    3  C2  UNL     1      42.107  10.026 107.795  1.00  0.00     0.081 C 
HETATM    4  N1  UNL     1      42.663  11.094 108.237  1.00  0.00    -0.384 N 
HETATM    5  N2  UNL     1      41.316  10.063 106.588  1.00  0.00    -0.351 N 
HETATM    6  C1  UNL     1      42.535  12.363 107.574  1.00  0.00     0.147 C 
ATOM      7  H1  UNL     1      43.216  11.041 109.092  1.00  0.00     0.160 HD
HETATM    8  C3  UNL     1      40.153   9.235 106.387  1.00  0.00     0.299 C 
ATOM      9  H2  UNL     1      41.592  10.703 105.844  1.00  0.00     0.163 HD
HETATM   10  C7  UNL     1      39.908   8.466 107.649  1.00  0.00     0.030 C 
HETATM   11  C8  UNL     1      39.536   9.326 108.836  1.00  0.00     0.022 C 
HETATM   12  C9  UNL     1      38.944   7.317 107.489  1.00  0.00     0.022 C 
HETATM   13  C10 UNL     1      41.236   7.799 108.029  1.00  0.00     0.075 C 
HETATM   14  C11 UNL     1      41.751   6.923 106.912  1.00  0.00     0.047 C 
BRANCH   8  15
HETATM   15  N3  UNL     1      39.093   9.890 105.754  1.00  0.00    -0.057 N 
HETATM   16  C4  UNL     1      38.705   9.207 104.506  1.00  0.00     0.274 C 
HETATM   17  C5  UNL     1      37.892  10.178 106.448  1.00  0.00     0.274 C 
HETATM   18  C6  UNL     1      39.579  11.202 105.271  1.00  0.00     0.274 C 
ENDBRANCH   8  15
BRANCH  13  19
HETATM   19  O1  UNL     1      41.007   6.899 109.103  1.00  0.00    -0.389 OA
ATOM     20  H1  UNL     1      41.807   6.417 109.276  1.00  0.00     0.210 HD
ENDBRANCH  13  19
ENDBRANCH   1   2
BRANCH   1  21
HETATM   21  C14 UNL     1      44.398   7.806 109.523  1.00  0.00     0.002 C 
BRANCH  21  22
HETATM   22  C15 UNL     1      44.024   8.607 110.736  1.00  0.00     0.019 C 
BRANCH  22  23
HETATM   23  C16 UNL     1      43.389   7.753 111.819  1.00  0.00     0.113 C 
BRANCH  23  24
HETATM   24  N4  UNL     1      41.981   7.965 111.923  1.00  0.00    -0.421 N 
ATOM     25  H4  UNL     1      41.315   7.382 111.417  1.00  0.00     0.153 HD
BRANCH  24  26
HETATM   26  C17 UNL     1      41.551   9.020 112.761  1.00  0.00     0.113 C 
BRANCH  26  27
HETATM   27  C18 UNL     1      41.016  10.242 112.127  1.00  0.00     0.021 C 
BRANCH  27  28
HETATM   28  C19 UNL     1      41.876  11.444 112.024  1.00  0.00     0.029 C 
BRANCH  28  29
HETATM   29  C20 UNL     1      41.304  12.544 111.223  1.00  0.00     0.236 C 
BRANCH  29  30
HETATM   30  N5  UNL     1      41.598  13.887 111.747  1.00  0.00    -0.075 N 
HETATM   31  C21 UNL     1      40.376  14.175 112.566  1.00  0.00     0.272 C 
HETATM   32  C22 UNL     1      42.655  13.782 112.687  1.00  0.00     0.272 C 
BRANCH  30  33
HETATM   33  C23 UNL     1      41.661  14.896 110.762  1.00  0.00     0.238 C 
BRANCH  33  34
HETATM   34  C24 UNL     1      40.426  15.318 110.066  1.00  0.00     0.047 C 
BRANCH  34  35
HETATM   35  C25 UNL     1      40.588  16.153 108.838  1.00  0.00     0.123 C 
BRANCH  35  36
HETATM   36  N6  UNL     1      41.954  15.933 108.339  1.00  0.00    -0.367 N 
HETATM   37  C26 UNL     1      42.452  16.749 107.497  1.00  0.00     0.196 C 
HETATM   38  N7  UNL     1      43.788  16.514 107.024  1.00  0.00    -0.067 NA
HETATM   39  N8  UNL     1      41.723  17.864 107.025  1.00  0.00    -0.067 NA
ATOM     40  H6  UNL     1      42.498  15.135 108.665  1.00  0.00     0.161 HD
ENDBRANCH  35  36
ENDBRANCH  34  35
ENDBRANCH  33  34
ENDBRANCH  30  33
ENDBRANCH  29  30
ENDBRANCH  28  29
ENDBRANCH  27  28
ENDBRANCH  26  27
ENDBRANCH  24  26
ENDBRANCH  23  24
ENDBRANCH  22  23
ENDBRANCH  21  22
ENDBRANCH   1  21
TORSDOF 16
ENDMDL
