MODEL 1
REMARK VINA RESULT: -7.501956882      0.000      0.000
REMARK  20 active torsions:
REMARK  status: ('A' for Active; 'I' for Inactive)
REMARK    1  A    between atoms: C2_2  and  C3_3 
REMARK    2  A    between atoms: C3_3  and  C4_4 
REMARK    3  A    between atoms: C4_4  and  C5_5 
REMARK    4  A    between atoms: C5_5  and  C6_6 
REMARK    5  A    between atoms: C6_6  and  C7_7 
REMARK    6  A    between atoms: C7_7  and  C8_8 
REMARK    7  A    between atoms: C8_8  and  C9_9 
REMARK    8  A    between atoms: C9_9  and  C10_10 
REMARK    9  A    between atoms: C10_10  and  C11_11 
REMARK   10  A    between atoms: C11_11  and  C12_12 
REMARK   11  A    between atoms: C12_12  and  C13_13 
REMARK   12  A    between atoms: C14_14  and  C15_15 
REMARK   13  A    between atoms: C16_16  and  C17_17 
REMARK   14  A    between atoms: C17_17  and  C18_18 
REMARK   15  A    between atoms: C18_18  and  N1_19 
REMARK   16  A    between atoms: N1_19  and  C19_21 
REMARK   17  A    between atoms: C19_21  and  O1_22 
REMARK   18  A    between atoms: C20_24  and  N2_25 
REMARK   19  A    between atoms: N3_28  and  C23_29 
REMARK   20  A    between atoms: C23_29  and  C24_30 
ROOT
HETATM    1  C19 UNL     1      43.953  11.380 109.371  1.00  0.00     0.162 C 
HETATM    2  C20 UNL     1      44.016  12.787 109.162  1.00  0.00     0.287 C 
ENDROOT
BRANCH   1   3
HETATM    3  N1  UNL     1      42.912  10.525 109.654  1.00  0.00    -0.369 N 
ATOM      4  H1  UNL     1      42.303  10.202 108.902  1.00  0.00     0.161 HD
BRANCH   3   5
HETATM    5  C18 UNL     1      42.672  10.075 111.028  1.00  0.00     0.134 C 
BRANCH   5   6
HETATM    6  C17 UNL     1      41.241  10.077 111.430  1.00  0.00     0.114 C 
BRANCH   6   7
HETATM    7  C16 UNL     1      40.368   9.566 110.344  1.00  0.00    -0.091 C 
HETATM    8  C15 UNL     1      39.685   9.150 109.441  1.00  0.00    -0.015 C 
BRANCH   8   9
HETATM    9  C14 UNL     1      38.915   8.661 108.358  1.00  0.00    -0.015 C 
HETATM   10  C13 UNL     1      38.283   8.239 107.413  1.00  0.00    -0.092 C 
BRANCH  10  11
HETATM   11  C12 UNL     1      37.559   7.728 106.260  1.00  0.00     0.095 C 
BRANCH  11  12
HETATM   12  C11 UNL     1      38.077   8.388 105.007  1.00  0.00     0.012 C 
BRANCH  12  13
HETATM   13  C10 UNL     1      37.250   9.616 104.740  1.00  0.00     0.001 C 
BRANCH  13  14
HETATM   14  C9  UNL     1      38.107  10.869 104.573  1.00  0.00     0.000 C 
BRANCH  14  15
HETATM   15  C8  UNL     1      37.966  11.751 105.790  1.00  0.00     0.000 C 
BRANCH  15  16
HETATM   16  C7  UNL     1      39.293  11.794 106.527  1.00  0.00     0.000 C 
BRANCH  16  17
HETATM   17  C6  UNL     1      40.434  11.347 105.643  1.00  0.00     0.000 C 
BRANCH  17  18
HETATM   18  C5  UNL     1      41.350  10.371 106.332  1.00  0.00     0.000 C 
BRANCH  18  19
HETATM   19  C4  UNL     1      41.899   9.377 105.367  1.00  0.00     0.000 C 
BRANCH  19  20
HETATM   20  C3  UNL     1      41.640   7.956 105.796  1.00  0.00    -0.000 C 
BRANCH  20  21
HETATM   21  C2  UNL     1      42.299   7.702 107.152  1.00  0.00    -0.005 C 
HETATM   22  C1  UNL     1      41.812   6.454 107.818  1.00  0.00     0.005 C 
ENDBRANCH  20  21
ENDBRANCH  19  20
ENDBRANCH  18  19
ENDBRANCH  17  18
ENDBRANCH  16  17
ENDBRANCH  15  16
ENDBRANCH  14  15
ENDBRANCH  13  14
ENDBRANCH  12  13
ENDBRANCH  11  12
ENDBRANCH  10  11
ENDBRANCH   8   9
ENDBRANCH   6   7
ENDBRANCH   5   6
ENDBRANCH   3   5
ENDBRANCH   1   3
BRANCH   1  23
HETATM   23  O1  UNL     1      45.123  10.789 109.276  1.00  0.00    -0.345 OA
ATOM     24  H1  UNL     1      45.211  10.012 109.815  1.00  0.00     0.219 HD
ENDBRANCH   1  23
BRANCH   2  25
HETATM   25  N2  UNL     1      42.965  13.707 109.182  1.00  0.00     0.065 N 
HETATM   26  C21 UNL     1      42.197  13.665 107.900  1.00  0.00     0.304 C 
HETATM   27  C22 UNL     1      41.522  14.979 107.661  1.00  0.00     0.303 C 
HETATM   28  N3  UNL     1      42.528  15.988 107.297  1.00  0.00     0.102 N 
HETATM   29  C25 UNL     1      43.700  15.832 108.108  1.00  0.00     0.330 C 
HETATM   30  C26 UNL     1      43.497  15.034 109.373  1.00  0.00     0.350 C 
HETATM   31  N5  UNL     1      42.724  15.712 110.351  1.00  0.00    -0.330 N 
HETATM   32  C27 UNL     1      42.016  14.703 111.058  1.00  0.00     0.196 C 
ATOM     33  H5  UNL     1      42.685  16.718 110.514  1.00  0.00     0.164 HD
HETATM   34  N6  UNL     1      41.475  14.795 112.223  1.00  0.00    -0.370 N 
HETATM   35  N7  UNL     1      42.039  13.566 110.195  1.00  0.00    -0.180 N 
ATOM     36  H62 UNL     1      41.459  15.608 112.839  1.00  0.00     0.159 HD
ATOM     37  H61 UNL     1      40.966  14.071 112.730  1.00  0.00     0.159 HD
ATOM     38  H7  UNL     1      41.441  12.747 110.314  1.00  0.00     0.197 HD
BRANCH  28  39
HETATM   39  C23 UNL     1      41.913  17.273 107.465  1.00  0.00     0.371 C 
BRANCH  39  40
HETATM   40  C24 UNL     1      41.947  18.053 106.222  1.00  0.00     0.259 C 
HETATM   41  N4  UNL     1      42.417  17.455 105.012  1.00  0.00    -0.061 NA
HETATM   42  O2  UNL     1      41.583  19.239 106.149  1.00  0.00    -0.275 OA
ENDBRANCH  39  40
ENDBRANCH  28  39
ENDBRANCH   2  25
TORSDOF 20
ENDMDL
MODEL 2
REMARK VINA RESULT: -7.184387397      0.933      2.265
REMARK  20 active torsions:
REMARK  status: ('A' for Active; 'I' for Inactive)
REMARK    1  A    between atoms: C2_2  and  C3_3 
REMARK    2  A    between atoms: C3_3  and  C4_4 
REMARK    3  A    between atoms: C4_4  and  C5_5 
REMARK    4  A    between atoms: C5_5  and  C6_6 
REMARK    5  A    between atoms: C6_6  and  C7_7 
REMARK    6  A    between atoms: C7_7  and  C8_8 
REMARK    7  A    between atoms: C8_8  and  C9_9 
REMARK    8  A    between atoms: C9_9  and  C10_10 
REMARK    9  A    between atoms: C10_10  and  C11_11 
REMARK   10  A    between atoms: C11_11  and  C12_12 
REMARK   11  A    between atoms: C12_12  and  C13_13 
REMARK   12  A    between atoms: C14_14  and  C15_15 
REMARK   13  A    between atoms: C16_16  and  C17_17 
REMARK   14  A    between atoms: C17_17  and  C18_18 
REMARK   15  A    between atoms: C18_18  and  N1_19 
REMARK   16  A    between atoms: N1_19  and  C19_21 
REMARK   17  A    between atoms: C19_21  and  O1_22 
REMARK   18  A    between atoms: C20_24  and  N2_25 
REMARK   19  A    between atoms: N3_28  and  C23_29 
REMARK   20  A    between atoms: C23_29  and  C24_30 
ROOT
HETATM    1  C19 UNL     1      44.316  11.890 109.587  1.00  0.00     0.162 C 
HETATM    2  C20 UNL     1      44.159  13.305 109.578  1.00  0.00     0.287 C 
ENDROOT
BRANCH   1   3
HETATM    3  N1  UNL     1      43.454  10.854 109.304  1.00  0.00    -0.369 N 
ATOM      4  H1  UNL     1      43.213  10.646 108.335  1.00  0.00     0.161 HD
BRANCH   3   5
HETATM    5  C18 UNL     1      42.881  10.049 110.386  1.00  0.00     0.134 C 
BRANCH   5   6
HETATM    6  C17 UNL     1      41.401  10.138 110.494  1.00  0.00     0.114 C 
BRANCH   6   7
HETATM    7  C16 UNL     1      40.780  10.523 109.202  1.00  0.00    -0.091 C 
HETATM    8  C15 UNL     1      40.290  10.866 108.155  1.00  0.00    -0.015 C 
BRANCH   8   9
HETATM    9  C14 UNL     1      39.732  11.303 106.930  1.00  0.00    -0.015 C 
HETATM   10  C13 UNL     1      39.233  11.698 105.898  1.00  0.00    -0.092 C 
BRANCH  10  11
HETATM   11  C12 UNL     1      38.613  12.197 104.680  1.00  0.00     0.095 C 
BRANCH  11  12
HETATM   12  C11 UNL     1      37.565  11.219 104.212  1.00  0.00     0.012 C 
BRANCH  12  13
HETATM   13  C10 UNL     1      38.199   9.859 104.103  1.00  0.00     0.001 C 
BRANCH  13  14
HETATM   14  C9  UNL     1      37.396   8.783 104.830  1.00  0.00     0.000 C 
BRANCH  14  15
HETATM   15  C8  UNL     1      38.294   8.035 105.786  1.00  0.00     0.000 C 
BRANCH  15  16
HETATM   16  C7  UNL     1      37.721   8.142 107.189  1.00  0.00     0.000 C 
BRANCH  16  17
HETATM   17  C6  UNL     1      38.693   7.631 108.227  1.00  0.00     0.000 C 
BRANCH  17  18
HETATM   18  C5  UNL     1      39.790   6.792 107.628  1.00  0.00     0.000 C 
BRANCH  18  19
HETATM   19  C4  UNL     1      41.045   6.903 108.422  1.00  0.00     0.000 C 
BRANCH  19  20
HETATM   20  C3  UNL     1      42.157   7.562 107.648  1.00  0.00    -0.000 C 
BRANCH  20  21
HETATM   21  C2  UNL     1      41.823   7.547 106.156  1.00  0.00    -0.005 C 
HETATM   22  C1  UNL     1      41.972   8.887 105.506  1.00  0.00     0.005 C 
ENDBRANCH  20  21
ENDBRANCH  19  20
ENDBRANCH  18  19
ENDBRANCH  17  18
ENDBRANCH  16  17
ENDBRANCH  15  16
ENDBRANCH  14  15
ENDBRANCH  13  14
ENDBRANCH  12  13
ENDBRANCH  11  12
ENDBRANCH  10  11
ENDBRANCH   8   9
ENDBRANCH   6   7
ENDBRANCH   5   6
ENDBRANCH   3   5
ENDBRANCH   1   3
BRANCH   1  23
HETATM   23  O1  UNL     1      45.522  11.505 109.938  1.00  0.00    -0.345 OA
ATOM     24  H1  UNL     1      46.208  12.123 109.712  1.00  0.00     0.219 HD
ENDBRANCH   1  23
BRANCH   2  25
HETATM   25  N2  UNL     1      43.019  14.041 109.246  1.00  0.00     0.065 N 
HETATM   26  C21 UNL     1      42.710  13.916 107.788  1.00  0.00     0.304 C 
HETATM   27  C22 UNL     1      41.938  15.109 107.320  1.00  0.00     0.303 C 
HETATM   28  N3  UNL     1      42.828  16.278 107.270  1.00  0.00     0.102 N 
HETATM   29  C25 UNL     1      43.695  16.290 108.412  1.00  0.00     0.330 C 
HETATM   30  C26 UNL     1      43.238  15.430 109.565  1.00  0.00     0.350 C 
HETATM   31  N5  UNL     1      42.097  15.943 110.236  1.00  0.00    -0.330 N 
HETATM   32  C27 UNL     1      41.378  14.810 110.705  1.00  0.00     0.196 C 
ATOM     33  H5  UNL     1      41.844  16.924 110.357  1.00  0.00     0.164 HD
HETATM   34  N6  UNL     1      40.491  14.777 111.638  1.00  0.00    -0.370 N 
HETATM   35  N7  UNL     1      41.857  13.720 109.918  1.00  0.00    -0.180 N 
ATOM     36  H62 UNL     1      40.149  15.556 112.200  1.00  0.00     0.159 HD
ATOM     37  H61 UNL     1      39.975  13.964 111.975  1.00  0.00     0.159 HD
ATOM     38  H7  UNL     1      41.395  12.812 109.861  1.00  0.00     0.197 HD
BRANCH  28  39
HETATM   39  C23 UNL     1      41.989  17.441 107.208  1.00  0.00     0.371 C 
BRANCH  39  40
HETATM   40  C24 UNL     1      42.262  18.238 106.005  1.00  0.00     0.259 C 
HETATM   41  N4  UNL     1      43.546  18.179 105.381  1.00  0.00    -0.061 NA
HETATM   42  O2  UNL     1      41.422  18.986 105.477  1.00  0.00    -0.275 OA
ENDBRANCH  39  40
ENDBRANCH  28  39
ENDBRANCH   2  25
TORSDOF 20
ENDMDL
MODEL 3
REMARK VINA RESULT: -7.094332498      6.568     10.099
REMARK  20 active torsions:
REMARK  status: ('A' for Active; 'I' for Inactive)
REMARK    1  A    between atoms: C2_2  and  C3_3 
REMARK    2  A    between atoms: C3_3  and  C4_4 
REMARK    3  A    between atoms: C4_4  and  C5_5 
REMARK    4  A    between atoms: C5_5  and  C6_6 
REMARK    5  A    between atoms: C6_6  and  C7_7 
REMARK    6  A    between atoms: C7_7  and  C8_8 
REMARK    7  A    between atoms: C8_8  and  C9_9 
REMARK    8  A    between atoms: C9_9  and  C10_10 
REMARK    9  A    between atoms: C10_10  and  C11_11 
REMARK   10  A    between atoms: C11_11  and  C12_12 
REMARK   11  A    between atoms: C12_12  and  C13_13 
REMARK   12  A    between atoms: C14_14  and  C15_15 
REMARK   13  A    between atoms: C16_16  and  C17_17 
REMARK   14  A    between atoms: C17_17  and  C18_18 
REMARK   15  A    between atoms: C18_18  and  N1_19 
REMARK   16  A    between atoms: N1_19  and  C19_21 
REMARK   17  A    between atoms: C19_21  and  O1_22 
REMARK   18  A    between atoms: C20_24  and  N2_25 
REMARK   19  A    between atoms: N3_28  and  C23_29 
REMARK   20  A    between atoms: C23_29  and  C24_30 
ROOT
HETATM    1  C19 UNL     1      42.434   6.263 114.251  1.00  0.00     0.162 C 
HETATM    2  C20 UNL     1      42.859   5.203 115.102  1.00  0.00     0.287 C 
ENDROOT
BRANCH   1   3
HETATM    3  N1  UNL     1      42.172   7.595 114.480  1.00  0.00    -0.369 N 
ATOM      4  H1  UNL     1      41.710   7.879 115.344  1.00  0.00     0.161 HD
BRANCH   3   5
HETATM    5  C18 UNL     1      42.551   8.607 113.491  1.00  0.00     0.134 C 
BRANCH   5   6
HETATM    6  C17 UNL     1      41.508   9.636 113.240  1.00  0.00     0.114 C 
BRANCH   6   7
HETATM    7  C16 UNL     1      40.734   9.342 112.009  1.00  0.00    -0.091 C 
HETATM    8  C15 UNL     1      40.124   9.076 111.003  1.00  0.00    -0.015 C 
BRANCH   8   9
HETATM    9  C14 UNL     1      39.432   8.733 109.817  1.00  0.00    -0.015 C 
HETATM   10  C13 UNL     1      38.813   8.431 108.819  1.00  0.00    -0.092 C 
BRANCH  10  11
HETATM   11  C12 UNL     1      38.040   8.060 107.644  1.00  0.00     0.095 C 
BRANCH  11  12
HETATM   12  C11 UNL     1      38.965   7.523 106.581  1.00  0.00     0.012 C 
BRANCH  12  13
HETATM   13  C10 UNL     1      40.001   8.571 106.279  1.00  0.00     0.001 C 
BRANCH  13  14
HETATM   14  C9  UNL     1      41.412   7.992 106.208  1.00  0.00     0.000 C 
BRANCH  14  15
HETATM   15  C8  UNL     1      41.496   6.746 107.057  1.00  0.00     0.000 C 
BRANCH  15  16
HETATM   16  C7  UNL     1      42.240   7.072 108.341  1.00  0.00     0.000 C 
BRANCH  16  17
HETATM   17  C6  UNL     1      43.716   7.275 108.091  1.00  0.00     0.000 C 
BRANCH  17  18
HETATM   18  C5  UNL     1      44.454   7.729 109.322  1.00  0.00     0.000 C 
BRANCH  18  19
HETATM   19  C4  UNL     1      44.696   9.199 109.291  1.00  0.00     0.000 C 
BRANCH  19  20
HETATM   20  C3  UNL     1      43.753   9.956 110.190  1.00  0.00    -0.000 C 
BRANCH  20  21
HETATM   21  C2  UNL     1      43.210  11.179 109.449  1.00  0.00    -0.005 C 
HETATM   22  C1  UNL     1      42.168  10.835 108.431  1.00  0.00     0.005 C 
ENDBRANCH  20  21
ENDBRANCH  19  20
ENDBRANCH  18  19
ENDBRANCH  17  18
ENDBRANCH  16  17
ENDBRANCH  15  16
ENDBRANCH  14  15
ENDBRANCH  13  14
ENDBRANCH  12  13
ENDBRANCH  11  12
ENDBRANCH  10  11
ENDBRANCH   8   9
ENDBRANCH   6   7
ENDBRANCH   5   6
ENDBRANCH   3   5
ENDBRANCH   1   3
BRANCH   1  23
HETATM   23  O1  UNL     1      42.258   5.887 113.004  1.00  0.00    -0.345 OA
ATOM     24  H1  UNL     1      41.972   4.986 112.906  1.00  0.00     0.219 HD
ENDBRANCH   1  23
BRANCH   2  25
HETATM   25  N2  UNL     1      43.144   5.259 116.468  1.00  0.00     0.065 N 
HETATM   26  C21 UNL     1      43.908   6.500 116.801  1.00  0.00     0.304 C 
HETATM   27  C22 UNL     1      44.718   6.289 118.041  1.00  0.00     0.303 C 
HETATM   28  N3  UNL     1      45.846   5.394 117.743  1.00  0.00     0.102 N 
HETATM   29  C25 UNL     1      45.419   4.330 116.881  1.00  0.00     0.330 C 
HETATM   30  C26 UNL     1      43.927   4.106 116.840  1.00  0.00     0.350 C 
HETATM   31  N5  UNL     1      43.405   3.551 118.037  1.00  0.00    -0.330 N 
HETATM   32  C27 UNL     1      42.088   4.070 118.166  1.00  0.00     0.196 C 
ATOM     33  H5  UNL     1      43.878   2.910 118.674  1.00  0.00     0.164 HD
HETATM   34  N6  UNL     1      41.127   3.597 118.882  1.00  0.00    -0.370 N 
HETATM   35  N7  UNL     1      42.064   5.224 117.328  1.00  0.00    -0.180 N 
ATOM     36  H62 UNL     1      41.144   2.772 119.481  1.00  0.00     0.159 HD
ATOM     37  H61 UNL     1      40.182   3.970 118.974  1.00  0.00     0.159 HD
ATOM     38  H7  UNL     1      41.336   5.938 117.360  1.00  0.00     0.197 HD
BRANCH  28  39
HETATM   39  C23 UNL     1      46.345   4.913 118.999  1.00  0.00     0.371 C 
BRANCH  39  40
HETATM   40  C24 UNL     1      46.896   6.004 119.812  1.00  0.00     0.259 C 
HETATM   41  N4  UNL     1      46.458   6.188 121.159  1.00  0.00    -0.061 NA
HETATM   42  O2  UNL     1      47.748   6.806 119.391  1.00  0.00    -0.275 OA
ENDBRANCH  39  40
ENDBRANCH  28  39
ENDBRANCH   2  25
TORSDOF 20
ENDMDL
MODEL 4
REMARK VINA RESULT: -7.012761435      1.651      2.468
REMARK  20 active torsions:
REMARK  status: ('A' for Active; 'I' for Inactive)
REMARK    1  A    between atoms: C2_2  and  C3_3 
REMARK    2  A    between atoms: C3_3  and  C4_4 
REMARK    3  A    between atoms: C4_4  and  C5_5 
REMARK    4  A    between atoms: C5_5  and  C6_6 
REMARK    5  A    between atoms: C6_6  and  C7_7 
REMARK    6  A    between atoms: C7_7  and  C8_8 
REMARK    7  A    between atoms: C8_8  and  C9_9 
REMARK    8  A    between atoms: C9_9  and  C10_10 
REMARK    9  A    between atoms: C10_10  and  C11_11 
REMARK   10  A    between atoms: C11_11  and  C12_12 
REMARK   11  A    between atoms: C12_12  and  C13_13 
REMARK   12  A    between atoms: C14_14  and  C15_15 
REMARK   13  A    between atoms: C16_16  and  C17_17 
REMARK   14  A    between atoms: C17_17  and  C18_18 
REMARK   15  A    between atoms: C18_18  and  N1_19 
REMARK   16  A    between atoms: N1_19  and  C19_21 
REMARK   17  A    between atoms: C19_21  and  O1_22 
REMARK   18  A    between atoms: C20_24  and  N2_25 
REMARK   19  A    between atoms: N3_28  and  C23_29 
REMARK   20  A    between atoms: C23_29  and  C24_30 
ROOT
HETATM    1  C19 UNL     1      41.799  10.395 111.966  1.00  0.00     0.162 C 
HETATM    2  C20 UNL     1      42.259  11.740 112.058  1.00  0.00     0.287 C 
ENDROOT
BRANCH   1   3
HETATM    3  N1  UNL     1      40.670   9.830 111.415  1.00  0.00    -0.369 N 
ATOM      4  H1  UNL     1      39.818   9.759 111.970  1.00  0.00     0.161 HD
BRANCH   3   5
HETATM    5  C18 UNL     1      40.687   9.331 110.038  1.00  0.00     0.134 C 
BRANCH   5   6
HETATM    6  C17 UNL     1      39.701   8.252 109.769  1.00  0.00     0.114 C 
BRANCH   6   7
HETATM    7  C16 UNL     1      39.009   8.453 108.471  1.00  0.00    -0.091 C 
HETATM    8  C15 UNL     1      38.474   8.635 107.406  1.00  0.00    -0.015 C 
BRANCH   8   9
HETATM    9  C14 UNL     1      37.875   8.869 106.144  1.00  0.00    -0.015 C 
HETATM   10  C13 UNL     1      37.391   9.085 105.054  1.00  0.00    -0.092 C 
BRANCH  10  11
HETATM   11  C12 UNL     1      36.844   9.361 103.735  1.00  0.00     0.095 C 
BRANCH  11  12
HETATM   12  C11 UNL     1      36.000  10.609 103.791  1.00  0.00     0.012 C 
BRANCH  12  13
HETATM   13  C10 UNL     1      36.585  11.533 104.825  1.00  0.00     0.001 C 
BRANCH  13  14
HETATM   14  C9  UNL     1      37.520  12.573 104.212  1.00  0.00     0.000 C 
BRANCH  14  15
HETATM   15  C8  UNL     1      38.937  12.317 104.666  1.00  0.00     0.000 C 
BRANCH  15  16
HETATM   16  C7  UNL     1      38.973  12.289 106.184  1.00  0.00     0.000 C 
BRANCH  16  17
HETATM   17  C6  UNL     1      40.288  11.751 106.699  1.00  0.00     0.000 C 
BRANCH  17  18
HETATM   18  C5  UNL     1      40.995  10.888 105.688  1.00  0.00     0.000 C 
BRANCH  18  19
HETATM   19  C4  UNL     1      41.796   9.826 106.356  1.00  0.00     0.000 C 
BRANCH  19  20
HETATM   20  C3  UNL     1      41.743   8.514 105.615  1.00  0.00    -0.000 C 
BRANCH  20  21
HETATM   21  C2  UNL     1      41.890   7.359 106.607  1.00  0.00    -0.005 C 
HETATM   22  C1  UNL     1      42.952   7.597 107.634  1.00  0.00     0.005 C 
ENDBRANCH  20  21
ENDBRANCH  19  20
ENDBRANCH  18  19
ENDBRANCH  17  18
ENDBRANCH  16  17
ENDBRANCH  15  16
ENDBRANCH  14  15
ENDBRANCH  13  14
ENDBRANCH  12  13
ENDBRANCH  11  12
ENDBRANCH  10  11
ENDBRANCH   8   9
ENDBRANCH   6   7
ENDBRANCH   5   6
ENDBRANCH   3   5
ENDBRANCH   1   3
BRANCH   1  23
HETATM   23  O1  UNL     1      42.618   9.529 112.518  1.00  0.00    -0.345 OA
ATOM     24  H1  UNL     1      43.530   9.797 112.510  1.00  0.00     0.219 HD
ENDBRANCH   1  23
BRANCH   2  25
HETATM   25  N2  UNL     1      41.641  12.894 111.570  1.00  0.00     0.065 N 
HETATM   26  C21 UNL     1      41.473  12.821 110.087  1.00  0.00     0.304 C 
HETATM   27  C22 UNL     1      41.408  14.199 109.507  1.00  0.00     0.303 C 
HETATM   28  N3  UNL     1      42.741  14.816 109.560  1.00  0.00     0.102 N 
HETATM   29  C25 UNL     1      43.380  14.506 110.806  1.00  0.00     0.330 C 
HETATM   30  C26 UNL     1      42.449  14.042 111.899  1.00  0.00     0.350 C 
HETATM   31  N5  UNL     1      41.616  15.072 112.408  1.00  0.00    -0.330 N 
HETATM   32  C27 UNL     1      40.403  14.439 112.792  1.00  0.00     0.196 C 
ATOM     33  H5  UNL     1      41.841  16.064 112.482  1.00  0.00     0.164 HD
HETATM   34  N6  UNL     1      39.507  14.888 113.600  1.00  0.00    -0.370 N 
HETATM   35  N7  UNL     1      40.398  13.197 112.088  1.00  0.00    -0.180 N 
ATOM     36  H62 UNL     1      39.510  15.775 114.103  1.00  0.00     0.159 HD
ATOM     37  H61 UNL     1      38.636  14.433 113.876  1.00  0.00     0.159 HD
ATOM     38  H7  UNL     1      39.574  12.605 111.981  1.00  0.00     0.197 HD
BRANCH  28  39
HETATM   39  C23 UNL     1      42.559  16.227 109.374  1.00  0.00     0.371 C 
BRANCH  39  40
HETATM   40  C24 UNL     1      42.662  16.601 107.958  1.00  0.00     0.259 C 
HETATM   41  N4  UNL     1      43.724  16.083 107.155  1.00  0.00    -0.061 NA
HETATM   42  O2  UNL     1      41.861  17.366 107.394  1.00  0.00    -0.275 OA
ENDBRANCH  39  40
ENDBRANCH  28  39
ENDBRANCH   2  25
TORSDOF 20
ENDMDL
MODEL 5
REMARK VINA RESULT: -7.010805822      6.475      9.763
REMARK  20 active torsions:
REMARK  status: ('A' for Active; 'I' for Inactive)
REMARK    1  A    between atoms: C2_2  and  C3_3 
REMARK    2  A    between atoms: C3_3  and  C4_4 
REMARK    3  A    between atoms: C4_4  and  C5_5 
REMARK    4  A    between atoms: C5_5  and  C6_6 
REMARK    5  A    between atoms: C6_6  and  C7_7 
REMARK    6  A    between atoms: C7_7  and  C8_8 
REMARK    7  A    between atoms: C8_8  and  C9_9 
REMARK    8  A    between atoms: C9_9  and  C10_10 
REMARK    9  A    between atoms: C10_10  and  C11_11 
REMARK   10  A    between atoms: C11_11  and  C12_12 
REMARK   11  A    between atoms: C12_12  and  C13_13 
REMARK   12  A    between atoms: C14_14  and  C15_15 
REMARK   13  A    between atoms: C16_16  and  C17_17 
REMARK   14  A    between atoms: C17_17  and  C18_18 
REMARK   15  A    between atoms: C18_18  and  N1_19 
REMARK   16  A    between atoms: N1_19  and  C19_21 
REMARK   17  A    between atoms: C19_21  and  O1_22 
REMARK   18  A    between atoms: C20_24  and  N2_25 
REMARK   19  A    between atoms: N3_28  and  C23_29 
REMARK   20  A    between atoms: C23_29  and  C24_30 
ROOT
HETATM    1  C19 UNL     1      42.447   6.307 114.173  1.00  0.00     0.162 C 
HETATM    2  C20 UNL     1      42.793   5.238 115.048  1.00  0.00     0.287 C 
ENDROOT
BRANCH   1   3
HETATM    3  N1  UNL     1      42.305   7.663 114.367  1.00  0.00    -0.369 N 
ATOM      4  H1  UNL     1      41.999   8.015 115.274  1.00  0.00     0.161 HD
BRANCH   3   5
HETATM    5  C18 UNL     1      42.591   8.603 113.279  1.00  0.00     0.134 C 
BRANCH   5   6
HETATM    6  C17 UNL     1      41.580   9.682 113.125  1.00  0.00     0.114 C 
BRANCH   6   7
HETATM    7  C16 UNL     1      40.663   9.414 111.989  1.00  0.00    -0.091 C 
HETATM    8  C15 UNL     1      39.942   9.179 111.051  1.00  0.00    -0.015 C 
BRANCH   8   9
HETATM    9  C14 UNL     1      39.126   8.886 109.932  1.00  0.00    -0.015 C 
HETATM   10  C13 UNL     1      38.431   8.602 108.980  1.00  0.00    -0.092 C 
BRANCH  10  11
HETATM   11  C12 UNL     1      37.604   8.223 107.845  1.00  0.00     0.095 C 
BRANCH  11  12
HETATM   12  C11 UNL     1      38.009   9.028 106.636  1.00  0.00     0.012 C 
BRANCH  12  13
HETATM   13  C10 UNL     1      38.976   8.210 105.823  1.00  0.00     0.001 C 
BRANCH  13  14
HETATM   14  C9  UNL     1      40.207   9.010 105.406  1.00  0.00     0.000 C 
BRANCH  14  15
HETATM   15  C8  UNL     1      40.250  10.315 106.165  1.00  0.00     0.000 C 
BRANCH  15  16
HETATM   16  C7  UNL     1      41.665  10.551 106.665  1.00  0.00     0.000 C 
BRANCH  16  17
HETATM   17  C6  UNL     1      41.748  10.444 108.169  1.00  0.00     0.000 C 
BRANCH  17  18
HETATM   18  C5  UNL     1      42.974   9.701 108.629  1.00  0.00     0.000 C 
BRANCH  18  19
HETATM   19  C4  UNL     1      42.650   8.286 108.964  1.00  0.00     0.000 C 
BRANCH  19  20
HETATM   20  C3  UNL     1      43.217   7.315 107.961  1.00  0.00    -0.000 C 
BRANCH  20  21
HETATM   21  C2  UNL     1      42.075   6.576 107.260  1.00  0.00    -0.005 C 
HETATM   22  C1  UNL     1      41.019   6.095 108.203  1.00  0.00     0.005 C 
ENDBRANCH  20  21
ENDBRANCH  19  20
ENDBRANCH  18  19
ENDBRANCH  17  18
ENDBRANCH  16  17
ENDBRANCH  15  16
ENDBRANCH  14  15
ENDBRANCH  13  14
ENDBRANCH  12  13
ENDBRANCH  11  12
ENDBRANCH  10  11
ENDBRANCH   8   9
ENDBRANCH   6   7
ENDBRANCH   5   6
ENDBRANCH   3   5
ENDBRANCH   1   3
BRANCH   1  23
HETATM   23  O1  UNL     1      42.220   5.914 112.940  1.00  0.00    -0.345 OA
ATOM     24  H1  UNL     1      42.246   4.972 112.821  1.00  0.00     0.219 HD
ENDBRANCH   1  23
BRANCH   2  25
HETATM   25  N2  UNL     1      43.105   5.307 116.408  1.00  0.00     0.065 N 
HETATM   26  C21 UNL     1      43.853   6.563 116.719  1.00  0.00     0.304 C 
HETATM   27  C22 UNL     1      44.691   6.374 117.943  1.00  0.00     0.303 C 
HETATM   28  N3  UNL     1      45.829   5.498 117.627  1.00  0.00     0.102 N 
HETATM   29  C25 UNL     1      45.404   4.422 116.780  1.00  0.00     0.330 C 
HETATM   30  C26 UNL     1      43.915   4.171 116.770  1.00  0.00     0.350 C 
HETATM   31  N5  UNL     1      43.427   3.613 117.980  1.00  0.00    -0.330 N 
HETATM   32  C27 UNL     1      42.104   4.109 118.133  1.00  0.00     0.196 C 
ATOM     33  H5  UNL     1      43.924   2.985 118.611  1.00  0.00     0.164 HD
HETATM   34  N6  UNL     1      41.167   3.623 118.870  1.00  0.00    -0.370 N 
HETATM   35  N7  UNL     1      42.043   5.258 117.289  1.00  0.00    -0.180 N 
ATOM     36  H62 UNL     1      41.210   2.802 119.473  1.00  0.00     0.159 HD
ATOM     37  H61 UNL     1      40.217   3.980 118.980  1.00  0.00     0.159 HD
ATOM     38  H7  UNL     1      41.303   5.959 117.333  1.00  0.00     0.197 HD
BRANCH  28  39
HETATM   39  C23 UNL     1      46.361   5.033 118.876  1.00  0.00     0.371 C 
BRANCH  39  40
HETATM   40  C24 UNL     1      46.940   6.133 119.657  1.00  0.00     0.259 C 
HETATM   41  N4  UNL     1      46.709   6.213 121.064  1.00  0.00    -0.061 NA
HETATM   42  O2  UNL     1      47.640   7.031 119.157  1.00  0.00    -0.275 OA
ENDBRANCH  39  40
ENDBRANCH  28  39
ENDBRANCH   2  25
TORSDOF 20
ENDMDL
