MODEL 1
REMARK VINA RESULT: -5.952919513      0.000      0.000
REMARK  5 active torsions:
REMARK  status: ('A' for Active; 'I' for Inactive)
REMARK       I    between atoms: C1_4  and  N2_5 
REMARK       I    between atoms: C1_4  and  N5_10 
REMARK    1  A    between atoms: N5_10  and  C3_12 
REMARK    2  A    between atoms: C3_12  and  C4_13 
REMARK    3  A    between atoms: C3_12  and  C5_15 
REMARK    4  A    between atoms: C5_15  and  N6_16 
REMARK    5  A    between atoms: C5_15  and  C6_20 
ROOT
HETATM    1  N1  UNL     1      45.527  88.864  34.654  1.00  0.00    -0.234 N 
ATOM      2  H11 UNL     1      46.414  89.306  34.893  1.00  0.00     0.174 HD
ATOM      3  H12 UNL     1      45.493  87.845  34.692  1.00  0.00     0.174 HD
HETATM    4  C1  UNL     1      44.550  89.596  34.328  1.00  0.00     0.678 C 
HETATM    5  N2  UNL     1      43.294  88.971  33.990  1.00  0.00    -0.166 N 
ATOM      6  H2  UNL     1      42.430  89.336  34.390  1.00  0.00     0.186 HD
HETATM    7  C2  UNL     1      43.244  87.958  33.193  1.00  0.00     0.215 C 
HETATM    8  N3  UNL     1      44.415  87.387  32.592  1.00  0.00    -0.066 NA
HETATM    9  N4  UNL     1      42.012  87.358  32.872  1.00  0.00    -0.066 NA
HETATM   10  N5  UNL     1      44.597  91.004  34.275  1.00  0.00    -0.190 N 
ATOM     11  H5  UNL     1      43.863  91.445  33.723  1.00  0.00     0.184 HD
ENDROOT
BRANCH  10  12
HETATM   12  C3  UNL     1      45.520  91.891  34.881  1.00  0.00     0.103 C 
BRANCH  12  13
HETATM   13  C4  UNL     1      46.598  92.403  34.009  1.00  0.00     0.286 C 
HETATM   14  O1  UNL     1      46.497  92.408  32.799  1.00  0.00    -0.300 OA
ENDBRANCH  12  13
BRANCH  12  15
HETATM   15  C5  UNL     1      45.050  92.820  35.943  1.00  0.00     0.324 C 
BRANCH  15  16
HETATM   16  N6  UNL     1      45.623  94.144  35.572  1.00  0.00    -0.061 N 
ATOM     17  H63 UNL     1      46.313  94.497  36.234  1.00  0.00     0.275 HD
ATOM     18  H62 UNL     1      46.243  94.115  34.763  1.00  0.00     0.275 HD
ATOM     19  H61 UNL     1      44.814  94.754  35.452  1.00  0.00     0.275 HD
ENDBRANCH  15  16
BRANCH  15  20
HETATM   20  C6  UNL     1      43.625  92.929  36.198  1.00  0.00     0.267 C 
HETATM   21  N7  UNL     1      42.839  91.801  36.547  1.00  0.00    -0.060 NA
HETATM   22  O2  UNL     1      43.054  94.044  36.116  1.00  0.00    -0.274 OA
ENDBRANCH  15  20
ENDBRANCH  12  15
ENDBRANCH  10  12
TORSDOF 5
ENDMDL
MODEL 2
REMARK VINA RESULT: -5.952877448      1.733      3.331
REMARK  5 active torsions:
REMARK  status: ('A' for Active; 'I' for Inactive)
REMARK       I    between atoms: C1_4  and  N2_5 
REMARK       I    between atoms: C1_4  and  N5_10 
REMARK    1  A    between atoms: N5_10  and  C3_12 
REMARK    2  A    between atoms: C3_12  and  C4_13 
REMARK    3  A    between atoms: C3_12  and  C5_15 
REMARK    4  A    between atoms: C5_15  and  N6_16 
REMARK    5  A    between atoms: C5_15  and  C6_20 
ROOT
HETATM    1  N1  UNL     1      44.658  89.677  33.528  1.00  0.00    -0.234 N 
ATOM      2  H11 UNL     1      44.138  90.515  33.268  1.00  0.00     0.174 HD
ATOM      3  H12 UNL     1      44.694  88.924  32.841  1.00  0.00     0.174 HD
HETATM    4  C1  UNL     1      45.210  89.631  34.663  1.00  0.00     0.678 C 
HETATM    5  N2  UNL     1      45.948  88.446  35.031  1.00  0.00    -0.166 N 
ATOM      6  H2  UNL     1      46.873  88.542  35.450  1.00  0.00     0.186 HD
HETATM    7  C2  UNL     1      45.460  87.268  34.838  1.00  0.00     0.215 C 
HETATM    8  N3  UNL     1      44.167  87.051  34.254  1.00  0.00    -0.066 NA
HETATM    9  N4  UNL     1      46.190  86.121  35.201  1.00  0.00    -0.066 NA
HETATM   10  N5  UNL     1      45.161  90.672  35.612  1.00  0.00    -0.190 N 
ATOM     11  H5  UNL     1      45.377  90.401  36.571  1.00  0.00     0.184 HD
ENDROOT
BRANCH  10  12
HETATM   12  C3  UNL     1      44.855  92.042  35.421  1.00  0.00     0.103 C 
BRANCH  12  13
HETATM   13  C4  UNL     1      43.625  92.530  36.079  1.00  0.00     0.286 C 
HETATM   14  O1  UNL     1      43.647  93.049  37.176  1.00  0.00    -0.300 OA
ENDBRANCH  12  13
BRANCH  12  15
HETATM   15  C5  UNL     1      45.963  93.028  35.304  1.00  0.00     0.324 C 
BRANCH  15  16
HETATM   16  N6  UNL     1      46.654  92.983  36.622  1.00  0.00    -0.061 N 
ATOM     17  H63 UNL     1      46.120  92.515  37.354  1.00  0.00     0.275 HD
ATOM     18  H62 UNL     1      47.458  92.357  36.648  1.00  0.00     0.275 HD
ATOM     19  H61 UNL     1      46.879  93.956  36.832  1.00  0.00     0.275 HD
ENDBRANCH  15  16
BRANCH  15  20
HETATM   20  C6  UNL     1      46.916  92.884  34.218  1.00  0.00     0.267 C 
HETATM   21  N7  UNL     1      46.546  92.328  32.967  1.00  0.00    -0.060 NA
HETATM   22  O2  UNL     1      48.103  93.261  34.369  1.00  0.00    -0.274 OA
ENDBRANCH  15  20
ENDBRANCH  12  15
ENDBRANCH  10  12
TORSDOF 5
ENDMDL
MODEL 3
REMARK VINA RESULT: -5.750448401      1.550      1.860
REMARK  5 active torsions:
REMARK  status: ('A' for Active; 'I' for Inactive)
REMARK       I    between atoms: C1_4  and  N2_5 
REMARK       I    between atoms: C1_4  and  N5_10 
REMARK    1  A    between atoms: N5_10  and  C3_12 
REMARK    2  A    between atoms: C3_12  and  C4_13 
REMARK    3  A    between atoms: C3_12  and  C5_15 
REMARK    4  A    between atoms: C5_15  and  N6_16 
REMARK    5  A    between atoms: C5_15  and  C6_20 
ROOT
HETATM    1  N1  UNL     1      44.871  90.274  33.484  1.00  0.00    -0.234 N 
ATOM      2  H11 UNL     1      44.715  91.280  33.424  1.00  0.00     0.174 HD
ATOM      3  H12 UNL     1      44.696  89.729  32.640  1.00  0.00     0.174 HD
HETATM    4  C1  UNL     1      45.260  89.782  34.581  1.00  0.00     0.678 C 
HETATM    5  N2  UNL     1      45.481  88.358  34.665  1.00  0.00    -0.166 N 
ATOM      6  H2  UNL     1      46.334  88.009  35.101  1.00  0.00     0.186 HD
HETATM    7  C2  UNL     1      44.620  87.519  34.198  1.00  0.00     0.215 C 
HETATM    8  N3  UNL     1      43.397  87.932  33.571  1.00  0.00    -0.066 NA
HETATM    9  N4  UNL     1      44.849  86.133  34.286  1.00  0.00    -0.066 NA
HETATM   10  N5  UNL     1      45.502  90.536  35.746  1.00  0.00    -0.190 N 
ATOM     11  H5  UNL     1      45.514  90.004  36.616  1.00  0.00     0.184 HD
ENDROOT
BRANCH  10  12
HETATM   12  C3  UNL     1      45.731  91.927  35.880  1.00  0.00     0.103 C 
BRANCH  12  13
HETATM   13  C4  UNL     1      46.603  92.543  34.857  1.00  0.00     0.286 C 
HETATM   14  O1  UNL     1      47.603  93.162  35.156  1.00  0.00    -0.300 OA
ENDBRANCH  12  13
BRANCH  12  15
HETATM   15  C5  UNL     1      44.652  92.796  36.421  1.00  0.00     0.324 C 
BRANCH  15  16
HETATM   16  N6  UNL     1      44.910  94.137  35.826  1.00  0.00    -0.061 N 
ATOM     17  H63 UNL     1      44.125  94.784  35.905  1.00  0.00     0.275 HD
ATOM     18  H62 UNL     1      45.579  94.702  36.349  1.00  0.00     0.275 HD
ATOM     19  H61 UNL     1      45.193  93.946  34.864  1.00  0.00     0.275 HD
ENDBRANCH  15  16
BRANCH  15  20
HETATM   20  C6  UNL     1      43.270  92.402  36.222  1.00  0.00     0.267 C 
HETATM   21  N7  UNL     1      42.324  93.267  35.615  1.00  0.00    -0.060 NA
HETATM   22  O2  UNL     1      42.881  91.265  36.587  1.00  0.00    -0.274 OA
ENDBRANCH  15  20
ENDBRANCH  12  15
ENDBRANCH  10  12
TORSDOF 5
ENDMDL
MODEL 4
REMARK VINA RESULT: -5.645284289      2.529      5.738
REMARK  5 active torsions:
REMARK  status: ('A' for Active; 'I' for Inactive)
REMARK       I    between atoms: C1_4  and  N2_5 
REMARK       I    between atoms: C1_4  and  N5_10 
REMARK    1  A    between atoms: N5_10  and  C3_12 
REMARK    2  A    between atoms: C3_12  and  C4_13 
REMARK    3  A    between atoms: C3_12  and  C5_15 
REMARK    4  A    between atoms: C5_15  and  N6_16 
REMARK    5  A    between atoms: C5_15  and  C6_20 
ROOT
HETATM    1  N1  UNL     1      45.379  91.444  35.982  1.00  0.00    -0.234 N 
ATOM      2  H11 UNL     1      44.505  91.027  36.300  1.00  0.00     0.174 HD
ATOM      3  H12 UNL     1      45.856  92.068  36.633  1.00  0.00     0.174 HD
HETATM    4  C1  UNL     1      45.800  91.168  34.823  1.00  0.00     0.678 C 
HETATM    5  N2  UNL     1      47.038  91.758  34.373  1.00  0.00    -0.166 N 
ATOM      6  H2  UNL     1      47.737  91.169  33.920  1.00  0.00     0.186 HD
HETATM    7  C2  UNL     1      47.276  93.015  34.534  1.00  0.00     0.215 C 
HETATM    8  N3  UNL     1      46.343  93.907  35.161  1.00  0.00    -0.066 NA
HETATM    9  N4  UNL     1      48.488  93.577  34.090  1.00  0.00    -0.066 NA
HETATM   10  N5  UNL     1      45.140  90.306  33.925  1.00  0.00    -0.190 N 
ATOM     11  H5  UNL     1      45.410  90.402  32.947  1.00  0.00     0.184 HD
ENDROOT
BRANCH  10  12
HETATM   12  C3  UNL     1      44.154  89.324  34.189  1.00  0.00     0.103 C 
BRANCH  12  13
HETATM   13  C4  UNL     1      42.770  89.819  34.348  1.00  0.00     0.286 C 
HETATM   14  O1  UNL     1      42.531  90.935  34.758  1.00  0.00    -0.300 OA
ENDBRANCH  12  13
BRANCH  12  15
HETATM   15  C5  UNL     1      44.292  87.969  33.589  1.00  0.00     0.324 C 
BRANCH  15  16
HETATM   16  N6  UNL     1      44.659  88.219  32.167  1.00  0.00    -0.061 N 
ATOM     17  H63 UNL     1      45.010  89.160  31.989  1.00  0.00     0.275 HD
ATOM     18  H62 UNL     1      45.497  87.724  31.862  1.00  0.00     0.275 HD
ATOM     19  H61 UNL     1      43.821  87.982  31.636  1.00  0.00     0.275 HD
ENDBRANCH  15  16
BRANCH  15  20
HETATM   20  C6  UNL     1      45.209  87.024  34.199  1.00  0.00     0.267 C 
HETATM   21  N7  UNL     1      46.059  87.393  35.274  1.00  0.00    -0.060 NA
HETATM   22  O2  UNL     1      45.264  85.842  33.782  1.00  0.00    -0.274 OA
ENDBRANCH  15  20
ENDBRANCH  12  15
ENDBRANCH  10  12
TORSDOF 5
ENDMDL
MODEL 5
REMARK VINA RESULT: -5.374206109      2.672      3.426
REMARK  5 active torsions:
REMARK  status: ('A' for Active; 'I' for Inactive)
REMARK       I    between atoms: C1_4  and  N2_5 
REMARK       I    between atoms: C1_4  and  N5_10 
REMARK    1  A    between atoms: N5_10  and  C3_12 
REMARK    2  A    between atoms: C3_12  and  C4_13 
REMARK    3  A    between atoms: C3_12  and  C5_15 
REMARK    4  A    between atoms: C5_15  and  N6_16 
REMARK    5  A    between atoms: C5_15  and  C6_20 
ROOT
HETATM    1  N1  UNL     1      45.555  87.553  34.629  1.00  0.00    -0.234 N 
ATOM      2  H11 UNL     1      45.398  87.958  33.707  1.00  0.00     0.174 HD
ATOM      3  H12 UNL     1      45.645  86.538  34.679  1.00  0.00     0.174 HD
HETATM    4  C1  UNL     1      45.621  88.323  35.629  1.00  0.00     0.678 C 
HETATM    5  N2  UNL     1      45.844  87.750  36.935  1.00  0.00    -0.166 N 
ATOM      6  H2  UNL     1      46.542  88.166  37.551  1.00  0.00     0.186 HD
HETATM    7  C2  UNL     1      45.176  86.723  37.337  1.00  0.00     0.215 C 
HETATM    8  N3  UNL     1      44.177  86.083  36.529  1.00  0.00    -0.066 NA
HETATM    9  N4  UNL     1      45.404  86.174  38.613  1.00  0.00    -0.066 NA
HETATM   10  N5  UNL     1      45.496  89.725  35.560  1.00  0.00    -0.190 N 
ATOM     11  H5  UNL     1      45.269  90.188  36.439  1.00  0.00     0.184 HD
ENDROOT
BRANCH  10  12
HETATM   12  C3  UNL     1      45.643  90.581  34.441  1.00  0.00     0.103 C 
BRANCH  12  13
HETATM   13  C4  UNL     1      44.487  90.653  33.522  1.00  0.00     0.286 C 
HETATM   14  O1  UNL     1      44.331  89.851  32.624  1.00  0.00    -0.300 OA
ENDBRANCH  12  13
BRANCH  12  15
HETATM   15  C5  UNL     1      46.441  91.829  34.576  1.00  0.00     0.324 C 
BRANCH  15  16
HETATM   16  N6  UNL     1      46.158  92.598  33.332  1.00  0.00    -0.061 N 
ATOM     17  H63 UNL     1      46.571  92.193  32.491  1.00  0.00     0.275 HD
ATOM     18  H62 UNL     1      45.188  92.543  33.022  1.00  0.00     0.275 HD
ATOM     19  H61 UNL     1      46.476  93.546  33.533  1.00  0.00     0.275 HD
ENDBRANCH  15  16
BRANCH  15  20
HETATM   20  C6  UNL     1      46.247  92.661  35.750  1.00  0.00     0.267 C 
HETATM   21  N7  UNL     1      45.022  92.671  36.466  1.00  0.00    -0.060 NA
HETATM   22  O2  UNL     1      47.178  93.395  36.162  1.00  0.00    -0.274 OA
ENDBRANCH  15  20
ENDBRANCH  12  15
ENDBRANCH  10  12
TORSDOF 5
ENDMDL
