MODEL 1
REMARK VINA RESULT: -5.505895160      0.000      0.000
REMARK  5 active torsions:
REMARK  status: ('A' for Active; 'I' for Inactive)
REMARK       I    between atoms: C2_2  and  N1_4 
REMARK    1  A    between atoms: N1_4  and  C3_6 
REMARK    2  A    between atoms: C3_6  and  N2_7 
REMARK    3  A    between atoms: C3_6  and  C4_11 
REMARK       I    between atoms: C4_11  and  N3_13 
REMARK    4  A    between atoms: N3_13  and  N4_15 
REMARK       I    between atoms: N4_15  and  C5_16 
REMARK       I    between atoms: C5_16  and  N5_18 
REMARK    5  A    between atoms: N5_18  and  N6_20 
ROOT
HETATM    1  C4  UNL     1      44.772  90.149  34.978  1.00  0.00     0.296 C 
HETATM    2  O2  UNL     1      45.486  89.182  35.462  1.00  0.00    -0.267 OA
HETATM    3  N3  UNL     1      44.073  89.802  33.757  1.00  0.00    -0.194 N 
ATOM      4  H3  UNL     1      43.450  90.489  33.331  1.00  0.00     0.205 HD
ENDROOT
BRANCH   1   5
HETATM    5  C3  UNL     1      44.721  91.434  35.619  1.00  0.00     0.379 C 
BRANCH   5   6
HETATM    6  N1  UNL     1      45.937  92.208  35.495  1.00  0.00    -0.326 N 
HETATM    7  C2  UNL     1      46.506  92.454  34.175  1.00  0.00     0.215 C 
HETATM    8  C1  UNL     1      47.792  93.239  34.169  1.00  0.00     0.117 C 
HETATM    9  O1  UNL     1      46.025  92.055  33.147  1.00  0.00    -0.274 OA
ATOM     10  H1  UNL     1      46.395  92.579  36.327  1.00  0.00     0.165 HD
ENDBRANCH   5   6
BRANCH   5  11
HETATM   11  N2  UNL     1      43.667  92.199  34.835  1.00  0.00    -0.049 N 
ATOM     12  H23 UNL     1      43.961  93.138  34.565  1.00  0.00     0.277 HD
ATOM     13  H22 UNL     1      43.519  91.842  33.891  1.00  0.00     0.277 HD
ATOM     14  H21 UNL     1      42.828  92.184  35.415  1.00  0.00     0.277 HD
ENDBRANCH   5  11
ENDBRANCH   1   5
BRANCH   3  15
HETATM   15  N4  UNL     1      44.214  88.648  33.191  1.00  0.00    -0.261 NA
HETATM   16  C5  UNL     1      44.317  87.392  32.593  1.00  0.00     0.430 C 
HETATM   17  O3  UNL     1      43.406  86.488  32.462  1.00  0.00    -0.227 OA
HETATM   18  N5  UNL     1      45.552  86.910  31.991  1.00  0.00    -0.245 N 
ATOM     19  H5  UNL     1      46.412  87.459  32.018  1.00  0.00     0.192 HD
BRANCH  18  20
HETATM   20  N6  UNL     1      45.503  85.642  31.365  1.00  0.00    -0.340 N 
ATOM     21  H62 UNL     1      45.791  84.802  31.867  1.00  0.00     0.177 HD
ATOM     22  H61 UNL     1      45.168  85.619  30.402  1.00  0.00     0.177 HD
ENDBRANCH  18  20
ENDBRANCH   3  15
TORSDOF 5
ENDMDL
MODEL 2
REMARK VINA RESULT: -5.503240621      2.125      6.354
REMARK  5 active torsions:
REMARK  status: ('A' for Active; 'I' for Inactive)
REMARK       I    between atoms: C2_2  and  N1_4 
REMARK    1  A    between atoms: N1_4  and  C3_6 
REMARK    2  A    between atoms: C3_6  and  N2_7 
REMARK    3  A    between atoms: C3_6  and  C4_11 
REMARK       I    between atoms: C4_11  and  N3_13 
REMARK    4  A    between atoms: N3_13  and  N4_15 
REMARK       I    between atoms: N4_15  and  C5_16 
REMARK       I    between atoms: C5_16  and  N5_18 
REMARK    5  A    between atoms: N5_18  and  N6_20 
ROOT
HETATM    1  C4  UNL     1      44.068  88.883  33.851  1.00  0.00     0.296 C 
HETATM    2  O2  UNL     1      42.990  89.556  34.104  1.00  0.00    -0.267 OA
HETATM    3  N3  UNL     1      45.284  89.553  34.267  1.00  0.00    -0.194 N 
ATOM      4  H3  UNL     1      46.177  89.075  34.148  1.00  0.00     0.205 HD
ENDROOT
BRANCH   1   5
HETATM    5  C3  UNL     1      44.015  87.602  33.203  1.00  0.00     0.379 C 
BRANCH   5   6
HETATM    6  N1  UNL     1      42.706  87.244  32.702  1.00  0.00    -0.326 N 
HETATM    7  C2  UNL     1      42.502  85.942  32.078  1.00  0.00     0.215 C 
HETATM    8  C1  UNL     1      41.109  85.692  31.560  1.00  0.00     0.117 C 
HETATM    9  O1  UNL     1      43.364  85.113  31.948  1.00  0.00    -0.274 OA
ATOM     10  H1  UNL     1      41.929  87.900  32.784  1.00  0.00     0.165 HD
ENDBRANCH   5   6
BRANCH   5  11
HETATM   11  N2  UNL     1      44.892  87.770  31.973  1.00  0.00    -0.049 N 
ATOM     12  H23 UNL     1      44.365  87.861  31.105  1.00  0.00     0.277 HD
ATOM     13  H22 UNL     1      45.362  88.674  31.926  1.00  0.00     0.277 HD
ATOM     14  H21 UNL     1      45.533  86.976  31.982  1.00  0.00     0.277 HD
ENDBRANCH   5  11
ENDBRANCH   1   5
BRANCH   3  15
HETATM   15  N4  UNL     1      45.271  90.739  34.783  1.00  0.00    -0.261 NA
HETATM   16  C5  UNL     1      45.228  91.999  35.379  1.00  0.00     0.430 C 
HETATM   17  O3  UNL     1      44.681  92.340  36.496  1.00  0.00    -0.227 OA
HETATM   18  N5  UNL     1      45.844  93.172  34.776  1.00  0.00    -0.245 N 
ATOM     19  H5  UNL     1      46.301  93.129  33.865  1.00  0.00     0.192 HD
BRANCH  18  20
HETATM   20  N6  UNL     1      45.778  94.377  35.515  1.00  0.00    -0.340 N 
ATOM     21  H62 UNL     1      44.950  94.605  36.066  1.00  0.00     0.177 HD
ATOM     22  H61 UNL     1      46.591  94.991  35.465  1.00  0.00     0.177 HD
ENDBRANCH  18  20
ENDBRANCH   3  15
TORSDOF 5
ENDMDL
MODEL 3
REMARK VINA RESULT: -5.501825349      1.974      6.408
REMARK  5 active torsions:
REMARK  status: ('A' for Active; 'I' for Inactive)
REMARK       I    between atoms: C2_2  and  N1_4 
REMARK    1  A    between atoms: N1_4  and  C3_6 
REMARK    2  A    between atoms: C3_6  and  N2_7 
REMARK    3  A    between atoms: C3_6  and  C4_11 
REMARK       I    between atoms: C4_11  and  N3_13 
REMARK    4  A    between atoms: N3_13  and  N4_15 
REMARK       I    between atoms: N4_15  and  C5_16 
REMARK       I    between atoms: C5_16  and  N5_18 
REMARK    5  A    between atoms: N5_18  and  N6_20 
ROOT
HETATM    1  C4  UNL     1      44.562  88.806  33.426  1.00  0.00     0.296 C 
HETATM    2  O2  UNL     1      44.182  89.772  32.650  1.00  0.00    -0.267 OA
HETATM    3  N3  UNL     1      45.314  89.249  34.582  1.00  0.00    -0.194 N 
ATOM      4  H3  UNL     1      45.614  88.559  35.271  1.00  0.00     0.205 HD
ENDROOT
BRANCH   1   5
HETATM    5  C3  UNL     1      44.257  87.437  33.117  1.00  0.00     0.379 C 
BRANCH   5   6
HETATM    6  N1  UNL     1      42.945  87.235  32.543  1.00  0.00    -0.326 N 
HETATM    7  C2  UNL     1      42.477  85.882  32.266  1.00  0.00     0.215 C 
HETATM    8  C1  UNL     1      41.111  85.795  31.635  1.00  0.00     0.117 C 
HETATM    9  O1  UNL     1      43.115  84.888  32.489  1.00  0.00    -0.274 OA
ATOM     10  H1  UNL     1      42.349  88.036  32.332  1.00  0.00     0.165 HD
ENDBRANCH   5   6
BRANCH   5  11
HETATM   11  N2  UNL     1      45.244  87.073  32.020  1.00  0.00    -0.049 N 
ATOM     12  H23 UNL     1      45.461  86.078  31.979  1.00  0.00     0.277 HD
ATOM     13  H22 UNL     1      44.857  87.152  31.079  1.00  0.00     0.277 HD
ATOM     14  H21 UNL     1      46.061  87.664  32.177  1.00  0.00     0.277 HD
ENDBRANCH   5  11
ENDBRANCH   1   5
BRANCH   3  15
HETATM   15  N4  UNL     1      45.616  90.493  34.768  1.00  0.00    -0.261 NA
HETATM   16  C5  UNL     1      45.992  91.823  34.956  1.00  0.00     0.430 C 
HETATM   17  O3  UNL     1      47.139  92.371  34.737  1.00  0.00    -0.227 OA
HETATM   18  N5  UNL     1      45.069  92.835  35.451  1.00  0.00    -0.245 N 
ATOM     19  H5  UNL     1      44.114  92.602  35.722  1.00  0.00     0.192 HD
BRANCH  18  20
HETATM   20  N6  UNL     1      45.563  94.158  35.537  1.00  0.00    -0.340 N 
ATOM     21  H62 UNL     1      46.167  94.440  36.309  1.00  0.00     0.177 HD
ATOM     22  H61 UNL     1      45.285  94.801  34.795  1.00  0.00     0.177 HD
ENDBRANCH  18  20
ENDBRANCH   3  15
TORSDOF 5
ENDMDL
MODEL 4
REMARK VINA RESULT: -5.460120118      1.889      2.109
REMARK  5 active torsions:
REMARK  status: ('A' for Active; 'I' for Inactive)
REMARK       I    between atoms: C2_2  and  N1_4 
REMARK    1  A    between atoms: N1_4  and  C3_6 
REMARK    2  A    between atoms: C3_6  and  N2_7 
REMARK    3  A    between atoms: C3_6  and  C4_11 
REMARK       I    between atoms: C4_11  and  N3_13 
REMARK    4  A    between atoms: N3_13  and  N4_15 
REMARK       I    between atoms: N4_15  and  C5_16 
REMARK       I    between atoms: C5_16  and  N5_18 
REMARK    5  A    between atoms: N5_18  and  N6_20 
ROOT
HETATM    1  C4  UNL     1      44.946  90.200  33.948  1.00  0.00     0.296 C 
HETATM    2  O2  UNL     1      44.353  90.536  32.846  1.00  0.00    -0.267 OA
HETATM    3  N3  UNL     1      44.825  88.792  34.267  1.00  0.00    -0.194 N 
ATOM      4  H3  UNL     1      45.300  88.429  35.094  1.00  0.00     0.205 HD
ENDROOT
BRANCH   1   5
HETATM    5  C3  UNL     1      45.633  91.170  34.753  1.00  0.00     0.379 C 
BRANCH   5   6
HETATM    6  N1  UNL     1      46.735  91.825  34.082  1.00  0.00    -0.326 N 
HETATM    7  C2  UNL     1      47.419  92.938  34.732  1.00  0.00     0.215 C 
HETATM    8  C1  UNL     1      48.526  93.566  33.925  1.00  0.00     0.117 C 
HETATM    9  O1  UNL     1      47.131  93.364  35.818  1.00  0.00    -0.274 OA
ATOM     10  H1  UNL     1      47.033  91.510  33.159  1.00  0.00     0.165 HD
ENDBRANCH   5   6
BRANCH   5  11
HETATM   11  N2  UNL     1      44.597  92.256  34.993  1.00  0.00    -0.049 N 
ATOM     12  H23 UNL     1      44.412  92.433  35.980  1.00  0.00     0.277 HD
ATOM     13  H22 UNL     1      44.926  93.193  34.761  1.00  0.00     0.277 HD
ATOM     14  H21 UNL     1      43.772  91.970  34.466  1.00  0.00     0.277 HD
ENDBRANCH   5  11
ENDBRANCH   1   5
BRANCH   3  15
HETATM   15  N4  UNL     1      44.132  87.980  33.537  1.00  0.00    -0.261 NA
HETATM   16  C5  UNL     1      43.429  87.076  32.741  1.00  0.00     0.430 C 
HETATM   17  O3  UNL     1      43.855  85.989  32.191  1.00  0.00    -0.227 OA
HETATM   18  N5  UNL     1      42.021  87.252  32.412  1.00  0.00    -0.245 N 
ATOM     19  H5  UNL     1      41.498  88.072  32.719  1.00  0.00     0.192 HD
BRANCH  18  20
HETATM   20  N6  UNL     1      41.414  86.229  31.646  1.00  0.00    -0.340 N 
ATOM     21  H62 UNL     1      41.829  85.298  31.597  1.00  0.00     0.177 HD
ATOM     22  H61 UNL     1      40.554  86.473  31.155  1.00  0.00     0.177 HD
ENDBRANCH  18  20
ENDBRANCH   3  15
TORSDOF 5
ENDMDL
MODEL 5
REMARK VINA RESULT: -5.437407897      2.201      2.388
REMARK  5 active torsions:
REMARK  status: ('A' for Active; 'I' for Inactive)
REMARK       I    between atoms: C2_2  and  N1_4 
REMARK    1  A    between atoms: N1_4  and  C3_6 
REMARK    2  A    between atoms: C3_6  and  N2_7 
REMARK    3  A    between atoms: C3_6  and  C4_11 
REMARK       I    between atoms: C4_11  and  N3_13 
REMARK    4  A    between atoms: N3_13  and  N4_15 
REMARK       I    between atoms: N4_15  and  C5_16 
REMARK       I    between atoms: C5_16  and  N5_18 
REMARK    5  A    between atoms: N5_18  and  N6_20 
ROOT
HETATM    1  C4  UNL     1      43.652  91.380  35.452  1.00  0.00     0.296 C 
HETATM    2  O2  UNL     1      42.583  91.691  34.787  1.00  0.00    -0.267 OA
HETATM    3  N3  UNL     1      44.003  89.977  35.365  1.00  0.00    -0.194 N 
ATOM      4  H3  UNL     1      44.856  89.652  35.821  1.00  0.00     0.205 HD
ENDROOT
BRANCH   1   5
HETATM    5  C3  UNL     1      44.378  92.365  36.203  1.00  0.00     0.379 C 
BRANCH   5   6
HETATM    6  N1  UNL     1      45.253  93.195  35.403  1.00  0.00    -0.326 N 
HETATM    7  C2  UNL     1      46.367  92.588  34.683  1.00  0.00     0.215 C 
HETATM    8  C1  UNL     1      47.232  93.553  33.914  1.00  0.00     0.117 C 
HETATM    9  O1  UNL     1      46.620  91.413  34.699  1.00  0.00    -0.274 OA
ATOM     10  H1  UNL     1      45.092  94.201  35.344  1.00  0.00     0.165 HD
ENDBRANCH   5   6
BRANCH   5  11
HETATM   11  N2  UNL     1      43.302  93.298  36.733  1.00  0.00    -0.049 N 
ATOM     12  H23 UNL     1      42.535  92.814  37.199  1.00  0.00     0.277 HD
ATOM     13  H22 UNL     1      43.600  93.853  37.535  1.00  0.00     0.277 HD
ATOM     14  H21 UNL     1      43.006  93.859  35.934  1.00  0.00     0.277 HD
ENDBRANCH   5  11
ENDBRANCH   1   5
BRANCH   3  15
HETATM   15  N4  UNL     1      43.268  89.124  34.729  1.00  0.00    -0.261 NA
HETATM   16  C5  UNL     1      42.456  88.189  34.088  1.00  0.00     0.430 C 
HETATM   17  O3  UNL     1      41.571  87.406  34.606  1.00  0.00    -0.227 OA
HETATM   18  N5  UNL     1      42.502  87.965  32.649  1.00  0.00    -0.245 N 
ATOM     19  H5  UNL     1      43.165  88.459  32.052  1.00  0.00     0.192 HD
BRANCH  18  20
HETATM   20  N6  UNL     1      41.582  87.030  32.121  1.00  0.00    -0.340 N 
ATOM     21  H62 UNL     1      40.578  87.157  32.249  1.00  0.00     0.177 HD
ATOM     22  H61 UNL     1      41.974  86.237  31.615  1.00  0.00     0.177 HD
ENDBRANCH  18  20
ENDBRANCH   3  15
TORSDOF 5
ENDMDL
