MODEL 1
REMARK VINA RESULT: -5.990073856      0.000      0.000
REMARK  4 active torsions:
REMARK  status: ('A' for Active; 'I' for Inactive)
REMARK    1  A    between atoms: C1_2  and  C2_4 
REMARK    2  A    between atoms: C2_4  and  N2_5 
REMARK    3  A    between atoms: C2_4  and  N3_9 
REMARK    4  A    between atoms: N3_9  and  C3_11 
ROOT
HETATM    1  C3  UNL     1      44.261  90.544  33.700  1.00  0.00     0.187 A 
HETATM    2  N4  UNL     1      44.653  89.630  32.798  1.00  0.00    -0.277 N 
ATOM      3  H4  UNL     1      45.473  89.823  32.224  1.00  0.00     0.189 HD
HETATM    4  N5  UNL     1      44.009  88.489  32.632  1.00  0.00    -0.250 N 
ATOM      5  H5  UNL     1      44.348  87.829  31.933  1.00  0.00     0.192 HD
HETATM    6  C4  UNL     1      42.920  88.168  33.354  1.00  0.00     0.341 A 
HETATM    7  O2  UNL     1      42.319  87.071  33.181  1.00  0.00    -0.245 OA
HETATM    8  N6  UNL     1      42.522  89.084  34.263  1.00  0.00    -0.271 N 
ATOM      9  H6  UNL     1      41.700  88.875  34.829  1.00  0.00     0.174 HD
HETATM   10  C5  UNL     1      43.145  90.245  34.459  1.00  0.00     0.294 A 
HETATM   11  O3  UNL     1      42.745  91.090  35.325  1.00  0.00    -0.264 OA
ENDROOT
BRANCH   1  12
HETATM   12  N3  UNL     1      44.849  91.658  33.895  1.00  0.00    -0.336 N 
ATOM     13  H3  UNL     1      44.243  92.478  33.893  1.00  0.00     0.163 HD
BRANCH  12  14
HETATM   14  C2  UNL     1      46.228  91.923  34.115  1.00  0.00     0.373 C 
BRANCH  14  15
HETATM   15  C1  UNL     1      46.481  92.757  35.310  1.00  0.00     0.281 C 
HETATM   16  N1  UNL     1      45.560  92.761  36.387  1.00  0.00    -0.059 NA
HETATM   17  O1  UNL     1      47.504  93.460  35.374  1.00  0.00    -0.273 OA
ENDBRANCH  14  15
BRANCH  14  18
HETATM   18  N2  UNL     1      46.692  92.690  32.949  1.00  0.00    -0.050 N 
ATOM     19  H23 UNL     1      45.929  93.076  32.393  1.00  0.00     0.277 HD
ATOM     20  H22 UNL     1      47.130  93.576  33.201  1.00  0.00     0.277 HD
ATOM     21  H21 UNL     1      47.307  92.077  32.413  1.00  0.00     0.277 HD
ENDBRANCH  14  18
ENDBRANCH  12  14
ENDBRANCH   1  12
TORSDOF 4
ENDMDL
MODEL 2
REMARK VINA RESULT: -5.898169053      1.876      2.342
REMARK  4 active torsions:
REMARK  status: ('A' for Active; 'I' for Inactive)
REMARK    1  A    between atoms: C1_2  and  C2_4 
REMARK    2  A    between atoms: C2_4  and  N2_5 
REMARK    3  A    between atoms: C2_4  and  N3_9 
REMARK    4  A    between atoms: N3_9  and  C3_11 
ROOT
HETATM    1  C3  UNL     1      44.864  91.223  35.077  1.00  0.00     0.187 A 
HETATM    2  N4  UNL     1      45.756  90.334  34.615  1.00  0.00    -0.277 N 
ATOM      3  H4  UNL     1      46.562  90.671  34.088  1.00  0.00     0.189 HD
HETATM    4  N5  UNL     1      45.624  89.036  34.821  1.00  0.00    -0.250 N 
ATOM      5  H5  UNL     1      46.331  88.403  34.448  1.00  0.00     0.192 HD
HETATM    6  C4  UNL     1      44.588  88.521  35.507  1.00  0.00     0.341 A 
HETATM    7  O2  UNL     1      44.480  87.277  35.694  1.00  0.00    -0.245 OA
HETATM    8  N6  UNL     1      43.687  89.411  35.974  1.00  0.00    -0.271 N 
ATOM      9  H6  UNL     1      42.887  89.057  36.499  1.00  0.00     0.174 HD
HETATM   10  C5  UNL     1      43.786  90.726  35.786  1.00  0.00     0.294 A 
HETATM   11  O3  UNL     1      42.918  91.542  36.240  1.00  0.00    -0.264 OA
ENDROOT
BRANCH   1  12
HETATM   12  N3  UNL     1      44.948  92.483  34.902  1.00  0.00    -0.336 N 
ATOM     13  H3  UNL     1      44.099  92.936  34.565  1.00  0.00     0.163 HD
BRANCH  12  14
HETATM   14  C2  UNL     1      46.056  93.349  35.110  1.00  0.00     0.373 C 
BRANCH  14  15
HETATM   15  C1  UNL     1      47.135  93.167  34.115  1.00  0.00     0.281 C 
HETATM   16  N1  UNL     1      46.836  92.685  32.816  1.00  0.00    -0.059 NA
HETATM   17  O1  UNL     1      48.311  93.437  34.414  1.00  0.00    -0.273 OA
ENDBRANCH  14  15
BRANCH  14  18
HETATM   18  N2  UNL     1      46.618  92.992  36.423  1.00  0.00    -0.050 N 
ATOM     19  H23 UNL     1      47.632  92.882  36.408  1.00  0.00     0.277 HD
ATOM     20  H22 UNL     1      46.579  93.756  37.096  1.00  0.00     0.277 HD
ATOM     21  H21 UNL     1      46.129  92.154  36.739  1.00  0.00     0.277 HD
ENDBRANCH  14  18
ENDBRANCH  12  14
ENDBRANCH   1  12
TORSDOF 4
ENDMDL
MODEL 3
REMARK VINA RESULT: -5.853595706      1.623      5.141
REMARK  4 active torsions:
REMARK  status: ('A' for Active; 'I' for Inactive)
REMARK    1  A    between atoms: C1_2  and  C2_4 
REMARK    2  A    between atoms: C2_4  and  N2_5 
REMARK    3  A    between atoms: C2_4  and  N3_9 
REMARK    4  A    between atoms: N3_9  and  C3_11 
ROOT
HETATM    1  C3  UNL     1      45.494  91.474  35.324  1.00  0.00     0.187 A 
HETATM    2  N4  UNL     1      46.376  91.252  34.337  1.00  0.00    -0.277 N 
ATOM      3  H4  UNL     1      46.322  90.379  33.813  1.00  0.00     0.189 HD
HETATM    4  N5  UNL     1      47.311  92.131  34.022  1.00  0.00    -0.250 N 
ATOM      5  H5  UNL     1      47.956  91.912  33.263  1.00  0.00     0.192 HD
HETATM    6  C4  UNL     1      47.441  93.303  34.669  1.00  0.00     0.341 A 
HETATM    7  O2  UNL     1      48.341  94.129  34.352  1.00  0.00    -0.245 OA
HETATM    8  N6  UNL     1      46.557  93.531  35.663  1.00  0.00    -0.271 N 
ATOM      9  H6  UNL     1      46.625  94.410  36.177  1.00  0.00     0.174 HD
HETATM   10  C5  UNL     1      45.601  92.670  36.010  1.00  0.00     0.294 A 
HETATM   11  O3  UNL     1      44.780  92.914  36.954  1.00  0.00    -0.264 OA
ENDROOT
BRANCH   1  12
HETATM   12  N3  UNL     1      44.576  90.658  35.665  1.00  0.00    -0.336 N 
ATOM     13  H3  UNL     1      44.800  90.054  36.455  1.00  0.00     0.163 HD
BRANCH  12  14
HETATM   14  C2  UNL     1      43.286  90.467  35.101  1.00  0.00     0.373 C 
BRANCH  14  15
HETATM   15  C1  UNL     1      43.259  89.448  34.029  1.00  0.00     0.281 C 
HETATM   16  N1  UNL     1      44.201  89.498  32.972  1.00  0.00    -0.059 NA
HETATM   17  O1  UNL     1      42.409  88.542  34.052  1.00  0.00    -0.273 OA
ENDBRANCH  14  15
BRANCH  14  18
HETATM   18  N2  UNL     1      42.912  91.750  34.484  1.00  0.00    -0.050 N 
ATOM     19  H23 UNL     1      42.066  92.155  34.882  1.00  0.00     0.277 HD
ATOM     20  H22 UNL     1      43.547  92.510  34.725  1.00  0.00     0.277 HD
ATOM     21  H21 UNL     1      42.844  91.589  33.479  1.00  0.00     0.277 HD
ENDBRANCH  14  18
ENDBRANCH  12  14
ENDBRANCH   1  12
TORSDOF 4
ENDMDL
MODEL 4
REMARK VINA RESULT: -5.806140198      1.369      1.811
REMARK  4 active torsions:
REMARK  status: ('A' for Active; 'I' for Inactive)
REMARK    1  A    between atoms: C1_2  and  C2_4 
REMARK    2  A    between atoms: C2_4  and  N2_5 
REMARK    3  A    between atoms: C2_4  and  N3_9 
REMARK    4  A    between atoms: N3_9  and  C3_11 
ROOT
HETATM    1  C3  UNL     1      44.828  90.788  34.826  1.00  0.00     0.187 A 
HETATM    2  N4  UNL     1      45.365  89.946  33.930  1.00  0.00    -0.277 N 
ATOM      3  H4  UNL     1      46.353  90.040  33.694  1.00  0.00     0.189 HD
HETATM    4  N5  UNL     1      44.654  89.000  33.343  1.00  0.00    -0.250 N 
ATOM      5  H5  UNL     1      45.112  88.387  32.668  1.00  0.00     0.192 HD
HETATM    6  C4  UNL     1      43.348  88.818  33.605  1.00  0.00     0.341 A 
HETATM    7  O2  UNL     1      42.686  87.907  33.034  1.00  0.00    -0.245 OA
HETATM    8  N6  UNL     1      42.802  89.662  34.506  1.00  0.00    -0.271 N 
ATOM      9  H6  UNL     1      41.813  89.554  34.731  1.00  0.00     0.174 HD
HETATM   10  C5  UNL     1      43.486  90.627  35.118  1.00  0.00     0.294 A 
HETATM   11  O3  UNL     1      42.943  91.409  35.966  1.00  0.00    -0.264 OA
ENDROOT
BRANCH   1  12
HETATM   12  N3  UNL     1      45.473  91.715  35.417  1.00  0.00    -0.336 N 
ATOM     13  H3  UNL     1      45.770  91.503  36.369  1.00  0.00     0.163 HD
BRANCH  12  14
HETATM   14  C2  UNL     1      45.837  93.004  34.940  1.00  0.00     0.373 C 
BRANCH  14  15
HETATM   15  C1  UNL     1      46.938  92.973  33.953  1.00  0.00     0.281 C 
HETATM   16  N1  UNL     1      48.238  93.400  34.319  1.00  0.00    -0.059 NA
HETATM   17  O1  UNL     1      46.726  92.573  32.796  1.00  0.00    -0.273 OA
ENDBRANCH  14  15
BRANCH  14  18
HETATM   18  N2  UNL     1      46.326  93.753  36.108  1.00  0.00    -0.050 N 
ATOM     19  H23 UNL     1      47.344  93.797  36.158  1.00  0.00     0.277 HD
ATOM     20  H22 UNL     1      46.155  94.755  36.042  1.00  0.00     0.277 HD
ATOM     21  H21 UNL     1      45.904  93.328  36.934  1.00  0.00     0.277 HD
ENDBRANCH  14  18
ENDBRANCH  12  14
ENDBRANCH   1  12
TORSDOF 4
ENDMDL
MODEL 5
REMARK VINA RESULT: -5.764380315      1.699      5.242
REMARK  4 active torsions:
REMARK  status: ('A' for Active; 'I' for Inactive)
REMARK    1  A    between atoms: C1_2  and  C2_4 
REMARK    2  A    between atoms: C2_4  and  N2_5 
REMARK    3  A    between atoms: C2_4  and  N3_9 
REMARK    4  A    between atoms: N3_9  and  C3_11 
ROOT
HETATM    1  C3  UNL     1      45.405  91.346  35.311  1.00  0.00     0.187 A 
HETATM    2  N4  UNL     1      46.330  91.159  34.357  1.00  0.00    -0.277 N 
ATOM      3  H4  UNL     1      46.334  90.282  33.837  1.00  0.00     0.189 HD
HETATM    4  N5  UNL     1      47.237  92.077  34.070  1.00  0.00    -0.250 N 
ATOM      5  H5  UNL     1      47.918  91.884  33.336  1.00  0.00     0.192 HD
HETATM    6  C4  UNL     1      47.292  93.256  34.714  1.00  0.00     0.341 A 
HETATM    7  O2  UNL     1      48.166  94.120  34.424  1.00  0.00    -0.245 OA
HETATM    8  N6  UNL     1      46.364  93.450  35.674  1.00  0.00    -0.271 N 
ATOM      9  H6  UNL     1      46.374  94.333  36.185  1.00  0.00     0.174 HD
HETATM   10  C5  UNL     1      45.434  92.549  35.992  1.00  0.00     0.294 A 
HETATM   11  O3  UNL     1      44.570  92.761  36.905  1.00  0.00    -0.264 OA
ENDROOT
BRANCH   1  12
HETATM   12  N3  UNL     1      44.513  90.491  35.623  1.00  0.00    -0.336 N 
ATOM     13  H3  UNL     1      43.817  90.812  36.295  1.00  0.00     0.163 HD
BRANCH  12  14
HETATM   14  C2  UNL     1      44.348  89.154  35.170  1.00  0.00     0.373 C 
BRANCH  14  15
HETATM   15  C1  UNL     1      43.566  89.053  33.918  1.00  0.00     0.281 C 
HETATM   16  N1  UNL     1      44.200  89.225  32.663  1.00  0.00    -0.059 NA
HETATM   17  O1  UNL     1      42.347  88.818  33.963  1.00  0.00    -0.273 OA
ENDBRANCH  14  15
BRANCH  14  18
HETATM   18  N2  UNL     1      43.581  88.456  36.213  1.00  0.00    -0.050 N 
ATOM     19  H23 UNL     1      44.161  88.135  36.989  1.00  0.00     0.277 HD
ATOM     20  H22 UNL     1      42.978  89.078  36.751  1.00  0.00     0.277 HD
ATOM     21  H21 UNL     1      43.071  87.701  35.755  1.00  0.00     0.277 HD
ENDBRANCH  14  18
ENDBRANCH  12  14
ENDBRANCH   1  12
TORSDOF 4
ENDMDL
