MODEL 1
REMARK VINA RESULT: -5.440003329      0.000      0.000
REMARK  4 active torsions:
REMARK  status: ('A' for Active; 'I' for Inactive)
REMARK    1  A    between atoms: N1_1  and  N2_4 
REMARK    2  A    between atoms: N2_4  and  C1_6 
REMARK    3  A    between atoms: C1_6  and  C2_8 
REMARK    4  A    between atoms: C2_8  and  N3_9 
ROOT
HETATM    1  C2  UNL     1      44.782  91.303  34.661  1.00  0.00     0.236 C 
HETATM    2  N6  UNL     1      44.789  90.447  35.831  1.00  0.00    -0.315 N 
ATOM      3  H6  UNL     1      44.615  90.584  36.827  1.00  0.00     0.166 HD
HETATM    4  C4  UNL     1      45.135  89.351  35.021  1.00  0.00     0.295 C 
HETATM    5  O1  UNL     1      45.623  88.182  35.193  1.00  0.00    -0.264 OA
HETATM    6  C5  UNL     1      44.706  90.088  33.854  1.00  0.00     0.272 C 
HETATM    7  O2  UNL     1      44.418  89.736  32.690  1.00  0.00    -0.282 OA
ENDROOT
BRANCH   1   8
HETATM    8  C1  UNL     1      45.998  92.119  34.508  1.00  0.00     0.149 C 
HETATM    9  S1  UNL     1      46.646  92.346  33.027  1.00  0.00    -0.059 SA
BRANCH   8  10
HETATM   10  N2  UNL     1      46.623  92.718  35.608  1.00  0.00    -0.296 N 
ATOM     11  H2  UNL     1      47.243  92.154  36.188  1.00  0.00     0.187 HD
BRANCH  10  12
HETATM   12  N1  UNL     1      46.425  94.076  35.943  1.00  0.00    -0.344 N 
ATOM     13  H12 UNL     1      45.466  94.410  36.026  1.00  0.00     0.176 HD
ATOM     14  H11 UNL     1      47.202  94.719  36.101  1.00  0.00     0.176 HD
ENDBRANCH  10  12
ENDBRANCH   8  10
ENDBRANCH   1   8
BRANCH   1  15
HETATM   15  N3  UNL     1      43.551  92.090  34.700  1.00  0.00    -0.328 N 
HETATM   16  C3  UNL     1      43.112  92.749  35.681  1.00  0.00     0.199 C 
HETATM   17  N4  UNL     1      41.867  93.448  35.472  1.00  0.00    -0.067 NA
HETATM   18  N5  UNL     1      43.690  92.885  36.958  1.00  0.00    -0.067 NA
ATOM     19  H3  UNL     1      42.991  92.109  33.848  1.00  0.00     0.165 HD
ENDBRANCH   1  15
TORSDOF 4
ENDMDL
MODEL 2
REMARK VINA RESULT: -5.110745699      2.696      4.023
REMARK  4 active torsions:
REMARK  status: ('A' for Active; 'I' for Inactive)
REMARK    1  A    between atoms: N1_1  and  N2_4 
REMARK    2  A    between atoms: N2_4  and  C1_6 
REMARK    3  A    between atoms: C1_6  and  C2_8 
REMARK    4  A    between atoms: C2_8  and  N3_9 
ROOT
HETATM    1  C2  UNL     1      44.504  91.787  35.382  1.00  0.00     0.236 C 
HETATM    2  N6  UNL     1      43.268  91.656  34.635  1.00  0.00    -0.315 N 
ATOM      3  H6  UNL     1      42.919  91.016  33.921  1.00  0.00     0.166 HD
HETATM    4  C4  UNL     1      42.750  92.778  35.306  1.00  0.00     0.295 C 
HETATM    5  O1  UNL     1      41.790  93.606  35.134  1.00  0.00    -0.264 OA
HETATM    6  C5  UNL     1      43.770  92.635  36.319  1.00  0.00     0.272 C 
HETATM    7  O2  UNL     1      43.882  93.088  37.477  1.00  0.00    -0.282 OA
ENDROOT
BRANCH   1   8
HETATM    8  C1  UNL     1      45.593  92.428  34.629  1.00  0.00     0.149 C 
HETATM    9  S1  UNL     1      46.643  93.416  35.396  1.00  0.00    -0.059 SA
BRANCH   8  10
HETATM   10  N2  UNL     1      45.764  92.212  33.257  1.00  0.00    -0.296 N 
ATOM     11  H2  UNL     1      45.006  91.778  32.730  1.00  0.00     0.187 HD
BRANCH  10  12
HETATM   12  N1  UNL     1      46.947  92.573  32.575  1.00  0.00    -0.344 N 
ATOM     13  H12 UNL     1      47.653  93.095  33.093  1.00  0.00     0.176 HD
ATOM     14  H11 UNL     1      47.110  92.331  31.597  1.00  0.00     0.176 HD
ENDBRANCH  10  12
ENDBRANCH   8  10
ENDBRANCH   1   8
BRANCH   1  15
HETATM   15  N3  UNL     1      44.848  90.463  35.896  1.00  0.00    -0.328 N 
HETATM   16  C3  UNL     1      44.886  89.388  35.237  1.00  0.00     0.199 C 
HETATM   17  N4  UNL     1      45.256  88.204  35.972  1.00  0.00    -0.067 NA
HETATM   18  N5  UNL     1      44.610  89.205  33.868  1.00  0.00    -0.067 NA
ATOM     19  H3  UNL     1      45.081  90.401  36.886  1.00  0.00     0.165 HD
ENDBRANCH   1  15
TORSDOF 4
ENDMDL
MODEL 3
REMARK VINA RESULT: -4.838677981      1.872      3.711
REMARK  4 active torsions:
REMARK  status: ('A' for Active; 'I' for Inactive)
REMARK    1  A    between atoms: N1_1  and  N2_4 
REMARK    2  A    between atoms: N2_4  and  C1_6 
REMARK    3  A    between atoms: C1_6  and  C2_8 
REMARK    4  A    between atoms: C2_8  and  N3_9 
ROOT
HETATM    1  C2  UNL     1      44.854  91.629  34.787  1.00  0.00     0.236 C 
HETATM    2  N6  UNL     1      44.671  91.345  33.377  1.00  0.00    -0.315 N 
ATOM      3  H6  UNL     1      44.773  91.878  32.513  1.00  0.00     0.166 HD
HETATM    4  C4  UNL     1      44.297  90.027  33.697  1.00  0.00     0.295 C 
HETATM    5  O1  UNL     1      43.693  89.062  33.115  1.00  0.00    -0.264 OA
HETATM    6  C5  UNL     1      44.887  90.185  35.007  1.00  0.00     0.272 C 
HETATM    7  O2  UNL     1      45.240  89.365  35.880  1.00  0.00    -0.282 OA
ENDROOT
BRANCH   1   8
HETATM    8  C1  UNL     1      43.733  92.362  35.400  1.00  0.00     0.149 C 
HETATM    9  S1  UNL     1      43.860  92.910  36.933  1.00  0.00    -0.059 SA
BRANCH   8  10
HETATM   10  N2  UNL     1      42.548  92.610  34.699  1.00  0.00    -0.296 N 
ATOM     11  H2  UNL     1      42.198  91.899  34.058  1.00  0.00     0.187 HD
BRANCH  10  12
HETATM   12  N1  UNL     1      41.819  93.811  34.846  1.00  0.00    -0.344 N 
ATOM     13  H12 UNL     1      41.703  94.183  35.789  1.00  0.00     0.176 HD
ATOM     14  H11 UNL     1      41.415  94.306  34.051  1.00  0.00     0.176 HD
ENDBRANCH  10  12
ENDBRANCH   8  10
ENDBRANCH   1   8
BRANCH   1  15
HETATM   15  N3  UNL     1      46.143  92.302  34.936  1.00  0.00    -0.328 N 
HETATM   16  C3  UNL     1      46.905  92.677  34.005  1.00  0.00     0.199 C 
HETATM   17  N4  UNL     1      48.132  93.323  34.407  1.00  0.00    -0.067 NA
HETATM   18  N5  UNL     1      46.705  92.543  32.617  1.00  0.00    -0.067 NA
ATOM     19  H3  UNL     1      46.457  92.486  35.888  1.00  0.00     0.165 HD
ENDBRANCH   1  15
TORSDOF 4
ENDMDL
MODEL 4
REMARK VINA RESULT: -4.773073705      3.146      4.364
REMARK  4 active torsions:
REMARK  status: ('A' for Active; 'I' for Inactive)
REMARK    1  A    between atoms: N1_1  and  N2_4 
REMARK    2  A    between atoms: N2_4  and  C1_6 
REMARK    3  A    between atoms: C1_6  and  C2_8 
REMARK    4  A    between atoms: C2_8  and  N3_9 
ROOT
HETATM    1  C2  UNL     1      44.107  88.406  34.628  1.00  0.00     0.236 C 
HETATM    2  N6  UNL     1      45.525  88.641  34.821  1.00  0.00    -0.315 N 
ATOM      3  H6  UNL     1      46.183  89.367  34.536  1.00  0.00     0.166 HD
HETATM    4  C4  UNL     1      45.615  87.452  35.566  1.00  0.00     0.295 C 
HETATM    5  O1  UNL     1      46.544  86.663  35.954  1.00  0.00    -0.264 OA
HETATM    6  C5  UNL     1      44.181  87.459  35.738  1.00  0.00     0.272 C 
HETATM    7  O2  UNL     1      43.421  86.868  36.534  1.00  0.00    -0.282 OA
ENDROOT
BRANCH   1   8
HETATM    8  C1  UNL     1      43.767  87.848  33.309  1.00  0.00     0.149 C 
HETATM    9  S1  UNL     1      42.354  87.059  33.099  1.00  0.00    -0.059 SA
BRANCH   8  10
HETATM   10  N2  UNL     1      44.627  87.978  32.213  1.00  0.00    -0.296 N 
ATOM     11  H2  UNL     1      44.642  88.860  31.702  1.00  0.00     0.187 HD
BRANCH  10  12
HETATM   12  N1  UNL     1      45.475  86.932  31.788  1.00  0.00    -0.344 N 
ATOM     13  H12 UNL     1      46.393  86.856  32.226  1.00  0.00     0.176 HD
ATOM     14  H11 UNL     1      45.200  86.262  31.069  1.00  0.00     0.176 HD
ENDBRANCH  10  12
ENDBRANCH   8  10
ENDBRANCH   1   8
BRANCH   1  15
HETATM   15  N3  UNL     1      43.410  89.654  34.933  1.00  0.00    -0.328 N 
HETATM   16  C3  UNL     1      43.615  90.778  34.399  1.00  0.00     0.199 C 
HETATM   17  N4  UNL     1      42.794  91.866  34.872  1.00  0.00    -0.067 NA
HETATM   18  N5  UNL     1      44.550  91.100  33.396  1.00  0.00    -0.067 NA
ATOM     19  H3  UNL     1      42.685  89.612  35.648  1.00  0.00     0.165 HD
ENDBRANCH   1  15
TORSDOF 4
ENDMDL
MODEL 5
REMARK VINA RESULT: -4.679631439      2.454      3.398
REMARK  4 active torsions:
REMARK  status: ('A' for Active; 'I' for Inactive)
REMARK    1  A    between atoms: N1_1  and  N2_4 
REMARK    2  A    between atoms: N2_4  and  C1_6 
REMARK    3  A    between atoms: C1_6  and  C2_8 
REMARK    4  A    between atoms: C2_8  and  N3_9 
ROOT
HETATM    1  C2  UNL     1      45.339  92.112  34.734  1.00  0.00     0.236 C 
HETATM    2  N6  UNL     1      46.064  92.745  33.650  1.00  0.00    -0.315 N 
ATOM      3  H6  UNL     1      45.837  93.027  32.696  1.00  0.00     0.166 HD
HETATM    4  C4  UNL     1      47.211  92.808  34.461  1.00  0.00     0.295 C 
HETATM    5  O1  UNL     1      48.467  92.979  34.288  1.00  0.00    -0.264 OA
HETATM    6  C5  UNL     1      46.388  92.595  35.629  1.00  0.00     0.272 C 
HETATM    7  O2  UNL     1      46.586  92.778  36.849  1.00  0.00    -0.282 OA
ENDROOT
BRANCH   1   8
HETATM    8  C1  UNL     1      45.211  90.652  34.598  1.00  0.00     0.149 C 
HETATM    9  S1  UNL     1      44.547  90.015  33.250  1.00  0.00    -0.059 SA
BRANCH   8  10
HETATM   10  N2  UNL     1      45.651  89.780  35.600  1.00  0.00    -0.296 N 
ATOM     11  H2  UNL     1      46.579  89.919  36.000  1.00  0.00     0.187 HD
BRANCH  10  12
HETATM   12  N1  UNL     1      44.858  88.713  36.077  1.00  0.00    -0.344 N 
ATOM     13  H12 UNL     1      44.924  87.819  35.592  1.00  0.00     0.176 HD
ATOM     14  H11 UNL     1      44.234  88.811  36.879  1.00  0.00     0.176 HD
ENDBRANCH  10  12
ENDBRANCH   8  10
ENDBRANCH   1   8
BRANCH   1  15
HETATM   15  N3  UNL     1      44.057  92.802  34.866  1.00  0.00    -0.328 N 
HETATM   16  C3  UNL     1      43.117  92.497  35.649  1.00  0.00     0.199 C 
HETATM   17  N4  UNL     1      41.944  93.336  35.593  1.00  0.00    -0.067 NA
HETATM   18  N5  UNL     1      43.073  91.435  36.574  1.00  0.00    -0.067 NA
ATOM     19  H3  UNL     1      43.907  93.611  34.264  1.00  0.00     0.165 HD
ENDBRANCH   1  15
TORSDOF 4
ENDMDL
