MODEL 1
REMARK VINA RESULT: -6.140595150      0.000      0.000
REMARK  4 active torsions:
REMARK  status: ('A' for Active; 'I' for Inactive)
REMARK    1  A    between atoms: N3_4  and  N4_6 
REMARK       I    between atoms: N4_6  and  C2_8 
REMARK    2  A    between atoms: C2_8  and  C3_10 
REMARK    3  A    between atoms: C4_13  and  N6_14 
REMARK    4  A    between atoms: N6_14  and  C5_16 
ROOT
HETATM    1  C3  UNL     1      44.527  90.110  33.851  1.00  0.00     0.206 A 
HETATM    2  N5  UNL     1      44.687  91.350  33.333  1.00  0.00    -0.168 N 
ATOM      3  H5  UNL     1      44.006  91.841  32.755  1.00  0.00     0.186 HD
HETATM    4  C4  UNL     1      45.895  91.836  33.704  1.00  0.00     0.700 A 
HETATM    5  N7  UNL     1      46.472  90.891  34.449  1.00  0.00    -0.130 N 
ATOM      6  H7  UNL     1      47.393  90.956  34.880  1.00  0.00     0.205 HD
HETATM    7  N8  UNL     1      45.654  89.862  34.536  1.00  0.00    -0.266 N 
ATOM      8  H8  UNL     1      45.849  89.002  35.049  1.00  0.00     0.189 HD
ENDROOT
BRANCH   1   9
HETATM    9  C2  UNL     1      43.363  89.248  33.685  1.00  0.00     0.305 C 
HETATM   10  N4  UNL     1      43.352  88.244  32.688  1.00  0.00    -0.261 N 
ATOM     11  H4  UNL     1      44.168  88.131  32.087  1.00  0.00     0.190 HD
HETATM   12  O1  UNL     1      42.374  89.415  34.444  1.00  0.00    -0.263 OA
BRANCH  10  13
HETATM   13  N3  UNL     1      42.260  87.410  32.508  1.00  0.00    -0.273 N 
HETATM   14  C1  UNL     1      42.317  86.161  32.241  1.00  0.00     0.215 C 
HETATM   15  N1  UNL     1      43.540  85.442  32.089  1.00  0.00    -0.065 NA
HETATM   16  N2  UNL     1      41.101  85.455  32.088  1.00  0.00    -0.065 NA
ATOM     17  H3  UNL     1      41.333  87.828  32.595  1.00  0.00     0.189 HD
ENDBRANCH  10  13
ENDBRANCH   1   9
BRANCH   4  18
HETATM   18  N6  UNL     1      46.437  92.969  33.427  1.00  0.00    -0.166 N 
ATOM     19  H6  UNL     1      46.094  93.509  32.634  1.00  0.00     0.186 HD
BRANCH  18  20
HETATM   20  C5  UNL     1      47.519  93.486  34.219  1.00  0.00     0.368 C 
HETATM   21  O2  UNL     1      47.411  93.554  35.477  1.00  0.00    -0.283 OA
ENDBRANCH  18  20
ENDBRANCH   4  18
TORSDOF 4
ENDMDL
MODEL 2
REMARK VINA RESULT: -6.053703223      2.633      3.312
REMARK  4 active torsions:
REMARK  status: ('A' for Active; 'I' for Inactive)
REMARK    1  A    between atoms: N3_4  and  N4_6 
REMARK       I    between atoms: N4_6  and  C2_8 
REMARK    2  A    between atoms: C2_8  and  C3_10 
REMARK    3  A    between atoms: C4_13  and  N6_14 
REMARK    4  A    between atoms: N6_14  and  C5_16 
ROOT
HETATM    1  C3  UNL     1      43.917  88.440  33.270  1.00  0.00     0.206 A 
HETATM    2  N5  UNL     1      44.700  89.524  33.057  1.00  0.00    -0.168 N 
ATOM      3  H5  UNL     1      45.478  89.570  32.399  1.00  0.00     0.186 HD
HETATM    4  C4  UNL     1      44.288  90.536  33.855  1.00  0.00     0.700 A 
HETATM    5  N7  UNL     1      43.252  90.071  34.555  1.00  0.00    -0.130 N 
ATOM      6  H7  UNL     1      42.719  90.597  35.247  1.00  0.00     0.205 HD
HETATM    7  N8  UNL     1      43.032  88.820  34.205  1.00  0.00    -0.266 N 
ATOM      8  H8  UNL     1      42.296  88.226  34.588  1.00  0.00     0.189 HD
ENDROOT
BRANCH   1   9
HETATM    9  C2  UNL     1      44.032  87.147  32.608  1.00  0.00     0.305 C 
HETATM   10  N4  UNL     1      45.259  86.747  32.028  1.00  0.00    -0.261 N 
ATOM     11  H4  UNL     1      46.062  87.374  32.079  1.00  0.00     0.190 HD
HETATM   12  O1  UNL     1      43.023  86.398  32.564  1.00  0.00    -0.263 OA
BRANCH  10  13
HETATM   13  N3  UNL     1      45.399  85.523  31.393  1.00  0.00    -0.273 N 
HETATM   14  C1  UNL     1      46.457  85.105  30.812  1.00  0.00     0.215 C 
HETATM   15  N1  UNL     1      47.666  85.861  30.735  1.00  0.00    -0.065 NA
HETATM   16  N2  UNL     1      46.429  83.825  30.211  1.00  0.00    -0.065 NA
ATOM     17  H3  UNL     1      44.588  84.903  31.390  1.00  0.00     0.189 HD
ENDBRANCH  10  13
ENDBRANCH   1   9
BRANCH   4  18
HETATM   18  N6  UNL     1      44.757  91.729  33.965  1.00  0.00    -0.166 N 
ATOM     19  H6  UNL     1      44.133  92.490  34.234  1.00  0.00     0.186 HD
BRANCH  18  20
HETATM   20  C5  UNL     1      46.144  92.007  33.715  1.00  0.00     0.368 C 
HETATM   21  O2  UNL     1      46.556  92.169  32.531  1.00  0.00    -0.283 OA
ENDBRANCH  18  20
ENDBRANCH   4  18
TORSDOF 4
ENDMDL
MODEL 3
REMARK VINA RESULT: -5.933619473      2.037      2.291
REMARK  4 active torsions:
REMARK  status: ('A' for Active; 'I' for Inactive)
REMARK    1  A    between atoms: N3_4  and  N4_6 
REMARK       I    between atoms: N4_6  and  C2_8 
REMARK    2  A    between atoms: C2_8  and  C3_10 
REMARK    3  A    between atoms: C4_13  and  N6_14 
REMARK    4  A    between atoms: N6_14  and  C5_16 
ROOT
HETATM    1  C3  UNL     1      43.806  90.824  34.915  1.00  0.00     0.206 A 
HETATM    2  N5  UNL     1      44.684  91.825  34.671  1.00  0.00    -0.168 N 
ATOM      3  H5  UNL     1      45.306  91.881  33.865  1.00  0.00     0.186 HD
HETATM    4  C4  UNL     1      44.605  92.740  35.665  1.00  0.00     0.700 A 
HETATM    5  N7  UNL     1      43.679  92.298  36.516  1.00  0.00    -0.130 N 
ATOM      6  H7  UNL     1      43.387  92.768  37.373  1.00  0.00     0.205 HD
HETATM    7  N8  UNL     1      43.202  91.154  36.068  1.00  0.00    -0.266 N 
ATOM      8  H8  UNL     1      42.480  90.600  36.529  1.00  0.00     0.189 HD
ENDROOT
BRANCH   1   9
HETATM    9  C2  UNL     1      43.583  89.647  34.084  1.00  0.00     0.305 C 
HETATM   10  N4  UNL     1      44.596  89.186  33.210  1.00  0.00    -0.261 N 
ATOM     11  H4  UNL     1      45.483  89.687  33.169  1.00  0.00     0.190 HD
HETATM   12  O1  UNL     1      42.476  89.055  34.160  1.00  0.00    -0.263 OA
BRANCH  10  13
HETATM   13  N3  UNL     1      44.413  88.071  32.409  1.00  0.00    -0.273 N 
HETATM   14  C1  UNL     1      44.706  86.869  32.731  1.00  0.00     0.215 C 
HETATM   15  N1  UNL     1      45.276  86.507  33.988  1.00  0.00    -0.065 NA
HETATM   16  N2  UNL     1      44.453  85.844  31.791  1.00  0.00    -0.065 NA
ATOM     17  H3  UNL     1      44.010  88.221  31.483  1.00  0.00     0.189 HD
ENDBRANCH  10  13
ENDBRANCH   1   9
BRANCH   4  18
HETATM   18  N6  UNL     1      45.263  93.835  35.818  1.00  0.00    -0.166 N 
ATOM     19  H6  UNL     1      44.896  94.558  36.436  1.00  0.00     0.186 HD
BRANCH  18  20
HETATM   20  C5  UNL     1      46.506  94.056  35.132  1.00  0.00     0.368 C 
HETATM   21  O2  UNL     1      47.489  93.287  35.335  1.00  0.00    -0.283 OA
ENDBRANCH  18  20
ENDBRANCH   4  18
TORSDOF 4
ENDMDL
MODEL 4
REMARK VINA RESULT: -5.915816430      2.063      6.707
REMARK  4 active torsions:
REMARK  status: ('A' for Active; 'I' for Inactive)
REMARK    1  A    between atoms: N3_4  and  N4_6 
REMARK       I    between atoms: N4_6  and  C2_8 
REMARK    2  A    between atoms: C2_8  and  C3_10 
REMARK    3  A    between atoms: C4_13  and  N6_14 
REMARK    4  A    between atoms: N6_14  and  C5_16 
ROOT
HETATM    1  C3  UNL     1      44.224  89.224  33.134  1.00  0.00     0.206 A 
HETATM    2  N5  UNL     1      43.101  88.794  33.757  1.00  0.00    -0.168 N 
ATOM      3  H5  UNL     1      42.604  89.297  34.492  1.00  0.00     0.186 HD
HETATM    4  C4  UNL     1      42.743  87.591  33.251  1.00  0.00     0.700 A 
HETATM    5  N7  UNL     1      43.647  87.287  32.318  1.00  0.00    -0.130 N 
ATOM      6  H7  UNL     1      43.653  86.439  31.752  1.00  0.00     0.205 HD
HETATM    7  N8  UNL     1      44.530  88.262  32.249  1.00  0.00    -0.266 N 
ATOM      8  H8  UNL     1      45.329  88.284  31.616  1.00  0.00     0.189 HD
ENDROOT
BRANCH   1   9
HETATM    9  C2  UNL     1      44.929  90.474  33.389  1.00  0.00     0.305 C 
HETATM   10  N4  UNL     1      46.026  90.507  34.283  1.00  0.00    -0.261 N 
ATOM     11  H4  UNL     1      46.316  89.646  34.746  1.00  0.00     0.190 HD
HETATM   12  O1  UNL     1      44.544  91.516  32.801  1.00  0.00    -0.263 OA
BRANCH  10  13
HETATM   13  N3  UNL     1      46.716  91.680  34.544  1.00  0.00    -0.273 N 
HETATM   14  C1  UNL     1      46.410  92.536  35.443  1.00  0.00     0.215 C 
HETATM   15  N1  UNL     1      45.292  92.396  36.318  1.00  0.00    -0.065 NA
HETATM   16  N2  UNL     1      47.225  93.684  35.577  1.00  0.00    -0.065 NA
ATOM     17  H3  UNL     1      47.536  91.878  33.971  1.00  0.00     0.189 HD
ENDBRANCH  10  13
ENDBRANCH   1   9
BRANCH   4  18
HETATM   18  N6  UNL     1      41.746  86.841  33.562  1.00  0.00    -0.166 N 
ATOM     19  H6  UNL     1      41.229  87.025  34.422  1.00  0.00     0.186 HD
BRANCH  18  20
HETATM   20  C5  UNL     1      41.347  85.748  32.719  1.00  0.00     0.368 C 
HETATM   21  O2  UNL     1      41.006  85.963  31.520  1.00  0.00    -0.283 OA
ENDBRANCH  18  20
ENDBRANCH   4  18
TORSDOF 4
ENDMDL
MODEL 5
REMARK VINA RESULT: -5.851205488      1.968      6.430
REMARK  4 active torsions:
REMARK  status: ('A' for Active; 'I' for Inactive)
REMARK    1  A    between atoms: N3_4  and  N4_6 
REMARK       I    between atoms: N4_6  and  C2_8 
REMARK    2  A    between atoms: C2_8  and  C3_10 
REMARK    3  A    between atoms: C4_13  and  N6_14 
REMARK    4  A    between atoms: N6_14  and  C5_16 
ROOT
HETATM    1  C3  UNL     1      44.220  89.241  33.136  1.00  0.00     0.206 A 
HETATM    2  N5  UNL     1      43.078  88.831  33.737  1.00  0.00    -0.168 N 
ATOM      3  H5  UNL     1      42.568  89.350  34.452  1.00  0.00     0.186 HD
HETATM    4  C4  UNL     1      42.720  87.624  33.239  1.00  0.00     0.700 A 
HETATM    5  N7  UNL     1      43.643  87.297  32.333  1.00  0.00    -0.130 N 
ATOM      6  H7  UNL     1      43.655  86.442  31.779  1.00  0.00     0.205 HD
HETATM    7  N8  UNL     1      44.538  88.263  32.273  1.00  0.00    -0.266 N 
ATOM      8  H8  UNL     1      45.353  88.267  31.660  1.00  0.00     0.189 HD
ENDROOT
BRANCH   1   9
HETATM    9  C2  UNL     1      44.932  90.487  33.391  1.00  0.00     0.305 C 
HETATM   10  N4  UNL     1      46.029  90.514  34.284  1.00  0.00    -0.261 N 
ATOM     11  H4  UNL     1      46.315  89.652  34.748  1.00  0.00     0.190 HD
HETATM   12  O1  UNL     1      44.552  91.531  32.802  1.00  0.00    -0.263 OA
BRANCH  10  13
HETATM   13  N3  UNL     1      46.725  91.684  34.545  1.00  0.00    -0.273 N 
HETATM   14  C1  UNL     1      46.426  92.539  35.447  1.00  0.00     0.215 C 
HETATM   15  N1  UNL     1      45.310  92.403  36.325  1.00  0.00    -0.065 NA
HETATM   16  N2  UNL     1      47.246  93.684  35.580  1.00  0.00    -0.065 NA
ATOM     17  H3  UNL     1      47.544  91.879  33.969  1.00  0.00     0.189 HD
ENDBRANCH  10  13
ENDBRANCH   1   9
BRANCH   4  18
HETATM   18  N6  UNL     1      41.707  86.889  33.536  1.00  0.00    -0.166 N 
ATOM     19  H6  UNL     1      41.028  86.656  32.812  1.00  0.00     0.186 HD
BRANCH  18  20
HETATM   20  C5  UNL     1      41.519  86.389  34.869  1.00  0.00     0.368 C 
HETATM   21  O2  UNL     1      42.344  86.684  35.781  1.00  0.00    -0.283 OA
ENDBRANCH  18  20
ENDBRANCH   4  18
TORSDOF 4
ENDMDL
