MODEL 1
REMARK VINA RESULT: -5.059535186      0.000      0.000
REMARK  3 active torsions:
REMARK  status: ('A' for Active; 'I' for Inactive)
REMARK    1  A    between atoms: C5_5  and  N1_6 
REMARK       I    between atoms: N1_6  and  C6_8 
REMARK    2  A    between atoms: C6_8  and  C7_10 
REMARK       I    between atoms: C7_10  and  N2_12 
REMARK    3  A    between atoms: N2_12  and  C8_14 
ROOT
HETATM    1  C1  UNL     1      24.071  12.434  18.549  1.00  0.00     0.012 C 
HETATM    2  C2  UNL     1      23.133  12.169  19.260  1.00  0.00    -0.110 C 
HETATM    3  C3  UNL     1      21.987  11.847  20.115  1.00  0.00     0.089 A 
HETATM    4  C4  UNL     1      21.581  10.405  20.097  1.00  0.00     0.045 A 
HETATM    5  C5  UNL     1      22.270  10.901  21.290  1.00  0.00     0.101 A 
ENDROOT
BRANCH   5   6
HETATM    6  N1  UNL     1      21.562  11.280  22.496  1.00  0.00    -0.347 N 
HETATM    7  C6  UNL     1      21.837  10.773  23.770  1.00  0.00     0.309 C 
HETATM    8  O1  UNL     1      22.738   9.922  24.012  1.00  0.00    -0.262 OA
ATOM      9  H1  UNL     1      20.811  11.964  22.410  1.00  0.00     0.163 HD
BRANCH   7  10
HETATM   10  C7  UNL     1      21.036  11.249  24.912  1.00  0.00     0.309 C 
HETATM   11  O2  UNL     1      20.396  12.326  24.816  1.00  0.00    -0.262 OA
HETATM   12  N2  UNL     1      20.965  10.523  26.123  1.00  0.00    -0.344 N 
ATOM     13  H2  UNL     1      21.475   9.645  26.229  1.00  0.00     0.163 HD
BRANCH  12  14
HETATM   14  C8  UNL     1      20.167  11.035  27.205  1.00  0.00     0.208 C 
HETATM   15 BR1  UNL     1      21.165  12.261  28.314  1.00  0.00    -0.075 Br
ENDBRANCH  12  14
ENDBRANCH   7  10
ENDBRANCH   5   6
TORSDOF 3
ENDMDL
MODEL 2
REMARK VINA RESULT: -4.993865524      1.240      1.240
REMARK  3 active torsions:
REMARK  status: ('A' for Active; 'I' for Inactive)
REMARK    1  A    between atoms: C5_5  and  N1_6 
REMARK       I    between atoms: N1_6  and  C6_8 
REMARK    2  A    between atoms: C6_8  and  C7_10 
REMARK       I    between atoms: C7_10  and  N2_12 
REMARK    3  A    between atoms: N2_12  and  C8_14 
ROOT
HETATM    1  C1  UNL     1      23.419  13.623  18.322  1.00  0.00     0.012 C 
HETATM    2  C2  UNL     1      22.782  13.136  19.223  1.00  0.00    -0.110 C 
HETATM    3  C3  UNL     1      21.999  12.542  20.312  1.00  0.00     0.089 A 
HETATM    4  C4  UNL     1      22.019  11.044  20.349  1.00  0.00     0.045 A 
HETATM    5  C5  UNL     1      22.797  11.759  21.364  1.00  0.00     0.101 A 
ENDROOT
BRANCH   5   6
HETATM    6  N1  UNL     1      22.309  11.973  22.710  1.00  0.00    -0.347 N 
HETATM    7  C6  UNL     1      22.430  11.052  23.755  1.00  0.00     0.309 C 
HETATM    8  O1  UNL     1      22.982   9.922  23.639  1.00  0.00    -0.262 OA
ATOM      9  H1  UNL     1      21.843  12.858  22.910  1.00  0.00     0.163 HD
BRANCH   7  10
HETATM   10  C7  UNL     1      21.886  11.402  25.079  1.00  0.00     0.309 C 
HETATM   11  O2  UNL     1      22.329  12.410  25.685  1.00  0.00    -0.262 OA
HETATM   12  N2  UNL     1      20.872  10.632  25.693  1.00  0.00    -0.344 N 
ATOM     13  H2  UNL     1      20.494   9.809  25.224  1.00  0.00     0.163 HD
BRANCH  12  14
HETATM   14  C8  UNL     1      20.379  11.022  26.988  1.00  0.00     0.208 C 
HETATM   15 BR1  UNL     1      18.845  12.187  26.849  1.00  0.00    -0.075 Br
ENDBRANCH  12  14
ENDBRANCH   7  10
ENDBRANCH   5   6
TORSDOF 3
ENDMDL
MODEL 3
REMARK VINA RESULT: -4.889738329      1.000      1.000
REMARK  3 active torsions:
REMARK  status: ('A' for Active; 'I' for Inactive)
REMARK    1  A    between atoms: C5_5  and  N1_6 
REMARK       I    between atoms: N1_6  and  C6_8 
REMARK    2  A    between atoms: C6_8  and  C7_10 
REMARK       I    between atoms: C7_10  and  N2_12 
REMARK    3  A    between atoms: N2_12  and  C8_14 
ROOT
HETATM    1  C1  UNL     1      23.840  12.929  18.362  1.00  0.00     0.012 C 
HETATM    2  C2  UNL     1      23.015  12.564  19.163  1.00  0.00    -0.110 C 
HETATM    3  C3  UNL     1      22.006  12.118  20.129  1.00  0.00     0.089 A 
HETATM    4  C4  UNL     1      21.793  10.635  20.169  1.00  0.00     0.045 A 
HETATM    5  C5  UNL     1      22.520  11.247  21.284  1.00  0.00     0.101 A 
ENDROOT
BRANCH   5   6
HETATM    6  N1  UNL     1      21.886  11.561  22.547  1.00  0.00    -0.347 N 
HETATM    7  C6  UNL     1      22.128  10.886  23.747  1.00  0.00     0.309 C 
HETATM    8  O1  UNL     1      22.931   9.919  23.864  1.00  0.00    -0.262 OA
ATOM      9  H1  UNL     1      21.215  12.330  22.562  1.00  0.00     0.163 HD
BRANCH   7  10
HETATM   10  C7  UNL     1      21.410  11.314  24.962  1.00  0.00     0.309 C 
HETATM   11  O2  UNL     1      20.188  11.049  25.086  1.00  0.00    -0.262 OA
HETATM   12  N2  UNL     1      22.061  12.019  26.000  1.00  0.00    -0.344 N 
ATOM     13  H2  UNL     1      23.052  12.247  25.926  1.00  0.00     0.163 HD
BRANCH  12  14
HETATM   14  C8  UNL     1      21.309  12.411  27.163  1.00  0.00     0.208 C 
HETATM   15 BR1  UNL     1      22.281  13.675  28.252  1.00  0.00    -0.075 Br
ENDBRANCH  12  14
ENDBRANCH   7  10
ENDBRANCH   5   6
TORSDOF 3
ENDMDL
MODEL 4
REMARK VINA RESULT: -4.853639029      1.697      1.727
REMARK  3 active torsions:
REMARK  status: ('A' for Active; 'I' for Inactive)
REMARK    1  A    between atoms: C5_5  and  N1_6 
REMARK       I    between atoms: N1_6  and  C6_8 
REMARK    2  A    between atoms: C6_8  and  C7_10 
REMARK       I    between atoms: C7_10  and  N2_12 
REMARK    3  A    between atoms: N2_12  and  C8_14 
ROOT
HETATM    1  C1  UNL     1      23.249  12.616  18.918  1.00  0.00     0.012 C 
HETATM    2  C2  UNL     1      22.514  12.429  19.855  1.00  0.00    -0.110 C 
HETATM    3  C3  UNL     1      21.610  12.201  20.987  1.00  0.00     0.089 A 
HETATM    4  C4  UNL     1      21.339  10.757  21.287  1.00  0.00     0.045 A 
HETATM    5  C5  UNL     1      22.222  11.486  22.201  1.00  0.00     0.101 A 
ENDROOT
BRANCH   5   6
HETATM    6  N1  UNL     1      21.760  12.029  23.461  1.00  0.00    -0.347 N 
HETATM    7  C6  UNL     1      22.589  12.336  24.544  1.00  0.00     0.309 C 
HETATM    8  O1  UNL     1      23.841  12.173  24.545  1.00  0.00    -0.262 OA
ATOM      9  H1  UNL     1      20.760  12.198  23.566  1.00  0.00     0.163 HD
BRANCH   7  10
HETATM   10  C7  UNL     1      21.982  12.886  25.771  1.00  0.00     0.309 C 
HETATM   11  O2  UNL     1      21.425  14.012  25.737  1.00  0.00    -0.262 OA
HETATM   12  N2  UNL     1      22.007  12.177  26.994  1.00  0.00    -0.344 N 
ATOM     13  H2  UNL     1      22.452  11.261  27.050  1.00  0.00     0.163 HD
BRANCH  12  14
HETATM   14  C8  UNL     1      21.399  12.763  28.159  1.00  0.00     0.208 C 
HETATM   15 BR1  UNL     1      19.558  12.213  28.358  1.00  0.00    -0.075 Br
ENDBRANCH  12  14
ENDBRANCH   7  10
ENDBRANCH   5   6
TORSDOF 3
ENDMDL
MODEL 5
REMARK VINA RESULT: -4.841091940      1.357      1.357
REMARK  3 active torsions:
REMARK  status: ('A' for Active; 'I' for Inactive)
REMARK    1  A    between atoms: C5_5  and  N1_6 
REMARK       I    between atoms: N1_6  and  C6_8 
REMARK    2  A    between atoms: C6_8  and  C7_10 
REMARK       I    between atoms: C7_10  and  N2_12 
REMARK    3  A    between atoms: N2_12  and  C8_14 
ROOT
HETATM    1  C1  UNL     1      24.311  10.325  18.622  1.00  0.00     0.012 C 
HETATM    2  C2  UNL     1      23.444  10.721  19.361  1.00  0.00    -0.110 C 
HETATM    3  C3  UNL     1      22.383  11.205  20.250  1.00  0.00     0.089 A 
HETATM    4  C4  UNL     1      21.303  10.205  20.535  1.00  0.00     0.045 A 
HETATM    5  C5  UNL     1      22.263  10.490  21.604  1.00  0.00     0.101 A 
ENDROOT
BRANCH   5   6
HETATM    6  N1  UNL     1      21.968  11.399  22.692  1.00  0.00    -0.347 N 
HETATM    7  C6  UNL     1      21.748  11.007  24.016  1.00  0.00     0.309 C 
HETATM    8  O1  UNL     1      21.781   9.809  24.413  1.00  0.00    -0.262 OA
ATOM      9  H1  UNL     1      21.917  12.395  22.478  1.00  0.00     0.163 HD
BRANCH   7  10
HETATM   10  C7  UNL     1      21.457  12.042  25.025  1.00  0.00     0.309 C 
HETATM   11  O2  UNL     1      20.415  12.736  24.920  1.00  0.00    -0.262 OA
HETATM   12  N2  UNL     1      22.322  12.278  26.118  1.00  0.00    -0.344 N 
ATOM     13  H2  UNL     1      23.175  11.729  26.229  1.00  0.00     0.163 HD
BRANCH  12  14
HETATM   14  C8  UNL     1      21.987  13.301  27.073  1.00  0.00     0.208 C 
HETATM   15 BR1  UNL     1      21.277  12.552  28.705  1.00  0.00    -0.075 Br
ENDBRANCH  12  14
ENDBRANCH   7  10
ENDBRANCH   5   6
TORSDOF 3
ENDMDL
