MODEL 1
REMARK VINA RESULT: -6.306443185      0.000      0.000
REMARK  3 active torsions:
REMARK  status: ('A' for Active; 'I' for Inactive)
REMARK    1  A    between atoms: C2_2  and  C4_4 
REMARK    2  A    between atoms: C4_4  and  N2_8 
REMARK    3  A    between atoms: C9_15  and  C10_16 
ROOT
HETATM    1  N2  UNL     1      21.827  11.715  23.142  1.00  0.00    -0.342 N 
HETATM    2  C5  UNL     1      21.270  12.986  22.751  1.00  0.00     0.154 C 
HETATM    3  C6  UNL     1      20.524  13.464  23.953  1.00  0.00     0.259 C 
HETATM    4  N3  UNL     1      21.067  12.756  25.065  1.00  0.00    -0.046 N 
HETATM    5  C7  UNL     1      19.994  12.298  25.915  1.00  0.00     0.277 C 
HETATM    6  C8  UNL     1      20.208  12.910  27.283  1.00  0.00     0.212 C 
HETATM    7  F1  UNL     1      19.753  12.104  28.298  1.00  0.00    -0.247 F 
HETATM    8  C9  UNL     1      21.742  12.981  27.268  1.00  0.00     0.148 C 
HETATM    9  C11 UNL     1      21.936  13.587  25.895  1.00  0.00     0.258 C 
HETATM   10  C12 UNL     1      21.878  11.666  24.569  1.00  0.00     0.363 C 
ENDROOT
BRANCH   8  11
HETATM   11  C10 UNL     1      22.251  13.843  28.349  1.00  0.00     0.181 C 
HETATM   12  O1  UNL     1      21.529  14.500  29.108  1.00  0.00    -0.648 OA
HETATM   13  O2  UNL     1      23.630  13.914  28.514  1.00  0.00    -0.648 OA
ENDBRANCH   8  11
BRANCH   1  14
HETATM   14  C4  UNL     1      22.262  10.664  22.290  1.00  0.00     0.103 C 
HETATM   15  N1  UNL     1      23.325   9.983  22.557  1.00  0.00    -0.385 N 
ATOM     16  H12 UNL     1      23.638   9.229  21.945  1.00  0.00     0.157 HD
ATOM     17  H11 UNL     1      23.872  10.195  23.392  1.00  0.00     0.157 HD
BRANCH  14  18
HETATM   18  C2  UNL     1      21.485  10.362  21.101  1.00  0.00    -0.028 C 
HETATM   19  C1  UNL     1      20.380   9.687  21.217  1.00  0.00     0.022 C 
HETATM   20  C3  UNL     1      21.939  10.818  19.769  1.00  0.00     0.051 C 
ENDBRANCH  14  18
ENDBRANCH   1  14
TORSDOF 3
ENDMDL
MODEL 2
REMARK VINA RESULT: -6.130042747      6.138      7.934
REMARK  3 active torsions:
REMARK  status: ('A' for Active; 'I' for Inactive)
REMARK    1  A    between atoms: C2_2  and  C4_4 
REMARK    2  A    between atoms: C4_4  and  N2_8 
REMARK    3  A    between atoms: C9_15  and  C10_16 
ROOT
HETATM    1  N2  UNL     1      24.286  12.929  19.437  1.00  0.00    -0.342 N 
HETATM    2  C5  UNL     1      24.749  12.599  18.112  1.00  0.00     0.154 C 
HETATM    3  C6  UNL     1      26.237  12.711  18.187  1.00  0.00     0.259 C 
HETATM    4  N3  UNL     1      26.574  12.601  19.568  1.00  0.00    -0.046 N 
HETATM    5  C7  UNL     1      27.560  13.601  19.902  1.00  0.00     0.277 C 
HETATM    6  C8  UNL     1      28.784  12.873  20.419  1.00  0.00     0.212 C 
HETATM    7  F1  UNL     1      29.471  13.601  21.360  1.00  0.00    -0.247 F 
HETATM    8  C9  UNL     1      28.084  11.660  21.049  1.00  0.00     0.148 C 
HETATM    9  C11 UNL     1      27.156  11.305  19.908  1.00  0.00     0.258 C 
HETATM   10  C12 UNL     1      25.366  12.737  20.352  1.00  0.00     0.363 C 
ENDROOT
BRANCH   8  11
HETATM   11  C10 UNL     1      29.044  10.587  21.358  1.00  0.00     0.181 C 
HETATM   12  O1  UNL     1      30.229  10.781  21.653  1.00  0.00    -0.648 OA
HETATM   13  O2  UNL     1      28.576   9.278  21.313  1.00  0.00    -0.648 OA
ENDBRANCH   8  11
BRANCH   1  14
HETATM   14  C4  UNL     1      22.989  13.373  19.812  1.00  0.00     0.103 C 
HETATM   15  N1  UNL     1      22.575  14.557  19.515  1.00  0.00    -0.385 N 
ATOM     16  H12 UNL     1      21.644  14.876  19.784  1.00  0.00     0.157 HD
ATOM     17  H11 UNL     1      23.182  15.196  19.001  1.00  0.00     0.157 HD
BRANCH  14  18
HETATM   18  C2  UNL     1      22.126  12.463  20.545  1.00  0.00    -0.028 C 
HETATM   19  C1  UNL     1      21.616  12.844  21.679  1.00  0.00     0.022 C 
HETATM   20  C3  UNL     1      21.824  11.117  20.012  1.00  0.00     0.051 C 
ENDBRANCH  14  18
ENDBRANCH   1  14
TORSDOF 3
ENDMDL
MODEL 3
REMARK VINA RESULT: -6.119514260      4.822      6.497
REMARK  3 active torsions:
REMARK  status: ('A' for Active; 'I' for Inactive)
REMARK    1  A    between atoms: C2_2  and  C4_4 
REMARK    2  A    between atoms: C4_4  and  N2_8 
REMARK    3  A    between atoms: C9_15  and  C10_16 
ROOT
HETATM    1  N2  UNL     1      21.765  10.879  21.481  1.00  0.00    -0.342 N 
HETATM    2  C5  UNL     1      23.169  10.608  21.661  1.00  0.00     0.154 C 
HETATM    3  C6  UNL     1      23.855  11.429  20.620  1.00  0.00     0.259 C 
HETATM    4  N3  UNL     1      22.936  12.454  20.253  1.00  0.00    -0.046 N 
HETATM    5  C7  UNL     1      22.922  12.597  18.817  1.00  0.00     0.277 C 
HETATM    6  C8  UNL     1      23.326  14.021  18.501  1.00  0.00     0.212 C 
HETATM    7  F1  UNL     1      22.732  14.495  17.356  1.00  0.00    -0.247 F 
HETATM    8  C9  UNL     1      22.758  14.708  19.752  1.00  0.00     0.148 C 
HETATM    9  C11 UNL     1      23.293  13.760  20.803  1.00  0.00     0.258 C 
HETATM   10  C12 UNL     1      21.633  12.119  20.784  1.00  0.00     0.363 C 
ENDROOT
BRANCH   8  11
HETATM   11  C10 UNL     1      23.281  16.077  19.898  1.00  0.00     0.181 C 
HETATM   12  O1  UNL     1      24.296  16.494  19.330  1.00  0.00    -0.648 OA
HETATM   13  O2  UNL     1      22.580  16.943  20.731  1.00  0.00    -0.648 OA
ENDBRANCH   8  11
BRANCH   1  14
HETATM   14  C4  UNL     1      20.669  10.080  21.906  1.00  0.00     0.103 C 
HETATM   15  N1  UNL     1      20.113   9.229  21.111  1.00  0.00    -0.385 N 
ATOM     16  H12 UNL     1      19.327   8.655  21.416  1.00  0.00     0.157 HD
ATOM     17  H11 UNL     1      20.458   9.121  20.157  1.00  0.00     0.157 HD
BRANCH  14  18
HETATM   18  C2  UNL     1      20.178  10.235  23.263  1.00  0.00    -0.028 C 
HETATM   19  C1  UNL     1      18.910  10.451  23.461  1.00  0.00     0.022 C 
HETATM   20  C3  UNL     1      21.102  10.147  24.414  1.00  0.00     0.051 C 
ENDBRANCH  14  18
ENDBRANCH   1  14
TORSDOF 3
ENDMDL
MODEL 4
REMARK VINA RESULT: -6.001983786      3.278      4.198
REMARK  3 active torsions:
REMARK  status: ('A' for Active; 'I' for Inactive)
REMARK    1  A    between atoms: C2_2  and  C4_4 
REMARK    2  A    between atoms: C4_4  and  N2_8 
REMARK    3  A    between atoms: C9_15  and  C10_16 
ROOT
HETATM    1  N2  UNL     1      22.459  11.610  22.721  1.00  0.00    -0.342 N 
HETATM    2  C5  UNL     1      22.717  10.267  23.178  1.00  0.00     0.154 C 
HETATM    3  C6  UNL     1      21.834  10.092  24.370  1.00  0.00     0.259 C 
HETATM    4  N3  UNL     1      20.807  11.073  24.251  1.00  0.00    -0.046 N 
HETATM    5  C7  UNL     1      20.594  11.704  25.532  1.00  0.00     0.277 C 
HETATM    6  C8  UNL     1      19.150  11.467  25.918  1.00  0.00     0.212 C 
HETATM    7  F1  UNL     1      18.630  12.494  26.668  1.00  0.00    -0.247 F 
HETATM    8  C9  UNL     1      18.535  11.435  24.511  1.00  0.00     0.148 C 
HETATM    9  C11 UNL     1      19.525  10.505  23.844  1.00  0.00     0.258 C 
HETATM   10  C12 UNL     1      21.189  12.021  23.228  1.00  0.00     0.363 C 
ENDROOT
BRANCH   8  11
HETATM   11  C10 UNL     1      17.167  10.890  24.534  1.00  0.00     0.181 C 
HETATM   12  O1  UNL     1      16.296  11.242  25.338  1.00  0.00    -0.648 OA
HETATM   13  O2  UNL     1      16.848   9.922  23.589  1.00  0.00    -0.648 OA
ENDBRANCH   8  11
BRANCH   1  14
HETATM   14  C4  UNL     1      23.296  12.420  21.906  1.00  0.00     0.103 C 
HETATM   15  N1  UNL     1      24.549  12.570  22.175  1.00  0.00    -0.385 N 
ATOM     16  H12 UNL     1      25.149  13.151  21.590  1.00  0.00     0.157 HD
ATOM     17  H11 UNL     1      24.957  12.104  22.985  1.00  0.00     0.157 HD
BRANCH  14  18
HETATM   18  C2  UNL     1      22.715  13.085  20.753  1.00  0.00    -0.028 C 
HETATM   19  C1  UNL     1      22.391  12.381  19.708  1.00  0.00     0.022 C 
HETATM   20  C3  UNL     1      22.489  14.546  20.760  1.00  0.00     0.051 C 
ENDBRANCH  14  18
ENDBRANCH   1  14
TORSDOF 3
ENDMDL
MODEL 5
REMARK VINA RESULT: -5.994746910      6.026      7.901
REMARK  3 active torsions:
REMARK  status: ('A' for Active; 'I' for Inactive)
REMARK    1  A    between atoms: C2_2  and  C4_4 
REMARK    2  A    between atoms: C4_4  and  N2_8 
REMARK    3  A    between atoms: C9_15  and  C10_16 
ROOT
HETATM    1  N2  UNL     1      24.160  11.958  19.456  1.00  0.00    -0.342 N 
HETATM    2  C5  UNL     1      24.676  11.579  18.164  1.00  0.00     0.154 C 
HETATM    3  C6  UNL     1      26.139  11.870  18.235  1.00  0.00     0.259 C 
HETATM    4  N3  UNL     1      26.469  11.913  19.621  1.00  0.00    -0.046 N 
HETATM    5  C7  UNL     1      27.328  13.044  19.876  1.00  0.00     0.277 C 
HETATM    6  C8  UNL     1      28.620  12.509  20.454  1.00  0.00     0.212 C 
HETATM    7  F1  UNL     1      29.206  13.386  21.335  1.00  0.00    -0.247 F 
HETATM    8  C9  UNL     1      28.059  11.277  21.179  1.00  0.00     0.148 C 
HETATM    9  C11 UNL     1      27.193  10.725  20.068  1.00  0.00     0.258 C 
HETATM   10  C12 UNL     1      25.244  11.969  20.387  1.00  0.00     0.363 C 
ENDROOT
BRANCH   8  11
HETATM   11  C10 UNL     1      29.134  10.353  21.578  1.00  0.00     0.181 C 
HETATM   12  O1  UNL     1      30.317  10.684  21.713  1.00  0.00    -0.648 OA
HETATM   13  O2  UNL     1      28.782   9.028  21.815  1.00  0.00    -0.648 OA
ENDBRANCH   8  11
BRANCH   1  14
HETATM   14  C4  UNL     1      22.816  12.276  19.790  1.00  0.00     0.103 C 
HETATM   15  N1  UNL     1      21.878  11.394  19.702  1.00  0.00    -0.385 N 
ATOM     16  H12 UNL     1      20.913  11.622  19.942  1.00  0.00     0.157 HD
ATOM     17  H11 UNL     1      22.095  10.448  19.387  1.00  0.00     0.157 HD
BRANCH  14  18
HETATM   18  C2  UNL     1      22.507  13.623  20.237  1.00  0.00    -0.028 C 
HETATM   19  C1  UNL     1      22.009  13.801  21.425  1.00  0.00     0.022 C 
HETATM   20  C3  UNL     1      22.756  14.785  19.357  1.00  0.00     0.051 C 
ENDBRANCH  14  18
ENDBRANCH   1  14
TORSDOF 3
ENDMDL
