MODEL 1
REMARK VINA RESULT: -5.462612520      0.000      0.000
REMARK  6 active torsions:
REMARK  status: ('A' for Active; 'I' for Inactive)
REMARK    1  A    between atoms: C1_2  and  C2_3 
REMARK       I    between atoms: C1_2  and  N2_15 
REMARK    2  A    between atoms: C3_4  and  C4_5 
REMARK    3  A    between atoms: C5_6  and  C6_7 
REMARK       I    between atoms: C6_7  and  N1_9 
REMARK    4  A    between atoms: N1_9  and  C7_11 
REMARK    5  A    between atoms: N2_15  and  C11_17 
REMARK    6  A    between atoms: C11_17  and  C12_18 
ROOT
HETATM    1  C12 UNL     1      17.135  12.286  25.330  1.00  0.00    -0.051 C 
HETATM    2  C13 UNL     1      16.766  13.437  25.328  1.00  0.00     0.107 C 
HETATM    3  F1  UNL     1      16.364  14.712  25.315  1.00  0.00    -0.144 F 
ENDROOT
BRANCH   1   4
HETATM    4  C11 UNL     1      17.586  10.881  25.309  1.00  0.00     0.220 C 
BRANCH   4   5
HETATM    5  N2  UNL     1      18.823  10.854  24.544  1.00  0.00    -0.340 N 
HETATM    6  C1  UNL     1      18.746  10.350  23.217  1.00  0.00     0.298 C 
HETATM    7  O1  UNL     1      17.683   9.945  22.709  1.00  0.00    -0.258 OA
ATOM      8  H2  UNL     1      19.704  11.180  24.941  1.00  0.00     0.164 HD
BRANCH   6   9
HETATM    9  C2  UNL     1      19.991  10.329  22.463  1.00  0.00     0.009 C 
HETATM   10  C3  UNL     1      21.025  10.333  21.840  1.00  0.00    -0.004 C 
BRANCH  10  11
HETATM   11  C4  UNL     1      22.249  10.339  21.125  1.00  0.00    -0.004 C 
HETATM   12  C5  UNL     1      23.299  10.361  20.520  1.00  0.00     0.009 C 
BRANCH  12  13
HETATM   13  C6  UNL     1      24.553  10.408  19.809  1.00  0.00     0.297 C 
HETATM   14  O2  UNL     1      24.570  10.396  18.538  1.00  0.00    -0.258 OA
HETATM   15  N1  UNL     1      25.758  10.467  20.523  1.00  0.00    -0.346 N 
ATOM     16  H1  UNL     1      25.735  10.477  21.544  1.00  0.00     0.163 HD
BRANCH  15  17
HETATM   17  C7  UNL     1      27.036  10.515  19.841  1.00  0.00     0.085 C 
HETATM   18  C8  UNL     1      27.878  11.724  20.156  1.00  0.00     0.025 C 
HETATM   19  C9  UNL     1      28.992  10.822  20.650  1.00  0.00     0.004 C 
HETATM   20  C10 UNL     1      28.065   9.641  20.564  1.00  0.00     0.025 C 
ENDBRANCH  15  17
ENDBRANCH  12  13
ENDBRANCH  10  11
ENDBRANCH   6   9
ENDBRANCH   4   5
ENDBRANCH   1   4
TORSDOF 6
ENDMDL
MODEL 2
REMARK VINA RESULT: -5.305247180      3.496      4.040
REMARK  6 active torsions:
REMARK  status: ('A' for Active; 'I' for Inactive)
REMARK    1  A    between atoms: C1_2  and  C2_3 
REMARK       I    between atoms: C1_2  and  N2_15 
REMARK    2  A    between atoms: C3_4  and  C4_5 
REMARK    3  A    between atoms: C5_6  and  C6_7 
REMARK       I    between atoms: C6_7  and  N1_9 
REMARK    4  A    between atoms: N1_9  and  C7_11 
REMARK    5  A    between atoms: N2_15  and  C11_17 
REMARK    6  A    between atoms: C11_17  and  C12_18 
ROOT
HETATM    1  C12 UNL     1      18.694  13.326  29.284  1.00  0.00    -0.051 C 
HETATM    2  C13 UNL     1      19.388  13.069  30.240  1.00  0.00     0.107 C 
HETATM    3  F1  UNL     1      20.146  12.792  31.304  1.00  0.00    -0.144 F 
ENDROOT
BRANCH   1   4
HETATM    4  C11 UNL     1      17.830  13.644  28.130  1.00  0.00     0.220 C 
BRANCH   4   5
HETATM    5  N2  UNL     1      18.696  13.687  26.962  1.00  0.00    -0.340 N 
HETATM    6  C1  UNL     1      18.540  12.644  26.009  1.00  0.00     0.298 C 
HETATM    7  O1  UNL     1      17.710  11.725  26.143  1.00  0.00    -0.258 OA
ATOM      8  H2  UNL     1      19.383  14.430  26.833  1.00  0.00     0.164 HD
BRANCH   6   9
HETATM    9  C2  UNL     1      19.412  12.700  24.845  1.00  0.00     0.009 C 
HETATM   10  C3  UNL     1      20.119  12.752  23.868  1.00  0.00    -0.004 C 
BRANCH  10  11
HETATM   11  C4  UNL     1      20.950  12.833  22.722  1.00  0.00    -0.004 C 
HETATM   12  C5  UNL     1      21.647  12.909  21.733  1.00  0.00     0.009 C 
BRANCH  12  13
HETATM   13  C6  UNL     1      22.458  13.012  20.545  1.00  0.00     0.297 C 
HETATM   14  O2  UNL     1      22.445  14.077  19.852  1.00  0.00    -0.258 OA
HETATM   15  N1  UNL     1      23.264  11.933  20.155  1.00  0.00    -0.346 N 
ATOM     16  H1  UNL     1      23.268  11.083  20.718  1.00  0.00     0.163 HD
BRANCH  15  17
HETATM   17  C7  UNL     1      24.092  12.003  18.967  1.00  0.00     0.085 C 
HETATM   18  C8  UNL     1      25.510  12.451  19.207  1.00  0.00     0.025 C 
HETATM   19  C9  UNL     1      26.022  11.155  18.610  1.00  0.00     0.004 C 
HETATM   20  C10 UNL     1      24.619  10.614  18.596  1.00  0.00     0.025 C 
ENDBRANCH  15  17
ENDBRANCH  12  13
ENDBRANCH  10  11
ENDBRANCH   6   9
ENDBRANCH   4   5
ENDBRANCH   1   4
TORSDOF 6
ENDMDL
MODEL 3
REMARK VINA RESULT: -5.275084180      3.151      3.790
REMARK  6 active torsions:
REMARK  status: ('A' for Active; 'I' for Inactive)
REMARK    1  A    between atoms: C1_2  and  C2_3 
REMARK       I    between atoms: C1_2  and  N2_15 
REMARK    2  A    between atoms: C3_4  and  C4_5 
REMARK    3  A    between atoms: C5_6  and  C6_7 
REMARK       I    between atoms: C6_7  and  N1_9 
REMARK    4  A    between atoms: N1_9  and  C7_11 
REMARK    5  A    between atoms: N2_15  and  C11_17 
REMARK    6  A    between atoms: C11_17  and  C12_18 
ROOT
HETATM    1  C12 UNL     1      18.815  13.313  29.233  1.00  0.00    -0.051 C 
HETATM    2  C13 UNL     1      19.429  13.007  30.228  1.00  0.00     0.107 C 
HETATM    3  F1  UNL     1      20.103  12.681  31.335  1.00  0.00    -0.144 F 
ENDROOT
BRANCH   1   4
HETATM    4  C11 UNL     1      18.051  13.697  28.030  1.00  0.00     0.220 C 
BRANCH   4   5
HETATM    5  N2  UNL     1      18.873  13.341  26.884  1.00  0.00    -0.340 N 
HETATM    6  C1  UNL     1      18.286  12.482  25.915  1.00  0.00     0.298 C 
HETATM    7  O1  UNL     1      17.126  12.040  26.018  1.00  0.00    -0.258 OA
ATOM      8  H2  UNL     1      19.825  13.691  26.781  1.00  0.00     0.164 HD
BRANCH   6   9
HETATM    9  C2  UNL     1      19.120  12.135  24.774  1.00  0.00     0.009 C 
HETATM   10  C3  UNL     1      19.795  11.836  23.819  1.00  0.00    -0.004 C 
BRANCH  10  11
HETATM   11  C4  UNL     1      20.579  11.499  22.686  1.00  0.00    -0.004 C 
HETATM   12  C5  UNL     1      21.234  11.200  21.712  1.00  0.00     0.009 C 
BRANCH  12  13
HETATM   13  C6  UNL     1      21.996  10.836  20.543  1.00  0.00     0.297 C 
HETATM   14  O2  UNL     1      21.409  10.362  19.519  1.00  0.00    -0.258 OA
HETATM   15  N1  UNL     1      23.388  11.004  20.536  1.00  0.00    -0.346 N 
ATOM     16  H1  UNL     1      23.850  11.385  21.362  1.00  0.00     0.163 HD
BRANCH  15  17
HETATM   17  C7  UNL     1      24.183  10.647  19.377  1.00  0.00     0.085 C 
HETATM   18  C8  UNL     1      24.443  11.776  18.415  1.00  0.00     0.025 C 
HETATM   19  C9  UNL     1      25.936  11.590  18.597  1.00  0.00     0.004 C 
HETATM   20  C10 UNL     1      25.673  10.638  19.731  1.00  0.00     0.025 C 
ENDBRANCH  15  17
ENDBRANCH  12  13
ENDBRANCH  10  11
ENDBRANCH   6   9
ENDBRANCH   4   5
ENDBRANCH   1   4
TORSDOF 6
ENDMDL
MODEL 4
REMARK VINA RESULT: -5.273106937      2.375      2.597
REMARK  6 active torsions:
REMARK  status: ('A' for Active; 'I' for Inactive)
REMARK    1  A    between atoms: C1_2  and  C2_3 
REMARK       I    between atoms: C1_2  and  N2_15 
REMARK    2  A    between atoms: C3_4  and  C4_5 
REMARK    3  A    between atoms: C5_6  and  C6_7 
REMARK       I    between atoms: C6_7  and  N1_9 
REMARK    4  A    between atoms: N1_9  and  C7_11 
REMARK    5  A    between atoms: N2_15  and  C11_17 
REMARK    6  A    between atoms: C11_17  and  C12_18 
ROOT
HETATM    1  C12 UNL     1      16.614   9.737  24.596  1.00  0.00    -0.051 C 
HETATM    2  C13 UNL     1      15.956   8.773  24.281  1.00  0.00     0.107 C 
HETATM    3  F1  UNL     1      15.227   7.712  23.920  1.00  0.00    -0.144 F 
ENDROOT
BRANCH   1   4
HETATM    4  C11 UNL     1      17.420  10.919  24.960  1.00  0.00     0.220 C 
BRANCH   4   5
HETATM    5  N2  UNL     1      18.646  10.840  24.181  1.00  0.00    -0.340 N 
HETATM    6  C1  UNL     1      19.262  12.071  23.827  1.00  0.00     0.298 C 
HETATM    7  O1  UNL     1      18.795  13.179  24.154  1.00  0.00    -0.258 OA
ATOM      8  H2  UNL     1      19.045   9.944  23.902  1.00  0.00     0.164 HD
BRANCH   6   9
HETATM    9  C2  UNL     1      20.488  11.978  23.049  1.00  0.00     0.009 C 
HETATM   10  C3  UNL     1      21.509  11.921  22.406  1.00  0.00    -0.004 C 
BRANCH  10  11
HETATM   11  C4  UNL     1      22.718  11.854  21.669  1.00  0.00    -0.004 C 
HETATM   12  C5  UNL     1      23.757  11.812  21.048  1.00  0.00     0.009 C 
BRANCH  12  13
HETATM   13  C6  UNL     1      25.004  11.777  20.323  1.00  0.00     0.297 C 
HETATM   14  O2  UNL     1      25.135  12.436  19.244  1.00  0.00    -0.258 OA
HETATM   15  N1  UNL     1      26.074  11.014  20.811  1.00  0.00    -0.346 N 
ATOM     16  H1  UNL     1      25.959  10.489  21.678  1.00  0.00     0.163 HD
BRANCH  15  17
HETATM   17  C7  UNL     1      27.341  10.958  20.107  1.00  0.00     0.085 C 
HETATM   18  C8  UNL     1      28.370  11.952  20.574  1.00  0.00     0.025 C 
HETATM   19  C9  UNL     1      29.322  10.818  20.896  1.00  0.00     0.004 C 
HETATM   20  C10 UNL     1      28.214   9.829  20.663  1.00  0.00     0.025 C 
ENDBRANCH  15  17
ENDBRANCH  12  13
ENDBRANCH  10  11
ENDBRANCH   6   9
ENDBRANCH   4   5
ENDBRANCH   1   4
TORSDOF 6
ENDMDL
MODEL 5
REMARK VINA RESULT: -5.241798944      3.552      3.913
REMARK  6 active torsions:
REMARK  status: ('A' for Active; 'I' for Inactive)
REMARK    1  A    between atoms: C1_2  and  C2_3 
REMARK       I    between atoms: C1_2  and  N2_15 
REMARK    2  A    between atoms: C3_4  and  C4_5 
REMARK    3  A    between atoms: C5_6  and  C6_7 
REMARK       I    between atoms: C6_7  and  N1_9 
REMARK    4  A    between atoms: N1_9  and  C7_11 
REMARK    5  A    between atoms: N2_15  and  C11_17 
REMARK    6  A    between atoms: C11_17  and  C12_18 
ROOT
HETATM    1  C12 UNL     1      16.485   9.769  24.722  1.00  0.00    -0.051 C 
HETATM    2  C13 UNL     1      15.949   8.777  24.287  1.00  0.00     0.107 C 
HETATM    3  F1  UNL     1      15.362   7.682  23.795  1.00  0.00    -0.144 F 
ENDROOT
BRANCH   1   4
HETATM    4  C11 UNL     1      17.155  10.979  25.236  1.00  0.00     0.220 C 
BRANCH   4   5
HETATM    5  N2  UNL     1      18.020  11.460  24.170  1.00  0.00    -0.340 N 
HETATM    6  C1  UNL     1      19.412  11.522  24.450  1.00  0.00     0.298 C 
HETATM    7  O1  UNL     1      19.895  11.187  25.549  1.00  0.00    -0.258 OA
ATOM      8  H2  UNL     1      17.645  11.740  23.264  1.00  0.00     0.164 HD
BRANCH   6   9
HETATM    9  C2  UNL     1      20.265  12.004  23.375  1.00  0.00     0.009 C 
HETATM   10  C3  UNL     1      20.955  12.408  22.470  1.00  0.00    -0.004 C 
BRANCH  10  11
HETATM   11  C4  UNL     1      21.761  12.900  21.413  1.00  0.00    -0.004 C 
HETATM   12  C5  UNL     1      22.435  13.320  20.498  1.00  0.00     0.009 C 
BRANCH  12  13
HETATM   13  C6  UNL     1      23.218  13.823  19.396  1.00  0.00     0.297 C 
HETATM   14  O2  UNL     1      22.808  13.679  18.201  1.00  0.00    -0.258 OA
HETATM   15  N1  UNL     1      24.436  14.472  19.643  1.00  0.00    -0.346 N 
ATOM     16  H1  UNL     1      24.757  14.583  20.605  1.00  0.00     0.163 HD
BRANCH  15  17
HETATM   17  C7  UNL     1      25.247  14.990  18.559  1.00  0.00     0.085 C 
HETATM   18  C8  UNL     1      26.219  16.070  18.954  1.00  0.00     0.025 C 
HETATM   19  C9  UNL     1      27.370  15.223  18.449  1.00  0.00     0.004 C 
HETATM   20  C10 UNL     1      26.432  14.059  18.283  1.00  0.00     0.025 C 
ENDBRANCH  15  17
ENDBRANCH  12  13
ENDBRANCH  10  11
ENDBRANCH   6   9
ENDBRANCH   4   5
ENDBRANCH   1   4
TORSDOF 6
ENDMDL
