MODEL 1
REMARK VINA RESULT: -5.161967329      0.000      0.000
REMARK  2 active torsions:
REMARK  status: ('A' for Active; 'I' for Inactive)
REMARK    1  A    between atoms: N3_13  and  C7_14 
REMARK    2  A    between atoms: N4_20  and  O1_22 
ROOT
HETATM    1  C1  UNL     1      19.873 -38.839 -29.912  1.00  0.00     0.038 C 
HETATM    2  C2  UNL     1      18.785 -39.831 -29.558  1.00  0.00     0.129 C 
HETATM    3  N1  UNL     1      17.936 -40.049 -30.699  1.00  0.00    -0.362 N 
ATOM      4  H1  UNL     1      18.081 -40.873 -31.281  1.00  0.00     0.162 HD
HETATM    5  C3  UNL     1      16.907 -39.141 -31.025  1.00  0.00     0.135 C 
HETATM    6  N2  UNL     1      16.548 -38.881 -32.235  1.00  0.00    -0.380 N 
ATOM      7  H21 UNL     1      15.804 -38.225 -32.471  1.00  0.00     0.158 HD
ATOM      8  H22 UNL     1      17.032 -39.354 -32.998  1.00  0.00     0.158 HD
HETATM    9  S1  UNL     1      16.059 -38.314 -29.692  1.00  0.00    -0.078 SA
HETATM   10  C4  UNL     1      16.999 -38.531 -28.128  1.00  0.00     0.061 C 
HETATM   11  C5  UNL     1      16.045 -39.106 -27.147  1.00  0.00     0.057 C 
HETATM   12  C6  UNL     1      15.497 -38.134 -26.133  1.00  0.00     0.275 C 
HETATM   13  N3  UNL     1      16.610 -37.453 -25.551  1.00  0.00     0.092 N 
HETATM   14  C10 UNL     1      17.126 -36.551 -26.545  1.00  0.00     0.275 C 
HETATM   15  C11 UNL     1      17.631 -37.231 -27.757  1.00  0.00     0.057 C 
HETATM   16  C12 UNL     1      18.111 -39.507 -28.309  1.00  0.00     0.051 C 
HETATM   17  N4  UNL     1      18.488 -40.102 -27.200  1.00  0.00    -0.274 N 
ATOM     18  H4  UNL     1      18.022 -39.881 -26.319  1.00  0.00     0.193 HD
ENDROOT
BRANCH  17  19
HETATM   19  O1  UNL     1      19.510 -41.022 -27.224  1.00  0.00    -0.290 OA
ATOM     20  H1  UNL     1      19.614 -41.600 -27.971  1.00  0.00     0.244 HD
ENDBRANCH  17  19
BRANCH  13  21
HETATM   21  C7  UNL     1      16.389 -36.879 -24.277  1.00  0.00     0.215 C 
HETATM   22  C8  UNL     1      15.660 -35.582 -24.270  1.00  0.00     0.042 C 
HETATM   23  C9  UNL     1      15.673 -37.874 -23.389  1.00  0.00     0.042 C 
ENDBRANCH  13  21
TORSDOF 2
ENDMDL
MODEL 2
REMARK VINA RESULT: -5.145380262      4.249      5.399
REMARK  2 active torsions:
REMARK  status: ('A' for Active; 'I' for Inactive)
REMARK    1  A    between atoms: N3_13  and  C7_14 
REMARK    2  A    between atoms: N4_20  and  O1_22 
ROOT
HETATM    1  C1  UNL     1      20.603 -34.464 -30.805  1.00  0.00     0.038 C 
HETATM    2  C2  UNL     1      20.260 -33.918 -29.435  1.00  0.00     0.129 C 
HETATM    3  N1  UNL     1      21.465 -33.726 -28.672  1.00  0.00    -0.362 N 
ATOM      4  H1  UNL     1      21.875 -32.794 -28.610  1.00  0.00     0.162 HD
HETATM    5  C3  UNL     1      22.089 -34.804 -28.011  1.00  0.00     0.135 C 
HETATM    6  N2  UNL     1      23.365 -34.905 -27.866  1.00  0.00    -0.380 N 
ATOM      7  H21 UNL     1      23.815 -35.685 -27.388  1.00  0.00     0.158 HD
ATOM      8  H22 UNL     1      23.957 -34.168 -28.251  1.00  0.00     0.158 HD
HETATM    9  S1  UNL     1      21.054 -36.091 -27.338  1.00  0.00    -0.078 SA
HETATM   10  C4  UNL     1      19.352 -35.936 -28.012  1.00  0.00     0.061 C 
HETATM   11  C5  UNL     1      18.445 -35.870 -26.837  1.00  0.00     0.057 C 
HETATM   12  C6  UNL     1      17.700 -37.142 -26.523  1.00  0.00     0.275 C 
HETATM   13  N3  UNL     1      17.077 -37.580 -27.732  1.00  0.00     0.092 N 
HETATM   14  C10 UNL     1      18.115 -38.075 -28.593  1.00  0.00     0.275 C 
HETATM   15  C11 UNL     1      19.108 -37.048 -28.977  1.00  0.00     0.057 C 
HETATM   16  C12 UNL     1      19.198 -34.668 -28.778  1.00  0.00     0.051 C 
HETATM   17  N4  UNL     1      17.962 -34.227 -28.846  1.00  0.00    -0.274 N 
ATOM     18  H4  UNL     1      17.211 -34.745 -28.390  1.00  0.00     0.193 HD
ENDROOT
BRANCH  17  19
HETATM   19  O1  UNL     1      17.679 -33.069 -29.530  1.00  0.00    -0.290 OA
ATOM     20  H1  UNL     1      16.821 -32.943 -29.921  1.00  0.00     0.244 HD
ENDBRANCH  17  19
BRANCH  13  21
HETATM   21  C7  UNL     1      15.962 -38.438 -27.580  1.00  0.00     0.215 C 
HETATM   22  C8  UNL     1      16.171 -39.848 -28.006  1.00  0.00     0.042 C 
HETATM   23  C9  UNL     1      15.487 -38.404 -26.142  1.00  0.00     0.042 C 
ENDBRANCH  13  21
TORSDOF 2
ENDMDL
MODEL 3
REMARK VINA RESULT: -5.108728544      2.240      2.939
REMARK  2 active torsions:
REMARK  status: ('A' for Active; 'I' for Inactive)
REMARK    1  A    between atoms: N3_13  and  C7_14 
REMARK    2  A    between atoms: N4_20  and  O1_22 
ROOT
HETATM    1  C1  UNL     1      14.778 -38.140 -31.388  1.00  0.00     0.038 C 
HETATM    2  C2  UNL     1      16.276 -38.203 -31.173  1.00  0.00     0.129 C 
HETATM    3  N1  UNL     1      16.796 -39.421 -31.735  1.00  0.00    -0.362 N 
ATOM      4  H1  UNL     1      17.232 -39.402 -32.656  1.00  0.00     0.162 HD
HETATM    5  C3  UNL     1      16.713 -40.641 -31.032  1.00  0.00     0.135 C 
HETATM    6  N2  UNL     1      16.551 -41.782 -31.608  1.00  0.00    -0.380 N 
ATOM      7  H21 UNL     1      16.490 -42.664 -31.100  1.00  0.00     0.158 HD
ATOM      8  H22 UNL     1      16.476 -41.806 -32.625  1.00  0.00     0.158 HD
HETATM    9  S1  UNL     1      16.843 -40.599 -29.253  1.00  0.00    -0.078 SA
HETATM   10  C4  UNL     1      16.661 -38.871 -28.657  1.00  0.00     0.061 C 
HETATM   11  C5  UNL     1      17.860 -38.590 -27.828  1.00  0.00     0.057 C 
HETATM   12  C6  UNL     1      17.638 -38.630 -26.337  1.00  0.00     0.275 C 
HETATM   13  N3  UNL     1      16.510 -37.802 -26.052  1.00  0.00     0.092 N 
HETATM   14  C10 UNL     1      15.342 -38.494 -26.522  1.00  0.00     0.275 C 
HETATM   15  C11 UNL     1      15.337 -38.727 -27.982  1.00  0.00     0.057 C 
HETATM   16  C12 UNL     1      16.661 -37.913 -29.799  1.00  0.00     0.051 C 
HETATM   17  N4  UNL     1      17.049 -36.698 -29.481  1.00  0.00    -0.274 N 
ATOM     18  H4  UNL     1      17.320 -36.486 -28.521  1.00  0.00     0.193 HD
ENDROOT
BRANCH  17  19
HETATM   19  O1  UNL     1      17.089 -35.714 -30.440  1.00  0.00    -0.290 OA
ATOM     20  H1  UNL     1      17.562 -34.907 -30.275  1.00  0.00     0.244 HD
ENDBRANCH  17  19
BRANCH  13  21
HETATM   21  C7  UNL     1      16.423 -37.306 -24.730  1.00  0.00     0.215 C 
HETATM   22  C8  UNL     1      15.877 -35.929 -24.591  1.00  0.00     0.042 C 
HETATM   23  C9  UNL     1      15.615 -38.265 -23.880  1.00  0.00     0.042 C 
ENDBRANCH  13  21
TORSDOF 2
ENDMDL
MODEL 4
REMARK VINA RESULT: -5.057364978      4.025      5.326
REMARK  2 active torsions:
REMARK  status: ('A' for Active; 'I' for Inactive)
REMARK    1  A    between atoms: N3_13  and  C7_14 
REMARK    2  A    between atoms: N4_20  and  O1_22 
ROOT
HETATM    1  C1  UNL     1      20.353 -34.656 -30.635  1.00  0.00     0.038 C 
HETATM    2  C2  UNL     1      19.974 -34.256 -29.224  1.00  0.00     0.129 C 
HETATM    3  N1  UNL     1      21.159 -33.925 -28.478  1.00  0.00    -0.362 N 
ATOM      4  H1  UNL     1      21.421 -32.947 -28.363  1.00  0.00     0.162 HD
HETATM    5  C3  UNL     1      21.963 -34.932 -27.903  1.00  0.00     0.135 C 
HETATM    6  N2  UNL     1      23.243 -34.840 -27.794  1.00  0.00    -0.380 N 
ATOM      7  H21 UNL     1      23.824 -35.568 -27.379  1.00  0.00     0.158 HD
ATOM      8  H22 UNL     1      23.702 -33.997 -28.143  1.00  0.00     0.158 HD
HETATM    9  S1  UNL     1      21.162 -36.405 -27.295  1.00  0.00    -0.078 SA
HETATM   10  C4  UNL     1      19.436 -36.477 -27.918  1.00  0.00     0.061 C 
HETATM   11  C5  UNL     1      18.568 -36.626 -26.722  1.00  0.00     0.057 C 
HETATM   12  C6  UNL     1      18.040 -38.017 -26.476  1.00  0.00     0.275 C 
HETATM   13  N3  UNL     1      17.453 -38.470 -27.697  1.00  0.00     0.092 N 
HETATM   14  C10 UNL     1      18.527 -38.742 -28.613  1.00  0.00     0.275 C 
HETATM   15  C11 UNL     1      19.336 -37.551 -28.949  1.00  0.00     0.057 C 
HETATM   16  C12 UNL     1      19.063 -35.203 -28.595  1.00  0.00     0.051 C 
HETATM   17  N4  UNL     1      17.771 -34.958 -28.606  1.00  0.00    -0.274 N 
ATOM     18  H4  UNL     1      17.125 -35.615 -28.168  1.00  0.00     0.193 HD
ENDROOT
BRANCH  17  19
HETATM   19  O1  UNL     1      17.290 -33.818 -29.205  1.00  0.00    -0.290 OA
ATOM     20  H1  UNL     1      16.358 -33.633 -29.199  1.00  0.00     0.244 HD
ENDBRANCH  17  19
BRANCH  13  21
HETATM   21  C7  UNL     1      16.491 -39.501 -27.577  1.00  0.00     0.215 C 
HETATM   22  C8  UNL     1      15.071 -39.058 -27.544  1.00  0.00     0.042 C 
HETATM   23  C9  UNL     1      16.687 -40.510 -28.689  1.00  0.00     0.042 C 
ENDBRANCH  13  21
TORSDOF 2
ENDMDL
MODEL 5
REMARK VINA RESULT: -4.918506566      2.239      3.130
REMARK  2 active torsions:
REMARK  status: ('A' for Active; 'I' for Inactive)
REMARK    1  A    between atoms: N3_13  and  C7_14 
REMARK    2  A    between atoms: N4_20  and  O1_22 
ROOT
HETATM    1  C1  UNL     1      15.929 -38.537 -30.430  1.00  0.00     0.038 C 
HETATM    2  C2  UNL     1      17.219 -37.878 -29.988  1.00  0.00     0.129 C 
HETATM    3  N1  UNL     1      18.323 -38.773 -30.211  1.00  0.00    -0.362 N 
ATOM      4  H1  UNL     1      18.901 -38.659 -31.042  1.00  0.00     0.162 HD
HETATM    5  C3  UNL     1      18.618 -39.807 -29.297  1.00  0.00     0.135 C 
HETATM    6  N2  UNL     1      19.095 -40.950 -29.650  1.00  0.00    -0.380 N 
ATOM      7  H21 UNL     1      19.308 -41.697 -28.989  1.00  0.00     0.158 HD
ATOM      8  H22 UNL     1      19.266 -41.120 -30.641  1.00  0.00     0.158 HD
HETATM    9  S1  UNL     1      18.318 -39.510 -27.564  1.00  0.00    -0.078 SA
HETATM   10  C4  UNL     1      17.283 -38.006 -27.361  1.00  0.00     0.061 C 
HETATM   11  C5  UNL     1      18.027 -37.112 -26.437  1.00  0.00     0.057 C 
HETATM   12  C6  UNL     1      17.518 -37.082 -25.018  1.00  0.00     0.275 C 
HETATM   13  N3  UNL     1      16.112 -36.841 -25.075  1.00  0.00     0.092 N 
HETATM   14  C10 UNL     1      15.491 -38.042 -25.564  1.00  0.00     0.275 C 
HETATM   15  C11 UNL     1      15.913 -38.413 -26.932  1.00  0.00     0.057 C 
HETATM   16  C12 UNL     1      17.126 -37.291 -28.659  1.00  0.00     0.051 C 
HETATM   17  N4  UNL     1      16.872 -36.007 -28.538  1.00  0.00    -0.274 N 
ATOM     18  H4  UNL     1      16.805 -35.587 -27.611  1.00  0.00     0.193 HD
ENDROOT
BRANCH  17  19
HETATM   19  O1  UNL     1      16.698 -35.230 -29.658  1.00  0.00    -0.290 OA
ATOM     20  H1  UNL     1      16.973 -34.320 -29.655  1.00  0.00     0.244 HD
ENDBRANCH  17  19
BRANCH  13  21
HETATM   21  C7  UNL     1      15.528 -36.296 -23.907  1.00  0.00     0.215 C 
HETATM   22  C8  UNL     1      16.328 -36.434 -22.660  1.00  0.00     0.042 C 
HETATM   23  C9  UNL     1      15.190 -34.839 -24.140  1.00  0.00     0.042 C 
ENDBRANCH  13  21
TORSDOF 2
ENDMDL
