MODEL 1
REMARK VINA RESULT: -7.110107626      0.000      0.000
REMARK  2 active torsions:
REMARK  status: ('A' for Active; 'I' for Inactive)
REMARK    1  A    between atoms: C5_10  and  N3_11 
REMARK    2  A    between atoms: N3_11  and  C6_13 
ROOT
HETATM    1  C1  UNL     1      19.086 -34.780 -29.544  1.00  0.00     0.076 C 
HETATM    2  C2  UNL     1      18.327 -35.612 -28.536  1.00  0.00     0.049 A 
HETATM    3  N1  UNL     1      18.269 -35.502 -27.238  1.00  0.00    -0.339 N 
ATOM      4  H1  UNL     1      18.793 -34.764 -26.767  1.00  0.00     0.168 HD
HETATM    5  C3  UNL     1      17.537 -36.341 -26.531  1.00  0.00     0.130 A 
HETATM    6  C4  UNL     1      16.866 -37.302 -27.244  1.00  0.00     0.103 A 
HETATM    7  S1  UNL     1      17.305 -36.964 -28.845  1.00  0.00    -0.065 SA
HETATM    8  S2  UNL     1      15.857 -38.440 -26.271  1.00  0.00    -0.010 SA
HETATM    9  N2  UNL     1      15.102 -37.344 -25.049  1.00  0.00    -0.128 NA
HETATM   10  C5  UNL     1      16.146 -36.587 -24.390  1.00  0.00     0.287 C 
HETATM   11  N4  UNL     1      17.352 -36.382 -25.096  1.00  0.00    -0.340 N 
ATOM     12  H4  UNL     1      18.189 -36.248 -24.529  1.00  0.00     0.164 HD
ENDROOT
BRANCH  10  13
HETATM   13  N3  UNL     1      15.623 -35.361 -23.914  1.00  0.00    -0.384 N 
ATOM     14  H3  UNL     1      15.473 -34.590 -24.563  1.00  0.00     0.157 HD
BRANCH  13  15
HETATM   15  C6  UNL     1      15.312 -35.200 -22.564  1.00  0.00     0.079 C 
HETATM   16  C7  UNL     1      15.628 -33.846 -21.979  1.00  0.00     0.025 C 
HETATM   17  C8  UNL     1      14.997 -33.650 -20.657  1.00  0.00     0.002 C 
HETATM   18  C9  UNL     1      14.956 -34.834 -19.759  1.00  0.00     0.000 C 
HETATM   19  C10 UNL     1      15.118 -36.158 -20.381  1.00  0.00     0.002 C 
HETATM   20  C11 UNL     1      15.956 -36.201 -21.644  1.00  0.00     0.025 C 
ENDBRANCH  13  15
ENDBRANCH  10  13
TORSDOF 2
ENDMDL
MODEL 2
REMARK VINA RESULT: -6.949153482      0.386      1.253
REMARK  2 active torsions:
REMARK  status: ('A' for Active; 'I' for Inactive)
REMARK    1  A    between atoms: C5_10  and  N3_11 
REMARK    2  A    between atoms: N3_11  and  C6_13 
ROOT
HETATM    1  C1  UNL     1      19.276 -34.719 -29.466  1.00  0.00     0.076 C 
HETATM    2  C2  UNL     1      18.512 -35.602 -28.506  1.00  0.00     0.049 A 
HETATM    3  N1  UNL     1      18.401 -35.523 -27.209  1.00  0.00    -0.339 N 
ATOM      4  H1  UNL     1      18.877 -34.776 -26.703  1.00  0.00     0.168 HD
HETATM    5  C3  UNL     1      17.676 -36.406 -26.549  1.00  0.00     0.130 A 
HETATM    6  C4  UNL     1      17.072 -37.376 -27.307  1.00  0.00     0.103 A 
HETATM    7  S1  UNL     1      17.558 -36.986 -28.883  1.00  0.00    -0.065 SA
HETATM    8  S2  UNL     1      16.072 -38.574 -26.398  1.00  0.00    -0.010 SA
HETATM    9  N2  UNL     1      15.229 -37.537 -25.183  1.00  0.00    -0.128 NA
HETATM   10  C5  UNL     1      16.217 -36.754 -24.469  1.00  0.00     0.287 C 
HETATM   11  N4  UNL     1      17.439 -36.487 -25.123  1.00  0.00    -0.340 N 
ATOM     12  H4  UNL     1      18.248 -36.333 -24.522  1.00  0.00     0.164 HD
ENDROOT
BRANCH  10  13
HETATM   13  N3  UNL     1      15.628 -35.561 -23.987  1.00  0.00    -0.384 N 
ATOM     14  H3  UNL     1      15.203 -34.907 -24.644  1.00  0.00     0.157 HD
BRANCH  13  15
HETATM   15  C6  UNL     1      15.623 -35.273 -22.623  1.00  0.00     0.079 C 
HETATM   16  C7  UNL     1      15.175 -36.396 -21.721  1.00  0.00     0.025 C 
HETATM   17  C8  UNL     1      15.488 -36.127 -20.301  1.00  0.00     0.002 C 
HETATM   18  C9  UNL     1      15.330 -34.723 -19.841  1.00  0.00     0.000 C 
HETATM   19  C10 UNL     1      15.320 -33.672 -20.871  1.00  0.00     0.002 C 
HETATM   20  C11 UNL     1      14.792 -34.081 -22.233  1.00  0.00     0.025 C 
ENDBRANCH  13  15
ENDBRANCH  10  13
TORSDOF 2
ENDMDL
MODEL 3
REMARK VINA RESULT: -6.293026790      2.153      3.293
REMARK  2 active torsions:
REMARK  status: ('A' for Active; 'I' for Inactive)
REMARK    1  A    between atoms: C5_10  and  N3_11 
REMARK    2  A    between atoms: N3_11  and  C6_13 
ROOT
HETATM    1  C1  UNL     1      17.870 -41.802 -29.079  1.00  0.00     0.076 C 
HETATM    2  C2  UNL     1      17.640 -40.352 -28.715  1.00  0.00     0.049 A 
HETATM    3  N1  UNL     1      16.881 -39.836 -27.788  1.00  0.00    -0.339 N 
ATOM      4  H1  UNL     1      16.333 -40.446 -27.182  1.00  0.00     0.168 HD
HETATM    5  C3  UNL     1      16.821 -38.527 -27.632  1.00  0.00     0.130 A 
HETATM    6  C4  UNL     1      17.590 -37.783 -28.489  1.00  0.00     0.103 A 
HETATM    7  S1  UNL     1      18.342 -38.961 -29.448  1.00  0.00    -0.065 SA
HETATM    8  S2  UNL     1      17.511 -35.993 -28.262  1.00  0.00    -0.010 SA
HETATM    9  N2  UNL     1      17.512 -35.828 -26.463  1.00  0.00    -0.128 NA
HETATM   10  C5  UNL     1      16.457 -36.657 -25.915  1.00  0.00     0.287 C 
HETATM   11  N4  UNL     1      16.041 -37.773 -26.674  1.00  0.00    -0.340 N 
ATOM     12  H4  UNL     1      15.080 -38.083 -26.529  1.00  0.00     0.164 HD
ENDROOT
BRANCH  10  13
HETATM   13  N3  UNL     1      16.783 -37.036 -24.592  1.00  0.00    -0.384 N 
ATOM     14  H3  UNL     1      17.382 -37.845 -24.431  1.00  0.00     0.157 HD
BRANCH  13  15
HETATM   15  C6  UNL     1      16.290 -36.312 -23.506  1.00  0.00     0.079 C 
HETATM   16  C7  UNL     1      15.722 -37.135 -22.377  1.00  0.00     0.025 C 
HETATM   17  C8  UNL     1      15.511 -36.333 -21.153  1.00  0.00     0.002 C 
HETATM   18  C9  UNL     1      15.027 -34.941 -21.349  1.00  0.00     0.000 C 
HETATM   19  C10 UNL     1      15.220 -34.340 -22.678  1.00  0.00     0.002 C 
HETATM   20  C11 UNL     1      15.228 -35.304 -23.850  1.00  0.00     0.025 C 
ENDBRANCH  13  15
ENDBRANCH  10  13
TORSDOF 2
ENDMDL
MODEL 4
REMARK VINA RESULT: -5.848485810      2.303      6.458
REMARK  2 active torsions:
REMARK  status: ('A' for Active; 'I' for Inactive)
REMARK    1  A    between atoms: C5_10  and  N3_11 
REMARK    2  A    between atoms: N3_11  and  C6_13 
ROOT
HETATM    1  C1  UNL     1      15.316 -33.520 -20.604  1.00  0.00     0.076 C 
HETATM    2  C2  UNL     1      15.428 -34.630 -21.625  1.00  0.00     0.049 A 
HETATM    3  N1  UNL     1      15.462 -34.563 -22.928  1.00  0.00    -0.339 N 
ATOM      4  H1  UNL     1      15.410 -33.656 -23.392  1.00  0.00     0.168 HD
HETATM    5  C3  UNL     1      15.565 -35.664 -23.646  1.00  0.00     0.130 A 
HETATM    6  C4  UNL     1      15.631 -36.839 -22.942  1.00  0.00     0.103 A 
HETATM    7  S1  UNL     1      15.545 -36.322 -21.331  1.00  0.00    -0.065 SA
HETATM    8  S2  UNL     1      15.782 -38.341 -23.932  1.00  0.00    -0.010 SA
HETATM    9  N2  UNL     1      16.946 -37.843 -25.222  1.00  0.00    -0.128 NA
HETATM   10  C5  UNL     1      16.461 -36.630 -25.848  1.00  0.00     0.287 C 
HETATM   11  N4  UNL     1      15.614 -35.794 -25.087  1.00  0.00    -0.340 N 
ATOM     12  H4  UNL     1      14.960 -35.216 -25.615  1.00  0.00     0.164 HD
ENDROOT
BRANCH  10  13
HETATM   13  N3  UNL     1      17.547 -35.898 -26.383  1.00  0.00    -0.384 N 
ATOM     14  H3  UNL     1      17.479 -34.885 -26.471  1.00  0.00     0.157 HD
BRANCH  13  15
HETATM   15  C6  UNL     1      18.710 -36.552 -26.792  1.00  0.00     0.079 C 
HETATM   16  C7  UNL     1      19.904 -35.664 -27.037  1.00  0.00     0.025 C 
HETATM   17  C8  UNL     1      21.157 -36.439 -27.160  1.00  0.00     0.002 C 
HETATM   18  C9  UNL     1      21.065 -37.741 -27.872  1.00  0.00     0.000 C 
HETATM   19  C10 UNL     1      19.731 -38.350 -27.993  1.00  0.00     0.002 C 
HETATM   20  C11 UNL     1      18.560 -37.386 -28.035  1.00  0.00     0.025 C 
ENDBRANCH  13  15
ENDBRANCH  10  13
TORSDOF 2
ENDMDL
MODEL 5
REMARK VINA RESULT: -5.728902324      1.577      2.580
REMARK  2 active torsions:
REMARK  status: ('A' for Active; 'I' for Inactive)
REMARK    1  A    between atoms: C5_10  and  N3_11 
REMARK    2  A    between atoms: N3_11  and  C6_13 
ROOT
HETATM    1  C1  UNL     1      16.802 -33.660 -31.283  1.00  0.00     0.076 C 
HETATM    2  C2  UNL     1      17.292 -34.654 -30.255  1.00  0.00     0.049 A 
HETATM    3  N1  UNL     1      17.285 -34.579 -28.953  1.00  0.00    -0.339 N 
ATOM      4  H1  UNL     1      16.906 -33.750 -28.494  1.00  0.00     0.168 HD
HETATM    5  C3  UNL     1      17.766 -35.570 -28.228  1.00  0.00     0.130 A 
HETATM    6  C4  UNL     1      18.255 -36.644 -28.925  1.00  0.00     0.103 A 
HETATM    7  S1  UNL     1      18.008 -36.194 -30.540  1.00  0.00    -0.065 SA
HETATM    8  S2  UNL     1      18.902 -38.002 -27.925  1.00  0.00    -0.010 SA
HETATM    9  N2  UNL     1      17.699 -38.103 -26.581  1.00  0.00    -0.128 NA
HETATM   10  C5  UNL     1      17.553 -36.792 -25.982  1.00  0.00     0.287 C 
HETATM   11  N4  UNL     1      17.849 -35.669 -26.786  1.00  0.00    -0.340 N 
ATOM     12  H4  UNL     1      18.156 -34.831 -26.293  1.00  0.00     0.164 HD
ENDROOT
BRANCH  10  13
HETATM   13  N3  UNL     1      16.272 -36.672 -25.395  1.00  0.00    -0.384 N 
ATOM     14  H3  UNL     1      15.443 -36.924 -25.933  1.00  0.00     0.157 HD
BRANCH  13  15
HETATM   15  C6  UNL     1      16.132 -36.212 -24.085  1.00  0.00     0.079 C 
HETATM   16  C7  UNL     1      15.785 -37.261 -23.059  1.00  0.00     0.025 C 
HETATM   17  C8  UNL     1      15.958 -36.766 -21.676  1.00  0.00     0.002 C 
HETATM   18  C9  UNL     1      15.573 -35.353 -21.425  1.00  0.00     0.000 C 
HETATM   19  C10 UNL     1      15.487 -34.459 -22.591  1.00  0.00     0.002 C 
HETATM   20  C11 UNL     1      15.117 -35.116 -23.907  1.00  0.00     0.025 C 
ENDBRANCH  13  15
ENDBRANCH  10  13
TORSDOF 2
ENDMDL
