MODEL 1
REMARK VINA RESULT: -5.177028681      0.000      0.000
REMARK  3 active torsions:
REMARK  status: ('A' for Active; 'I' for Inactive)
REMARK    1  A    between atoms: N1_4  and  C4_6 
REMARK    2  A    between atoms: C7_10  and  O1_11 
REMARK    3  A    between atoms: C8_13  and  C9_14 
ROOT
HETATM    1  C4  UNL     1      16.538 -37.733 -25.510  1.00  0.00     0.085 A 
HETATM    2  C5  UNL     1      15.736 -38.372 -26.422  1.00  0.00     0.148 A 
HETATM    3  N2  UNL     1      16.253 -38.263 -27.659  1.00  0.00    -0.269 N 
HETATM    4  C6  UNL     1      17.415 -37.547 -27.588  1.00  0.00     0.100 A 
HETATM    5  C7  UNL     1      17.578 -37.227 -26.265  1.00  0.00     0.120 A 
HETATM    6  C8  UNL     1      18.215 -37.267 -28.758  1.00  0.00     0.248 C 
HETATM    7  N3  UNL     1      17.325 -36.800 -29.805  1.00  0.00    -0.059 N 
ATOM      8  H31 UNL     1      17.770 -36.099 -30.397  1.00  0.00     0.278 HD
ATOM      9  H32 UNL     1      16.569 -36.225 -29.431  1.00  0.00     0.278 HD
HETATM   10  C13 UNL     1      16.828 -37.903 -30.568  1.00  0.00     0.202 C 
HETATM   11  C14 UNL     1      16.860 -37.646 -32.062  1.00  0.00     0.041 C 
HETATM   12  C15 UNL     1      15.463 -38.341 -30.107  1.00  0.00     0.172 C 
HETATM   13  N4  UNL     1      15.577 -38.839 -28.750  1.00  0.00    -0.328 N 
ATOM     14  H4  UNL     1      15.105 -39.724 -28.562  1.00  0.00     0.180 HD
ENDROOT
BRANCH   1  15
HETATM   15  N1  UNL     1      16.304 -37.643 -24.117  1.00  0.00    -0.361 N 
HETATM   16  C2  UNL     1      15.855 -36.618 -23.512  1.00  0.00    -0.021 C 
HETATM   17  C1  UNL     1      15.512 -35.357 -24.195  1.00  0.00     0.062 C 
HETATM   18  C3  UNL     1      15.669 -36.698 -22.041  1.00  0.00     0.062 C 
ATOM     19  H1  UNL     1      16.512 -38.467 -23.552  1.00  0.00     0.165 HD
ENDBRANCH   1  15
BRANCH   5  20
HETATM   20  O1  UNL     1      18.618 -36.510 -25.762  1.00  0.00    -0.356 OA
ATOM     21  H1  UNL     1      18.752 -35.581 -25.908  1.00  0.00     0.218 HD
ENDBRANCH   5  20
BRANCH   6  22
HETATM   22  C9  UNL     1      19.426 -36.472 -28.715  1.00  0.00    -0.017 C 
HETATM   23  C10 UNL     1      19.947 -36.479 -30.183  1.00  0.00     0.017 C 
HETATM   24  C11 UNL     1      19.285 -35.006 -28.398  1.00  0.00     0.017 C 
HETATM   25  C12 UNL     1      20.579 -37.132 -27.956  1.00  0.00     0.017 C 
ENDBRANCH   6  22
TORSDOF 3
ENDMDL
MODEL 2
REMARK VINA RESULT: -5.054203568      1.739      2.240
REMARK  3 active torsions:
REMARK  status: ('A' for Active; 'I' for Inactive)
REMARK    1  A    between atoms: N1_4  and  C4_6 
REMARK    2  A    between atoms: C7_10  and  O1_11 
REMARK    3  A    between atoms: C8_13  and  C9_14 
ROOT
HETATM    1  C4  UNL     1      17.100 -37.352 -26.032  1.00  0.00     0.085 A 
HETATM    2  C5  UNL     1      17.119 -38.713 -26.209  1.00  0.00     0.148 A 
HETATM    3  N2  UNL     1      17.251 -39.014 -27.513  1.00  0.00    -0.269 N 
HETATM    4  C6  UNL     1      17.325 -37.851 -28.228  1.00  0.00     0.100 A 
HETATM    5  C7  UNL     1      17.230 -36.839 -27.308  1.00  0.00     0.120 A 
HETATM    6  C8  UNL     1      17.481 -37.842 -29.664  1.00  0.00     0.248 C 
HETATM    7  N3  UNL     1      16.532 -38.789 -30.220  1.00  0.00    -0.059 N 
ATOM      8  H31 UNL     1      16.175 -38.482 -31.125  1.00  0.00     0.278 HD
ATOM      9  H32 UNL     1      15.654 -38.794 -29.703  1.00  0.00     0.278 HD
HETATM   10  C13 UNL     1      17.114 -40.094 -30.294  1.00  0.00     0.202 C 
HETATM   11  C14 UNL     1      16.835 -40.788 -31.614  1.00  0.00     0.041 C 
HETATM   12  C15 UNL     1      16.727 -40.954 -29.121  1.00  0.00     0.172 C 
HETATM   13  N4  UNL     1      17.279 -40.361 -27.918  1.00  0.00    -0.328 N 
ATOM     14  H4  UNL     1      17.750 -41.006 -27.282  1.00  0.00     0.180 HD
ENDROOT
BRANCH   1  15
HETATM   15  N1  UNL     1      16.974 -36.677 -24.794  1.00  0.00    -0.361 N 
HETATM   16  C2  UNL     1      16.215 -37.034 -23.837  1.00  0.00    -0.021 C 
HETATM   17  C1  UNL     1      15.345 -38.223 -23.891  1.00  0.00     0.062 C 
HETATM   18  C3  UNL     1      16.207 -36.207 -22.604  1.00  0.00     0.062 C 
ATOM     19  H1  UNL     1      17.537 -35.838 -24.658  1.00  0.00     0.165 HD
ENDBRANCH   1  15
BRANCH   5  20
HETATM   20  O1  UNL     1      17.260 -35.513 -27.605  1.00  0.00    -0.356 OA
ATOM     21  H1  UNL     1      16.516 -34.927 -27.524  1.00  0.00     0.218 HD
ENDBRANCH   5  20
BRANCH   6  22
HETATM   22  C9  UNL     1      17.517 -36.624 -30.448  1.00  0.00    -0.017 C 
HETATM   23  C10 UNL     1      17.683 -37.113 -31.917  1.00  0.00     0.017 C 
HETATM   24  C11 UNL     1      16.263 -35.790 -30.494  1.00  0.00     0.017 C 
HETATM   25  C12 UNL     1      18.777 -35.783 -30.237  1.00  0.00     0.017 C 
ENDBRANCH   6  22
TORSDOF 3
ENDMDL
MODEL 3
REMARK VINA RESULT: -4.929572772      2.644      5.118
REMARK  3 active torsions:
REMARK  status: ('A' for Active; 'I' for Inactive)
REMARK    1  A    between atoms: N1_4  and  C4_6 
REMARK    2  A    between atoms: C7_10  and  O1_11 
REMARK    3  A    between atoms: C8_13  and  C9_14 
ROOT
HETATM    1  C4  UNL     1      16.639 -34.433 -30.302  1.00  0.00     0.085 A 
HETATM    2  C5  UNL     1      16.080 -35.389 -31.112  1.00  0.00     0.148 A 
HETATM    3  N2  UNL     1      16.175 -36.603 -30.539  1.00  0.00    -0.269 N 
HETATM    4  C6  UNL     1      16.803 -36.471 -29.332  1.00  0.00     0.100 A 
HETATM    5  C7  UNL     1      17.082 -35.135 -29.198  1.00  0.00     0.120 A 
HETATM    6  C8  UNL     1      17.046 -37.602 -28.467  1.00  0.00     0.248 C 
HETATM    7  N3  UNL     1      17.600 -38.671 -29.278  1.00  0.00    -0.059 N 
ATOM      8  H31 UNL     1      18.278 -39.229 -28.759  1.00  0.00     0.278 HD
ATOM      9  H32 UNL     1      18.220 -38.313 -30.004  1.00  0.00     0.278 HD
HETATM   10  C13 UNL     1      16.552 -39.478 -29.824  1.00  0.00     0.202 C 
HETATM   11  C14 UNL     1      16.836 -40.963 -29.713  1.00  0.00     0.041 C 
HETATM   12  C15 UNL     1      16.207 -39.081 -31.234  1.00  0.00     0.172 C 
HETATM   13  N4  UNL     1      15.674 -37.732 -31.211  1.00  0.00    -0.328 N 
ATOM     14  H4  UNL     1      14.822 -37.583 -31.754  1.00  0.00     0.180 HD
ENDROOT
BRANCH   1  15
HETATM   15  N1  UNL     1      16.717 -33.048 -30.584  1.00  0.00    -0.361 N 
HETATM   16  C2  UNL     1      17.725 -32.457 -31.086  1.00  0.00    -0.021 C 
HETATM   17  C1  UNL     1      18.976 -33.148 -31.448  1.00  0.00     0.062 C 
HETATM   18  C3  UNL     1      17.635 -30.992 -31.318  1.00  0.00     0.062 C 
ATOM     19  H1  UNL     1      15.899 -32.478 -30.367  1.00  0.00     0.165 HD
ENDBRANCH   1  15
BRANCH   5  20
HETATM   20  O1  UNL     1      17.709 -34.576 -28.130  1.00  0.00    -0.356 OA
ATOM     21  H1  UNL     1      17.788 -34.986 -27.277  1.00  0.00     0.218 HD
ENDBRANCH   5  20
BRANCH   6  22
HETATM   22  C9  UNL     1      17.748 -37.494 -27.204  1.00  0.00    -0.017 C 
HETATM   23  C10 UNL     1      17.729 -38.940 -26.625  1.00  0.00     0.017 C 
HETATM   24  C11 UNL     1      19.215 -37.153 -27.250  1.00  0.00     0.017 C 
HETATM   25  C12 UNL     1      16.992 -36.703 -26.135  1.00  0.00     0.017 C 
ENDBRANCH   6  22
TORSDOF 3
ENDMDL
MODEL 4
REMARK VINA RESULT: -4.793623124      3.722      6.158
REMARK  3 active torsions:
REMARK  status: ('A' for Active; 'I' for Inactive)
REMARK    1  A    between atoms: N1_4  and  C4_6 
REMARK    2  A    between atoms: C7_10  and  O1_11 
REMARK    3  A    between atoms: C8_13  and  C9_14 
ROOT
HETATM    1  C4  UNL     1      19.520 -41.468 -28.319  1.00  0.00     0.085 A 
HETATM    2  C5  UNL     1      20.759 -40.889 -28.203  1.00  0.00     0.148 A 
HETATM    3  N2  UNL     1      20.644 -39.615 -27.786  1.00  0.00    -0.269 N 
HETATM    4  C6  UNL     1      19.318 -39.327 -27.616  1.00  0.00     0.100 A 
HETATM    5  C7  UNL     1      18.640 -40.471 -27.947  1.00  0.00     0.120 A 
HETATM    6  C8  UNL     1      18.869 -38.031 -27.161  1.00  0.00     0.248 C 
HETATM    7  N3  UNL     1      19.574 -37.021 -27.929  1.00  0.00    -0.059 N 
ATOM      8  H31 UNL     1      18.993 -36.201 -28.102  1.00  0.00     0.278 HD
ATOM      9  H32 UNL     1      19.718 -37.312 -28.896  1.00  0.00     0.278 HD
HETATM   10  C13 UNL     1      20.805 -36.675 -27.287  1.00  0.00     0.202 C 
HETATM   11  C14 UNL     1      21.048 -35.179 -27.251  1.00  0.00     0.041 C 
HETATM   12  C15 UNL     1      21.977 -37.416 -27.874  1.00  0.00     0.172 C 
HETATM   13  N4  UNL     1      21.799 -38.831 -27.614  1.00  0.00    -0.328 N 
ATOM     14  H4  UNL     1      22.620 -39.323 -27.259  1.00  0.00     0.180 HD
ENDROOT
BRANCH   1  15
HETATM   15  N1  UNL     1      19.260 -42.797 -28.733  1.00  0.00    -0.361 N 
HETATM   16  C2  UNL     1      18.899 -43.144 -29.902  1.00  0.00    -0.021 C 
HETATM   17  C1  UNL     1      18.698 -42.190 -31.007  1.00  0.00     0.062 C 
HETATM   18  C3  UNL     1      18.669 -44.588 -30.164  1.00  0.00     0.062 C 
ATOM     19  H1  UNL     1      19.370 -43.534 -28.037  1.00  0.00     0.165 HD
ENDBRANCH   1  15
BRANCH   5  20
HETATM   20  O1  UNL     1      17.288 -40.609 -27.915  1.00  0.00    -0.356 OA
ATOM     21  H1  UNL     1      16.725 -40.571 -28.679  1.00  0.00     0.218 HD
ENDBRANCH   5  20
BRANCH   6  22
HETATM   22  C9  UNL     1      17.469 -37.687 -27.016  1.00  0.00    -0.017 C 
HETATM   23  C10 UNL     1      17.482 -36.226 -26.476  1.00  0.00     0.017 C 
HETATM   24  C11 UNL     1      16.642 -37.590 -28.273  1.00  0.00     0.017 C 
HETATM   25  C12 UNL     1      16.752 -38.444 -25.896  1.00  0.00     0.017 C 
ENDBRANCH   6  22
TORSDOF 3
ENDMDL
MODEL 5
REMARK VINA RESULT: -4.684209878      2.174      3.029
REMARK  3 active torsions:
REMARK  status: ('A' for Active; 'I' for Inactive)
REMARK    1  A    between atoms: N1_4  and  C4_6 
REMARK    2  A    between atoms: C7_10  and  O1_11 
REMARK    3  A    between atoms: C8_13  and  C9_14 
ROOT
HETATM    1  C4  UNL     1      17.396 -37.858 -26.666  1.00  0.00     0.085 A 
HETATM    2  C5  UNL     1      17.734 -39.185 -26.761  1.00  0.00     0.148 A 
HETATM    3  N2  UNL     1      17.745 -39.575 -28.048  1.00  0.00    -0.269 N 
HETATM    4  C6  UNL     1      17.415 -38.506 -28.834  1.00  0.00     0.100 A 
HETATM    5  C7  UNL     1      17.202 -37.460 -27.974  1.00  0.00     0.120 A 
HETATM    6  C8  UNL     1      17.352 -38.604 -30.274  1.00  0.00     0.248 C 
HETATM    7  N3  UNL     1      16.604 -39.803 -30.606  1.00  0.00    -0.059 N 
ATOM      8  H31 UNL     1      16.051 -39.683 -31.454  1.00  0.00     0.278 HD
ATOM      9  H32 UNL     1      15.841 -39.968 -29.949  1.00  0.00     0.278 HD
HETATM   10  C13 UNL     1      17.480 -40.930 -30.697  1.00  0.00     0.202 C 
HETATM   11  C14 UNL     1      17.197 -41.799 -31.906  1.00  0.00     0.041 C 
HETATM   12  C15 UNL     1      17.501 -41.735 -29.425  1.00  0.00     0.172 C 
HETATM   13  N4  UNL     1      18.055 -40.909 -28.370  1.00  0.00    -0.328 N 
ATOM     14  H4  UNL     1      18.762 -41.354 -27.784  1.00  0.00     0.180 HD
ENDROOT
BRANCH   1  15
HETATM   15  N1  UNL     1      17.285 -37.113 -25.467  1.00  0.00    -0.361 N 
HETATM   16  C2  UNL     1      16.382 -37.271 -24.585  1.00  0.00    -0.021 C 
HETATM   17  C1  UNL     1      15.304 -38.271 -24.696  1.00  0.00     0.062 C 
HETATM   18  C3  UNL     1      16.417 -36.399 -23.383  1.00  0.00     0.062 C 
ATOM     19  H1  UNL     1      17.986 -36.392 -25.297  1.00  0.00     0.165 HD
ENDBRANCH   1  15
BRANCH   5  20
HETATM   20  O1  UNL     1      16.849 -36.203 -28.352  1.00  0.00    -0.356 OA
ATOM     21  H1  UNL     1      16.055 -35.986 -28.826  1.00  0.00     0.218 HD
ENDBRANCH   5  20
BRANCH   6  22
HETATM   22  C9  UNL     1      16.961 -37.498 -31.125  1.00  0.00    -0.017 C 
HETATM   23  C10 UNL     1      17.080 -38.061 -32.572  1.00  0.00     0.017 C 
HETATM   24  C11 UNL     1      15.530 -37.031 -31.045  1.00  0.00     0.017 C 
HETATM   25  C12 UNL     1      17.959 -36.339 -31.141  1.00  0.00     0.017 C 
ENDBRANCH   6  22
TORSDOF 3
ENDMDL
