MODEL 1
REMARK VINA RESULT: -8.591831421      0.000      0.000
REMARK  6 active torsions:
REMARK  status: ('A' for Active; 'I' for Inactive)
REMARK    1  A    between atoms: C3_7  and  S1_8 
REMARK    2  A    between atoms: S1_8  and  C4_9 
REMARK    3  A    between atoms: C6_11  and  S2_12 
REMARK    4  A    between atoms: S2_12  and  C7_13 
REMARK    5  A    between atoms: C7_13  and  N3_14 
REMARK    6  A    between atoms: N7_26  and  C11_27 
ROOT
HETATM    1  C4  UNL     1      17.545  -8.251   4.959  1.00  0.00     0.035 A 
HETATM    2  C5  UNL     1      18.383  -7.399   5.628  1.00  0.00     0.057 A 
HETATM    3  C6  UNL     1      17.870  -6.613   6.635  1.00  0.00     0.077 A 
HETATM    4  N4  UNL     1      16.579  -6.632   7.005  1.00  0.00    -0.336 N 
ATOM      5  H4  UNL     1      16.243  -6.031   7.758  1.00  0.00     0.168 HD
HETATM    6  C8  UNL     1      15.730  -7.470   6.354  1.00  0.00     0.122 A 
HETATM    7  N5  UNL     1      14.478  -7.476   6.726  1.00  0.00    -0.384 N 
ATOM      8  H51 UNL     1      13.841  -8.105   6.237  1.00  0.00     0.157 HD
ATOM      9  H52 UNL     1      14.122  -6.883   7.476  1.00  0.00     0.157 HD
HETATM   10  C9  UNL     1      16.203  -8.257   5.358  1.00  0.00     0.105 A 
HETATM   11  C10 UNL     1      15.268  -9.135   4.689  1.00  0.00     0.104 C 
HETATM   12  N6  UNL     1      14.521  -9.835   4.149  1.00  0.00    -0.191 NA
ENDROOT
BRANCH   1  13
HETATM   13  S1  UNL     1      18.007  -9.332   3.647  1.00  0.00    -0.051 SA
BRANCH  13  14
HETATM   14  C3  UNL     1      19.705  -9.871   3.677  1.00  0.00     0.173 A 
HETATM   15  N2  UNL     1      20.647  -9.678   4.606  1.00  0.00    -0.278 N 
HETATM   16  N1  UNL     1      21.771 -10.248   4.231  1.00  0.00    -0.287 N 
ATOM     17  H2  UNL     1      20.514  -9.164   5.477  1.00  0.00     0.189 HD
HETATM   18  C2  UNL     1      21.571 -10.827   3.035  1.00  0.00     0.102 A 
ATOM     19  H1  UNL     1      22.645 -10.250   4.758  1.00  0.00     0.188 HD
HETATM   20  C1  UNL     1      22.649 -11.574   2.304  1.00  0.00     0.091 C 
HETATM   21  N7  UNL     1      20.309 -10.598   2.696  1.00  0.00    -0.262 N 
BRANCH  21  22
HETATM   22  C11 UNL     1      19.700 -11.042   1.504  1.00  0.00     0.145 A 
HETATM   23  N8  UNL     1      19.661 -10.248   0.420  1.00  0.00    -0.292 N 
HETATM   24  C12 UNL     1      19.076 -10.693  -0.704  1.00  0.00     0.328 A 
ATOM     25  H8  UNL     1      20.072  -9.315   0.450  1.00  0.00     0.172 HD
HETATM   26  O1  UNL     1      18.996 -10.018  -1.762  1.00  0.00    -0.247 OA
HETATM   27  N9  UNL     1      18.527 -11.938  -0.740  1.00  0.00    -0.274 N 
HETATM   28  C13 UNL     1      18.557 -12.747   0.337  1.00  0.00     0.274 A 
ATOM     29  H9  UNL     1      18.086 -12.264  -1.599  1.00  0.00     0.173 HD
HETATM   30  O2  UNL     1      18.061 -13.899   0.340  1.00  0.00    -0.266 OA
HETATM   31  C14 UNL     1      19.152 -12.314   1.505  1.00  0.00     0.157 A 
HETATM   32  C15 UNL     1      19.192 -13.170   2.672  1.00  0.00     0.109 C 
HETATM   33  N10 UNL     1      19.213 -13.849   3.606  1.00  0.00    -0.191 NA
ENDBRANCH  21  22
ENDBRANCH  13  14
ENDBRANCH   1  13
BRANCH   3  34
HETATM   34  S2  UNL     1      19.027  -5.518   7.470  1.00  0.00    -0.068 SA
BRANCH  34  35
HETATM   35  C7  UNL     1      18.601  -5.431   9.205  1.00  0.00     0.133 C 
BRANCH  35  36
HETATM   36  N3  UNL     1      19.225  -6.132  10.095  1.00  0.00    -0.403 N 
ATOM     37  H32 UNL     1      19.028  -7.132  10.145  1.00  0.00     0.155 HD
ATOM     38  H31 UNL     1      19.897  -5.710  10.735  1.00  0.00     0.155 HD
ENDBRANCH  35  36
ENDBRANCH  34  35
ENDBRANCH   3  34
TORSDOF 6
ENDMDL
MODEL 2
REMARK VINA RESULT: -8.236039335      1.510      2.349
REMARK  6 active torsions:
REMARK  status: ('A' for Active; 'I' for Inactive)
REMARK    1  A    between atoms: C3_7  and  S1_8 
REMARK    2  A    between atoms: S1_8  and  C4_9 
REMARK    3  A    between atoms: C6_11  and  S2_12 
REMARK    4  A    between atoms: S2_12  and  C7_13 
REMARK    5  A    between atoms: C7_13  and  N3_14 
REMARK    6  A    between atoms: N7_26  and  C11_27 
ROOT
HETATM    1  C4  UNL     1      17.853  -8.100   4.767  1.00  0.00     0.035 A 
HETATM    2  C5  UNL     1      18.603  -7.225   5.507  1.00  0.00     0.057 A 
HETATM    3  C6  UNL     1      18.007  -6.550   6.548  1.00  0.00     0.077 A 
HETATM    4  N4  UNL     1      16.715  -6.701   6.886  1.00  0.00    -0.336 N 
ATOM      5  H4  UNL     1      16.316  -6.180   7.667  1.00  0.00     0.168 HD
HETATM    6  C8  UNL     1      15.953  -7.565   6.165  1.00  0.00     0.122 A 
HETATM    7  N5  UNL     1      14.699  -7.700   6.506  1.00  0.00    -0.384 N 
ATOM      8  H51 UNL     1      14.127  -8.347   5.964  1.00  0.00     0.157 HD
ATOM      9  H52 UNL     1      14.280  -7.188   7.283  1.00  0.00     0.157 HD
HETATM   10  C9  UNL     1      16.509  -8.245   5.133  1.00  0.00     0.105 A 
HETATM   11  C10 UNL     1      15.665  -9.154   4.390  1.00  0.00     0.104 C 
HETATM   12  N6  UNL     1      14.990  -9.879   3.790  1.00  0.00    -0.191 NA
ENDROOT
BRANCH   1  13
HETATM   13  S1  UNL     1      18.429  -9.053   3.402  1.00  0.00    -0.051 SA
BRANCH  13  14
HETATM   14  C3  UNL     1      19.375 -10.498   3.837  1.00  0.00     0.173 A 
HETATM   15  N2  UNL     1      20.415 -10.621   4.670  1.00  0.00    -0.278 N 
HETATM   16  N1  UNL     1      20.818 -11.872   4.703  1.00  0.00    -0.287 N 
ATOM     17  H2  UNL     1      20.832  -9.858   5.201  1.00  0.00     0.189 HD
HETATM   18  C2  UNL     1      20.035 -12.590   3.879  1.00  0.00     0.102 A 
ATOM     19  H1  UNL     1      21.593 -12.236   5.258  1.00  0.00     0.188 HD
HETATM   20  C1  UNL     1      20.213 -14.066   3.669  1.00  0.00     0.091 C 
HETATM   21  N7  UNL     1      19.153 -11.751   3.350  1.00  0.00    -0.262 N 
BRANCH  21  22
HETATM   22  C11 UNL     1      18.148 -12.112   2.429  1.00  0.00     0.145 A 
HETATM   23  N8  UNL     1      16.940 -12.515   2.858  1.00  0.00    -0.292 N 
HETATM   24  C12 UNL     1      16.000 -12.854   1.962  1.00  0.00     0.328 A 
ATOM     25  H8  UNL     1      16.740 -12.564   3.857  1.00  0.00     0.172 HD
HETATM   26  O1  UNL     1      14.845 -13.241   2.277  1.00  0.00    -0.247 OA
HETATM   27  N9  UNL     1      16.272 -12.789   0.631  1.00  0.00    -0.274 N 
HETATM   28  C13 UNL     1      17.477 -12.388   0.182  1.00  0.00     0.274 A 
ATOM     29  H9  UNL     1      15.550 -13.050  -0.040  1.00  0.00     0.173 HD
HETATM   30  O2  UNL     1      17.763 -12.316  -1.038  1.00  0.00    -0.266 OA
HETATM   31  C14 UNL     1      18.462 -12.034   1.082  1.00  0.00     0.157 A 
HETATM   32  C15 UNL     1      19.763 -11.600   0.617  1.00  0.00     0.109 C 
HETATM   33  N10 UNL     1      20.805 -11.267   0.245  1.00  0.00    -0.191 NA
ENDBRANCH  21  22
ENDBRANCH  13  14
ENDBRANCH   1  13
BRANCH   3  34
HETATM   34  S2  UNL     1      19.051  -5.418   7.476  1.00  0.00    -0.068 SA
BRANCH  34  35
HETATM   35  C7  UNL     1      18.578  -5.467   9.201  1.00  0.00     0.133 C 
BRANCH  35  36
HETATM   36  N3  UNL     1      19.263  -6.132  10.074  1.00  0.00    -0.403 N 
ATOM     37  H32 UNL     1      19.093  -7.134  10.157  1.00  0.00     0.155 HD
ATOM     38  H31 UNL     1      19.955  -5.679  10.670  1.00  0.00     0.155 HD
ENDBRANCH  35  36
ENDBRANCH  34  35
ENDBRANCH   3  34
TORSDOF 6
ENDMDL
MODEL 3
REMARK VINA RESULT: -8.218522801      1.240      1.267
REMARK  6 active torsions:
REMARK  status: ('A' for Active; 'I' for Inactive)
REMARK    1  A    between atoms: C3_7  and  S1_8 
REMARK    2  A    between atoms: S1_8  and  C4_9 
REMARK    3  A    between atoms: C6_11  and  S2_12 
REMARK    4  A    between atoms: S2_12  and  C7_13 
REMARK    5  A    between atoms: C7_13  and  N3_14 
REMARK    6  A    between atoms: N7_26  and  C11_27 
ROOT
HETATM    1  C4  UNL     1      18.007  -7.947   4.753  1.00  0.00     0.035 A 
HETATM    2  C5  UNL     1      18.766  -7.113   5.531  1.00  0.00     0.057 A 
HETATM    3  C6  UNL     1      18.179  -6.485   6.606  1.00  0.00     0.077 A 
HETATM    4  N4  UNL     1      16.888  -6.644   6.942  1.00  0.00    -0.336 N 
ATOM      5  H4  UNL     1      16.495  -6.158   7.749  1.00  0.00     0.168 HD
HETATM    6  C8  UNL     1      16.116  -7.467   6.183  1.00  0.00     0.122 A 
HETATM    7  N5  UNL     1      14.864  -7.610   6.523  1.00  0.00    -0.384 N 
ATOM      8  H51 UNL     1      14.285  -8.227   5.954  1.00  0.00     0.157 HD
ATOM      9  H52 UNL     1      14.452  -7.133   7.326  1.00  0.00     0.157 HD
HETATM   10  C9  UNL     1      16.664  -8.100   5.118  1.00  0.00     0.105 A 
HETATM   11  C10 UNL     1      15.811  -8.967   4.335  1.00  0.00     0.104 C 
HETATM   12  N6  UNL     1      15.128  -9.657   3.705  1.00  0.00    -0.191 NA
ENDROOT
BRANCH   1  13
HETATM   13  S1  UNL     1      18.572  -8.836   3.341  1.00  0.00    -0.051 SA
BRANCH  13  14
HETATM   14  C3  UNL     1      19.558 -10.275   3.701  1.00  0.00     0.173 A 
HETATM   15  N2  UNL     1      20.071 -10.691   4.864  1.00  0.00    -0.278 N 
HETATM   16  N1  UNL     1      20.739 -11.809   4.686  1.00  0.00    -0.287 N 
ATOM     17  H2  UNL     1      19.960 -10.211   5.757  1.00  0.00     0.189 HD
HETATM   18  C2  UNL     1      20.669 -12.139   3.385  1.00  0.00     0.102 A 
ATOM     19  H1  UNL     1      21.228 -12.336   5.411  1.00  0.00     0.188 HD
HETATM   20  C1  UNL     1      21.324 -13.368   2.821  1.00  0.00     0.091 C 
HETATM   21  N7  UNL     1      19.947 -11.202   2.782  1.00  0.00    -0.262 N 
BRANCH  21  22
HETATM   22  C11 UNL     1      19.638 -11.182   1.407  1.00  0.00     0.145 A 
HETATM   23  N8  UNL     1      20.528 -10.715   0.513  1.00  0.00    -0.292 N 
HETATM   24  C12 UNL     1      20.211 -10.705  -0.791  1.00  0.00     0.328 A 
ATOM     25  H8  UNL     1      21.436 -10.370   0.824  1.00  0.00     0.172 HD
HETATM   26  O1  UNL     1      20.983 -10.288  -1.693  1.00  0.00    -0.247 OA
HETATM   27  N9  UNL     1      18.998 -11.165  -1.201  1.00  0.00    -0.274 N 
HETATM   28  C13 UNL     1      18.094 -11.636  -0.321  1.00  0.00     0.274 A 
ATOM     29  H9  UNL     1      18.769 -11.152  -2.195  1.00  0.00     0.173 HD
HETATM   30  O2  UNL     1      16.966 -12.066  -0.663  1.00  0.00    -0.266 OA
HETATM   31  C14 UNL     1      18.394 -11.657   1.027  1.00  0.00     0.157 A 
HETATM   32  C15 UNL     1      17.434 -12.159   1.987  1.00  0.00     0.109 C 
HETATM   33  N10 UNL     1      16.662 -12.548   2.753  1.00  0.00    -0.191 NA
ENDBRANCH  21  22
ENDBRANCH  13  14
ENDBRANCH   1  13
BRANCH   3  34
HETATM   34  S2  UNL     1      19.234  -5.406   7.583  1.00  0.00    -0.068 SA
BRANCH  34  35
HETATM   35  C7  UNL     1      18.719  -5.476   9.294  1.00  0.00     0.133 C 
BRANCH  35  36
HETATM   36  N3  UNL     1      19.356  -6.187  10.167  1.00  0.00    -0.403 N 
ATOM     37  H32 UNL     1      20.117  -5.746  10.684  1.00  0.00     0.155 HD
ATOM     38  H31 UNL     1      19.115  -7.162  10.343  1.00  0.00     0.155 HD
ENDBRANCH  35  36
ENDBRANCH  34  35
ENDBRANCH   3  34
TORSDOF 6
ENDMDL
MODEL 4
REMARK VINA RESULT: -8.121888236      1.879      3.699
REMARK  6 active torsions:
REMARK  status: ('A' for Active; 'I' for Inactive)
REMARK    1  A    between atoms: C3_7  and  S1_8 
REMARK    2  A    between atoms: S1_8  and  C4_9 
REMARK    3  A    between atoms: C6_11  and  S2_12 
REMARK    4  A    between atoms: S2_12  and  C7_13 
REMARK    5  A    between atoms: C7_13  and  N3_14 
REMARK    6  A    between atoms: N7_26  and  C11_27 
ROOT
HETATM    1  C4  UNL     1      16.560  -8.660   4.445  1.00  0.00     0.035 A 
HETATM    2  C5  UNL     1      15.569  -9.594   4.306  1.00  0.00     0.057 A 
HETATM    3  C6  UNL     1      14.459  -9.515   5.116  1.00  0.00     0.077 A 
HETATM    4  N4  UNL     1      14.288  -8.562   6.048  1.00  0.00    -0.336 N 
ATOM      5  H4  UNL     1      13.448  -8.542   6.626  1.00  0.00     0.168 HD
HETATM    6  C8  UNL     1      15.260  -7.624   6.203  1.00  0.00     0.122 A 
HETATM    7  N5  UNL     1      15.079  -6.706   7.113  1.00  0.00    -0.384 N 
ATOM      8  H51 UNL     1      15.808  -6.002   7.229  1.00  0.00     0.157 HD
ATOM      9  H52 UNL     1      14.246  -6.668   7.701  1.00  0.00     0.157 HD
HETATM   10  C9  UNL     1      16.366  -7.675   5.421  1.00  0.00     0.105 A 
HETATM   11  C10 UNL     1      17.378  -6.659   5.616  1.00  0.00     0.104 C 
HETATM   12  N6  UNL     1      18.190  -5.851   5.773  1.00  0.00    -0.191 NA
ENDROOT
BRANCH   1  13
HETATM   13  S1  UNL     1      18.050  -8.591   3.508  1.00  0.00    -0.051 SA
BRANCH  13  14
HETATM   14  C3  UNL     1      19.226  -9.881   3.865  1.00  0.00     0.173 A 
HETATM   15  N2  UNL     1      19.981 -10.073   4.953  1.00  0.00    -0.278 N 
HETATM   16  N1  UNL     1      20.714 -11.154   4.805  1.00  0.00    -0.287 N 
ATOM     17  H2  UNL     1      19.986  -9.469   5.775  1.00  0.00     0.189 HD
HETATM   18  C2  UNL     1      20.442 -11.687   3.602  1.00  0.00     0.102 A 
ATOM     19  H1  UNL     1      21.377 -11.524   5.487  1.00  0.00     0.188 HD
HETATM   20  C1  UNL     1      21.105 -12.937   3.098  1.00  0.00     0.091 C 
HETATM   21  N7  UNL     1      19.532 -10.910   3.027  1.00  0.00    -0.262 N 
BRANCH  21  22
HETATM   22  C11 UNL     1      18.979 -11.126   1.748  1.00  0.00     0.145 A 
HETATM   23  N8  UNL     1      19.413 -10.425   0.688  1.00  0.00    -0.292 N 
HETATM   24  C12 UNL     1      18.870 -10.648  -0.520  1.00  0.00     0.328 A 
ATOM     25  H8  UNL     1      20.150  -9.727   0.799  1.00  0.00     0.172 HD
HETATM   26  O1  UNL     1      19.218 -10.038  -1.564  1.00  0.00    -0.247 OA
HETATM   27  N9  UNL     1      17.887 -11.578  -0.664  1.00  0.00    -0.274 N 
HETATM   28  C13 UNL     1      17.439 -12.290   0.388  1.00  0.00     0.274 A 
ATOM     29  H9  UNL     1      17.483 -11.738  -1.585  1.00  0.00     0.173 HD
HETATM   30  O2  UNL     1      16.535 -13.154   0.293  1.00  0.00    -0.266 OA
HETATM   31  C14 UNL     1      17.980 -12.080   1.641  1.00  0.00     0.157 A 
HETATM   32  C15 UNL     1      17.509 -12.836   2.782  1.00  0.00     0.109 C 
HETATM   33  N10 UNL     1      17.124 -13.431   3.695  1.00  0.00    -0.191 NA
ENDBRANCH  21  22
ENDBRANCH  13  14
ENDBRANCH   1  13
BRANCH   3  34
HETATM   34  S2  UNL     1      13.198 -10.775   4.880  1.00  0.00    -0.068 SA
BRANCH  34  35
HETATM   35  C7  UNL     1      13.857 -12.076   3.845  1.00  0.00     0.133 C 
BRANCH  35  36
HETATM   36  N3  UNL     1      13.952 -13.296   4.264  1.00  0.00    -0.403 N 
ATOM     37  H32 UNL     1      13.506 -13.537   5.149  1.00  0.00     0.155 HD
ATOM     38  H31 UNL     1      14.457 -14.007   3.735  1.00  0.00     0.155 HD
ENDBRANCH  35  36
ENDBRANCH  34  35
ENDBRANCH   3  34
TORSDOF 6
ENDMDL
MODEL 5
REMARK VINA RESULT: -8.093063670      4.006      6.963
REMARK  6 active torsions:
REMARK  status: ('A' for Active; 'I' for Inactive)
REMARK    1  A    between atoms: C3_7  and  S1_8 
REMARK    2  A    between atoms: S1_8  and  C4_9 
REMARK    3  A    between atoms: C6_11  and  S2_12 
REMARK    4  A    between atoms: S2_12  and  C7_13 
REMARK    5  A    between atoms: C7_13  and  N3_14 
REMARK    6  A    between atoms: N7_26  and  C11_27 
ROOT
HETATM    1  C4  UNL     1      21.395 -11.444   1.984  1.00  0.00     0.035 A 
HETATM    2  C5  UNL     1      20.571 -10.864   2.911  1.00  0.00     0.057 A 
HETATM    3  C6  UNL     1      19.428 -10.228   2.484  1.00  0.00     0.077 A 
HETATM    4  N4  UNL     1      19.067 -10.142   1.193  1.00  0.00    -0.336 N 
ATOM      5  H4  UNL     1      18.210  -9.660   0.922  1.00  0.00     0.168 HD
HETATM    6  C8  UNL     1      19.871 -10.710   0.255  1.00  0.00     0.122 A 
HETATM    7  N5  UNL     1      19.506 -10.616  -0.995  1.00  0.00    -0.384 N 
ATOM      8  H51 UNL     1      20.109 -11.042  -1.699  1.00  0.00     0.157 HD
ATOM      9  H52 UNL     1      18.653 -10.139  -1.287  1.00  0.00     0.157 HD
HETATM   10  C9  UNL     1      21.004 -11.343   0.643  1.00  0.00     0.105 A 
HETATM   11  C10 UNL     1      21.833 -11.935  -0.384  1.00  0.00     0.104 C 
HETATM   12  N6  UNL     1      22.500 -12.405  -1.205  1.00  0.00    -0.191 NA
ENDROOT
BRANCH   1  13
HETATM   13  S1  UNL     1      22.896 -12.299   2.330  1.00  0.00    -0.051 SA
BRANCH  13  14
HETATM   14  C3  UNL     1      24.223 -11.278   2.937  1.00  0.00     0.173 A 
HETATM   15  N2  UNL     1      25.106 -10.532   2.262  1.00  0.00    -0.278 N 
HETATM   16  N1  UNL     1      25.921  -9.933   3.102  1.00  0.00    -0.287 N 
ATOM     17  H2  UNL     1      25.142 -10.443   1.247  1.00  0.00     0.189 HD
HETATM   18  C2  UNL     1      25.574 -10.286   4.351  1.00  0.00     0.102 A 
ATOM     19  H1  UNL     1      26.686  -9.307   2.848  1.00  0.00     0.188 HD
HETATM   20  C1  UNL     1      26.297  -9.783   5.568  1.00  0.00     0.091 C 
HETATM   21  N7  UNL     1      24.536 -11.107   4.251  1.00  0.00    -0.262 N 
BRANCH  21  22
HETATM   22  C11 UNL     1      23.871 -11.703   5.342  1.00  0.00     0.145 A 
HETATM   23  N8  UNL     1      22.811 -11.102   5.908  1.00  0.00    -0.292 N 
HETATM   24  C12 UNL     1      22.194 -11.689   6.945  1.00  0.00     0.328 A 
ATOM     25  H8  UNL     1      22.476 -10.206   5.551  1.00  0.00     0.172 HD
HETATM   26  O1  UNL     1      21.195 -11.196   7.532  1.00  0.00    -0.247 OA
HETATM   27  N9  UNL     1      22.643 -12.883   7.419  1.00  0.00    -0.274 N 
HETATM   28  C13 UNL     1      23.705 -13.500   6.866  1.00  0.00     0.274 A 
ATOM     29  H9  UNL     1      22.166 -13.318   8.208  1.00  0.00     0.173 HD
HETATM   30  O2  UNL     1      24.147 -14.600   7.276  1.00  0.00    -0.266 OA
HETATM   31  C14 UNL     1      24.358 -12.918   5.797  1.00  0.00     0.157 A 
HETATM   32  C15 UNL     1      25.501 -13.567   5.191  1.00  0.00     0.109 C 
HETATM   33  N10 UNL     1      26.420 -14.080   4.716  1.00  0.00    -0.191 NA
ENDBRANCH  21  22
ENDBRANCH  13  14
ENDBRANCH   1  13
BRANCH   3  34
HETATM   34  S2  UNL     1      18.393  -9.490   3.756  1.00  0.00    -0.068 SA
BRANCH  34  35
HETATM   35  C7  UNL     1      19.415  -8.495   4.836  1.00  0.00     0.133 C 
BRANCH  35  36
HETATM   36  N3  UNL     1      19.877  -8.959   5.952  1.00  0.00    -0.403 N 
ATOM     37  H32 UNL     1      19.876  -9.970   6.091  1.00  0.00     0.155 HD
ATOM     38  H31 UNL     1      20.234  -8.343   6.682  1.00  0.00     0.155 HD
ENDBRANCH  35  36
ENDBRANCH  34  35
ENDBRANCH   3  34
TORSDOF 6
ENDMDL
