MODEL 1
REMARK VINA RESULT: -6.760381877      0.000      0.000
REMARK  8 active torsions:
REMARK  status: ('A' for Active; 'I' for Inactive)
REMARK    1  A    between atoms: C4_4  and  O1_6 
REMARK    2  A    between atoms: C6_11  and  C7_12 
REMARK    3  A    between atoms: C7_12  and  O2_13 
REMARK    4  A    between atoms: C7_12  and  C8_15 
REMARK    5  A    between atoms: C8_15  and  N2_16 
REMARK    6  A    between atoms: C8_15  and  C11_25 
REMARK    7  A    between atoms: N2_16  and  C9_18 
REMARK    8  A    between atoms: C13_29  and  N5_30 
ROOT
HETATM    1  C8  UNL     1      19.940 -10.536   4.532  1.00  0.00     0.157 C 
ENDROOT
BRANCH   1   2
HETATM    2  C7  UNL     1      21.123 -10.534   5.457  1.00  0.00     0.204 C 
BRANCH   2   3
HETATM    3  C6  UNL     1      22.242 -11.434   4.977  1.00  0.00     0.417 C 
HETATM    4  N1  UNL     1      23.360 -10.562   4.684  1.00  0.00    -0.012 N 
HETATM    5  C4  UNL     1      24.480 -11.260   4.105  1.00  0.00     0.225 C 
ATOM      6  H12 UNL     1      23.643 -10.042   5.515  1.00  0.00     0.283 HD
ATOM      7  H11 UNL     1      23.070  -9.784   4.092  1.00  0.00     0.283 HD
HETATM    8  C3  UNL     1      24.467 -12.736   4.422  1.00  0.00     0.100 C 
HETATM    9  C5  UNL     1      24.550 -11.039   2.607  1.00  0.00     0.078 C 
HETATM   10  C2  UNL     1      23.949 -12.900   5.837  1.00  0.00     0.189 C 
HETATM   11  C1  UNL     1      24.095 -14.343   6.210  1.00  0.00     0.040 C 
HETATM   12  N6  UNL     1      22.564 -12.482   5.890  1.00  0.00    -0.039 N 
ATOM     13  H62 UNL     1      21.944 -13.280   5.754  1.00  0.00     0.280 HD
ATOM     14  H61 UNL     1      22.304 -12.223   6.841  1.00  0.00     0.280 HD
BRANCH   5  15
HETATM   15  O1  UNL     1      25.639 -10.717   4.662  1.00  0.00    -0.365 OA
ATOM     16  H1  UNL     1      26.006 -10.111   4.030  1.00  0.00     0.212 HD
ENDBRANCH   5  15
ENDBRANCH   2   3
BRANCH   2  17
HETATM   17  O2  UNL     1      20.746 -10.778   6.757  1.00  0.00    -0.389 OA
ATOM     18  H2  UNL     1      20.225 -11.566   6.856  1.00  0.00     0.210 HD
ENDBRANCH   2  17
ENDBRANCH   1   2
BRANCH   1  19
HETATM   19  N2  UNL     1      20.252 -10.892   3.189  1.00  0.00    -0.366 N 
ATOM     20  H2  UNL     1      21.200 -10.765   2.835  1.00  0.00     0.161 HD
BRANCH  19  21
HETATM   21  C9  UNL     1      19.336 -11.374   2.421  1.00  0.00     0.134 A 
HETATM   22  S1  UNL     1      18.150 -12.571   2.644  1.00  0.00     0.014 SA
HETATM   23  N3  UNL     1      17.252 -12.724   1.207  1.00  0.00    -0.285 N 
HETATM   24  C10 UNL     1      17.672 -11.886   0.244  1.00  0.00     0.296 A 
ATOM     25  H3  UNL     1      16.479 -13.380   1.089  1.00  0.00     0.178 HD
HETATM   26  O3  UNL     1      17.169 -11.817  -0.893  1.00  0.00    -0.259 OA
HETATM   27  S2  UNL     1      18.992 -10.939   0.815  1.00  0.00    -0.002 SA
ENDBRANCH  19  21
ENDBRANCH   1  19
BRANCH   1  28
HETATM   28  C11 UNL     1      19.343  -9.163   4.575  1.00  0.00     0.027 A 
HETATM   29  C12 UNL     1      19.531  -8.146   3.676  1.00  0.00     0.107 A 
HETATM   30  N4  UNL     1      18.922  -7.027   3.892  1.00  0.00    -0.345 N 
HETATM   31  C13 UNL     1      18.147  -6.885   4.950  1.00  0.00     0.146 A 
ATOM     32  H4  UNL     1      19.041  -6.251   3.242  1.00  0.00     0.167 HD
HETATM   33  S3  UNL     1      18.280  -8.425   5.693  1.00  0.00    -0.055 SA
BRANCH  31  34
HETATM   34  N5  UNL     1      17.385  -5.731   5.369  1.00  0.00    -0.370 N 
HETATM   35  C14 UNL     1      16.379  -5.906   6.390  1.00  0.00     0.151 C 
HETATM   36  C15 UNL     1      17.634  -4.454   4.779  1.00  0.00     0.151 C 
ENDBRANCH  31  34
ENDBRANCH   1  28
TORSDOF 8
ENDMDL
MODEL 2
REMARK VINA RESULT: -6.757264872      2.490      5.725
REMARK  8 active torsions:
REMARK  status: ('A' for Active; 'I' for Inactive)
REMARK    1  A    between atoms: C4_4  and  O1_6 
REMARK    2  A    between atoms: C6_11  and  C7_12 
REMARK    3  A    between atoms: C7_12  and  O2_13 
REMARK    4  A    between atoms: C7_12  and  C8_15 
REMARK    5  A    between atoms: C8_15  and  N2_16 
REMARK    6  A    between atoms: C8_15  and  C11_25 
REMARK    7  A    between atoms: N2_16  and  C9_18 
REMARK    8  A    between atoms: C13_29  and  N5_30 
ROOT
HETATM    1  C8  UNL     1      20.849 -10.467   3.435  1.00  0.00     0.157 C 
ENDROOT
BRANCH   1   2
HETATM    2  C7  UNL     1      20.226 -11.806   3.166  1.00  0.00     0.204 C 
BRANCH   2   3
HETATM    3  C6  UNL     1      20.099 -12.105   1.687  1.00  0.00     0.417 C 
HETATM    4  N1  UNL     1      18.688 -12.009   1.380  1.00  0.00    -0.012 N 
HETATM    5  C4  UNL     1      18.383 -12.378   0.020  1.00  0.00     0.225 C 
ATOM      6  H12 UNL     1      18.331 -11.078   1.594  1.00  0.00     0.283 HD
ATOM      7  H11 UNL     1      18.134 -12.555   2.039  1.00  0.00     0.283 HD
HETATM    8  C3  UNL     1      19.578 -12.255  -0.893  1.00  0.00     0.100 C 
HETATM    9  C5  UNL     1      17.801 -13.776  -0.052  1.00  0.00     0.078 C 
HETATM   10  C2  UNL     1      20.370 -11.039  -0.456  1.00  0.00     0.189 C 
HETATM   11  C1  UNL     1      21.458 -10.819  -1.462  1.00  0.00     0.040 C 
HETATM   12  N6  UNL     1      20.917 -11.275   0.863  1.00  0.00    -0.039 N 
ATOM     13  H62 UNL     1      21.862 -11.653   0.798  1.00  0.00     0.280 HD
ATOM     14  H61 UNL     1      21.118 -10.391   1.331  1.00  0.00     0.280 HD
BRANCH   5  15
HETATM   15  O1  UNL     1      17.406 -11.494  -0.440  1.00  0.00    -0.365 OA
ATOM     16  H1  UNL     1      16.619 -11.998  -0.610  1.00  0.00     0.212 HD
ENDBRANCH   5  15
ENDBRANCH   2   3
BRANCH   2  17
HETATM   17  O2  UNL     1      19.046 -11.960   3.857  1.00  0.00    -0.389 OA
ATOM     18  H2  UNL     1      19.084 -11.625   4.744  1.00  0.00     0.210 HD
ENDBRANCH   2  17
ENDBRANCH   1   2
BRANCH   1  19
HETATM   19  N2  UNL     1      21.830 -10.478   4.467  1.00  0.00    -0.366 N 
ATOM     20  H2  UNL     1      21.596 -10.133   5.398  1.00  0.00     0.161 HD
BRANCH  19  21
HETATM   21  C9  UNL     1      23.014 -10.926   4.226  1.00  0.00     0.134 A 
HETATM   22  S1  UNL     1      24.213 -10.485   3.104  1.00  0.00     0.014 SA
HETATM   23  N3  UNL     1      25.562 -11.499   3.319  1.00  0.00    -0.285 N 
HETATM   24  C10 UNL     1      25.381 -12.397   4.303  1.00  0.00     0.296 A 
ATOM     25  H3  UNL     1      26.415 -11.432   2.764  1.00  0.00     0.178 HD
HETATM   26  O3  UNL     1      26.229 -13.243   4.643  1.00  0.00    -0.259 OA
HETATM   27  S2  UNL     1      23.823 -12.201   5.007  1.00  0.00    -0.002 SA
ENDBRANCH  19  21
ENDBRANCH   1  19
BRANCH   1  28
HETATM   28  C11 UNL     1      19.739  -9.527   3.792  1.00  0.00     0.027 A 
HETATM   29  C12 UNL     1      18.825  -8.960   2.945  1.00  0.00     0.107 A 
HETATM   30  N4  UNL     1      17.937  -8.169   3.452  1.00  0.00    -0.345 N 
HETATM   31  C13 UNL     1      17.927  -7.926   4.749  1.00  0.00     0.146 A 
ATOM     32  H4  UNL     1      17.242  -7.732   2.848  1.00  0.00     0.167 HD
HETATM   33  S3  UNL     1      19.251  -8.871   5.294  1.00  0.00    -0.055 SA
BRANCH  31  34
HETATM   34  N5  UNL     1      17.032  -7.083   5.508  1.00  0.00    -0.370 N 
HETATM   35  C14 UNL     1      15.922  -7.702   6.193  1.00  0.00     0.151 C 
HETATM   36  C15 UNL     1      17.254  -5.673   5.571  1.00  0.00     0.151 C 
ENDBRANCH  31  34
ENDBRANCH   1  28
TORSDOF 8
ENDMDL
MODEL 3
REMARK VINA RESULT: -6.747090365      2.784      6.586
REMARK  8 active torsions:
REMARK  status: ('A' for Active; 'I' for Inactive)
REMARK    1  A    between atoms: C4_4  and  O1_6 
REMARK    2  A    between atoms: C6_11  and  C7_12 
REMARK    3  A    between atoms: C7_12  and  O2_13 
REMARK    4  A    between atoms: C7_12  and  C8_15 
REMARK    5  A    between atoms: C8_15  and  N2_16 
REMARK    6  A    between atoms: C8_15  and  C11_25 
REMARK    7  A    between atoms: N2_16  and  C9_18 
REMARK    8  A    between atoms: C13_29  and  N5_30 
ROOT
HETATM    1  C8  UNL     1      18.919 -10.866   3.516  1.00  0.00     0.157 C 
ENDROOT
BRANCH   1   2
HETATM    2  C7  UNL     1      18.736 -11.600   2.219  1.00  0.00     0.204 C 
BRANCH   2   3
HETATM    3  C6  UNL     1      19.731 -11.173   1.160  1.00  0.00     0.417 C 
HETATM    4  N1  UNL     1      20.434 -12.375   0.764  1.00  0.00    -0.012 N 
HETATM    5  C4  UNL     1      21.504 -12.118  -0.168  1.00  0.00     0.225 C 
ATOM      6  H12 UNL     1      19.786 -13.070   0.394  1.00  0.00     0.283 HD
ATOM      7  H11 UNL     1      20.775 -12.883   1.580  1.00  0.00     0.283 HD
HETATM    8  C3  UNL     1      21.319 -10.820  -0.915  1.00  0.00     0.100 C 
HETATM    9  C5  UNL     1      22.853 -12.147   0.524  1.00  0.00     0.078 C 
HETATM   10  C2  UNL     1      19.839 -10.651  -1.189  1.00  0.00     0.189 C 
HETATM   11  C1  UNL     1      19.674  -9.453  -2.074  1.00  0.00     0.040 C 
HETATM   12  N6  UNL     1      19.138 -10.476   0.065  1.00  0.00    -0.039 N 
ATOM     13  H62 UNL     1      19.035  -9.485   0.284  1.00  0.00     0.280 HD
ATOM     14  H61 UNL     1      18.156 -10.732  -0.034  1.00  0.00     0.280 HD
BRANCH   5  15
HETATM   15  O1  UNL     1      21.492 -13.151  -1.105  1.00  0.00    -0.365 OA
ATOM     16  H1  UNL     1      21.719 -13.955  -0.652  1.00  0.00     0.212 HD
ENDBRANCH   5  15
ENDBRANCH   2   3
BRANCH   2  17
HETATM   17  O2  UNL     1      17.429 -11.548   1.791  1.00  0.00    -0.389 OA
ATOM     18  H2  UNL     1      17.021 -10.702   1.931  1.00  0.00     0.210 HD
ENDBRANCH   2  17
ENDBRANCH   1   2
BRANCH   1  19
HETATM   19  N2  UNL     1      18.611  -9.477   3.447  1.00  0.00    -0.366 N 
ATOM     20  H2  UNL     1      19.059  -8.890   2.743  1.00  0.00     0.161 HD
BRANCH  19  21
HETATM   21  C9  UNL     1      17.767  -8.963   4.273  1.00  0.00     0.134 A 
HETATM   22  S1  UNL     1      16.068  -8.890   4.297  1.00  0.00     0.014 SA
HETATM   23  N3  UNL     1      15.578  -8.050   5.694  1.00  0.00    -0.285 N 
HETATM   24  C10 UNL     1      16.618  -7.645   6.444  1.00  0.00     0.296 A 
ATOM     25  H3  UNL     1      14.603  -7.875   5.936  1.00  0.00     0.178 HD
HETATM   26  O3  UNL     1      16.506  -7.012   7.510  1.00  0.00    -0.259 OA
HETATM   27  S2  UNL     1      18.100  -8.125   5.713  1.00  0.00    -0.002 SA
ENDBRANCH  19  21
ENDBRANCH   1  19
BRANCH   1  28
HETATM   28  C11 UNL     1      20.344 -11.056   3.935  1.00  0.00     0.027 A 
HETATM   29  C12 UNL     1      21.316 -10.097   4.036  1.00  0.00     0.107 A 
HETATM   30  N4  UNL     1      22.494 -10.467   4.418  1.00  0.00    -0.345 N 
HETATM   31  C13 UNL     1      22.736 -11.733   4.698  1.00  0.00     0.146 A 
ATOM     32  H4  UNL     1      23.240  -9.776   4.505  1.00  0.00     0.167 HD
HETATM   33  S3  UNL     1      21.208 -12.455   4.406  1.00  0.00    -0.055 SA
BRANCH  31  34
HETATM   34  N5  UNL     1      23.968 -12.348   5.137  1.00  0.00    -0.370 N 
HETATM   35  C14 UNL     1      25.088 -12.367   4.227  1.00  0.00     0.151 C 
HETATM   36  C15 UNL     1      24.059 -12.917   6.444  1.00  0.00     0.151 C 
ENDBRANCH  31  34
ENDBRANCH   1  28
TORSDOF 8
ENDMDL
MODEL 4
REMARK VINA RESULT: -6.691905186      3.407      7.587
REMARK  8 active torsions:
REMARK  status: ('A' for Active; 'I' for Inactive)
REMARK    1  A    between atoms: C4_4  and  O1_6 
REMARK    2  A    between atoms: C6_11  and  C7_12 
REMARK    3  A    between atoms: C7_12  and  O2_13 
REMARK    4  A    between atoms: C7_12  and  C8_15 
REMARK    5  A    between atoms: C8_15  and  N2_16 
REMARK    6  A    between atoms: C8_15  and  C11_25 
REMARK    7  A    between atoms: N2_16  and  C9_18 
REMARK    8  A    between atoms: C13_29  and  N5_30 
ROOT
HETATM    1  C8  UNL     1      22.379 -11.701   5.172  1.00  0.00     0.157 C 
ENDROOT
BRANCH   1   2
HETATM    2  C7  UNL     1      21.027 -11.280   5.673  1.00  0.00     0.204 C 
BRANCH   2   3
HETATM    3  C6  UNL     1      20.427 -10.153   4.859  1.00  0.00     0.417 C 
HETATM    4  N1  UNL     1      19.352 -10.743   4.090  1.00  0.00    -0.012 N 
HETATM    5  C4  UNL     1      18.743  -9.814   3.170  1.00  0.00     0.225 C 
ATOM      6  H12 UNL     1      18.652 -11.161   4.703  1.00  0.00     0.283 HD
ATOM      7  H11 UNL     1      19.669 -11.582   3.604  1.00  0.00     0.283 HD
HETATM    8  C3  UNL     1      18.963  -8.377   3.573  1.00  0.00     0.100 C 
HETATM    9  C5  UNL     1      19.228 -10.050   1.753  1.00  0.00     0.078 C 
HETATM   10  C2  UNL     1      18.898  -8.305   5.085  1.00  0.00     0.189 C 
HETATM   11  C1  UNL     1      18.945  -6.860   5.475  1.00  0.00     0.040 C 
HETATM   12  N6  UNL     1      20.013  -9.036   5.646  1.00  0.00    -0.039 N 
ATOM     13  H62 UNL     1      20.800  -8.411   5.823  1.00  0.00     0.280 HD
ATOM     14  H61 UNL     1      19.808  -9.327   6.602  1.00  0.00     0.280 HD
BRANCH   5  15
HETATM   15  O1  UNL     1      17.369 -10.055   3.187  1.00  0.00    -0.365 OA
ATOM     16  H1  UNL     1      17.208 -10.764   3.798  1.00  0.00     0.212 HD
ENDBRANCH   5  15
ENDBRANCH   2   3
BRANCH   2  17
HETATM   17  O2  UNL     1      21.048 -11.026   7.025  1.00  0.00    -0.389 OA
ATOM     18  H2  UNL     1      20.314 -11.408   7.491  1.00  0.00     0.210 HD
ENDBRANCH   2  17
ENDBRANCH   1   2
BRANCH   1  19
HETATM   19  N2  UNL     1      23.379 -10.692   5.282  1.00  0.00    -0.366 N 
ATOM     20  H2  UNL     1      23.180  -9.741   4.971  1.00  0.00     0.161 HD
BRANCH  19  21
HETATM   21  C9  UNL     1      24.533 -10.981   5.774  1.00  0.00     0.134 A 
HETATM   22  S1  UNL     1      25.929 -10.057   6.074  1.00  0.00     0.014 SA
HETATM   23  N3  UNL     1      27.120 -11.070   6.746  1.00  0.00    -0.285 N 
HETATM   24  C10 UNL     1      26.700 -12.339   6.885  1.00  0.00     0.296 A 
ATOM     25  H3  UNL     1      28.050 -10.749   7.015  1.00  0.00     0.178 HD
HETATM   26  O3  UNL     1      27.396 -13.260   7.352  1.00  0.00    -0.259 OA
HETATM   27  S2  UNL     1      25.080 -12.494   6.324  1.00  0.00    -0.002 SA
ENDBRANCH  19  21
ENDBRANCH   1  19
BRANCH   1  28
HETATM   28  C11 UNL     1      22.213 -12.107   3.741  1.00  0.00     0.027 A 
HETATM   29  C12 UNL     1      21.522 -13.187   3.257  1.00  0.00     0.107 A 
HETATM   30  N4  UNL     1      21.498 -13.367   1.978  1.00  0.00    -0.345 N 
HETATM   31  C13 UNL     1      22.125 -12.527   1.176  1.00  0.00     0.146 A 
ATOM     32  H4  UNL     1      20.992 -14.161   1.586  1.00  0.00     0.167 HD
HETATM   33  S3  UNL     1      22.793 -11.409   2.291  1.00  0.00    -0.055 SA
BRANCH  31  34
HETATM   34  N5  UNL     1      22.220 -12.547  -0.266  1.00  0.00    -0.370 N 
HETATM   35  C14 UNL     1      22.719 -13.741  -0.905  1.00  0.00     0.151 C 
HETATM   36  C15 UNL     1      21.823 -11.404  -1.026  1.00  0.00     0.151 C 
ENDBRANCH  31  34
ENDBRANCH   1  28
TORSDOF 8
ENDMDL
MODEL 5
REMARK VINA RESULT: -6.691766363      3.029      5.207
REMARK  8 active torsions:
REMARK  status: ('A' for Active; 'I' for Inactive)
REMARK    1  A    between atoms: C4_4  and  O1_6 
REMARK    2  A    between atoms: C6_11  and  C7_12 
REMARK    3  A    between atoms: C7_12  and  O2_13 
REMARK    4  A    between atoms: C7_12  and  C8_15 
REMARK    5  A    between atoms: C8_15  and  N2_16 
REMARK    6  A    between atoms: C8_15  and  C11_25 
REMARK    7  A    between atoms: N2_16  and  C9_18 
REMARK    8  A    between atoms: C13_29  and  N5_30 
ROOT
HETATM    1  C8  UNL     1      21.003 -10.490   3.373  1.00  0.00     0.157 C 
ENDROOT
BRANCH   1   2
HETATM    2  C7  UNL     1      20.459 -11.867   3.119  1.00  0.00     0.204 C 
BRANCH   2   3
HETATM    3  C6  UNL     1      20.361 -12.194   1.645  1.00  0.00     0.417 C 
HETATM    4  N1  UNL     1      21.280 -11.298   0.974  1.00  0.00    -0.012 N 
HETATM    5  C4  UNL     1      21.224 -11.407  -0.462  1.00  0.00     0.225 C 
ATOM      6  H12 UNL     1      22.232 -11.432   1.314  1.00  0.00     0.283 HD
ATOM      7  H11 UNL     1      21.131 -10.334   1.273  1.00  0.00     0.283 HD
HETATM    8  C3  UNL     1      20.667 -12.733  -0.918  1.00  0.00     0.100 C 
HETATM    9  C5  UNL     1      20.436 -10.262  -1.069  1.00  0.00     0.078 C 
HETATM   10  C2  UNL     1      21.166 -13.798   0.038  1.00  0.00     0.189 C 
HETATM   11  C1  UNL     1      20.755 -15.130  -0.510  1.00  0.00     0.040 C 
HETATM   12  N6  UNL     1      20.594 -13.571   1.347  1.00  0.00    -0.039 N 
ATOM     13  H62 UNL     1      19.737 -14.112   1.463  1.00  0.00     0.280 HD
ATOM     14  H61 UNL     1      21.168 -14.002   2.070  1.00  0.00     0.280 HD
BRANCH   5  15
HETATM   15  O1  UNL     1      22.533 -11.311  -0.936  1.00  0.00    -0.365 OA
ATOM     16  H1  UNL     1      22.974 -10.640  -0.430  1.00  0.00     0.212 HD
ENDBRANCH   5  15
ENDBRANCH   2   3
BRANCH   2  17
HETATM   17  O2  UNL     1      19.283 -12.076   3.804  1.00  0.00    -0.389 OA
ATOM     18  H2  UNL     1      19.407 -12.506   4.641  1.00  0.00     0.210 HD
ENDBRANCH   2  17
ENDBRANCH   1   2
BRANCH   1  19
HETATM   19  N2  UNL     1      21.983 -10.434   4.405  1.00  0.00    -0.366 N 
ATOM     20  H2  UNL     1      21.748 -10.023   5.309  1.00  0.00     0.161 HD
BRANCH  19  21
HETATM   21  C9  UNL     1      23.165 -10.903   4.198  1.00  0.00     0.134 A 
HETATM   22  S1  UNL     1      24.385 -10.516   3.079  1.00  0.00     0.014 SA
HETATM   23  N3  UNL     1      25.719 -11.536   3.352  1.00  0.00    -0.285 N 
HETATM   24  C10 UNL     1      25.514 -12.394   4.366  1.00  0.00     0.296 A 
ATOM     25  H3  UNL     1      26.581 -11.499   2.807  1.00  0.00     0.178 HD
HETATM   26  O3  UNL     1      26.347 -13.237   4.749  1.00  0.00    -0.259 OA
HETATM   27  S2  UNL     1      23.948 -12.156   5.038  1.00  0.00    -0.002 SA
ENDBRANCH  19  21
ENDBRANCH   1  19
BRANCH   1  28
HETATM   28  C11 UNL     1      19.842  -9.612   3.718  1.00  0.00     0.027 A 
HETATM   29  C12 UNL     1      18.883  -9.128   2.868  1.00  0.00     0.107 A 
HETATM   30  N4  UNL     1      17.954  -8.379   3.365  1.00  0.00    -0.345 N 
HETATM   31  C13 UNL     1      17.945  -8.099   4.654  1.00  0.00     0.146 A 
ATOM     32  H4  UNL     1      17.226  -8.003   2.758  1.00  0.00     0.167 HD
HETATM   33  S3  UNL     1      19.331  -8.944   5.208  1.00  0.00    -0.055 SA
BRANCH  31  34
HETATM   34  N5  UNL     1      17.007  -7.292   5.402  1.00  0.00    -0.370 N 
HETATM   35  C14 UNL     1      15.893  -7.949   6.043  1.00  0.00     0.151 C 
HETATM   36  C15 UNL     1      17.194  -5.879   5.496  1.00  0.00     0.151 C 
ENDBRANCH  31  34
ENDBRANCH   1  28
TORSDOF 8
ENDMDL
