MODEL 1
REMARK VINA RESULT: -8.534481429      0.000      0.000
REMARK  9 active torsions:
REMARK  status: ('A' for Active; 'I' for Inactive)
REMARK    1  A    between atoms: O1_2  and  C2_3 
REMARK    2  A    between atoms: C2_3  and  C3_5 
REMARK    3  A    between atoms: C5_7  and  O3_8 
REMARK    4  A    between atoms: C5_7  and  C7_10 
REMARK    5  A    between atoms: C9_14  and  C10_15 
REMARK       I    between atoms: C10_15  and  N2_17 
REMARK    6  A    between atoms: N2_17  and  N3_19 
REMARK    7  A    between atoms: N3_19  and  C11_21 
REMARK    8  A    between atoms: C11_21  and  C12_25 
REMARK    9  A    between atoms: C14_28  and  N5_29 
ROOT
HETATM    1  C10 UNL     1      17.909  -4.766   4.307  1.00  0.00     0.278 C 
HETATM    2  O4  UNL     1      16.855  -4.434   4.897  1.00  0.00    -0.265 OA
HETATM    3  N2  UNL     1      18.167  -6.182   4.178  1.00  0.00    -0.264 N 
ATOM      4  H2  UNL     1      18.966  -6.522   3.643  1.00  0.00     0.190 HD
ENDROOT
BRANCH   1   5
HETATM    5  C9  UNL     1      18.800  -3.719   3.817  1.00  0.00     0.091 A 
HETATM    6  C8  UNL     1      19.948  -3.181   4.327  1.00  0.00     0.113 A 
HETATM    7  N1  UNL     1      20.437  -2.116   3.759  1.00  0.00    -0.358 N 
HETATM    8  C7  UNL     1      19.834  -1.578   2.721  1.00  0.00     0.118 A 
ATOM      9  H1  UNL     1      21.292  -1.696   4.121  1.00  0.00     0.165 HD
HETATM   10  S2  UNL     1      18.498  -2.628   2.508  1.00  0.00    -0.065 SA
BRANCH   8  11
HETATM   11  C5  UNL     1      20.035  -0.333   1.946  1.00  0.00     0.313 C 
HETATM   12  C4  UNL     1      18.745   0.286   1.397  1.00  0.00     0.126 C 
HETATM   13  C3  UNL     1      19.609   0.677   0.187  1.00  0.00     0.330 C 
HETATM   14  N7  UNL     1      20.482  -0.402   0.592  1.00  0.00     0.141 N 
HETATM   15  C15 UNL     1      20.593  -1.572  -0.133  1.00  0.00     0.315 C 
BRANCH  13  16
HETATM   16  C2  UNL     1      18.954   0.648  -1.089  1.00  0.00     0.292 C 
HETATM   17  O2  UNL     1      19.279   1.530  -1.946  1.00  0.00    -0.263 OA
BRANCH  16  18
HETATM   18  O1  UNL     1      17.987  -0.248  -1.509  1.00  0.00    -0.325 OA
HETATM   19  C1  UNL     1      18.041  -1.096  -2.603  1.00  0.00     0.213 C 
ENDBRANCH  16  18
ENDBRANCH  13  16
BRANCH  11  20
HETATM   20  O3  UNL     1      20.801   0.623   2.621  1.00  0.00    -0.352 OA
HETATM   21  C6  UNL     1      20.281   1.206   3.726  1.00  0.00     0.205 C 
ENDBRANCH  11  20
ENDBRANCH   8  11
ENDBRANCH   1   5
BRANCH   3  22
HETATM   22  N3  UNL     1      17.324  -7.042   4.784  1.00  0.00    -0.281 N 
ATOM     23  H3  UNL     1      16.906  -7.615   4.052  1.00  0.00     0.188 HD
BRANCH  22  24
HETATM   24  C11 UNL     1      16.801  -7.462   5.962  1.00  0.00     0.141 C 
HETATM   25  N4  UNL     1      17.758  -7.576   6.913  1.00  0.00    -0.383 N 
ATOM     26  H42 UNL     1      18.711  -7.296   6.683  1.00  0.00     0.157 HD
ATOM     27  H41 UNL     1      17.365  -7.892   7.800  1.00  0.00     0.157 HD
BRANCH  24  28
HETATM   28  C12 UNL     1      15.413  -7.870   6.298  1.00  0.00     0.086 A 
HETATM   29  C13 UNL     1      14.671  -7.092   7.147  1.00  0.00     0.086 A 
HETATM   30  S1  UNL     1      13.165  -7.888   7.146  1.00  0.00    -0.064 SA
HETATM   31  C14 UNL     1      13.557  -9.156   6.070  1.00  0.00     0.142 A 
HETATM   32  N6  UNL     1      14.827  -8.918   5.761  1.00  0.00    -0.334 N 
ATOM     33  H6  UNL     1      15.334  -9.531   5.123  1.00  0.00     0.168 HD
BRANCH  31  34
HETATM   34  N5  UNL     1      12.792 -10.126   5.624  1.00  0.00    -0.380 N 
ATOM     35  H52 UNL     1      12.784 -11.100   5.923  1.00  0.00     0.158 HD
ATOM     36  H51 UNL     1      12.085 -10.097   4.888  1.00  0.00     0.158 HD
ENDBRANCH  31  34
ENDBRANCH  24  28
ENDBRANCH  22  24
ENDBRANCH   3  22
TORSDOF 9
ENDMDL
MODEL 2
REMARK VINA RESULT: -7.658171936      4.920      9.724
REMARK  9 active torsions:
REMARK  status: ('A' for Active; 'I' for Inactive)
REMARK    1  A    between atoms: O1_2  and  C2_3 
REMARK    2  A    between atoms: C2_3  and  C3_5 
REMARK    3  A    between atoms: C5_7  and  O3_8 
REMARK    4  A    between atoms: C5_7  and  C7_10 
REMARK    5  A    between atoms: C9_14  and  C10_15 
REMARK       I    between atoms: C10_15  and  N2_17 
REMARK    6  A    between atoms: N2_17  and  N3_19 
REMARK    7  A    between atoms: N3_19  and  C11_21 
REMARK    8  A    between atoms: C11_21  and  C12_25 
REMARK    9  A    between atoms: C14_28  and  N5_29 
ROOT
HETATM    1  C10 UNL     1      18.405  -5.442   4.367  1.00  0.00     0.278 C 
HETATM    2  O4  UNL     1      17.561  -4.762   4.996  1.00  0.00    -0.265 OA
HETATM    3  N2  UNL     1      19.074  -4.795   3.263  1.00  0.00    -0.264 N 
ATOM      4  H2  UNL     1      19.826  -5.265   2.758  1.00  0.00     0.190 HD
ENDROOT
BRANCH   1   5
HETATM    5  C9  UNL     1      18.635  -6.825   4.772  1.00  0.00     0.091 A 
HETATM    6  C8  UNL     1      18.513  -7.458   5.978  1.00  0.00     0.113 A 
HETATM    7  N1  UNL     1      18.971  -8.673   6.086  1.00  0.00    -0.358 N 
HETATM    8  C7  UNL     1      19.535  -9.267   5.056  1.00  0.00     0.118 A 
ATOM      9  H1  UNL     1      18.892  -9.166   6.974  1.00  0.00     0.165 HD
HETATM   10  S2  UNL     1      19.415  -8.062   3.846  1.00  0.00    -0.065 SA
BRANCH   8  11
HETATM   11  C5  UNL     1      20.258 -10.546   4.876  1.00  0.00     0.313 C 
HETATM   12  C4  UNL     1      21.457 -10.467   3.924  1.00  0.00     0.126 C 
HETATM   13  C3  UNL     1      21.048 -11.889   3.510  1.00  0.00     0.330 C 
HETATM   14  N7  UNL     1      19.733 -11.544   4.001  1.00  0.00     0.141 N 
HETATM   15  C15 UNL     1      18.658 -11.351   3.157  1.00  0.00     0.315 C 
BRANCH  13  16
HETATM   16  C2  UNL     1      21.249 -12.224   2.130  1.00  0.00     0.292 C 
HETATM   17  O2  UNL     1      21.244 -13.454   1.808  1.00  0.00    -0.263 OA
BRANCH  16  18
HETATM   18  O1  UNL     1      21.452 -11.345   1.080  1.00  0.00    -0.325 OA
HETATM   19  C1  UNL     1      20.639 -11.147  -0.024  1.00  0.00     0.213 C 
ENDBRANCH  16  18
ENDBRANCH  13  16
BRANCH  11  20
HETATM   20  O3  UNL     1      20.617 -11.155   6.084  1.00  0.00    -0.352 OA
HETATM   21  C6  UNL     1      21.789 -10.805   6.662  1.00  0.00     0.205 C 
ENDBRANCH  11  20
ENDBRANCH   8  11
ENDBRANCH   1   5
BRANCH   3  22
HETATM   22  N3  UNL     1      18.680  -3.553   2.916  1.00  0.00    -0.281 N 
ATOM     23  H3  UNL     1      17.670  -3.513   3.049  1.00  0.00     0.188 HD
BRANCH  22  24
HETATM   24  C11 UNL     1      19.067  -2.335   2.464  1.00  0.00     0.141 C 
HETATM   25  N4  UNL     1      19.902  -1.727   3.340  1.00  0.00    -0.383 N 
ATOM     26  H42 UNL     1      20.188  -2.236   4.175  1.00  0.00     0.157 HD
ATOM     27  H41 UNL     1      20.194  -0.810   3.000  1.00  0.00     0.157 HD
BRANCH  24  28
HETATM   28  C12 UNL     1      18.651  -1.593   1.247  1.00  0.00     0.086 A 
HETATM   29  C13 UNL     1      18.305  -0.271   1.353  1.00  0.00     0.086 A 
HETATM   30  S1  UNL     1      18.008   0.157  -0.270  1.00  0.00    -0.064 SA
HETATM   31  C14 UNL     1      18.342  -1.356  -0.989  1.00  0.00     0.142 A 
HETATM   32  N6  UNL     1      18.662  -2.126   0.046  1.00  0.00    -0.334 N 
ATOM     33  H6  UNL     1      18.912  -3.106  -0.089  1.00  0.00     0.168 HD
BRANCH  31  34
HETATM   34  N5  UNL     1      18.320  -1.688  -2.259  1.00  0.00    -0.380 N 
ATOM     35  H52 UNL     1      17.526  -1.649  -2.899  1.00  0.00     0.158 HD
ATOM     36  H51 UNL     1      19.072  -2.065  -2.836  1.00  0.00     0.158 HD
ENDBRANCH  31  34
ENDBRANCH  24  28
ENDBRANCH  22  24
ENDBRANCH   3  22
TORSDOF 9
ENDMDL
MODEL 3
REMARK VINA RESULT: -7.469202234      4.913      9.811
REMARK  9 active torsions:
REMARK  status: ('A' for Active; 'I' for Inactive)
REMARK    1  A    between atoms: O1_2  and  C2_3 
REMARK    2  A    between atoms: C2_3  and  C3_5 
REMARK    3  A    between atoms: C5_7  and  O3_8 
REMARK    4  A    between atoms: C5_7  and  C7_10 
REMARK    5  A    between atoms: C9_14  and  C10_15 
REMARK       I    between atoms: C10_15  and  N2_17 
REMARK    6  A    between atoms: N2_17  and  N3_19 
REMARK    7  A    between atoms: N3_19  and  C11_21 
REMARK    8  A    between atoms: C11_21  and  C12_25 
REMARK    9  A    between atoms: C14_28  and  N5_29 
ROOT
HETATM    1  C10 UNL     1      18.239  -5.441   4.348  1.00  0.00     0.278 C 
HETATM    2  O4  UNL     1      17.236  -4.854   4.814  1.00  0.00    -0.265 OA
HETATM    3  N2  UNL     1      19.032  -4.715   3.383  1.00  0.00    -0.264 N 
ATOM      4  H2  UNL     1      19.903  -5.105   3.022  1.00  0.00     0.190 HD
ENDROOT
BRANCH   1   5
HETATM    5  C9  UNL     1      18.524  -6.804   4.789  1.00  0.00     0.091 A 
HETATM    6  C8  UNL     1      18.462  -7.400   6.017  1.00  0.00     0.113 A 
HETATM    7  N1  UNL     1      18.959  -8.597   6.147  1.00  0.00    -0.358 N 
HETATM    8  C7  UNL     1      19.504  -9.209   5.118  1.00  0.00     0.118 A 
ATOM      9  H1  UNL     1      18.925  -9.063   7.053  1.00  0.00     0.165 HD
HETATM   10  S2  UNL     1      19.307  -8.048   3.875  1.00  0.00    -0.065 SA
BRANCH   8  11
HETATM   11  C5  UNL     1      20.257 -10.472   4.953  1.00  0.00     0.313 C 
HETATM   12  C4  UNL     1      21.460 -10.373   4.008  1.00  0.00     0.126 C 
HETATM   13  C3  UNL     1      21.087 -11.808   3.603  1.00  0.00     0.330 C 
HETATM   14  N7  UNL     1      19.761 -11.489   4.083  1.00  0.00     0.141 N 
HETATM   15  C15 UNL     1      18.687 -11.328   3.230  1.00  0.00     0.315 C 
BRANCH  13  16
HETATM   16  C2  UNL     1      21.304 -12.149   2.227  1.00  0.00     0.292 C 
HETATM   17  O2  UNL     1      21.375 -13.382   1.922  1.00  0.00    -0.263 OA
BRANCH  16  18
HETATM   18  O1  UNL     1      21.447 -11.274   1.164  1.00  0.00    -0.325 OA
HETATM   19  C1  UNL     1      20.704 -11.237  -0.004  1.00  0.00     0.213 C 
ENDBRANCH  16  18
ENDBRANCH  13  16
BRANCH  11  20
HETATM   20  O3  UNL     1      20.623 -11.063   6.167  1.00  0.00    -0.352 OA
HETATM   21  C6  UNL     1      21.844 -10.786   6.680  1.00  0.00     0.205 C 
ENDBRANCH  11  20
ENDBRANCH   8  11
ENDBRANCH   1   5
BRANCH   3  22
HETATM   22  N3  UNL     1      18.589  -3.511   2.970  1.00  0.00    -0.281 N 
ATOM     23  H3  UNL     1      18.010  -3.134   3.719  1.00  0.00     0.188 HD
BRANCH  22  24
HETATM   24  C11 UNL     1      18.595  -2.592   1.974  1.00  0.00     0.141 C 
HETATM   25  N4  UNL     1      18.422  -3.174   0.764  1.00  0.00    -0.383 N 
ATOM     26  H42 UNL     1      18.255  -4.180   0.727  1.00  0.00     0.157 HD
ATOM     27  H41 UNL     1      18.426  -2.483   0.014  1.00  0.00     0.157 HD
BRANCH  24  28
HETATM   28  C12 UNL     1      18.839  -1.128   2.029  1.00  0.00     0.086 A 
HETATM   29  C13 UNL     1      18.266  -0.316   1.084  1.00  0.00     0.086 A 
HETATM   30  S1  UNL     1      18.738   1.236   1.606  1.00  0.00    -0.064 SA
HETATM   31  C14 UNL     1      19.627   0.772   2.989  1.00  0.00     0.142 A 
HETATM   32  N6  UNL     1      19.528  -0.553   2.990  1.00  0.00    -0.334 N 
ATOM     33  H6  UNL     1      19.975  -1.110   3.718  1.00  0.00     0.168 HD
BRANCH  31  34
HETATM   34  N5  UNL     1      20.242   1.530   3.867  1.00  0.00    -0.380 N 
ATOM     35  H52 UNL     1      20.661   2.447   3.712  1.00  0.00     0.158 HD
ATOM     36  H51 UNL     1      20.436   1.343   4.851  1.00  0.00     0.158 HD
ENDBRANCH  31  34
ENDBRANCH  24  28
ENDBRANCH  22  24
ENDBRANCH   3  22
TORSDOF 9
ENDMDL
MODEL 4
REMARK VINA RESULT: -7.463923152      2.972      9.870
REMARK  9 active torsions:
REMARK  status: ('A' for Active; 'I' for Inactive)
REMARK    1  A    between atoms: O1_2  and  C2_3 
REMARK    2  A    between atoms: C2_3  and  C3_5 
REMARK    3  A    between atoms: C5_7  and  O3_8 
REMARK    4  A    between atoms: C5_7  and  C7_10 
REMARK    5  A    between atoms: C9_14  and  C10_15 
REMARK       I    between atoms: C10_15  and  N2_17 
REMARK    6  A    between atoms: N2_17  and  N3_19 
REMARK    7  A    between atoms: N3_19  and  C11_21 
REMARK    8  A    between atoms: C11_21  and  C12_25 
REMARK    9  A    between atoms: C14_28  and  N5_29 
ROOT
HETATM    1  C10 UNL     1      19.272  -3.476   3.658  1.00  0.00     0.278 C 
HETATM    2  O4  UNL     1      19.881  -2.660   4.387  1.00  0.00    -0.265 OA
HETATM    3  N2  UNL     1      19.571  -3.442   2.245  1.00  0.00    -0.264 N 
ATOM      4  H2  UNL     1      19.169  -4.129   1.608  1.00  0.00     0.190 HD
ENDROOT
BRANCH   1   5
HETATM    5  C9  UNL     1      18.300  -4.377   4.272  1.00  0.00     0.091 A 
HETATM    6  C8  UNL     1      17.343  -4.178   5.227  1.00  0.00     0.113 A 
HETATM    7  N1  UNL     1      16.739  -5.220   5.722  1.00  0.00    -0.358 N 
HETATM    8  C7  UNL     1      17.049  -6.430   5.309  1.00  0.00     0.118 A 
ATOM      9  H1  UNL     1      16.021  -5.097   6.436  1.00  0.00     0.165 HD
HETATM   10  S2  UNL     1      18.258  -6.103   4.142  1.00  0.00    -0.065 SA
BRANCH   8  11
HETATM   11  C5  UNL     1      16.669  -7.793   5.741  1.00  0.00     0.313 C 
HETATM   12  C4  UNL     1      15.969  -8.627   4.663  1.00  0.00     0.126 C 
HETATM   13  C3  UNL     1      15.151  -9.201   5.831  1.00  0.00     0.330 C 
HETATM   14  N7  UNL     1      15.500  -7.988   6.536  1.00  0.00     0.141 N 
HETATM   15  C15 UNL     1      14.573  -7.003   6.812  1.00  0.00     0.315 C 
BRANCH  13  16
HETATM   16  C2  UNL     1      13.780  -9.512   5.545  1.00  0.00     0.292 C 
HETATM   17  O2  UNL     1      13.523 -10.144   4.472  1.00  0.00    -0.263 OA
BRANCH  16  18
HETATM   18  O1  UNL     1      12.676  -9.199   6.318  1.00  0.00    -0.325 OA
HETATM   19  C1  UNL     1      12.442  -9.552   7.637  1.00  0.00     0.213 C 
ENDBRANCH  16  18
ENDBRANCH  13  16
BRANCH  11  20
HETATM   20  O3  UNL     1      17.725  -8.507   6.318  1.00  0.00    -0.352 OA
HETATM   21  C6  UNL     1      18.706  -8.974   5.513  1.00  0.00     0.205 C 
ENDBRANCH  11  20
ENDBRANCH   8  11
ENDBRANCH   1   5
BRANCH   3  22
HETATM   22  N3  UNL     1      20.396  -2.478   1.791  1.00  0.00    -0.281 N 
ATOM     23  H3  UNL     1      21.330  -2.699   2.135  1.00  0.00     0.188 HD
BRANCH  22  24
HETATM   24  C11 UNL     1      20.501  -1.337   1.067  1.00  0.00     0.141 C 
HETATM   25  N4  UNL     1      21.530  -0.571   1.498  1.00  0.00    -0.383 N 
ATOM     26  H42 UNL     1      22.128  -0.931   2.242  1.00  0.00     0.157 HD
ATOM     27  H41 UNL     1      21.610   0.288   0.954  1.00  0.00     0.157 HD
BRANCH  24  28
HETATM   28  C12 UNL     1      19.631  -0.812  -0.016  1.00  0.00     0.086 A 
HETATM   29  C13 UNL     1      19.330   0.524  -0.047  1.00  0.00     0.086 A 
HETATM   30  S1  UNL     1      18.418   0.658  -1.481  1.00  0.00    -0.064 SA
HETATM   31  C14 UNL     1      18.473  -0.980  -1.961  1.00  0.00     0.142 A 
HETATM   32  N6  UNL     1      19.184  -1.561  -1.001  1.00  0.00    -0.334 N 
ATOM     33  H6  UNL     1      19.379  -2.562  -1.026  1.00  0.00     0.168 HD
BRANCH  31  34
HETATM   34  N5  UNL     1      17.965  -1.543  -3.034  1.00  0.00    -0.380 N 
ATOM     35  H52 UNL     1      17.079  -2.043  -3.113  1.00  0.00     0.158 HD
ATOM     36  H51 UNL     1      18.360  -1.607  -3.972  1.00  0.00     0.158 HD
ENDBRANCH  31  34
ENDBRANCH  24  28
ENDBRANCH  22  24
ENDBRANCH   3  22
TORSDOF 9
ENDMDL
MODEL 5
REMARK VINA RESULT: -7.388536821      2.939      9.794
REMARK  9 active torsions:
REMARK  status: ('A' for Active; 'I' for Inactive)
REMARK    1  A    between atoms: O1_2  and  C2_3 
REMARK    2  A    between atoms: C2_3  and  C3_5 
REMARK    3  A    between atoms: C5_7  and  O3_8 
REMARK    4  A    between atoms: C5_7  and  C7_10 
REMARK    5  A    between atoms: C9_14  and  C10_15 
REMARK       I    between atoms: C10_15  and  N2_17 
REMARK    6  A    between atoms: N2_17  and  N3_19 
REMARK    7  A    between atoms: N3_19  and  C11_21 
REMARK    8  A    between atoms: C11_21  and  C12_25 
REMARK    9  A    between atoms: C14_28  and  N5_29 
ROOT
HETATM    1  C10 UNL     1      19.164  -3.709   3.450  1.00  0.00     0.278 C 
HETATM    2  O4  UNL     1      19.676  -2.700   3.987  1.00  0.00    -0.265 OA
HETATM    3  N2  UNL     1      19.569  -4.005   2.095  1.00  0.00    -0.264 N 
ATOM      4  H2  UNL     1      19.250  -4.854   1.627  1.00  0.00     0.190 HD
ENDROOT
BRANCH   1   5
HETATM    5  C9  UNL     1      18.194  -4.493   4.209  1.00  0.00     0.091 A 
HETATM    6  C8  UNL     1      17.275  -4.141   5.158  1.00  0.00     0.113 A 
HETATM    7  N1  UNL     1      16.663  -5.090   5.807  1.00  0.00    -0.358 N 
HETATM    8  C7  UNL     1      16.930  -6.353   5.549  1.00  0.00     0.118 A 
ATOM      9  H1  UNL     1      15.974  -4.854   6.519  1.00  0.00     0.165 HD
HETATM   10  S2  UNL     1      18.105  -6.218   4.312  1.00  0.00    -0.065 SA
BRANCH   8  11
HETATM   11  C5  UNL     1      16.533  -7.635   6.172  1.00  0.00     0.313 C 
HETATM   12  C4  UNL     1      15.770  -8.583   5.239  1.00  0.00     0.126 C 
HETATM   13  C3  UNL     1      14.984  -8.973   6.501  1.00  0.00     0.330 C 
HETATM   14  N7  UNL     1      15.390  -7.689   7.026  1.00  0.00     0.141 N 
HETATM   15  C15 UNL     1      14.499  -6.648   7.200  1.00  0.00     0.315 C 
BRANCH  13  16
HETATM   16  C2  UNL     1      13.596  -9.277   6.307  1.00  0.00     0.292 C 
HETATM   17  O2  UNL     1      12.809  -9.130   7.295  1.00  0.00    -0.263 OA
BRANCH  16  18
HETATM   18  O1  UNL     1      12.995  -9.723   5.142  1.00  0.00    -0.325 OA
HETATM   19  C1  UNL     1      13.069 -10.989   4.586  1.00  0.00     0.213 C 
ENDBRANCH  16  18
ENDBRANCH  13  16
BRANCH  11  20
HETATM   20  O3  UNL     1      17.592  -8.298   6.802  1.00  0.00    -0.352 OA
HETATM   21  C6  UNL     1      18.613  -8.755   6.041  1.00  0.00     0.205 C 
ENDBRANCH  11  20
ENDBRANCH   8  11
ENDBRANCH   1   5
BRANCH   3  22
HETATM   22  N3  UNL     1      20.379  -3.131   1.466  1.00  0.00    -0.281 N 
ATOM     23  H3  UNL     1      21.336  -3.444   1.625  1.00  0.00     0.188 HD
BRANCH  22  24
HETATM   24  C11 UNL     1      20.450  -2.009   0.709  1.00  0.00     0.141 C 
HETATM   25  N4  UNL     1      21.308  -2.166  -0.327  1.00  0.00    -0.383 N 
ATOM     26  H42 UNL     1      21.745  -3.076  -0.464  1.00  0.00     0.157 HD
ATOM     27  H41 UNL     1      21.362  -1.321  -0.897  1.00  0.00     0.157 HD
BRANCH  24  28
HETATM   28  C12 UNL     1      19.813  -0.682   0.909  1.00  0.00     0.086 A 
HETATM   29  C13 UNL     1      19.524   0.095  -0.182  1.00  0.00     0.086 A 
HETATM   30  S1  UNL     1      18.737   1.432   0.523  1.00  0.00    -0.064 SA
HETATM   31  C14 UNL     1      18.815   0.931   2.155  1.00  0.00     0.142 A 
HETATM   32  N6  UNL     1      19.444  -0.237   2.090  1.00  0.00    -0.334 N 
ATOM     33  H6  UNL     1      19.635  -0.775   2.935  1.00  0.00     0.168 HD
BRANCH  31  34
HETATM   34  N5  UNL     1      18.346   1.531   3.225  1.00  0.00    -0.380 N 
ATOM     35  H52 UNL     1      18.532   2.484   3.536  1.00  0.00     0.158 HD
ATOM     36  H51 UNL     1      17.734   1.159   3.951  1.00  0.00     0.158 HD
ENDBRANCH  31  34
ENDBRANCH  24  28
ENDBRANCH  22  24
ENDBRANCH   3  22
TORSDOF 9
ENDMDL
