MODEL 1
REMARK VINA RESULT: -8.237288068      0.000      0.000
REMARK  11 active torsions:
REMARK  status: ('A' for Active; 'I' for Inactive)
REMARK    1  A    between atoms: C2_2  and  O1_3 
REMARK    2  A    between atoms: O1_3  and  C3_4 
REMARK       I    between atoms: C3_4  and  N1_6 
REMARK    3  A    between atoms: N2_8  and  C4_10 
REMARK    4  A    between atoms: C4_10  and  N3_12 
REMARK       I    between atoms: N3_12  and  C5_14 
REMARK       I    between atoms: C5_14  and  N5_19 
REMARK    5  A    between atoms: N4_15  and  O3_17 
REMARK    6  A    between atoms: N5_19  and  N6_21 
REMARK    7  A    between atoms: C6_23  and  C7_24 
REMARK    8  A    between atoms: C9_26  and  O4_27 
REMARK    9  A    between atoms: C10_29  and  O5_30 
REMARK   10  A    between atoms: C12_32  and  O6_33 
REMARK   11  A    between atoms: C13_35  and  O7_36 
ROOT
HETATM    1  N3  UNL     1      18.507  -6.859   4.992  1.00  0.00    -0.162 N 
ATOM      2  H3  UNL     1      19.403  -7.138   5.389  1.00  0.00     0.187 HD
HETATM    3  C5  UNL     1      18.094  -5.502   5.032  1.00  0.00     0.718 C 
HETATM    4  N4  UNL     1      16.934  -5.191   5.453  1.00  0.00    -0.097 N 
ATOM      5  H4  UNL     1      16.335  -5.962   5.752  1.00  0.00     0.213 HD
HETATM    6  N5  UNL     1      19.002  -4.503   4.592  1.00  0.00    -0.131 N 
ATOM      7  H5  UNL     1      19.945  -4.530   4.980  1.00  0.00     0.205 HD
ENDROOT
BRANCH   6   8
HETATM    8  N6  UNL     1      18.724  -3.504   3.691  1.00  0.00    -0.297 N 
HETATM    9  C6  UNL     1      19.395  -3.234   2.644  1.00  0.00     0.122 C 
ATOM     10  H6  UNL     1      17.905  -2.926   3.879  1.00  0.00     0.186 HD
BRANCH   9  11
HETATM   11  C7  UNL     1      19.067  -2.166   1.713  1.00  0.00     0.020 A 
HETATM   12  C8  UNL     1      18.700  -2.502   0.391  1.00  0.00     0.055 A 
HETATM   13  C9  UNL     1      18.354  -1.531  -0.516  1.00  0.00     0.102 A 
HETATM   14  C10 UNL     1      18.358  -0.207  -0.140  1.00  0.00     0.137 A 
HETATM   15  C12 UNL     1      18.722   0.123   1.173  1.00  0.00     0.136 A 
HETATM   16  C13 UNL     1      19.079  -0.855   2.103  1.00  0.00     0.116 A 
BRANCH  13  17
HETATM   17  O4  UNL     1      17.992  -1.844  -1.819  1.00  0.00    -0.358 OA
ATOM     18  H4  UNL     1      18.383  -1.405  -2.566  1.00  0.00     0.217 HD
ENDBRANCH  13  17
BRANCH  14  19
HETATM   19  O5  UNL     1      18.016   0.778  -1.024  1.00  0.00    -0.351 OA
HETATM   20  C11 UNL     1      18.882   1.521  -1.825  1.00  0.00     0.210 C 
ENDBRANCH  14  19
BRANCH  15  21
HETATM   21  O6  UNL     1      18.738   1.443   1.587  1.00  0.00    -0.356 OA
ATOM     22  H6  UNL     1      19.112   1.681   2.427  1.00  0.00     0.218 HD
ENDBRANCH  15  21
BRANCH  16  23
HETATM   23  O7  UNL     1      19.433  -0.460   3.382  1.00  0.00    -0.352 OA
HETATM   24  C14 UNL     1      20.779  -0.045   3.669  1.00  0.00     0.210 C 
ENDBRANCH  16  23
ENDBRANCH   9  11
ENDBRANCH   6   8
BRANCH   1  25
HETATM   25  C4  UNL     1      17.657  -7.819   4.394  1.00  0.00     0.205 C 
HETATM   26  S1  UNL     1      16.450  -8.531   5.245  1.00  0.00    -0.039 SA
BRANCH  25  27
HETATM   27  N2  UNL     1      17.798  -8.216   3.036  1.00  0.00    -0.271 N 
HETATM   28  N1  UNL     1      18.362  -9.302   2.697  1.00  0.00    -0.243 N 
HETATM   29  C3  UNL     1      18.902 -10.213   3.645  1.00  0.00     0.379 C 
ATOM     30  H1  UNL     1      18.432  -9.529   1.705  1.00  0.00     0.192 HD
HETATM   31  O2  UNL     1      18.655 -11.440   3.602  1.00  0.00    -0.237 OA
ATOM     32  H2  UNL     1      17.431  -7.606   2.306  1.00  0.00     0.189 HD
BRANCH  29  33
HETATM   33  O1  UNL     1      19.716  -9.721   4.632  1.00  0.00    -0.303 OA
BRANCH  33  34
HETATM   34  C2  UNL     1      20.834 -10.390   5.153  1.00  0.00     0.176 C 
HETATM   35  C1  UNL     1      21.951 -10.511   4.134  1.00  0.00     0.034 C 
ENDBRANCH  33  34
ENDBRANCH  29  33
ENDBRANCH  25  27
ENDBRANCH   1  25
BRANCH   4  36
HETATM   36  O3  UNL     1      16.411  -3.946   5.545  1.00  0.00    -0.276 OA
ATOM     37  H3  UNL     1      15.528  -3.718   5.810  1.00  0.00     0.245 HD
ENDBRANCH   4  36
TORSDOF 11
ENDMDL
MODEL 2
REMARK VINA RESULT: -7.614148338      1.185      2.214
REMARK  11 active torsions:
REMARK  status: ('A' for Active; 'I' for Inactive)
REMARK    1  A    between atoms: C2_2  and  O1_3 
REMARK    2  A    between atoms: O1_3  and  C3_4 
REMARK       I    between atoms: C3_4  and  N1_6 
REMARK    3  A    between atoms: N2_8  and  C4_10 
REMARK    4  A    between atoms: C4_10  and  N3_12 
REMARK       I    between atoms: N3_12  and  C5_14 
REMARK       I    between atoms: C5_14  and  N5_19 
REMARK    5  A    between atoms: N4_15  and  O3_17 
REMARK    6  A    between atoms: N5_19  and  N6_21 
REMARK    7  A    between atoms: C6_23  and  C7_24 
REMARK    8  A    between atoms: C9_26  and  O4_27 
REMARK    9  A    between atoms: C10_29  and  O5_30 
REMARK   10  A    between atoms: C12_32  and  O6_33 
REMARK   11  A    between atoms: C13_35  and  O7_36 
ROOT
HETATM    1  N3  UNL     1      18.073  -6.808   5.426  1.00  0.00    -0.162 N 
ATOM      2  H3  UNL     1      18.864  -7.130   5.983  1.00  0.00     0.187 HD
HETATM    3  C5  UNL     1      17.781  -5.423   5.323  1.00  0.00     0.718 C 
HETATM    4  N4  UNL     1      16.600  -4.996   5.524  1.00  0.00    -0.097 N 
ATOM      5  H4  UNL     1      15.894  -5.695   5.757  1.00  0.00     0.213 HD
HETATM    6  N5  UNL     1      18.834  -4.531   4.992  1.00  0.00    -0.131 N 
ATOM      7  H5  UNL     1      19.694  -4.605   5.535  1.00  0.00     0.205 HD
ENDROOT
BRANCH   6   8
HETATM    8  N6  UNL     1      18.798  -3.576   4.005  1.00  0.00    -0.297 N 
HETATM    9  C6  UNL     1      19.789  -3.180   3.311  1.00  0.00     0.122 C 
ATOM     10  H6  UNL     1      17.894  -3.144   3.811  1.00  0.00     0.186 HD
BRANCH   9  11
HETATM   11  C7  UNL     1      19.709  -2.164   2.274  1.00  0.00     0.020 A 
HETATM   12  C8  UNL     1      19.632  -0.806   2.653  1.00  0.00     0.055 A 
HETATM   13  C9  UNL     1      19.584   0.191   1.709  1.00  0.00     0.102 A 
HETATM   14  C10 UNL     1      19.613  -0.129   0.370  1.00  0.00     0.137 A 
HETATM   15  C12 UNL     1      19.689  -1.478  -0.002  1.00  0.00     0.136 A 
HETATM   16  C13 UNL     1      19.736  -2.500   0.947  1.00  0.00     0.116 A 
BRANCH  13  17
HETATM   17  O4  UNL     1      19.508   1.530   2.065  1.00  0.00    -0.358 OA
ATOM     18  H4  UNL     1      18.752   2.063   1.848  1.00  0.00     0.217 HD
ENDBRANCH  13  17
BRANCH  14  19
HETATM   19  O5  UNL     1      19.568   0.846  -0.587  1.00  0.00    -0.351 OA
HETATM   20  C11 UNL     1      18.449   1.258  -1.309  1.00  0.00     0.210 C 
ENDBRANCH  14  19
BRANCH  15  21
HETATM   21  O6  UNL     1      19.721  -1.836  -1.338  1.00  0.00    -0.356 OA
ATOM     22  H6  UNL     1      19.240  -1.332  -1.984  1.00  0.00     0.218 HD
ENDBRANCH  15  21
BRANCH  16  23
HETATM   23  O7  UNL     1      19.806  -3.811   0.510  1.00  0.00    -0.352 OA
HETATM   24  C14 UNL     1      21.048  -4.354   0.031  1.00  0.00     0.210 C 
ENDBRANCH  16  23
ENDBRANCH   9  11
ENDBRANCH   6   8
BRANCH   1  25
HETATM   25  C4  UNL     1      17.252  -7.736   4.743  1.00  0.00     0.205 C 
HETATM   26  S1  UNL     1      16.079  -8.569   5.529  1.00  0.00    -0.039 SA
BRANCH  25  27
HETATM   27  N2  UNL     1      17.395  -7.998   3.352  1.00  0.00    -0.271 N 
HETATM   28  N1  UNL     1      18.037  -8.999   2.908  1.00  0.00    -0.243 N 
HETATM   29  C3  UNL     1      18.667  -9.945   3.761  1.00  0.00     0.379 C 
ATOM     30  H1  UNL     1      18.103  -9.129   1.898  1.00  0.00     0.192 HD
HETATM   31  O2  UNL     1      18.518 -11.179   3.610  1.00  0.00    -0.237 OA
ATOM     32  H2  UNL     1      16.965  -7.356   2.687  1.00  0.00     0.189 HD
BRANCH  29  33
HETATM   33  O1  UNL     1      19.461  -9.479   4.778  1.00  0.00    -0.303 OA
BRANCH  33  34
HETATM   34  C2  UNL     1      20.623 -10.115   5.239  1.00  0.00     0.176 C 
HETATM   35  C1  UNL     1      21.654 -10.285   4.139  1.00  0.00     0.034 C 
ENDBRANCH  33  34
ENDBRANCH  29  33
ENDBRANCH  25  27
ENDBRANCH   1  25
BRANCH   4  36
HETATM   36  O3  UNL     1      16.181  -3.710   5.460  1.00  0.00    -0.276 OA
ATOM     37  H3  UNL     1      15.347  -3.367   5.760  1.00  0.00     0.245 HD
ENDBRANCH   4  36
TORSDOF 11
ENDMDL
MODEL 3
REMARK VINA RESULT: -7.430724009      2.329      2.967
REMARK  11 active torsions:
REMARK  status: ('A' for Active; 'I' for Inactive)
REMARK    1  A    between atoms: C2_2  and  O1_3 
REMARK    2  A    between atoms: O1_3  and  C3_4 
REMARK       I    between atoms: C3_4  and  N1_6 
REMARK    3  A    between atoms: N2_8  and  C4_10 
REMARK    4  A    between atoms: C4_10  and  N3_12 
REMARK       I    between atoms: N3_12  and  C5_14 
REMARK       I    between atoms: C5_14  and  N5_19 
REMARK    5  A    between atoms: N4_15  and  O3_17 
REMARK    6  A    between atoms: N5_19  and  N6_21 
REMARK    7  A    between atoms: C6_23  and  C7_24 
REMARK    8  A    between atoms: C9_26  and  O4_27 
REMARK    9  A    between atoms: C10_29  and  O5_30 
REMARK   10  A    between atoms: C12_32  and  O6_33 
REMARK   11  A    between atoms: C13_35  and  O7_36 
ROOT
HETATM    1  N3  UNL     1      18.045  -6.311   6.001  1.00  0.00    -0.162 N 
ATOM      2  H3  UNL     1      18.144  -7.284   5.713  1.00  0.00     0.187 HD
HETATM    3  C5  UNL     1      18.790  -5.290   5.355  1.00  0.00     0.718 C 
HETATM    4  N4  UNL     1      19.445  -4.439   6.037  1.00  0.00    -0.097 N 
ATOM      5  H4  UNL     1      19.401  -4.535   7.052  1.00  0.00     0.213 HD
HETATM    6  N5  UNL     1      18.787  -5.242   3.936  1.00  0.00    -0.131 N 
ATOM      7  H5  UNL     1      18.996  -6.109   3.442  1.00  0.00     0.205 HD
ENDROOT
BRANCH   6   8
HETATM    8  N6  UNL     1      18.528  -4.132   3.170  1.00  0.00    -0.297 N 
HETATM    9  C6  UNL     1      19.295  -3.643   2.279  1.00  0.00     0.122 C 
ATOM     10  H6  UNL     1      17.640  -3.656   3.330  1.00  0.00     0.186 HD
BRANCH   9  11
HETATM   11  C7  UNL     1      18.983  -2.464   1.487  1.00  0.00     0.020 A 
HETATM   12  C8  UNL     1      18.618  -2.629   0.133  1.00  0.00     0.055 A 
HETATM   13  C9  UNL     1      18.287  -1.548  -0.648  1.00  0.00     0.102 A 
HETATM   14  C10 UNL     1      18.305  -0.281  -0.110  1.00  0.00     0.137 A 
HETATM   15  C12 UNL     1      18.667  -0.122   1.235  1.00  0.00     0.136 A 
HETATM   16  C13 UNL     1      19.009  -1.212   2.037  1.00  0.00     0.116 A 
BRANCH  13  17
HETATM   17  O4  UNL     1      17.927  -1.693  -1.981  1.00  0.00    -0.358 OA
ATOM     18  H4  UNL     1      17.395  -2.421  -2.279  1.00  0.00     0.217 HD
ENDBRANCH  13  17
BRANCH  14  19
HETATM   19  O5  UNL     1      17.978   0.810  -0.866  1.00  0.00    -0.351 OA
HETATM   20  C11 UNL     1      18.816   1.506  -1.735  1.00  0.00     0.210 C 
ENDBRANCH  14  19
BRANCH  15  21
HETATM   21  O6  UNL     1      18.696   1.137   1.809  1.00  0.00    -0.356 OA
ATOM     22  H6  UNL     1      18.745   1.235   2.753  1.00  0.00     0.218 HD
ENDBRANCH  15  21
BRANCH  16  23
HETATM   23  O7  UNL     1      19.361  -0.982   3.356  1.00  0.00    -0.352 OA
HETATM   24  C14 UNL     1      20.650  -0.434   3.680  1.00  0.00     0.210 C 
ENDBRANCH  16  23
ENDBRANCH   9  11
ENDBRANCH   6   8
BRANCH   1  25
HETATM   25  C4  UNL     1      17.162  -5.958   7.049  1.00  0.00     0.205 C 
HETATM   26  S1  UNL     1      17.665  -5.933   8.609  1.00  0.00    -0.039 SA
BRANCH  25  27
HETATM   27  N2  UNL     1      15.803  -5.610   6.812  1.00  0.00    -0.271 N 
HETATM   28  N1  UNL     1      14.906  -6.477   6.582  1.00  0.00    -0.243 N 
HETATM   29  C3  UNL     1      15.180  -7.871   6.542  1.00  0.00     0.379 C 
ATOM     30  H1  UNL     1      13.949  -6.161   6.420  1.00  0.00     0.192 HD
HETATM   31  O2  UNL     1      14.481  -8.704   7.163  1.00  0.00    -0.237 OA
ATOM     32  H2  UNL     1      15.541  -4.624   6.829  1.00  0.00     0.189 HD
BRANCH  29  33
HETATM   33  O1  UNL     1      16.245  -8.305   5.795  1.00  0.00    -0.303 OA
BRANCH  33  34
HETATM   34  C2  UNL     1      16.152  -8.823   4.495  1.00  0.00     0.176 C 
HETATM   35  C1  UNL     1      17.470  -8.732   3.749  1.00  0.00     0.034 C 
ENDBRANCH  33  34
ENDBRANCH  29  33
ENDBRANCH  25  27
ENDBRANCH   1  25
BRANCH   4  36
HETATM   36  O3  UNL     1      20.195  -3.419   5.557  1.00  0.00    -0.276 OA
ATOM     37  H3  UNL     1      20.491  -2.655   6.038  1.00  0.00     0.245 HD
ENDBRANCH   4  36
TORSDOF 11
ENDMDL
MODEL 4
REMARK VINA RESULT: -7.301656984      6.989     11.179
REMARK  11 active torsions:
REMARK  status: ('A' for Active; 'I' for Inactive)
REMARK    1  A    between atoms: C2_2  and  O1_3 
REMARK    2  A    between atoms: O1_3  and  C3_4 
REMARK       I    between atoms: C3_4  and  N1_6 
REMARK    3  A    between atoms: N2_8  and  C4_10 
REMARK    4  A    between atoms: C4_10  and  N3_12 
REMARK       I    between atoms: N3_12  and  C5_14 
REMARK       I    between atoms: C5_14  and  N5_19 
REMARK    5  A    between atoms: N4_15  and  O3_17 
REMARK    6  A    between atoms: N5_19  and  N6_21 
REMARK    7  A    between atoms: C6_23  and  C7_24 
REMARK    8  A    between atoms: C9_26  and  O4_27 
REMARK    9  A    between atoms: C10_29  and  O5_30 
REMARK   10  A    between atoms: C12_32  and  O6_33 
REMARK   11  A    between atoms: C13_35  and  O7_36 
ROOT
HETATM    1  N3  UNL     1      18.527  -5.648   7.910  1.00  0.00    -0.162 N 
ATOM      2  H3  UNL     1      17.599  -5.414   8.263  1.00  0.00     0.187 HD
HETATM    3  C5  UNL     1      19.677  -5.435   8.713  1.00  0.00     0.718 C 
HETATM    4  N4  UNL     1      20.688  -4.822   8.244  1.00  0.00    -0.097 N 
ATOM      5  H4  UNL     1      20.620  -4.502   7.278  1.00  0.00     0.213 HD
HETATM    6  N5  UNL     1      19.673  -5.921  10.048  1.00  0.00    -0.131 N 
ATOM      7  H5  UNL     1      18.868  -5.681  10.626  1.00  0.00     0.205 HD
ENDROOT
BRANCH   6   8
HETATM    8  N6  UNL     1      20.655  -6.684  10.629  1.00  0.00    -0.297 N 
HETATM    9  C6  UNL     1      21.323  -6.378  11.669  1.00  0.00     0.122 C 
ATOM     10  H6  UNL     1      20.869  -7.578  10.187  1.00  0.00     0.186 HD
BRANCH   9  11
HETATM   11  C7  UNL     1      22.357  -7.216  12.254  1.00  0.00     0.020 A 
HETATM   12  C8  UNL     1      22.102  -8.594  12.426  1.00  0.00     0.055 A 
HETATM   13  C9  UNL     1      23.057  -9.432  12.948  1.00  0.00     0.102 A 
HETATM   14  C10 UNL     1      24.287  -8.929  13.309  1.00  0.00     0.137 A 
HETATM   15  C12 UNL     1      24.537  -7.561  13.137  1.00  0.00     0.136 A 
HETATM   16  C13 UNL     1      23.573  -6.700  12.610  1.00  0.00     0.116 A 
BRANCH  13  17
HETATM   17  O4  UNL     1      22.822 -10.788  13.125  1.00  0.00    -0.358 OA
ATOM     18  H4  UNL     1      23.295 -11.298  13.773  1.00  0.00     0.217 HD
ENDBRANCH  13  17
BRANCH  14  19
HETATM   19  O5  UNL     1      25.255  -9.743  13.829  1.00  0.00    -0.351 OA
HETATM   20  C11 UNL     1      25.488 -10.009  15.178  1.00  0.00     0.210 C 
ENDBRANCH  14  19
BRANCH  15  21
HETATM   21  O6  UNL     1      25.762  -7.021  13.488  1.00  0.00    -0.356 OA
ATOM     22  H6  UNL     1      26.256  -7.381  14.216  1.00  0.00     0.218 HD
ENDBRANCH  15  21
BRANCH  16  23
HETATM   23  O7  UNL     1      23.884  -5.358  12.471  1.00  0.00    -0.352 OA
HETATM   24  C14 UNL     1      23.548  -4.422  13.509  1.00  0.00     0.210 C 
ENDBRANCH  16  23
ENDBRANCH   9  11
ENDBRANCH   6   8
BRANCH   1  25
HETATM   25  C4  UNL     1      18.685  -6.191   6.613  1.00  0.00     0.205 C 
HETATM   26  S1  UNL     1      18.380  -5.294   5.276  1.00  0.00    -0.039 SA
BRANCH  25  27
HETATM   27  N2  UNL     1      19.113  -7.530   6.398  1.00  0.00    -0.271 N 
HETATM   28  N1  UNL     1      18.303  -8.474   6.144  1.00  0.00    -0.243 N 
HETATM   29  C3  UNL     1      16.899  -8.274   6.053  1.00  0.00     0.379 C 
ATOM     30  H1  UNL     1      18.675  -9.413   6.000  1.00  0.00     0.192 HD
HETATM   31  O2  UNL     1      16.225  -8.718   5.095  1.00  0.00    -0.237 OA
ATOM     32  H2  UNL     1      20.110  -7.740   6.448  1.00  0.00     0.189 HD
BRANCH  29  33
HETATM   33  O1  UNL     1      16.274  -7.573   7.052  1.00  0.00    -0.303 OA
BRANCH  33  34
HETATM   34  C2  UNL     1      15.139  -6.767   6.873  1.00  0.00     0.176 C 
HETATM   35  C1  UNL     1      13.856  -7.514   7.184  1.00  0.00     0.034 C 
ENDBRANCH  33  34
ENDBRANCH  29  33
ENDBRANCH  25  27
ENDBRANCH   1  25
BRANCH   4  36
HETATM   36  O3  UNL     1      21.845  -4.550   8.893  1.00  0.00    -0.276 OA
ATOM     37  H3  UNL     1      22.567  -5.149   9.045  1.00  0.00     0.245 HD
ENDBRANCH   4  36
TORSDOF 11
ENDMDL
MODEL 5
REMARK VINA RESULT: -7.245474752      6.558      9.014
REMARK  11 active torsions:
REMARK  status: ('A' for Active; 'I' for Inactive)
REMARK    1  A    between atoms: C2_2  and  O1_3 
REMARK    2  A    between atoms: O1_3  and  C3_4 
REMARK       I    between atoms: C3_4  and  N1_6 
REMARK    3  A    between atoms: N2_8  and  C4_10 
REMARK    4  A    between atoms: C4_10  and  N3_12 
REMARK       I    between atoms: N3_12  and  C5_14 
REMARK       I    between atoms: C5_14  and  N5_19 
REMARK    5  A    between atoms: N4_15  and  O3_17 
REMARK    6  A    between atoms: N5_19  and  N6_21 
REMARK    7  A    between atoms: C6_23  and  C7_24 
REMARK    8  A    between atoms: C9_26  and  O4_27 
REMARK    9  A    between atoms: C10_29  and  O5_30 
REMARK   10  A    between atoms: C12_32  and  O6_33 
REMARK   11  A    between atoms: C13_35  and  O7_36 
ROOT
HETATM    1  N3  UNL     1      20.775  -4.766   8.512  1.00  0.00    -0.162 N 
ATOM      2  H3  UNL     1      20.796  -3.773   8.284  1.00  0.00     0.187 HD
HETATM    3  C5  UNL     1      19.538  -5.429   8.726  1.00  0.00     0.718 C 
HETATM    4  N4  UNL     1      19.364  -6.155   9.756  1.00  0.00    -0.097 N 
ATOM      5  H4  UNL     1      20.151  -6.228  10.401  1.00  0.00     0.213 HD
HETATM    6  N5  UNL     1      18.505  -5.263   7.767  1.00  0.00    -0.131 N 
ATOM      7  H5  UNL     1      18.277  -4.309   7.490  1.00  0.00     0.205 HD
ENDROOT
BRANCH   6   8
HETATM    8  N6  UNL     1      17.784  -6.274   7.178  1.00  0.00    -0.297 N 
HETATM    9  C6  UNL     1      16.534  -6.258   6.937  1.00  0.00     0.122 C 
ATOM     10  H6  UNL     1      18.298  -7.113   6.911  1.00  0.00     0.186 HD
BRANCH   9  11
HETATM   11  C7  UNL     1      15.808  -7.351   6.310  1.00  0.00     0.020 A 
HETATM   12  C8  UNL     1      14.568  -7.748   6.858  1.00  0.00     0.055 A 
HETATM   13  C9  UNL     1      13.830  -8.755   6.285  1.00  0.00     0.102 A 
HETATM   14  C10 UNL     1      14.298  -9.392   5.158  1.00  0.00     0.137 A 
HETATM   15  C12 UNL     1      15.528  -8.995   4.617  1.00  0.00     0.136 A 
HETATM   16  C13 UNL     1      16.288  -7.975   5.191  1.00  0.00     0.116 A 
BRANCH  13  17
HETATM   17  O4  UNL     1      12.611  -9.158   6.812  1.00  0.00    -0.358 OA
ATOM     18  H4  UNL     1      11.853  -8.584   6.814  1.00  0.00     0.217 HD
ENDBRANCH  13  17
BRANCH  14  19
HETATM   19  O5  UNL     1      13.581 -10.396   4.568  1.00  0.00    -0.351 OA
HETATM   20  C11 UNL     1      13.996 -11.711   4.366  1.00  0.00     0.210 C 
ENDBRANCH  14  19
BRANCH  15  21
HETATM   21  O6  UNL     1      16.029  -9.612   3.484  1.00  0.00    -0.356 OA
ATOM     22  H6  UNL     1      16.965  -9.641   3.324  1.00  0.00     0.218 HD
ENDBRANCH  15  21
BRANCH  16  23
HETATM   23  O7  UNL     1      17.497  -7.636   4.608  1.00  0.00    -0.352 OA
HETATM   24  C14 UNL     1      18.672  -8.426   4.858  1.00  0.00     0.210 C 
ENDBRANCH  16  23
ENDBRANCH   9  11
ENDBRANCH   6   8
BRANCH   1  25
HETATM   25  C4  UNL     1      21.977  -5.504   8.618  1.00  0.00     0.205 C 
HETATM   26  S1  UNL     1      23.436  -4.781   8.422  1.00  0.00    -0.039 SA
BRANCH  25  27
HETATM   27  N2  UNL     1      21.991  -6.898   8.898  1.00  0.00    -0.271 N 
HETATM   28  N1  UNL     1      22.068  -7.357  10.079  1.00  0.00    -0.243 N 
HETATM   29  C3  UNL     1      22.146  -6.518  11.223  1.00  0.00     0.379 C 
ATOM     30  H1  UNL     1      22.073  -8.369  10.212  1.00  0.00     0.192 HD
HETATM   31  O2  UNL     1      21.416  -6.691  12.226  1.00  0.00    -0.237 OA
ATOM     32  H2  UNL     1      21.936  -7.555   8.119  1.00  0.00     0.189 HD
BRANCH  29  33
HETATM   33  O1  UNL     1      23.054  -5.490  11.217  1.00  0.00    -0.303 OA
BRANCH  33  34
HETATM   34  C2  UNL     1      24.010  -5.262  12.219  1.00  0.00     0.176 C 
HETATM   35  C1  UNL     1      23.576  -4.172  13.182  1.00  0.00     0.034 C 
ENDBRANCH  33  34
ENDBRANCH  29  33
ENDBRANCH  25  27
ENDBRANCH   1  25
BRANCH   4  36
HETATM   36  O3  UNL     1      18.244  -6.840  10.085  1.00  0.00    -0.276 OA
ATOM     37  H3  UNL     1      17.618  -6.616  10.763  1.00  0.00     0.245 HD
ENDBRANCH   4  36
TORSDOF 11
ENDMDL
