MODEL 1
REMARK VINA RESULT: -7.237079538      0.000      0.000
REMARK  7 active torsions:
REMARK  status: ('A' for Active; 'I' for Inactive)
REMARK    1  A    between atoms: O1_2  and  C2_3 
REMARK    2  A    between atoms: C2_3  and  C3_5 
REMARK    3  A    between atoms: C5_10  and  O3_11 
REMARK    4  A    between atoms: C5_10  and  C17_28 
REMARK    5  A    between atoms: O3_11  and  C6_12 
REMARK    6  A    between atoms: C11_18  and  O5_19 
REMARK    7  A    between atoms: C15_25  and  O7_26 
ROOT
HETATM    1  C6  UNL     1      16.826 -10.018   3.512  1.00  0.00     0.107 A 
HETATM    2  C7  UNL     1      15.556 -10.335   3.905  1.00  0.00     0.049 A 
HETATM    3  C8  UNL     1      14.863  -9.602   4.854  1.00  0.00    -0.024 A 
HETATM    4  C9  UNL     1      13.470  -9.970   5.270  1.00  0.00     0.051 C 
HETATM    5  C10 UNL     1      15.448  -8.509   5.440  1.00  0.00     0.101 A 
HETATM    6  O4  UNL     1      14.830  -7.788   6.344  1.00  0.00    -0.286 OA
HETATM    7  C11 UNL     1      15.331  -6.740   6.941  1.00  0.00     0.187 A 
HETATM    8  C12 UNL     1      16.600  -6.321   6.633  1.00  0.00     0.119 A 
HETATM    9  C13 UNL     1      17.308  -7.048   5.678  1.00  0.00     0.192 A 
HETATM   10  O6  UNL     1      18.475  -6.712   5.357  1.00  0.00    -0.287 OA
HETATM   11  C14 UNL     1      16.741  -8.144   5.072  1.00  0.00     0.085 A 
HETATM   12  C15 UNL     1      17.405  -8.897   4.121  1.00  0.00     0.118 A 
ENDROOT
BRANCH   1  13
HETATM   13  O3  UNL     1      17.534 -10.703   2.596  1.00  0.00    -0.307 OA
BRANCH  13  14
HETATM   14  C5  UNL     1      17.888 -12.023   2.462  1.00  0.00     0.269 C 
HETATM   15  C3  UNL     1      18.777 -12.147   1.237  1.00  0.00     0.168 C 
HETATM   16  C4  UNL     1      19.954 -11.209   1.419  1.00  0.00     0.045 C 
HETATM   17  S1  UNL     1      19.391 -13.850   1.619  1.00  0.00    -0.019 SA
HETATM   18  N1  UNL     1      19.280 -13.630   3.395  1.00  0.00    -0.069 NA
HETATM   19  N2  UNL     1      18.871 -12.324   3.504  1.00  0.00    -0.083 NA
BRANCH  15  20
HETATM   20  C2  UNL     1      18.159 -12.070  -0.053  1.00  0.00     0.283 C 
HETATM   21  O2  UNL     1      17.573 -11.064  -0.479  1.00  0.00    -0.263 OA
BRANCH  20  22
HETATM   22  O1  UNL     1      18.218 -13.182  -0.883  1.00  0.00    -0.325 OA
HETATM   23  C1  UNL     1      18.823 -13.160  -2.156  1.00  0.00     0.213 C 
ENDBRANCH  20  22
ENDBRANCH  15  20
BRANCH  14  24
HETATM   24  C17 UNL     1      16.846 -13.036   2.569  1.00  0.00     0.231 C 
HETATM   25  O8  UNL     1      16.066 -13.375   1.602  1.00  0.00    -0.645 OA
HETATM   26  O9  UNL     1      16.582 -13.753   3.736  1.00  0.00    -0.645 OA
ENDBRANCH  14  24
ENDBRANCH  13  14
ENDBRANCH   1  13
BRANCH  12  27
HETATM   27  O7  UNL     1      18.691  -8.566   3.727  1.00  0.00    -0.352 OA
HETATM   28  C16 UNL     1      19.757  -9.204   4.458  1.00  0.00     0.210 C 
ENDBRANCH  12  27
BRANCH   7  29
HETATM   29  O5  UNL     1      14.578  -6.033   7.903  1.00  0.00    -0.341 OA
ATOM     30  H5  UNL     1      13.965  -5.358   7.636  1.00  0.00     0.220 HD
ENDBRANCH   7  29
TORSDOF 7
ENDMDL
MODEL 2
REMARK VINA RESULT: -7.168089196      4.697      7.607
REMARK  7 active torsions:
REMARK  status: ('A' for Active; 'I' for Inactive)
REMARK    1  A    between atoms: O1_2  and  C2_3 
REMARK    2  A    between atoms: C2_3  and  C3_5 
REMARK    3  A    between atoms: C5_10  and  O3_11 
REMARK    4  A    between atoms: C5_10  and  C17_28 
REMARK    5  A    between atoms: O3_11  and  C6_12 
REMARK    6  A    between atoms: C11_18  and  O5_19 
REMARK    7  A    between atoms: C15_25  and  O7_26 
ROOT
HETATM    1  C6  UNL     1      21.494 -11.829   3.325  1.00  0.00     0.107 A 
HETATM    2  C7  UNL     1      20.366 -11.074   3.473  1.00  0.00     0.049 A 
HETATM    3  C8  UNL     1      19.697 -10.511   2.399  1.00  0.00    -0.024 A 
HETATM    4  C9  UNL     1      18.459  -9.685   2.586  1.00  0.00     0.051 C 
HETATM    5  C10 UNL     1      20.162 -10.701   1.123  1.00  0.00     0.101 A 
HETATM    6  O4  UNL     1      19.563 -10.185   0.077  1.00  0.00    -0.286 OA
HETATM    7  C11 UNL     1      19.957 -10.326  -1.160  1.00  0.00     0.187 A 
HETATM    8  C12 UNL     1      21.079 -11.061  -1.440  1.00  0.00     0.119 A 
HETATM    9  C13 UNL     1      21.760 -11.636  -0.368  1.00  0.00     0.192 A 
HETATM   10  O6  UNL     1      22.797 -12.318  -0.564  1.00  0.00    -0.287 OA
HETATM   11  C14 UNL     1      21.310 -11.464   0.919  1.00  0.00     0.085 A 
HETATM   12  C15 UNL     1      21.953 -12.013   2.013  1.00  0.00     0.118 A 
ENDROOT
BRANCH   1  13
HETATM   13  O3  UNL     1      22.174 -12.392   4.339  1.00  0.00    -0.307 OA
BRANCH  13  14
HETATM   14  C5  UNL     1      22.835 -11.891   5.433  1.00  0.00     0.269 C 
HETATM   15  C3  UNL     1      23.885 -12.906   5.851  1.00  0.00     0.168 C 
HETATM   16  C4  UNL     1      24.781 -13.168   4.656  1.00  0.00     0.045 C 
HETATM   17  S1  UNL     1      24.817 -11.765   6.972  1.00  0.00    -0.019 SA
HETATM   18  N1  UNL     1      24.421 -10.299   6.019  1.00  0.00    -0.069 NA
HETATM   19  N2  UNL     1      23.712 -10.817   4.963  1.00  0.00    -0.083 NA
BRANCH  15  20
HETATM   20  C2  UNL     1      23.445 -14.090   6.526  1.00  0.00     0.283 C 
HETATM   21  O2  UNL     1      24.022 -14.581   7.506  1.00  0.00    -0.263 OA
BRANCH  20  22
HETATM   22  O1  UNL     1      22.303 -14.731   6.062  1.00  0.00    -0.325 OA
HETATM   23  C1  UNL     1      22.340 -15.931   5.324  1.00  0.00     0.213 C 
ENDBRANCH  20  22
ENDBRANCH  15  20
BRANCH  14  24
HETATM   24  C17 UNL     1      22.049 -11.337   6.527  1.00  0.00     0.231 C 
HETATM   25  O8  UNL     1      21.941 -11.882   7.688  1.00  0.00    -0.645 OA
HETATM   26  O9  UNL     1      21.327 -10.147   6.434  1.00  0.00    -0.645 OA
ENDBRANCH  14  24
ENDBRANCH  13  14
ENDBRANCH   1  13
BRANCH  12  27
HETATM   27  O7  UNL     1      23.096 -12.779   1.852  1.00  0.00    -0.352 OA
HETATM   28  C16 UNL     1      22.909 -14.207   1.896  1.00  0.00     0.210 C 
ENDBRANCH  12  27
BRANCH   7  29
HETATM   29  O5  UNL     1      19.236  -9.726  -2.215  1.00  0.00    -0.341 OA
ATOM     30  H5  UNL     1      18.306  -9.549  -2.127  1.00  0.00     0.220 HD
ENDBRANCH   7  29
TORSDOF 7
ENDMDL
MODEL 3
REMARK VINA RESULT: -7.159331422      4.859      8.078
REMARK  7 active torsions:
REMARK  status: ('A' for Active; 'I' for Inactive)
REMARK    1  A    between atoms: O1_2  and  C2_3 
REMARK    2  A    between atoms: C2_3  and  C3_5 
REMARK    3  A    between atoms: C5_10  and  O3_11 
REMARK    4  A    between atoms: C5_10  and  C17_28 
REMARK    5  A    between atoms: O3_11  and  C6_12 
REMARK    6  A    between atoms: C11_18  and  O5_19 
REMARK    7  A    between atoms: C15_25  and  O7_26 
ROOT
HETATM    1  C6  UNL     1      21.849 -12.176   2.891  1.00  0.00     0.107 A 
HETATM    2  C7  UNL     1      20.841 -11.309   3.208  1.00  0.00     0.049 A 
HETATM    3  C8  UNL     1      20.107 -10.633   2.248  1.00  0.00    -0.024 A 
HETATM    4  C9  UNL     1      19.006  -9.687   2.620  1.00  0.00     0.051 C 
HETATM    5  C10 UNL     1      20.379 -10.821   0.916  1.00  0.00     0.101 A 
HETATM    6  O4  UNL     1      19.712 -10.201  -0.026  1.00  0.00    -0.286 OA
HETATM    7  C11 UNL     1      19.924 -10.333  -1.308  1.00  0.00     0.187 A 
HETATM    8  C12 UNL     1      20.910 -11.174  -1.754  1.00  0.00     0.119 A 
HETATM    9  C13 UNL     1      21.655 -11.862  -0.797  1.00  0.00     0.192 A 
HETATM   10  O6  UNL     1      22.574 -12.645  -1.147  1.00  0.00    -0.287 OA
HETATM   11  C14 UNL     1      21.398 -11.696   0.542  1.00  0.00     0.085 A 
HETATM   12  C15 UNL     1      22.110 -12.355   1.526  1.00  0.00     0.118 A 
ENDROOT
BRANCH   1  13
HETATM   13  O3  UNL     1      22.586 -12.851   3.791  1.00  0.00    -0.307 OA
BRANCH  13  14
HETATM   14  C5  UNL     1      23.781 -12.600   4.420  1.00  0.00     0.269 C 
HETATM   15  C3  UNL     1      23.643 -13.019   5.872  1.00  0.00     0.168 C 
HETATM   16  C4  UNL     1      23.226 -14.476   5.899  1.00  0.00     0.045 C 
HETATM   17  S1  UNL     1      25.453 -12.977   6.256  1.00  0.00    -0.019 SA
HETATM   18  N1  UNL     1      25.946 -13.423   4.591  1.00  0.00    -0.069 NA
HETATM   19  N2  UNL     1      24.737 -13.612   3.967  1.00  0.00    -0.083 NA
BRANCH  15  20
HETATM   20  C2  UNL     1      22.883 -12.175   6.747  1.00  0.00     0.283 C 
HETATM   21  O2  UNL     1      21.716 -11.825   6.525  1.00  0.00    -0.263 OA
BRANCH  20  22
HETATM   22  O1  UNL     1      23.482 -11.722   7.915  1.00  0.00    -0.325 OA
HETATM   23  C1  UNL     1      23.014 -10.604   8.636  1.00  0.00     0.213 C 
ENDBRANCH  20  22
ENDBRANCH  15  20
BRANCH  14  24
HETATM   24  C17 UNL     1      24.417 -11.306   4.212  1.00  0.00     0.231 C 
HETATM   25  O8  UNL     1      24.375 -10.337   5.059  1.00  0.00    -0.645 OA
HETATM   26  O9  UNL     1      25.147 -10.977   3.070  1.00  0.00    -0.645 OA
ENDBRANCH  14  24
ENDBRANCH  13  14
ENDBRANCH   1  13
BRANCH  12  27
HETATM   27  O7  UNL     1      23.129 -13.233   1.195  1.00  0.00    -0.352 OA
HETATM   28  C16 UNL     1      22.783 -14.632   1.205  1.00  0.00     0.210 C 
ENDBRANCH  12  27
BRANCH   7  29
HETATM   29  O5  UNL     1      19.145  -9.616  -2.242  1.00  0.00    -0.341 OA
ATOM     30  H5  UNL     1      19.111  -9.887  -3.152  1.00  0.00     0.220 HD
ENDBRANCH   7  29
TORSDOF 7
ENDMDL
MODEL 4
REMARK VINA RESULT: -7.144206034      5.186      7.721
REMARK  7 active torsions:
REMARK  status: ('A' for Active; 'I' for Inactive)
REMARK    1  A    between atoms: O1_2  and  C2_3 
REMARK    2  A    between atoms: C2_3  and  C3_5 
REMARK    3  A    between atoms: C5_10  and  O3_11 
REMARK    4  A    between atoms: C5_10  and  C17_28 
REMARK    5  A    between atoms: O3_11  and  C6_12 
REMARK    6  A    between atoms: C11_18  and  O5_19 
REMARK    7  A    between atoms: C15_25  and  O7_26 
ROOT
HETATM    1  C6  UNL     1      21.874 -11.976   3.876  1.00  0.00     0.107 A 
HETATM    2  C7  UNL     1      20.842 -11.173   4.269  1.00  0.00     0.049 A 
HETATM    3  C8  UNL     1      19.920 -10.649   3.378  1.00  0.00    -0.024 A 
HETATM    4  C9  UNL     1      18.795  -9.769   3.834  1.00  0.00     0.051 C 
HETATM    5  C10 UNL     1      20.021 -10.931   2.039  1.00  0.00     0.101 A 
HETATM    6  O4  UNL     1      19.173 -10.456   1.160  1.00  0.00    -0.286 OA
HETATM    7  C11 UNL     1      19.217 -10.684  -0.125  1.00  0.00     0.187 A 
HETATM    8  C12 UNL     1      20.208 -11.475  -0.645  1.00  0.00     0.119 A 
HETATM    9  C13 UNL     1      21.140 -12.010   0.242  1.00  0.00     0.192 A 
HETATM   10  O6  UNL     1      22.073 -12.741  -0.178  1.00  0.00    -0.287 OA
HETATM   11  C14 UNL     1      21.057 -11.747   1.588  1.00  0.00     0.085 A 
HETATM   12  C15 UNL     1      21.959 -12.254   2.504  1.00  0.00     0.118 A 
ENDROOT
BRANCH   1  13
HETATM   13  O3  UNL     1      22.790 -12.504   4.707  1.00  0.00    -0.307 OA
BRANCH  13  14
HETATM   14  C5  UNL     1      23.547 -11.993   5.733  1.00  0.00     0.269 C 
HETATM   15  C3  UNL     1      24.901 -12.681   5.702  1.00  0.00     0.168 C 
HETATM   16  C4  UNL     1      25.502 -12.467   4.327  1.00  0.00     0.045 C 
HETATM   17  S1  UNL     1      25.744 -11.491   6.842  1.00  0.00    -0.019 SA
HETATM   18  N1  UNL     1      24.743 -10.095   6.331  1.00  0.00    -0.069 NA
HETATM   19  N2  UNL     1      23.956 -10.641   5.348  1.00  0.00    -0.083 NA
BRANCH  15  20
HETATM   20  C2  UNL     1      24.979 -14.032   6.173  1.00  0.00     0.283 C 
HETATM   21  O2  UNL     1      25.534 -14.362   7.231  1.00  0.00    -0.263 OA
BRANCH  20  22
HETATM   22  O1  UNL     1      24.400 -15.035   5.407  1.00  0.00    -0.325 OA
HETATM   23  C1  UNL     1      23.332 -15.833   5.865  1.00  0.00     0.213 C 
ENDBRANCH  20  22
ENDBRANCH  15  20
BRANCH  14  24
HETATM   24  C17 UNL     1      22.943 -11.884   7.054  1.00  0.00     0.231 C 
HETATM   25  O8  UNL     1      22.435 -10.801   7.528  1.00  0.00    -0.645 OA
HETATM   26  O9  UNL     1      22.847 -12.948   7.951  1.00  0.00    -0.645 OA
ENDBRANCH  14  24
ENDBRANCH  13  14
ENDBRANCH   1  13
BRANCH  12  27
HETATM   27  O7  UNL     1      23.002 -13.070   2.095  1.00  0.00    -0.352 OA
HETATM   28  C16 UNL     1      22.833 -14.479   2.343  1.00  0.00     0.210 C 
ENDBRANCH  12  27
BRANCH   7  29
HETATM   29  O5  UNL     1      18.251 -10.121  -0.987  1.00  0.00    -0.341 OA
ATOM     30  H5  UNL     1      17.538 -10.650  -1.325  1.00  0.00     0.220 HD
ENDBRANCH   7  29
TORSDOF 7
ENDMDL
MODEL 5
REMARK VINA RESULT: -7.087330362      2.920      5.084
REMARK  7 active torsions:
REMARK  status: ('A' for Active; 'I' for Inactive)
REMARK    1  A    between atoms: O1_2  and  C2_3 
REMARK    2  A    between atoms: C2_3  and  C3_5 
REMARK    3  A    between atoms: C5_10  and  O3_11 
REMARK    4  A    between atoms: C5_10  and  C17_28 
REMARK    5  A    between atoms: O3_11  and  C6_12 
REMARK    6  A    between atoms: C11_18  and  O5_19 
REMARK    7  A    between atoms: C15_25  and  O7_26 
ROOT
HETATM    1  C6  UNL     1      19.924 -11.774   1.690  1.00  0.00     0.107 A 
HETATM    2  C7  UNL     1      21.151 -11.575   2.256  1.00  0.00     0.049 A 
HETATM    3  C8  UNL     1      21.353 -10.713   3.320  1.00  0.00    -0.024 A 
HETATM    4  C9  UNL     1      22.710 -10.511   3.924  1.00  0.00     0.051 C 
HETATM    5  C10 UNL     1      20.297 -10.016   3.850  1.00  0.00     0.101 A 
HETATM    6  O4  UNL     1      20.443  -9.187   4.856  1.00  0.00    -0.286 OA
HETATM    7  C11 UNL     1      19.481  -8.493   5.402  1.00  0.00     0.187 A 
HETATM    8  C12 UNL     1      18.201  -8.604   4.923  1.00  0.00     0.119 A 
HETATM    9  C13 UNL     1      17.984  -9.471   3.853  1.00  0.00     0.192 A 
HETATM   10  O6  UNL     1      16.832  -9.611   3.371  1.00  0.00    -0.287 OA
HETATM   11  C14 UNL     1      19.024 -10.185   3.309  1.00  0.00     0.085 A 
HETATM   12  C15 UNL     1      18.857 -11.054   2.247  1.00  0.00     0.118 A 
ENDROOT
BRANCH   1  13
HETATM   13  O3  UNL     1      19.684 -12.600   0.656  1.00  0.00    -0.307 OA
BRANCH  13  14
HETATM   14  C5  UNL     1      19.721 -12.449  -0.708  1.00  0.00     0.269 C 
HETATM   15  C3  UNL     1      20.517 -13.606  -1.286  1.00  0.00     0.168 C 
HETATM   16  C4  UNL     1      19.866 -14.895  -0.825  1.00  0.00     0.045 C 
HETATM   17  S1  UNL     1      19.990 -13.342  -3.041  1.00  0.00    -0.019 SA
HETATM   18  N1  UNL     1      18.384 -12.682  -2.593  1.00  0.00    -0.069 NA
HETATM   19  N2  UNL     1      18.393 -12.789  -1.224  1.00  0.00    -0.083 NA
BRANCH  15  20
HETATM   20  C2  UNL     1      21.942 -13.582  -1.138  1.00  0.00     0.283 C 
HETATM   21  O2  UNL     1      22.521 -13.547  -0.043  1.00  0.00    -0.263 OA
BRANCH  20  22
HETATM   22  O1  UNL     1      22.727 -13.602  -2.283  1.00  0.00    -0.325 OA
HETATM   23  C1  UNL     1      23.253 -14.788  -2.834  1.00  0.00     0.213 C 
ENDBRANCH  20  22
ENDBRANCH  15  20
BRANCH  14  24
HETATM   24  C17 UNL     1      20.055 -11.140  -1.254  1.00  0.00     0.231 C 
HETATM   25  O8  UNL     1      21.257 -10.740  -1.486  1.00  0.00    -0.645 OA
HETATM   26  O9  UNL     1      19.105 -10.176  -1.588  1.00  0.00    -0.645 OA
ENDBRANCH  14  24
ENDBRANCH  13  14
ENDBRANCH   1  13
BRANCH  12  27
HETATM   27  O7  UNL     1      17.608 -11.250   1.682  1.00  0.00    -0.352 OA
HETATM   28  C16 UNL     1      16.934 -12.469   2.051  1.00  0.00     0.210 C 
ENDBRANCH  12  27
BRANCH   7  29
HETATM   29  O5  UNL     1      19.746  -7.627   6.485  1.00  0.00    -0.341 OA
ATOM     30  H5  UNL     1      19.300  -7.741   7.316  1.00  0.00     0.220 HD
ENDBRANCH   7  29
TORSDOF 7
ENDMDL
