MODEL 1
REMARK VINA RESULT: -7.864556506      0.000      0.000
REMARK  7 active torsions:
REMARK  status: ('A' for Active; 'I' for Inactive)
REMARK    1  A    between atoms: C2_2  and  C3_3 
REMARK    2  A    between atoms: C6_9  and  O3_10 
REMARK    3  A    between atoms: O3_10  and  S2_11 
REMARK    4  A    between atoms: C9_18  and  O8_19 
REMARK    5  A    between atoms: O8_19  and  S3_20 
REMARK    6  A    between atoms: S3_20  and  N1_23 
REMARK    7  A    between atoms: N1_23  and  O11_25 
ROOT
HETATM    1  C1  UNL     1      19.548  -4.798   6.188  1.00  0.00     0.063 C 
HETATM    2  C2  UNL     1      18.167  -5.389   6.010  1.00  0.00     0.171 C 
HETATM    3  S1  UNL     1      17.289  -5.243   7.615  1.00  0.00    -0.122 SA
HETATM    4  C4  UNL     1      15.752  -6.203   7.441  1.00  0.00     0.117 C 
HETATM    5  C5  UNL     1      16.095  -7.453   6.721  1.00  0.00     0.001 C 
HETATM    6  C6  UNL     1      15.138  -8.267   6.376  1.00  0.00     0.167 C 
HETATM    7  C7  UNL     1      17.482  -7.814   6.378  1.00  0.00     0.268 C 
HETATM    8  O7  UNL     1      17.607  -8.573   5.189  1.00  0.00    -0.304 OA
HETATM    9  C8  UNL     1      18.733  -7.829   4.887  1.00  0.00     0.170 C 
HETATM   10  C9  UNL     1      19.819  -8.047   4.139  1.00  0.00     0.214 C 
HETATM   11  N2  UNL     1      18.208  -6.796   5.701  1.00  0.00    -0.301 N 
ENDROOT
BRANCH  10  12
HETATM   12  O8  UNL     1      19.971  -9.239   3.466  1.00  0.00    -0.223 OA
BRANCH  12  13
HETATM   13  S3  UNL     1      20.717 -10.614   4.091  1.00  0.00     0.384 S 
HETATM   14  O9  UNL     1      19.747 -11.729   4.371  1.00  0.00    -0.173 OA
HETATM   15  O10 UNL     1      21.863 -11.140   2.998  1.00  0.00    -0.173 OA
BRANCH  13  16
HETATM   16  N1  UNL     1      21.467 -10.308   5.449  1.00  0.00    -0.171 N 
ATOM     17  H1  UNL     1      22.465 -10.104   5.486  1.00  0.00     0.209 HD
BRANCH  16  18
HETATM   18  O11 UNL     1      20.671 -10.336   6.591  1.00  0.00    -0.278 OA
ATOM     19  H11 UNL     1      20.753 -11.116   7.126  1.00  0.00     0.245 HD
ENDBRANCH  16  18
ENDBRANCH  13  16
ENDBRANCH  12  13
ENDBRANCH  10  12
BRANCH   2  20
HETATM   20  C3  UNL     1      17.373  -4.630   5.030  1.00  0.00     0.213 C 
HETATM   21  O1  UNL     1      16.267  -4.166   5.353  1.00  0.00    -0.645 OA
HETATM   22  O2  UNL     1      17.868  -4.441   3.764  1.00  0.00    -0.645 OA
ENDBRANCH   2  20
BRANCH   6  23
HETATM   23  O3  UNL     1      13.827  -7.977   6.670  1.00  0.00    -0.226 OA
BRANCH  23  24
HETATM   24  S2  UNL     1      12.568  -9.123   6.490  1.00  0.00     0.256 S 
HETATM   25  O4  UNL     1      11.446  -8.406   5.774  1.00  0.00    -0.572 OA
HETATM   26  O5  UNL     1      12.129  -9.655   7.809  1.00  0.00    -0.572 OA
HETATM   27  O6  UNL     1      13.066 -10.414   5.526  1.00  0.00    -0.572 OA
ENDBRANCH  23  24
ENDBRANCH   6  23
TORSDOF 7
ENDMDL
MODEL 2
REMARK VINA RESULT: -7.650346794      3.261      5.556
REMARK  7 active torsions:
REMARK  status: ('A' for Active; 'I' for Inactive)
REMARK    1  A    between atoms: C2_2  and  C3_3 
REMARK    2  A    between atoms: C6_9  and  O3_10 
REMARK    3  A    between atoms: O3_10  and  S2_11 
REMARK    4  A    between atoms: C9_18  and  O8_19 
REMARK    5  A    between atoms: O8_19  and  S3_20 
REMARK    6  A    between atoms: S3_20  and  N1_23 
REMARK    7  A    between atoms: N1_23  and  O11_25 
ROOT
HETATM    1  C1  UNL     1      16.712  -8.041   7.464  1.00  0.00     0.063 C 
HETATM    2  C2  UNL     1      17.450  -6.865   6.865  1.00  0.00     0.171 C 
HETATM    3  S1  UNL     1      16.194  -5.685   6.233  1.00  0.00    -0.122 SA
HETATM    4  C4  UNL     1      17.111  -4.431   5.283  1.00  0.00     0.117 C 
HETATM    5  C5  UNL     1      18.142  -5.146   4.493  1.00  0.00     0.001 C 
HETATM    6  C6  UNL     1      19.005  -4.453   3.806  1.00  0.00     0.167 C 
HETATM    7  C7  UNL     1      18.229  -6.616   4.453  1.00  0.00     0.268 C 
HETATM    8  O7  UNL     1      19.544  -7.115   4.280  1.00  0.00    -0.304 OA
HETATM    9  C8  UNL     1      19.238  -8.108   5.193  1.00  0.00     0.170 C 
HETATM   10  C9  UNL     1      19.708  -9.338   5.422  1.00  0.00     0.214 C 
HETATM   11  N2  UNL     1      18.253  -7.243   5.730  1.00  0.00    -0.301 N 
ENDROOT
BRANCH  10  12
HETATM   12  O8  UNL     1      20.724  -9.849   4.644  1.00  0.00    -0.223 OA
BRANCH  12  13
HETATM   13  S3  UNL     1      21.771 -11.083   5.111  1.00  0.00     0.384 S 
HETATM   14  O9  UNL     1      21.152 -12.449   4.996  1.00  0.00    -0.173 OA
HETATM   15  O10 UNL     1      23.135 -11.013   4.153  1.00  0.00    -0.173 OA
BRANCH  13  16
HETATM   16  N1  UNL     1      22.240 -10.918   6.612  1.00  0.00    -0.171 N 
ATOM     17  H1  UNL     1      23.155 -10.542   6.858  1.00  0.00     0.209 HD
BRANCH  16  18
HETATM   18  O11 UNL     1      21.318 -11.322   7.574  1.00  0.00    -0.278 OA
ATOM     19  H11 UNL     1      21.118 -10.677   8.242  1.00  0.00     0.245 HD
ENDBRANCH  16  18
ENDBRANCH  13  16
ENDBRANCH  12  13
ENDBRANCH  10  12
BRANCH   2  20
HETATM   20  C3  UNL     1      18.231  -6.139   7.880  1.00  0.00     0.213 C 
HETATM   21  O1  UNL     1      17.729  -5.889   8.987  1.00  0.00    -0.645 OA
HETATM   22  O2  UNL     1      19.513  -5.745   7.589  1.00  0.00    -0.645 OA
ENDBRANCH   2  20
BRANCH   6  23
HETATM   23  O3  UNL     1      18.968  -3.079   3.810  1.00  0.00    -0.226 OA
BRANCH  23  24
HETATM   24  S2  UNL     1      19.937  -2.130   2.766  1.00  0.00     0.256 S 
HETATM   25  O4  UNL     1      20.270  -3.011   1.583  1.00  0.00    -0.572 OA
HETATM   26  O5  UNL     1      21.164  -1.649   3.458  1.00  0.00    -0.572 OA
HETATM   27  O6  UNL     1      19.079  -0.793   2.200  1.00  0.00    -0.572 OA
ENDBRANCH  23  24
ENDBRANCH   6  23
TORSDOF 7
ENDMDL
MODEL 3
REMARK VINA RESULT: -7.594528528      3.370      5.858
REMARK  7 active torsions:
REMARK  status: ('A' for Active; 'I' for Inactive)
REMARK    1  A    between atoms: C2_2  and  C3_3 
REMARK    2  A    between atoms: C6_9  and  O3_10 
REMARK    3  A    between atoms: O3_10  and  S2_11 
REMARK    4  A    between atoms: C9_18  and  O8_19 
REMARK    5  A    between atoms: O8_19  and  S3_20 
REMARK    6  A    between atoms: S3_20  and  N1_23 
REMARK    7  A    between atoms: N1_23  and  O11_25 
ROOT
HETATM    1  C1  UNL     1      16.789  -8.096   7.318  1.00  0.00     0.063 C 
HETATM    2  C2  UNL     1      17.530  -6.914   6.733  1.00  0.00     0.171 C 
HETATM    3  S1  UNL     1      16.287  -5.630   6.317  1.00  0.00    -0.122 SA
HETATM    4  C4  UNL     1      17.175  -4.353   5.371  1.00  0.00     0.117 C 
HETATM    5  C5  UNL     1      18.084  -5.054   4.433  1.00  0.00     0.001 C 
HETATM    6  C6  UNL     1      18.914  -4.353   3.714  1.00  0.00     0.167 C 
HETATM    7  C7  UNL     1      18.086  -6.519   4.280  1.00  0.00     0.268 C 
HETATM    8  O7  UNL     1      19.347  -7.066   3.940  1.00  0.00    -0.304 OA
HETATM    9  C8  UNL     1      19.076  -8.110   4.806  1.00  0.00     0.170 C 
HETATM   10  C9  UNL     1      19.497  -9.375   4.898  1.00  0.00     0.214 C 
HETATM   11  N2  UNL     1      18.198  -7.242   5.499  1.00  0.00    -0.301 N 
ENDROOT
BRANCH  10  12
HETATM   12  O8  UNL     1      20.403  -9.874   3.988  1.00  0.00    -0.223 OA
BRANCH  12  13
HETATM   13  S3  UNL     1      20.003 -10.740   2.600  1.00  0.00     0.384 S 
HETATM   14  O9  UNL     1      21.209 -11.175   1.814  1.00  0.00    -0.173 OA
HETATM   15  O10 UNL     1      19.122 -12.084   3.049  1.00  0.00    -0.173 OA
BRANCH  13  16
HETATM   16  N1  UNL     1      19.100  -9.891   1.619  1.00  0.00    -0.171 N 
ATOM     17  H1  UNL     1      19.044  -8.874   1.672  1.00  0.00     0.209 HD
BRANCH  16  18
HETATM   18  O11 UNL     1      18.385 -10.626   0.676  1.00  0.00    -0.278 OA
ATOM     19  H11 UNL     1      18.784 -10.683  -0.184  1.00  0.00     0.245 HD
ENDBRANCH  16  18
ENDBRANCH  13  16
ENDBRANCH  12  13
ENDBRANCH  10  12
BRANCH   2  20
HETATM   20  C3  UNL     1      18.445  -6.307   7.714  1.00  0.00     0.213 C 
HETATM   21  O1  UNL     1      19.617  -6.051   7.394  1.00  0.00    -0.645 OA
HETATM   22  O2  UNL     1      17.988  -6.028   8.978  1.00  0.00    -0.645 OA
ENDBRANCH   2  20
BRANCH   6  23
HETATM   23  O3  UNL     1      18.953  -2.983   3.820  1.00  0.00    -0.226 OA
BRANCH  23  24
HETATM   24  S2  UNL     1      19.975  -2.014   2.846  1.00  0.00     0.256 S 
HETATM   25  O4  UNL     1      20.261  -2.824   1.602  1.00  0.00    -0.572 OA
HETATM   26  O5  UNL     1      21.224  -1.651   3.568  1.00  0.00    -0.572 OA
HETATM   27  O6  UNL     1      19.190  -0.595   2.380  1.00  0.00    -0.572 OA
ENDBRANCH  23  24
ENDBRANCH   6  23
TORSDOF 7
ENDMDL
MODEL 4
REMARK VINA RESULT: -7.170327857      3.816      6.822
REMARK  7 active torsions:
REMARK  status: ('A' for Active; 'I' for Inactive)
REMARK    1  A    between atoms: C2_2  and  C3_3 
REMARK    2  A    between atoms: C6_9  and  O3_10 
REMARK    3  A    between atoms: O3_10  and  S2_11 
REMARK    4  A    between atoms: C9_18  and  O8_19 
REMARK    5  A    between atoms: O8_19  and  S3_20 
REMARK    6  A    between atoms: S3_20  and  N1_23 
REMARK    7  A    between atoms: N1_23  and  O11_25 
ROOT
HETATM    1  C1  UNL     1      17.009  -8.163   7.285  1.00  0.00     0.063 C 
HETATM    2  C2  UNL     1      17.213  -6.805   6.650  1.00  0.00     0.171 C 
HETATM    3  S1  UNL     1      17.266  -7.045   4.832  1.00  0.00    -0.122 SA
HETATM    4  C4  UNL     1      17.784  -5.448   4.126  1.00  0.00     0.117 C 
HETATM    5  C5  UNL     1      18.866  -4.917   4.989  1.00  0.00     0.001 C 
HETATM    6  C6  UNL     1      19.335  -3.725   4.754  1.00  0.00     0.167 C 
HETATM    7  C7  UNL     1      19.436  -5.688   6.108  1.00  0.00     0.268 C 
HETATM    8  O7  UNL     1      19.892  -4.893   7.188  1.00  0.00    -0.304 OA
HETATM    9  C8  UNL     1      19.370  -5.843   8.048  1.00  0.00     0.170 C 
HETATM   10  C9  UNL     1      19.639  -6.206   9.305  1.00  0.00     0.214 C 
HETATM   11  N2  UNL     1      18.474  -6.214   7.015  1.00  0.00    -0.301 N 
ENDROOT
BRANCH  10  12
HETATM   12  O8  UNL     1      20.635  -5.572  10.014  1.00  0.00    -0.223 OA
BRANCH  12  13
HETATM   13  S3  UNL     1      22.274  -5.953   9.932  1.00  0.00     0.384 S 
HETATM   14  O9  UNL     1      22.918  -6.057  11.287  1.00  0.00    -0.173 OA
HETATM   15  O10 UNL     1      22.441  -7.406   9.128  1.00  0.00    -0.173 OA
BRANCH  13  16
HETATM   16  N1  UNL     1      23.088  -4.868   9.120  1.00  0.00    -0.171 N 
ATOM     17  H1  UNL     1      24.094  -4.744   9.234  1.00  0.00     0.209 HD
BRANCH  16  18
HETATM   18  O11 UNL     1      22.339  -4.094   8.238  1.00  0.00    -0.278 OA
ATOM     19  H11 UNL     1      21.778  -4.580   7.645  1.00  0.00     0.245 HD
ENDBRANCH  16  18
ENDBRANCH  13  16
ENDBRANCH  12  13
ENDBRANCH  10  12
BRANCH   2  20
HETATM   20  C3  UNL     1      16.079  -5.905   6.919  1.00  0.00     0.213 C 
HETATM   21  O1  UNL     1      14.918  -6.343   6.891  1.00  0.00    -0.645 OA
HETATM   22  O2  UNL     1      16.321  -4.583   7.200  1.00  0.00    -0.645 OA
ENDBRANCH   2  20
BRANCH   6  23
HETATM   23  O3  UNL     1      18.838  -2.964   3.723  1.00  0.00    -0.226 OA
BRANCH  23  24
HETATM   24  S2  UNL     1      19.849  -2.095   2.650  1.00  0.00     0.256 S 
HETATM   25  O4  UNL     1      21.096  -1.750   3.433  1.00  0.00    -0.572 OA
HETATM   26  O5  UNL     1      19.168  -0.876   2.133  1.00  0.00    -0.572 OA
HETATM   27  O6  UNL     1      20.301  -3.056   1.340  1.00  0.00    -0.572 OA
ENDBRANCH  23  24
ENDBRANCH   6  23
TORSDOF 7
ENDMDL
MODEL 5
REMARK VINA RESULT: -7.169139108      3.269      5.493
REMARK  7 active torsions:
REMARK  status: ('A' for Active; 'I' for Inactive)
REMARK    1  A    between atoms: C2_2  and  C3_3 
REMARK    2  A    between atoms: C6_9  and  O3_10 
REMARK    3  A    between atoms: O3_10  and  S2_11 
REMARK    4  A    between atoms: C9_18  and  O8_19 
REMARK    5  A    between atoms: O8_19  and  S3_20 
REMARK    6  A    between atoms: S3_20  and  N1_23 
REMARK    7  A    between atoms: N1_23  and  O11_25 
ROOT
HETATM    1  C1  UNL     1      16.296  -5.147   7.685  1.00  0.00     0.063 C 
HETATM    2  C2  UNL     1      17.047  -5.730   6.508  1.00  0.00     0.171 C 
HETATM    3  S1  UNL     1      16.086  -7.167   5.893  1.00  0.00    -0.122 SA
HETATM    4  C4  UNL     1      17.148  -8.000   4.670  1.00  0.00     0.117 C 
HETATM    5  C5  UNL     1      18.524  -8.015   5.222  1.00  0.00     0.001 C 
HETATM    6  C6  UNL     1      19.497  -8.464   4.482  1.00  0.00     0.167 C 
HETATM    7  C7  UNL     1      18.837  -7.539   6.581  1.00  0.00     0.268 C 
HETATM    8  O7  UNL     1      20.132  -6.982   6.717  1.00  0.00    -0.304 OA
HETATM    9  C8  UNL     1      19.578  -6.012   7.533  1.00  0.00     0.170 C 
HETATM   10  C9  UNL     1      20.058  -5.227   8.502  1.00  0.00     0.214 C 
HETATM   11  N2  UNL     1      18.341  -6.241   6.883  1.00  0.00    -0.301 N 
ENDROOT
BRANCH  10  12
HETATM   12  O8  UNL     1      21.385  -5.303   8.865  1.00  0.00    -0.223 OA
BRANCH  12  13
HETATM   13  S3  UNL     1      22.027  -6.416   9.953  1.00  0.00     0.384 S 
HETATM   14  O9  UNL     1      22.586  -7.639   9.278  1.00  0.00    -0.173 OA
HETATM   15  O10 UNL     1      23.236  -5.667  10.827  1.00  0.00    -0.173 OA
BRANCH  13  16
HETATM   16  N1  UNL     1      20.941  -6.919  10.986  1.00  0.00    -0.171 N 
ATOM     17  H1  UNL     1      20.268  -7.650  10.756  1.00  0.00     0.209 HD
BRANCH  16  18
HETATM   18  O11 UNL     1      20.967  -6.298  12.232  1.00  0.00    -0.278 OA
ATOM     19  H11 UNL     1      20.267  -6.544  12.825  1.00  0.00     0.245 HD
ENDBRANCH  16  18
ENDBRANCH  13  16
ENDBRANCH  12  13
ENDBRANCH  10  12
BRANCH   2  20
HETATM   20  C3  UNL     1      17.131  -4.775   5.390  1.00  0.00     0.213 C 
HETATM   21  O1  UNL     1      16.170  -4.031   5.137  1.00  0.00    -0.645 OA
HETATM   22  O2  UNL     1      18.277  -4.718   4.638  1.00  0.00    -0.645 OA
ENDBRANCH   2  20
BRANCH   6  23
HETATM   23  O3  UNL     1      19.259  -8.919   3.206  1.00  0.00    -0.226 OA
BRANCH  23  24
HETATM   24  S2  UNL     1      19.052 -10.579   2.844  1.00  0.00     0.256 S 
HETATM   25  O4  UNL     1      20.033 -10.894   1.738  1.00  0.00    -0.572 OA
HETATM   26  O5  UNL     1      17.650 -10.872   2.439  1.00  0.00    -0.572 OA
HETATM   27  O6  UNL     1      19.439 -11.536   4.178  1.00  0.00    -0.572 OA
ENDBRANCH  23  24
ENDBRANCH   6  23
TORSDOF 7
ENDMDL
