MODEL 1
REMARK VINA RESULT: -8.779364087      0.000      0.000
REMARK  9 active torsions:
REMARK  status: ('A' for Active; 'I' for Inactive)
REMARK    1  A    between atoms: O1_2  and  C2_3 
REMARK    2  A    between atoms: C5_6  and  O2_7 
REMARK    3  A    between atoms: C6_9  and  C7_10 
REMARK    4  A    between atoms: C9_13  and  O4_14 
REMARK    5  A    between atoms: C10_16  and  C11_17 
REMARK    6  A    between atoms: N1_18  and  N2_20 
REMARK    7  A    between atoms: N2_20  and  C12_22 
REMARK    8  A    between atoms: C15_29  and  N5_30 
REMARK    9  A    between atoms: C16_35  and  N7_36 
ROOT
HETATM    1  N2  UNL     1      15.591  -2.411   4.157  1.00  0.00    -0.285 N 
ATOM      2  H2  UNL     1      15.541  -3.091   4.916  1.00  0.00     0.188 HD
ENDROOT
BRANCH   1   3
HETATM    3  N1  UNL     1      15.600  -1.112   4.563  1.00  0.00    -0.309 N 
HETATM    4  C11 UNL     1      14.799  -0.167   4.270  1.00  0.00     0.124 C 
ATOM      5  H1  UNL     1      16.360  -0.859   5.194  1.00  0.00     0.186 HD
BRANCH   4   6
HETATM    6  C10 UNL     1      14.908   1.188   4.766  1.00  0.00     0.049 A 
HETATM    7  C2  UNL     1      13.877   1.790   5.443  1.00  0.00     0.091 A 
HETATM    8  C3  UNL     1      13.954   3.072   5.915  1.00  0.00     0.007 A 
HETATM    9  C4  UNL     1      12.846   3.730   6.647  1.00  0.00     0.054 C 
HETATM   10  C5  UNL     1      15.147   3.764   5.678  1.00  0.00     0.091 A 
HETATM   11  C6  UNL     1      16.215   3.186   4.995  1.00  0.00     0.077 A 
HETATM   12  C9  UNL     1      16.113   1.874   4.522  1.00  0.00     0.096 A 
BRANCH   7  13
HETATM   13  O1  UNL     1      12.695   1.092   5.673  1.00  0.00    -0.354 OA
HETATM   14  C1  UNL     1      12.687   0.298   6.869  1.00  0.00     0.210 C 
ENDBRANCH   7  13
BRANCH  10  15
HETATM   15  O2  UNL     1      15.212   5.043   6.153  1.00  0.00    -0.359 OA
ATOM     16  H2  UNL     1      14.953   5.171   7.058  1.00  0.00     0.217 HD
ENDBRANCH  10  15
BRANCH  11  17
HETATM   17  C7  UNL     1      17.455   3.887   4.739  1.00  0.00     0.161 C 
HETATM   18  C8  UNL     1      18.743   3.307   5.216  1.00  0.00     0.097 C 
HETATM   19  O3  UNL     1      17.482   4.995   4.110  1.00  0.00    -0.293 OA
ENDBRANCH  11  17
BRANCH  12  20
HETATM   20  O4  UNL     1      17.052   1.176   3.846  1.00  0.00    -0.359 OA
ATOM     21  H4  UNL     1      16.956   0.760   2.997  1.00  0.00     0.217 HD
ENDBRANCH  12  20
ENDBRANCH   4   6
ENDBRANCH   1   3
BRANCH   1  22
HETATM   22  C12 UNL     1      15.634  -2.920   2.998  1.00  0.00     0.136 A 
HETATM   23  C13 UNL     1      14.548  -3.459   2.369  1.00  0.00     0.139 A 
HETATM   24  N3  UNL     1      14.706  -3.964   1.143  1.00  0.00    -0.346 N 
HETATM   25  C14 UNL     1      15.885  -3.961   0.511  1.00  0.00     0.152 A 
ATOM     26  H3  UNL     1      13.897  -4.368   0.670  1.00  0.00     0.167 HD
HETATM   27  N4  UNL     1      15.997  -4.469  -0.733  1.00  0.00    -0.174 N 
HETATM   28  C17 UNL     1      17.017  -3.419   1.126  1.00  0.00     0.130 A 
HETATM   29  C15 UNL     1      17.152  -4.473  -1.396  1.00  0.00     0.679 A 
ATOM     30  H4  UNL     1      15.170  -4.863  -1.181  1.00  0.00     0.186 HD
HETATM   31  N6  UNL     1      18.227  -3.956  -0.806  1.00  0.00    -0.169 N 
HETATM   32  C16 UNL     1      18.200  -3.425   0.445  1.00  0.00     0.218 A 
ATOM     33  H6  UNL     1      19.111  -3.958  -1.316  1.00  0.00     0.186 HD
HETATM   34  N8  UNL     1      16.826  -2.921   2.351  1.00  0.00    -0.334 N 
ATOM     35  H8  UNL     1      17.629  -2.516   2.830  1.00  0.00     0.168 HD
BRANCH  29  36
HETATM   36  N5  UNL     1      17.229  -4.972  -2.604  1.00  0.00    -0.234 N 
ATOM     37  H52 UNL     1      17.313  -4.359  -3.415  1.00  0.00     0.174 HD
ATOM     38  H51 UNL     1      17.203  -5.981  -2.754  1.00  0.00     0.174 HD
ENDBRANCH  29  36
BRANCH  32  39
HETATM   39  N7  UNL     1      19.373  -2.891   1.008  1.00  0.00    -0.095 N 
HETATM   40  O5  UNL     1      20.449  -3.483   1.080  1.00  0.00    -0.530 OA
HETATM   41  O6  UNL     1      19.361  -1.567   1.483  1.00  0.00    -0.530 OA
ENDBRANCH  32  39
ENDBRANCH   1  22
TORSDOF 9
ENDMDL
MODEL 2
REMARK VINA RESULT: -8.685989266      1.984      3.951
REMARK  9 active torsions:
REMARK  status: ('A' for Active; 'I' for Inactive)
REMARK    1  A    between atoms: O1_2  and  C2_3 
REMARK    2  A    between atoms: C5_6  and  O2_7 
REMARK    3  A    between atoms: C6_9  and  C7_10 
REMARK    4  A    between atoms: C9_13  and  O4_14 
REMARK    5  A    between atoms: C10_16  and  C11_17 
REMARK    6  A    between atoms: N1_18  and  N2_20 
REMARK    7  A    between atoms: N2_20  and  C12_22 
REMARK    8  A    between atoms: C15_29  and  N5_30 
REMARK    9  A    between atoms: C16_35  and  N7_36 
ROOT
HETATM    1  N2  UNL     1      18.670  -0.290   3.462  1.00  0.00    -0.285 N 
ATOM      2  H2  UNL     1      19.630  -0.032   3.689  1.00  0.00     0.188 HD
ENDROOT
BRANCH   1   3
HETATM    3  N1  UNL     1      17.722   0.413   4.139  1.00  0.00    -0.309 N 
HETATM    4  C11 UNL     1      16.630   0.913   3.718  1.00  0.00     0.124 C 
ATOM      5  H1  UNL     1      17.916   0.562   5.130  1.00  0.00     0.186 HD
BRANCH   4   6
HETATM    6  C10 UNL     1      15.691   1.649   4.537  1.00  0.00     0.049 A 
HETATM    7  C2  UNL     1      15.864   2.985   4.805  1.00  0.00     0.091 A 
HETATM    8  C3  UNL     1      14.994   3.699   5.581  1.00  0.00     0.007 A 
HETATM    9  C4  UNL     1      15.173   5.141   5.875  1.00  0.00     0.054 C 
HETATM   10  C5  UNL     1      13.896   3.007   6.106  1.00  0.00     0.091 A 
HETATM   11  C6  UNL     1      13.688   1.652   5.856  1.00  0.00     0.077 A 
HETATM   12  C9  UNL     1      14.591   0.942   5.059  1.00  0.00     0.096 A 
BRANCH   7  13
HETATM   13  O1  UNL     1      16.958   3.664   4.277  1.00  0.00    -0.354 OA
HETATM   14  C1  UNL     1      18.117   3.690   5.125  1.00  0.00     0.210 C 
ENDBRANCH   7  13
BRANCH  10  15
HETATM   15  O2  UNL     1      13.035   3.730   6.881  1.00  0.00    -0.359 OA
ATOM     16  H2  UNL     1      12.521   3.240   7.512  1.00  0.00     0.217 HD
ENDBRANCH  10  15
BRANCH  11  17
HETATM   17  C7  UNL     1      12.561   0.919   6.392  1.00  0.00     0.161 C 
HETATM   18  C8  UNL     1      12.796  -0.200   7.349  1.00  0.00     0.097 C 
HETATM   19  O3  UNL     1      11.362   1.203   6.070  1.00  0.00    -0.293 OA
ENDBRANCH  11  17
BRANCH  12  20
HETATM   20  O4  UNL     1      14.531  -0.366   4.726  1.00  0.00    -0.359 OA
ATOM     21  H4  UNL     1      14.939  -0.786   3.977  1.00  0.00     0.217 HD
ENDBRANCH  12  20
ENDBRANCH   4   6
ENDBRANCH   1   3
BRANCH   1  22
HETATM   22  C12 UNL     1      18.563  -1.211   2.599  1.00  0.00     0.136 A 
HETATM   23  C13 UNL     1      19.626  -1.739   1.923  1.00  0.00     0.139 A 
HETATM   24  N3  UNL     1      19.399  -2.712   1.037  1.00  0.00    -0.346 N 
HETATM   25  C14 UNL     1      18.172  -3.186   0.789  1.00  0.00     0.152 A 
ATOM     26  H3  UNL     1      20.190  -3.109   0.530  1.00  0.00     0.167 HD
HETATM   27  N4  UNL     1      17.989  -4.180  -0.105  1.00  0.00    -0.174 N 
HETATM   28  C17 UNL     1      17.062  -2.667   1.460  1.00  0.00     0.130 A 
HETATM   29  C15 UNL     1      16.785  -4.683  -0.369  1.00  0.00     0.679 A 
ATOM     30  H4  UNL     1      18.800  -4.558  -0.594  1.00  0.00     0.186 HD
HETATM   31  N6  UNL     1      15.731  -4.185   0.273  1.00  0.00    -0.169 N 
HETATM   32  C16 UNL     1      15.829  -3.183   1.187  1.00  0.00     0.218 A 
ATOM     33  H6  UNL     1      14.810  -4.572   0.071  1.00  0.00     0.186 HD
HETATM   34  N8  UNL     1      17.323  -1.696   2.341  1.00  0.00    -0.334 N 
ATOM     35  H8  UNL     1      16.538  -1.293   2.852  1.00  0.00     0.168 HD
BRANCH  29  36
HETATM   36  N5  UNL     1      16.640  -5.649  -1.240  1.00  0.00    -0.234 N 
ATOM     37  H52 UNL     1      15.912  -6.353  -1.119  1.00  0.00     0.174 HD
ATOM     38  H51 UNL     1      17.253  -5.714  -2.054  1.00  0.00     0.174 HD
ENDBRANCH  29  36
BRANCH  32  39
HETATM   39  N7  UNL     1      14.675  -2.706   1.834  1.00  0.00    -0.095 N 
HETATM   40  O5  UNL     1      14.353  -1.520   1.911  1.00  0.00    -0.530 OA
HETATM   41  O6  UNL     1      13.775  -3.629   2.396  1.00  0.00    -0.530 OA
ENDBRANCH  32  39
ENDBRANCH   1  22
TORSDOF 9
ENDMDL
MODEL 3
REMARK VINA RESULT: -8.649367823      2.583      4.340
REMARK  9 active torsions:
REMARK  status: ('A' for Active; 'I' for Inactive)
REMARK    1  A    between atoms: O1_2  and  C2_3 
REMARK    2  A    between atoms: C5_6  and  O2_7 
REMARK    3  A    between atoms: C6_9  and  C7_10 
REMARK    4  A    between atoms: C9_13  and  O4_14 
REMARK    5  A    between atoms: C10_16  and  C11_17 
REMARK    6  A    between atoms: N1_18  and  N2_20 
REMARK    7  A    between atoms: N2_20  and  C12_22 
REMARK    8  A    between atoms: C15_29  and  N5_30 
REMARK    9  A    between atoms: C16_35  and  N7_36 
ROOT
HETATM    1  N2  UNL     1      16.128  -0.696   3.912  1.00  0.00    -0.285 N 
ATOM      2  H2  UNL     1      16.245  -1.069   4.855  1.00  0.00     0.188 HD
ENDROOT
BRANCH   1   3
HETATM    3  N1  UNL     1      15.177   0.271   3.804  1.00  0.00    -0.309 N 
HETATM    4  C11 UNL     1      14.762   1.100   4.676  1.00  0.00     0.124 C 
ATOM      5  H1  UNL     1      14.732   0.343   2.889  1.00  0.00     0.186 HD
BRANCH   4   6
HETATM    6  C10 UNL     1      13.736   2.093   4.446  1.00  0.00     0.049 A 
HETATM    7  C2  UNL     1      13.906   3.102   3.530  1.00  0.00     0.091 A 
HETATM    8  C3  UNL     1      12.953   4.057   3.300  1.00  0.00     0.007 A 
HETATM    9  C4  UNL     1      13.128   5.149   2.313  1.00  0.00     0.054 C 
HETATM   10  C5  UNL     1      11.773   3.968   4.047  1.00  0.00     0.091 A 
HETATM   11  C6  UNL     1      11.565   2.959   4.985  1.00  0.00     0.077 A 
HETATM   12  C9  UNL     1      12.553   1.994   5.203  1.00  0.00     0.096 A 
BRANCH   7  13
HETATM   13  O1  UNL     1      15.083   3.181   2.792  1.00  0.00    -0.354 OA
HETATM   14  C1  UNL     1      16.079   4.059   3.338  1.00  0.00     0.210 C 
ENDBRANCH   7  13
BRANCH  10  15
HETATM   15  O2  UNL     1      10.830   4.927   3.809  1.00  0.00    -0.359 OA
ATOM     16  H2  UNL     1      10.471   5.366   4.572  1.00  0.00     0.217 HD
ENDBRANCH  10  15
BRANCH  11  17
HETATM   17  C7  UNL     1      10.353   2.853   5.768  1.00  0.00     0.161 C 
HETATM   18  C8  UNL     1      10.181   3.702   6.981  1.00  0.00     0.097 C 
HETATM   19  O3  UNL     1       9.417   2.049   5.450  1.00  0.00    -0.293 OA
ENDBRANCH  11  17
BRANCH  12  20
HETATM   20  O4  UNL     1      12.505   0.960   6.071  1.00  0.00    -0.359 OA
ATOM     21  H4  UNL     1      11.996   0.162   5.984  1.00  0.00     0.217 HD
ENDBRANCH  12  20
ENDBRANCH   4   6
ENDBRANCH   1   3
BRANCH   1  22
HETATM   22  C12 UNL     1      16.891  -1.213   3.043  1.00  0.00     0.136 A 
HETATM   23  C13 UNL     1      18.203  -0.866   2.888  1.00  0.00     0.139 A 
HETATM   24  N3  UNL     1      18.918  -1.480   1.942  1.00  0.00    -0.346 N 
HETATM   25  C14 UNL     1      18.397  -2.421   1.145  1.00  0.00     0.152 A 
ATOM     26  H3  UNL     1      19.897  -1.224   1.822  1.00  0.00     0.167 HD
HETATM   27  N4  UNL     1      19.159  -3.027   0.212  1.00  0.00    -0.174 N 
HETATM   28  C17 UNL     1      17.058  -2.799   1.276  1.00  0.00     0.130 A 
HETATM   29  C15 UNL     1      18.677  -3.974  -0.591  1.00  0.00     0.679 A 
ATOM     30  H4  UNL     1      20.136  -2.750   0.118  1.00  0.00     0.186 HD
HETATM   31  N6  UNL     1      17.402  -4.330  -0.463  1.00  0.00    -0.169 N 
HETATM   32  C16 UNL     1      16.566  -3.769   0.451  1.00  0.00     0.218 A 
ATOM     33  H6  UNL     1      17.034  -5.057  -1.077  1.00  0.00     0.186 HD
HETATM   34  N8  UNL     1      16.371  -2.166   2.231  1.00  0.00    -0.334 N 
ATOM     35  H8  UNL     1      15.391  -2.417   2.358  1.00  0.00     0.168 HD
BRANCH  29  36
HETATM   36  N5  UNL     1      19.443  -4.545  -1.487  1.00  0.00    -0.234 N 
ATOM     37  H52 UNL     1      20.442  -4.665  -1.316  1.00  0.00     0.174 HD
ATOM     38  H51 UNL     1      19.054  -4.877  -2.369  1.00  0.00     0.174 HD
ENDBRANCH  29  36
BRANCH  32  39
HETATM   39  N7  UNL     1      15.229  -4.196   0.537  1.00  0.00    -0.095 N 
HETATM   40  O5  UNL     1      14.467  -3.934   1.468  1.00  0.00    -0.530 OA
HETATM   41  O6  UNL     1      14.676  -4.932  -0.526  1.00  0.00    -0.530 OA
ENDBRANCH  32  39
ENDBRANCH   1  22
TORSDOF 9
ENDMDL
MODEL 4
REMARK VINA RESULT: -8.613310344      3.632      8.571
REMARK  9 active torsions:
REMARK  status: ('A' for Active; 'I' for Inactive)
REMARK    1  A    between atoms: O1_2  and  C2_3 
REMARK    2  A    between atoms: C5_6  and  O2_7 
REMARK    3  A    between atoms: C6_9  and  C7_10 
REMARK    4  A    between atoms: C9_13  and  O4_14 
REMARK    5  A    between atoms: C10_16  and  C11_17 
REMARK    6  A    between atoms: N1_18  and  N2_20 
REMARK    7  A    between atoms: N2_20  and  C12_22 
REMARK    8  A    between atoms: C15_29  and  N5_30 
REMARK    9  A    between atoms: C16_35  and  N7_36 
ROOT
HETATM    1  N2  UNL     1      15.643   2.234   3.450  1.00  0.00    -0.285 N 
ATOM      2  H2  UNL     1      16.522   2.752   3.472  1.00  0.00     0.188 HD
ENDROOT
BRANCH   1   3
HETATM    3  N1  UNL     1      15.774   0.916   3.140  1.00  0.00    -0.309 N 
HETATM    4  C11 UNL     1      16.621   0.065   3.562  1.00  0.00     0.124 C 
ATOM      5  H1  UNL     1      15.092   0.557   2.471  1.00  0.00     0.186 HD
BRANCH   4   6
HETATM    6  C10 UNL     1      16.665  -1.323   3.158  1.00  0.00     0.049 A 
HETATM    7  C2  UNL     1      15.784  -2.247   3.664  1.00  0.00     0.091 A 
HETATM    8  C3  UNL     1      15.810  -3.566   3.303  1.00  0.00     0.007 A 
HETATM    9  C4  UNL     1      14.863  -4.569   3.844  1.00  0.00     0.054 C 
HETATM   10  C5  UNL     1      16.789  -3.951   2.380  1.00  0.00     0.091 A 
HETATM   11  C6  UNL     1      17.700  -3.043   1.845  1.00  0.00     0.077 A 
HETATM   12  C9  UNL     1      17.654  -1.699   2.229  1.00  0.00     0.096 A 
BRANCH   7  13
HETATM   13  O1  UNL     1      14.814  -1.853   4.581  1.00  0.00    -0.354 OA
HETATM   14  C1  UNL     1      15.202  -1.974   5.958  1.00  0.00     0.210 C 
ENDBRANCH   7  13
BRANCH  10  15
HETATM   15  O2  UNL     1      16.806  -5.271   2.027  1.00  0.00    -0.359 OA
ATOM     16  H2  UNL     1      17.626  -5.733   2.160  1.00  0.00     0.217 HD
ENDBRANCH  10  15
BRANCH  11  17
HETATM   17  C7  UNL     1      18.720  -3.423   0.892  1.00  0.00     0.161 C 
HETATM   18  C8  UNL     1      18.332  -3.776  -0.504  1.00  0.00     0.097 C 
HETATM   19  O3  UNL     1      19.953  -3.466   1.209  1.00  0.00    -0.293 OA
ENDBRANCH  11  17
BRANCH  12  20
HETATM   20  O4  UNL     1      18.461  -0.702   1.806  1.00  0.00    -0.359 OA
ATOM     21  H4  UNL     1      19.133  -0.256   2.308  1.00  0.00     0.217 HD
ENDBRANCH  12  20
ENDBRANCH   4   6
ENDBRANCH   1   3
BRANCH   1  22
HETATM   22  C12 UNL     1      14.617   2.928   3.716  1.00  0.00     0.136 A 
HETATM   23  C13 UNL     1      14.379   4.162   3.180  1.00  0.00     0.139 A 
HETATM   24  N3  UNL     1      13.261   4.803   3.526  1.00  0.00    -0.346 N 
HETATM   25  C14 UNL     1      12.368   4.283   4.376  1.00  0.00     0.152 A 
ATOM     26  H3  UNL     1      13.080   5.725   3.128  1.00  0.00     0.167 HD
HETATM   27  N4  UNL     1      11.244   4.960   4.688  1.00  0.00    -0.174 N 
HETATM   28  C17 UNL     1      12.580   3.024   4.945  1.00  0.00     0.130 A 
HETATM   29  C15 UNL     1      10.329   4.468   5.521  1.00  0.00     0.679 A 
ATOM     30  H4  UNL     1      11.089   5.878   4.272  1.00  0.00     0.186 HD
HETATM   31  N6  UNL     1      10.535   3.270   6.060  1.00  0.00    -0.169 N 
HETATM   32  C16 UNL     1      11.641   2.523   5.799  1.00  0.00     0.218 A 
ATOM     33  H6  UNL     1       9.833   2.894   6.697  1.00  0.00     0.186 HD
HETATM   34  N8  UNL     1      13.707   2.408   4.577  1.00  0.00    -0.334 N 
ATOM     35  H8  UNL     1      13.896   1.486   4.970  1.00  0.00     0.168 HD
BRANCH  29  36
HETATM   36  N5  UNL     1       9.246   5.149   5.803  1.00  0.00    -0.234 N 
ATOM     37  H52 UNL     1       8.770   5.023   6.697  1.00  0.00     0.174 HD
ATOM     38  H51 UNL     1       8.859   5.815   5.133  1.00  0.00     0.174 HD
ENDBRANCH  29  36
BRANCH  32  39
HETATM   39  N7  UNL     1      11.796   1.260   6.399  1.00  0.00    -0.095 N 
HETATM   40  O5  UNL     1      12.828   0.591   6.370  1.00  0.00    -0.530 OA
HETATM   41  O6  UNL     1      10.728   0.720   7.139  1.00  0.00    -0.530 OA
ENDBRANCH  32  39
ENDBRANCH   1  22
TORSDOF 9
ENDMDL
MODEL 5
REMARK VINA RESULT: -8.550891264      0.997      2.826
REMARK  9 active torsions:
REMARK  status: ('A' for Active; 'I' for Inactive)
REMARK    1  A    between atoms: O1_2  and  C2_3 
REMARK    2  A    between atoms: C5_6  and  O2_7 
REMARK    3  A    between atoms: C6_9  and  C7_10 
REMARK    4  A    between atoms: C9_13  and  O4_14 
REMARK    5  A    between atoms: C10_16  and  C11_17 
REMARK    6  A    between atoms: N1_18  and  N2_20 
REMARK    7  A    between atoms: N2_20  and  C12_22 
REMARK    8  A    between atoms: C15_29  and  N5_30 
REMARK    9  A    between atoms: C16_35  and  N7_36 
ROOT
HETATM    1  N2  UNL     1      15.394  -2.201   3.429  1.00  0.00    -0.285 N 
ATOM      2  H2  UNL     1      15.017  -2.788   4.174  1.00  0.00     0.188 HD
ENDROOT
BRANCH   1   3
HETATM    3  N1  UNL     1      15.513  -0.885   3.754  1.00  0.00    -0.309 N 
HETATM    4  C11 UNL     1      15.225  -0.291   4.842  1.00  0.00     0.124 C 
ATOM      5  H1  UNL     1      15.888  -0.288   3.017  1.00  0.00     0.186 HD
BRANCH   4   6
HETATM    6  C10 UNL     1      15.395   1.127   5.075  1.00  0.00     0.049 A 
HETATM    7  C2  UNL     1      16.618   1.736   4.936  1.00  0.00     0.091 A 
HETATM    8  C3  UNL     1      16.804   3.074   5.158  1.00  0.00     0.007 A 
HETATM    9  C4  UNL     1      18.120   3.739   5.011  1.00  0.00     0.054 C 
HETATM   10  C5  UNL     1      15.680   3.816   5.541  1.00  0.00     0.091 A 
HETATM   11  C6  UNL     1      14.424   3.232   5.692  1.00  0.00     0.077 A 
HETATM   12  C9  UNL     1      14.258   1.863   5.459  1.00  0.00     0.096 A 
BRANCH   7  13
HETATM   13  O1  UNL     1      17.728   0.989   4.555  1.00  0.00    -0.354 OA
HETATM   14  C1  UNL     1      18.467   0.411   5.642  1.00  0.00     0.210 C 
ENDBRANCH   7  13
BRANCH  10  15
HETATM   15  O2  UNL     1      15.879   5.149   5.761  1.00  0.00    -0.359 OA
ATOM     16  H2  UNL     1      15.406   5.746   5.192  1.00  0.00     0.217 HD
ENDBRANCH  10  15
BRANCH  11  17
HETATM   17  C7  UNL     1      13.253   3.982   6.089  1.00  0.00     0.161 C 
HETATM   18  C8  UNL     1      12.129   4.161   5.126  1.00  0.00     0.097 C 
HETATM   19  O3  UNL     1      13.148   4.501   7.248  1.00  0.00    -0.293 OA
ENDBRANCH  11  17
BRANCH  12  20
HETATM   20  O4  UNL     1      13.114   1.152   5.562  1.00  0.00    -0.359 OA
ATOM     21  H4  UNL     1      13.031   0.222   5.741  1.00  0.00     0.217 HD
ENDBRANCH  12  20
ENDBRANCH   4   6
ENDBRANCH   1   3
BRANCH   1  22
HETATM   22  C12 UNL     1      15.671  -2.822   2.360  1.00  0.00     0.136 A 
HETATM   23  C13 UNL     1      14.747  -3.504   1.621  1.00  0.00     0.139 A 
HETATM   24  N3  UNL     1      15.148  -4.119   0.506  1.00  0.00    -0.346 N 
HETATM   25  C14 UNL     1      16.419  -4.092   0.089  1.00  0.00     0.152 A 
ATOM     26  H3  UNL     1      14.461  -4.630  -0.048  1.00  0.00     0.167 HD
HETATM   27  N4  UNL     1      16.779  -4.715  -1.052  1.00  0.00    -0.174 N 
HETATM   28  C17 UNL     1      17.392  -3.405   0.821  1.00  0.00     0.130 A 
HETATM   29  C15 UNL     1      18.032  -4.700  -1.503  1.00  0.00     0.679 A 
ATOM     30  H4  UNL     1      16.069  -5.215  -1.586  1.00  0.00     0.186 HD
HETATM   31  N6  UNL     1      18.954  -4.045  -0.802  1.00  0.00    -0.169 N 
HETATM   32  C16 UNL     1      18.675  -3.392   0.357  1.00  0.00     0.218 A 
ATOM     33  H6  UNL     1      19.913  -4.033  -1.149  1.00  0.00     0.186 HD
HETATM   34  N8  UNL     1      16.957  -2.800   1.930  1.00  0.00    -0.334 N 
ATOM     35  H8  UNL     1      17.638  -2.287   2.490  1.00  0.00     0.168 HD
BRANCH  29  36
HETATM   36  N5  UNL     1      18.350  -5.314  -2.615  1.00  0.00    -0.234 N 
ATOM     37  H52 UNL     1      17.647  -5.487  -3.333  1.00  0.00     0.174 HD
ATOM     38  H51 UNL     1      19.307  -5.629  -2.781  1.00  0.00     0.174 HD
ENDBRANCH  29  36
BRANCH  32  39
HETATM   39  N7  UNL     1      19.697  -2.715   1.047  1.00  0.00    -0.095 N 
HETATM   40  O5  UNL     1      19.589  -1.588   1.531  1.00  0.00    -0.530 OA
HETATM   41  O6  UNL     1      20.924  -3.367   1.263  1.00  0.00    -0.530 OA
ENDBRANCH  32  39
ENDBRANCH   1  22
TORSDOF 9
ENDMDL
