MODEL 1
REMARK VINA RESULT: -6.697056854      0.000      0.000
REMARK  14 active torsions:
REMARK  status: ('A' for Active; 'I' for Inactive)
REMARK    1  A    between atoms: C2_2  and  O1_3 
REMARK    2  A    between atoms: O1_3  and  C3_4 
REMARK    3  A    between atoms: C3_4  and  O3_6 
REMARK    4  A    between atoms: O3_6  and  C4_7 
REMARK    5  A    between atoms: C5_8  and  C6_9 
REMARK    6  A    between atoms: C6_9  and  O5_11 
REMARK    7  A    between atoms: C8_13  and  O6_14 
REMARK    8  A    between atoms: C8_13  and  C9_16 
REMARK    9  A    between atoms: C10_17  and  O7_18 
REMARK   10  A    between atoms: C12_21  and  O8_22 
REMARK   11  A    between atoms: C14_25  and  O9_26 
REMARK   12  A    between atoms: C16_29  and  O10_30 
REMARK   13  A    between atoms: C16_29  and  C17_32 
REMARK   14  A    between atoms: C17_32  and  O12_34 
ROOT
HETATM    1  C4  UNL     1      16.705  -3.489   1.889  1.00  0.00     0.119 C 
HETATM    2  C5  UNL     1      17.780  -2.724   1.930  1.00  0.00     0.089 C 
HETATM    3  C8  UNL     1      17.589  -1.610   2.876  1.00  0.00     0.129 C 
HETATM    4  C15 UNL     1      16.097  -1.555   3.068  1.00  0.00     0.104 C 
HETATM    5  C16 UNL     1      15.662  -2.961   2.756  1.00  0.00     0.198 C 
ENDROOT
BRANCH   3   6
HETATM    6  O6  UNL     1      17.944  -0.441   2.124  1.00  0.00    -0.379 OA
ATOM      7  H6  UNL     1      18.177   0.201   2.784  1.00  0.00     0.211 HD
ENDBRANCH   3   6
BRANCH   3   8
HETATM    8  C9  UNL     1      18.318  -1.623   4.139  1.00  0.00     0.047 A 
HETATM    9  C10 UNL     1      18.451  -0.335   4.738  1.00  0.00     0.080 A 
HETATM   10  C11 UNL     1      19.090  -0.214   5.936  1.00  0.00     0.073 A 
HETATM   11  C12 UNL     1      19.613  -1.312   6.590  1.00  0.00     0.071 A 
HETATM   12  C13 UNL     1      19.476  -2.541   6.002  1.00  0.00     0.073 A 
HETATM   13  C14 UNL     1      18.820  -2.709   4.761  1.00  0.00     0.080 A 
BRANCH   9  14
HETATM   14  O7  UNL     1      17.940   0.785   4.113  1.00  0.00    -0.360 OA
ATOM     15  H7  UNL     1      17.979   1.634   4.538  1.00  0.00     0.217 HD
ENDBRANCH   9  14
BRANCH  11  16
HETATM   16  O8  UNL     1      20.262  -1.156   7.813  1.00  0.00    -0.361 OA
ATOM     17  H8  UNL     1      21.204  -1.030   7.843  1.00  0.00     0.217 HD
ENDBRANCH  11  16
BRANCH  13  18
HETATM   18  O9  UNL     1      18.708  -3.978   4.233  1.00  0.00    -0.360 OA
ATOM     19  H9  UNL     1      18.145  -4.640   4.616  1.00  0.00     0.217 HD
ENDBRANCH  13  18
ENDBRANCH   3   8
BRANCH   2  20
HETATM   20  C6  UNL     1      19.017  -2.963   1.143  1.00  0.00     0.294 C 
HETATM   21  O4  UNL     1      19.102  -2.661  -0.073  1.00  0.00    -0.259 OA
BRANCH  20  22
HETATM   22  O5  UNL     1      20.152  -3.529   1.703  1.00  0.00    -0.323 OA
HETATM   23  C7  UNL     1      21.316  -2.767   1.970  1.00  0.00     0.213 C 
ENDBRANCH  20  22
ENDBRANCH   2  20
BRANCH   1  24
HETATM   24  O3  UNL     1      16.649  -4.647   1.072  1.00  0.00    -0.255 OA
BRANCH  24  25
HETATM   25  C3  UNL     1      15.983  -4.642  -0.145  1.00  0.00     0.411 C 
HETATM   26  O2  UNL     1      14.732  -4.699  -0.132  1.00  0.00    -0.229 OA
BRANCH  25  27
HETATM   27  O1  UNL     1      16.626  -4.580  -1.363  1.00  0.00    -0.298 OA
BRANCH  27  28
HETATM   28  C2  UNL     1      17.481  -5.649  -1.799  1.00  0.00     0.176 C 
HETATM   29  C1  UNL     1      18.799  -5.126  -2.268  1.00  0.00     0.034 C 
ENDBRANCH  27  28
ENDBRANCH  25  27
ENDBRANCH  24  25
ENDBRANCH   1  24
BRANCH   5  30
HETATM   30  O10 UNL     1      14.517  -2.789   1.885  1.00  0.00    -0.373 OA
ATOM     31  H10 UNL     1      14.286  -3.671   1.618  1.00  0.00     0.211 HD
ENDBRANCH   5  30
BRANCH   5  32
HETATM   32  C17 UNL     1      15.250  -3.764   3.897  1.00  0.00     0.300 C 
HETATM   33  O11 UNL     1      14.863  -4.947   3.880  1.00  0.00    -0.261 OA
BRANCH  32  34
HETATM   34  O12 UNL     1      15.264  -3.199   5.204  1.00  0.00    -0.324 OA
HETATM   35  C18 UNL     1      15.695  -3.937   6.332  1.00  0.00     0.213 C 
ENDBRANCH  32  34
ENDBRANCH   5  32
TORSDOF 14
ENDMDL
MODEL 2
REMARK VINA RESULT: -6.518089611      2.206      4.587
REMARK  14 active torsions:
REMARK  status: ('A' for Active; 'I' for Inactive)
REMARK    1  A    between atoms: C2_2  and  O1_3 
REMARK    2  A    between atoms: O1_3  and  C3_4 
REMARK    3  A    between atoms: C3_4  and  O3_6 
REMARK    4  A    between atoms: O3_6  and  C4_7 
REMARK    5  A    between atoms: C5_8  and  C6_9 
REMARK    6  A    between atoms: C6_9  and  O5_11 
REMARK    7  A    between atoms: C8_13  and  O6_14 
REMARK    8  A    between atoms: C8_13  and  C9_16 
REMARK    9  A    between atoms: C10_17  and  O7_18 
REMARK   10  A    between atoms: C12_21  and  O8_22 
REMARK   11  A    between atoms: C14_25  and  O9_26 
REMARK   12  A    between atoms: C16_29  and  O10_30 
REMARK   13  A    between atoms: C16_29  and  C17_32 
REMARK   14  A    between atoms: C17_32  and  O12_34 
ROOT
HETATM    1  C4  UNL     1      17.456  -3.002   3.436  1.00  0.00     0.119 C 
HETATM    2  C5  UNL     1      16.149  -2.820   3.418  1.00  0.00     0.089 C 
HETATM    3  C8  UNL     1      15.650  -2.493   4.766  1.00  0.00     0.129 C 
HETATM    4  C15 UNL     1      16.764  -2.935   5.677  1.00  0.00     0.104 C 
HETATM    5  C16 UNL     1      17.977  -2.865   4.789  1.00  0.00     0.198 C 
ENDROOT
BRANCH   3   6
HETATM    6  O6  UNL     1      14.567  -3.409   4.976  1.00  0.00    -0.379 OA
ATOM      7  H6  UNL     1      14.488  -3.467   5.921  1.00  0.00     0.211 HD
ENDBRANCH   3   6
BRANCH   3   8
HETATM    8  C9  UNL     1      15.205  -1.132   5.043  1.00  0.00     0.047 A 
HETATM    9  C10 UNL     1      14.325  -1.033   6.162  1.00  0.00     0.080 A 
HETATM   10  C11 UNL     1      13.857   0.190   6.543  1.00  0.00     0.073 A 
HETATM   11  C12 UNL     1      14.215   1.342   5.870  1.00  0.00     0.071 A 
HETATM   12  C13 UNL     1      15.061   1.230   4.800  1.00  0.00     0.073 A 
HETATM   13  C14 UNL     1      15.569  -0.019   4.373  1.00  0.00     0.080 A 
BRANCH   9  14
HETATM   14  O7  UNL     1      13.946  -2.164   6.858  1.00  0.00    -0.360 OA
ATOM     15  H7  UNL     1      13.892  -2.150   7.806  1.00  0.00     0.217 HD
ENDBRANCH   9  14
BRANCH  11  16
HETATM   16  O8  UNL     1      13.719   2.577   6.284  1.00  0.00    -0.361 OA
ATOM     17  H8  UNL     1      13.711   3.314   5.683  1.00  0.00     0.217 HD
ENDBRANCH  11  16
BRANCH  13  18
HETATM   18  O9  UNL     1      16.425  -0.056   3.293  1.00  0.00    -0.360 OA
ATOM     19  H9  UNL     1      16.227   0.379   2.472  1.00  0.00     0.217 HD
ENDBRANCH  13  18
ENDBRANCH   3   8
BRANCH   2  20
HETATM   20  C6  UNL     1      15.300  -2.915   2.202  1.00  0.00     0.294 C 
HETATM   21  O4  UNL     1      14.729  -1.911   1.708  1.00  0.00    -0.259 OA
BRANCH  20  22
HETATM   22  O5  UNL     1      15.091  -4.113   1.537  1.00  0.00    -0.323 OA
HETATM   23  C7  UNL     1      15.548  -4.325   0.213  1.00  0.00     0.213 C 
ENDBRANCH  20  22
ENDBRANCH   2  20
BRANCH   1  24
HETATM   24  O3  UNL     1      18.181  -3.301   2.255  1.00  0.00    -0.255 OA
BRANCH  24  25
HETATM   25  C3  UNL     1      18.476  -2.321   1.319  1.00  0.00     0.411 C 
HETATM   26  O2  UNL     1      18.554  -1.134   1.714  1.00  0.00    -0.229 OA
BRANCH  25  27
HETATM   27  O1  UNL     1      18.686  -2.583  -0.018  1.00  0.00    -0.298 OA
BRANCH  27  28
HETATM   28  C2  UNL     1      19.473  -3.712  -0.430  1.00  0.00     0.176 C 
HETATM   29  C1  UNL     1      18.827  -4.432  -1.568  1.00  0.00     0.034 C 
ENDBRANCH  27  28
ENDBRANCH  25  27
ENDBRANCH  24  25
ENDBRANCH   1  24
BRANCH   5  30
HETATM   30  O10 UNL     1      18.668  -4.114   5.040  1.00  0.00    -0.373 OA
ATOM     31  H10 UNL     1      18.455  -4.327   5.942  1.00  0.00     0.211 HD
ENDBRANCH   5  30
BRANCH   5  32
HETATM   32  C17 UNL     1      18.899  -1.772   5.060  1.00  0.00     0.300 C 
HETATM   33  O11 UNL     1      20.005  -1.576   4.524  1.00  0.00    -0.261 OA
BRANCH  32  34
HETATM   34  O12 UNL     1      18.564  -0.786   6.031  1.00  0.00    -0.324 OA
HETATM   35  C18 UNL     1      18.916   0.574   5.867  1.00  0.00     0.213 C 
ENDBRANCH  32  34
ENDBRANCH   5  32
TORSDOF 14
ENDMDL
MODEL 3
REMARK VINA RESULT: -6.463149690      2.836      5.433
REMARK  14 active torsions:
REMARK  status: ('A' for Active; 'I' for Inactive)
REMARK    1  A    between atoms: C2_2  and  O1_3 
REMARK    2  A    between atoms: O1_3  and  C3_4 
REMARK    3  A    between atoms: C3_4  and  O3_6 
REMARK    4  A    between atoms: O3_6  and  C4_7 
REMARK    5  A    between atoms: C5_8  and  C6_9 
REMARK    6  A    between atoms: C6_9  and  O5_11 
REMARK    7  A    between atoms: C8_13  and  O6_14 
REMARK    8  A    between atoms: C8_13  and  C9_16 
REMARK    9  A    between atoms: C10_17  and  O7_18 
REMARK   10  A    between atoms: C12_21  and  O8_22 
REMARK   11  A    between atoms: C14_25  and  O9_26 
REMARK   12  A    between atoms: C16_29  and  O10_30 
REMARK   13  A    between atoms: C16_29  and  C17_32 
REMARK   14  A    between atoms: C17_32  and  O12_34 
ROOT
HETATM    1  C4  UNL     1      17.087  -1.394   3.644  1.00  0.00     0.119 C 
HETATM    2  C5  UNL     1      15.777  -1.440   3.796  1.00  0.00     0.089 C 
HETATM    3  C8  UNL     1      15.375  -0.768   5.045  1.00  0.00     0.129 C 
HETATM    4  C15 UNL     1      16.651  -0.698   5.841  1.00  0.00     0.104 C 
HETATM    5  C16 UNL     1      17.716  -0.735   4.779  1.00  0.00     0.198 C 
ENDROOT
BRANCH   3   6
HETATM    6  O6  UNL     1      14.536  -1.724   5.708  1.00  0.00    -0.379 OA
ATOM      7  H6  UNL     1      13.775  -1.222   5.977  1.00  0.00     0.211 HD
ENDBRANCH   3   6
BRANCH   3   8
HETATM    8  C9  UNL     1      14.691   0.518   4.967  1.00  0.00     0.047 A 
HETATM    9  C10 UNL     1      13.933   0.836   6.133  1.00  0.00     0.080 A 
HETATM   10  C11 UNL     1      13.266   2.023   6.197  1.00  0.00     0.073 A 
HETATM   11  C12 UNL     1      13.306   2.932   5.157  1.00  0.00     0.071 A 
HETATM   12  C13 UNL     1      14.039   2.612   4.046  1.00  0.00     0.073 A 
HETATM   13  C14 UNL     1      14.745   1.391   3.940  1.00  0.00     0.080 A 
BRANCH   9  14
HETATM   14  O7  UNL     1      13.870  -0.048   7.191  1.00  0.00    -0.360 OA
ATOM     15  H7  UNL     1      14.666  -0.400   7.573  1.00  0.00     0.217 HD
ENDBRANCH   9  14
BRANCH  11  16
HETATM   16  O8  UNL     1      12.613   4.137   5.253  1.00  0.00    -0.361 OA
ATOM     17  H8  UNL     1      12.219   4.524   4.480  1.00  0.00     0.217 HD
ENDBRANCH  11  16
BRANCH  13  18
HETATM   18  O9  UNL     1      15.472   1.139   2.796  1.00  0.00    -0.360 OA
ATOM     19  H9  UNL     1      15.500   1.748   2.067  1.00  0.00     0.217 HD
ENDBRANCH  13  18
ENDBRANCH   3   8
BRANCH   2  20
HETATM   20  C6  UNL     1      14.837  -2.068   2.833  1.00  0.00     0.294 C 
HETATM   21  O4  UNL     1      14.475  -1.487   1.780  1.00  0.00    -0.259 OA
BRANCH  20  22
HETATM   22  O5  UNL     1      14.305  -3.333   3.035  1.00  0.00    -0.323 OA
HETATM   23  C7  UNL     1      14.977  -4.314   3.806  1.00  0.00     0.213 C 
ENDBRANCH  20  22
ENDBRANCH   2  20
BRANCH   1  24
HETATM   24  O3  UNL     1      17.722  -1.948   2.503  1.00  0.00    -0.255 OA
BRANCH  24  25
HETATM   25  C3  UNL     1      18.161  -3.264   2.487  1.00  0.00     0.411 C 
HETATM   26  O2  UNL     1      19.096  -3.582   3.258  1.00  0.00    -0.229 OA
BRANCH  25  27
HETATM   27  O1  UNL     1      17.623  -4.236   1.670  1.00  0.00    -0.298 OA
BRANCH  27  28
HETATM   28  C2  UNL     1      17.220  -3.926   0.327  1.00  0.00     0.176 C 
HETATM   29  C1  UNL     1      15.839  -4.423   0.051  1.00  0.00     0.034 C 
ENDBRANCH  27  28
ENDBRANCH  25  27
ENDBRANCH  24  25
ENDBRANCH   1  24
BRANCH   5  30
HETATM   30  O10 UNL     1      18.674  -1.701   5.276  1.00  0.00    -0.373 OA
ATOM     31  H10 UNL     1      19.417  -1.178   5.555  1.00  0.00     0.211 HD
ENDBRANCH   5  30
BRANCH   5  32
HETATM   32  C17 UNL     1      18.416   0.519   4.540  1.00  0.00     0.300 C 
HETATM   33  O11 UNL     1      19.583   0.659   4.132  1.00  0.00    -0.261 OA
BRANCH  32  34
HETATM   34  O12 UNL     1      17.754   1.757   4.781  1.00  0.00    -0.324 OA
HETATM   35  C18 UNL     1      18.453   2.902   5.232  1.00  0.00     0.213 C 
ENDBRANCH  32  34
ENDBRANCH   5  32
TORSDOF 14
ENDMDL
MODEL 4
REMARK VINA RESULT: -6.425482543      1.808      2.693
REMARK  14 active torsions:
REMARK  status: ('A' for Active; 'I' for Inactive)
REMARK    1  A    between atoms: C2_2  and  O1_3 
REMARK    2  A    between atoms: O1_3  and  C3_4 
REMARK    3  A    between atoms: C3_4  and  O3_6 
REMARK    4  A    between atoms: O3_6  and  C4_7 
REMARK    5  A    between atoms: C5_8  and  C6_9 
REMARK    6  A    between atoms: C6_9  and  O5_11 
REMARK    7  A    between atoms: C8_13  and  O6_14 
REMARK    8  A    between atoms: C8_13  and  C9_16 
REMARK    9  A    between atoms: C10_17  and  O7_18 
REMARK   10  A    between atoms: C12_21  and  O8_22 
REMARK   11  A    between atoms: C14_25  and  O9_26 
REMARK   12  A    between atoms: C16_29  and  O10_30 
REMARK   13  A    between atoms: C16_29  and  C17_32 
REMARK   14  A    between atoms: C17_32  and  O12_34 
ROOT
HETATM    1  C4  UNL     1      16.210  -1.253   2.678  1.00  0.00     0.119 C 
HETATM    2  C5  UNL     1      17.491  -1.560   2.765  1.00  0.00     0.089 C 
HETATM    3  C8  UNL     1      18.156  -0.734   3.789  1.00  0.00     0.129 C 
HETATM    4  C15 UNL     1      17.204   0.413   3.997  1.00  0.00     0.104 C 
HETATM    5  C16 UNL     1      15.877  -0.167   3.590  1.00  0.00     0.198 C 
ENDROOT
BRANCH   3   6
HETATM    6  O6  UNL     1      19.303  -0.193   3.119  1.00  0.00    -0.379 OA
ATOM      7  H6  UNL     1      19.366  -0.698   2.317  1.00  0.00     0.211 HD
ENDBRANCH   3   6
BRANCH   3   8
HETATM    8  C9  UNL     1      18.566  -1.358   5.042  1.00  0.00     0.047 A 
HETATM    9  C10 UNL     1      19.555  -0.618   5.755  1.00  0.00     0.080 A 
HETATM   10  C11 UNL     1      20.005  -1.080   6.956  1.00  0.00     0.073 A 
HETATM   11  C12 UNL     1      19.524  -2.252   7.504  1.00  0.00     0.071 A 
HETATM   12  C13 UNL     1      18.574  -2.950   6.809  1.00  0.00     0.073 A 
HETATM   13  C14 UNL     1      18.080  -2.505   5.561  1.00  0.00     0.080 A 
BRANCH   9  14
HETATM   14  O7  UNL     1      20.059   0.559   5.236  1.00  0.00    -0.360 OA
ATOM     15  H7  UNL     1      20.284   1.281   5.810  1.00  0.00     0.217 HD
ENDBRANCH   9  14
BRANCH  11  16
HETATM   16  O8  UNL     1      20.005  -2.699   8.734  1.00  0.00    -0.361 OA
ATOM     17  H8  UNL     1      19.404  -2.854   9.454  1.00  0.00     0.217 HD
ENDBRANCH  11  16
BRANCH  13  18
HETATM   18  O9  UNL     1      17.115  -3.253   4.921  1.00  0.00    -0.360 OA
ATOM     19  H9  UNL     1      16.230  -3.335   5.257  1.00  0.00     0.217 HD
ENDBRANCH  13  18
ENDBRANCH   3   8
BRANCH   2  20
HETATM   20  C6  UNL     1      18.165  -2.606   1.954  1.00  0.00     0.294 C 
HETATM   21  O4  UNL     1      18.296  -3.786   2.364  1.00  0.00    -0.259 OA
BRANCH  20  22
HETATM   22  O5  UNL     1      18.686  -2.346   0.695  1.00  0.00    -0.323 OA
HETATM   23  C7  UNL     1      19.281  -3.360  -0.094  1.00  0.00     0.213 C 
ENDBRANCH  20  22
ENDBRANCH   2  20
BRANCH   1  24
HETATM   24  O3  UNL     1      15.343  -1.928   1.782  1.00  0.00    -0.255 OA
BRANCH  24  25
HETATM   25  C3  UNL     1      14.978  -3.250   1.987  1.00  0.00     0.411 C 
HETATM   26  O2  UNL     1      14.871  -3.655   3.168  1.00  0.00    -0.229 OA
BRANCH  25  27
HETATM   27  O1  UNL     1      14.726  -4.138   0.962  1.00  0.00    -0.298 OA
BRANCH  27  28
HETATM   28  C2  UNL     1      15.727  -4.417  -0.030  1.00  0.00     0.176 C 
HETATM   29  C1  UNL     1      15.132  -5.104  -1.216  1.00  0.00     0.034 C 
ENDBRANCH  27  28
ENDBRANCH  25  27
ENDBRANCH  24  25
ENDBRANCH   1  24
BRANCH   5  30
HETATM   30  O10 UNL     1      15.293   0.852   2.743  1.00  0.00    -0.373 OA
ATOM     31  H10 UNL     1      14.360   0.805   2.920  1.00  0.00     0.211 HD
ENDBRANCH   5  30
BRANCH   5  32
HETATM   32  C17 UNL     1      14.948  -0.446   4.674  1.00  0.00     0.300 C 
HETATM   33  O11 UNL     1      14.875  -1.489   5.349  1.00  0.00    -0.261 OA
BRANCH  32  34
HETATM   34  O12 UNL     1      13.989   0.535   5.056  1.00  0.00    -0.324 OA
HETATM   35  C18 UNL     1      13.907   1.023   6.382  1.00  0.00     0.213 C 
ENDBRANCH  32  34
ENDBRANCH   5  32
TORSDOF 14
ENDMDL
MODEL 5
REMARK VINA RESULT: -6.375630017      1.756      2.701
REMARK  14 active torsions:
REMARK  status: ('A' for Active; 'I' for Inactive)
REMARK    1  A    between atoms: C2_2  and  O1_3 
REMARK    2  A    between atoms: O1_3  and  C3_4 
REMARK    3  A    between atoms: C3_4  and  O3_6 
REMARK    4  A    between atoms: O3_6  and  C4_7 
REMARK    5  A    between atoms: C5_8  and  C6_9 
REMARK    6  A    between atoms: C6_9  and  O5_11 
REMARK    7  A    between atoms: C8_13  and  O6_14 
REMARK    8  A    between atoms: C8_13  and  C9_16 
REMARK    9  A    between atoms: C10_17  and  O7_18 
REMARK   10  A    between atoms: C12_21  and  O8_22 
REMARK   11  A    between atoms: C14_25  and  O9_26 
REMARK   12  A    between atoms: C16_29  and  O10_30 
REMARK   13  A    between atoms: C16_29  and  C17_32 
REMARK   14  A    between atoms: C17_32  and  O12_34 
ROOT
HETATM    1  C4  UNL     1      16.288  -1.627   3.988  1.00  0.00     0.119 C 
HETATM    2  C5  UNL     1      17.546  -1.320   3.732  1.00  0.00     0.089 C 
HETATM    3  C8  UNL     1      18.035  -0.302   4.679  1.00  0.00     0.129 C 
HETATM    4  C15 UNL     1      16.775   0.284   5.258  1.00  0.00     0.104 C 
HETATM    5  C16 UNL     1      15.776  -0.828   5.093  1.00  0.00     0.198 C 
ENDROOT
BRANCH   3   6
HETATM    6  O6  UNL     1      18.607   0.714   3.843  1.00  0.00    -0.379 OA
ATOM      7  H6  UNL     1      19.371   1.011   4.324  1.00  0.00     0.211 HD
ENDBRANCH   3   6
BRANCH   3   8
HETATM    8  C9  UNL     1      18.995  -0.694   5.705  1.00  0.00     0.047 A 
HETATM    9  C10 UNL     1      19.770   0.392   6.210  1.00  0.00     0.080 A 
HETATM   10  C11 UNL     1      20.687   0.163   7.193  1.00  0.00     0.073 A 
HETATM   11  C12 UNL     1      20.885  -1.100   7.716  1.00  0.00     0.071 A 
HETATM   12  C13 UNL     1      20.132  -2.131   7.221  1.00  0.00     0.073 A 
HETATM   13  C14 UNL     1      19.171  -1.935   6.203  1.00  0.00     0.080 A 
BRANCH   9  14
HETATM   14  O7  UNL     1      19.599   1.668   5.711  1.00  0.00    -0.360 OA
ATOM     15  H7  UNL     1      18.779   2.130   5.840  1.00  0.00     0.217 HD
ENDBRANCH   9  14
BRANCH  11  16
HETATM   16  O8  UNL     1      21.830  -1.302   8.720  1.00  0.00    -0.361 OA
ATOM     17  H8  UNL     1      21.753  -2.046   9.306  1.00  0.00     0.217 HD
ENDBRANCH  11  16
BRANCH  13  18
HETATM   18  O9  UNL     1      18.440  -3.017   5.759  1.00  0.00    -0.360 OA
ATOM     19  H9  UNL     1      17.872  -2.970   5.000  1.00  0.00     0.217 HD
ENDBRANCH  13  18
ENDBRANCH   3   8
BRANCH   2  20
HETATM   20  C6  UNL     1      18.360  -1.930   2.650  1.00  0.00     0.294 C 
HETATM   21  O4  UNL     1      18.451  -1.410   1.510  1.00  0.00    -0.259 OA
BRANCH  20  22
HETATM   22  O5  UNL     1      19.073  -3.106   2.833  1.00  0.00    -0.323 OA
HETATM   23  C7  UNL     1      20.488  -3.122   2.894  1.00  0.00     0.213 C 
ENDBRANCH  20  22
ENDBRANCH   2  20
BRANCH   1  24
HETATM   24  O3  UNL     1      15.594  -2.606   3.232  1.00  0.00    -0.255 OA
BRANCH  24  25
HETATM   25  C3  UNL     1      15.015  -2.300   2.010  1.00  0.00     0.411 C 
HETATM   26  O2  UNL     1      14.401  -1.213   1.905  1.00  0.00    -0.229 OA
BRANCH  25  27
HETATM   27  O1  UNL     1      15.080  -3.127   0.909  1.00  0.00    -0.298 OA
BRANCH  27  28
HETATM   28  C2  UNL     1      16.059  -4.176   0.834  1.00  0.00     0.176 C 
HETATM   29  C1  UNL     1      16.124  -4.755  -0.541  1.00  0.00     0.034 C 
ENDBRANCH  27  28
ENDBRANCH  25  27
ENDBRANCH  24  25
ENDBRANCH   1  24
BRANCH   5  30
HETATM   30  O10 UNL     1      14.604  -0.170   4.553  1.00  0.00    -0.373 OA
ATOM     31  H10 UNL     1      14.527  -0.508   3.668  1.00  0.00     0.211 HD
ENDBRANCH   5  30
BRANCH   5  32
HETATM   32  C17 UNL     1      15.389  -1.519   6.314  1.00  0.00     0.300 C 
HETATM   33  O11 UNL     1      15.664  -2.691   6.631  1.00  0.00    -0.261 OA
BRANCH  32  34
HETATM   34  O12 UNL     1      14.610  -0.842   7.295  1.00  0.00    -0.324 OA
HETATM   35  C18 UNL     1      13.314  -1.282   7.654  1.00  0.00     0.213 C 
ENDBRANCH  32  34
ENDBRANCH   5  32
TORSDOF 14
ENDMDL
