MODEL 1
REMARK VINA RESULT: -7.034920392      0.000      0.000
REMARK  7 active torsions:
REMARK  status: ('A' for Active; 'I' for Inactive)
REMARK    1  A    between atoms: N1_1  and  C1_4 
REMARK    2  A    between atoms: C2_9  and  C3_10 
REMARK    3  A    between atoms: C3_10  and  C4_11 
REMARK    4  A    between atoms: C4_11  and  C5_12 
REMARK    5  A    between atoms: C5_12  and  C6_13 
REMARK    6  A    between atoms: N6_20  and  C9_21 
REMARK    7  A    between atoms: C9_21  and  C10_22 
ROOT
HETATM    1  C1  UNL     1      -7.630  16.214 -38.515  1.00  0.00     0.694 A 
HETATM    2  N2  UNL     1      -6.315  15.945 -38.706  1.00  0.00    -0.131 N 
ATOM      3  H2  UNL     1      -5.680  16.471 -39.307  1.00  0.00     0.205 HD
HETATM    4  N3  UNL     1      -5.997  14.896 -37.988  1.00  0.00    -0.274 N 
ATOM      5  H3  UNL     1      -5.065  14.483 -37.951  1.00  0.00     0.189 HD
HETATM    6  C2  UNL     1      -7.057  14.436 -37.309  1.00  0.00     0.115 A 
HETATM    7  N6  UNL     1      -8.074  15.283 -37.658  1.00  0.00    -0.170 N 
ENDROOT
BRANCH   6   8
HETATM    8  C3  UNL     1      -7.153  13.284 -36.386  1.00  0.00     0.079 C 
BRANCH   8   9
HETATM    9  C4  UNL     1      -5.911  13.012 -35.621  1.00  0.00     0.013 C 
BRANCH   9  10
HETATM   10  C5  UNL     1      -6.026  12.974 -34.137  1.00  0.00     0.059 C 
BRANCH  10  11
HETATM   11  C6  UNL     1      -6.236  11.564 -33.698  1.00  0.00     0.027 A 
HETATM   12  C7  UNL     1      -5.910  11.052 -32.444  1.00  0.00     0.045 A 
HETATM   13  C8  UNL     1      -6.255   9.721 -32.426  1.00  0.00     0.109 A 
HETATM   14  N4  UNL     1      -6.775   9.430 -33.629  1.00  0.00    -0.312 N 
HETATM   15  N5  UNL     1      -6.761  10.527 -34.375  1.00  0.00    -0.305 N 
ATOM     16  H4  UNL     1      -7.125   8.518 -33.920  1.00  0.00     0.186 HD
ATOM     17  H5  UNL     1      -7.102  10.577 -35.334  1.00  0.00     0.186 HD
ENDBRANCH  10  11
ENDBRANCH   9  10
ENDBRANCH   8   9
ENDBRANCH   6   8
BRANCH   7  18
HETATM   18  C9  UNL     1      -9.399  15.138 -37.152  1.00  0.00     0.153 C 
BRANCH  18  19
HETATM   19  C10 UNL     1      -9.739  15.954 -35.950  1.00  0.00     0.005 A 
HETATM   20  C11 UNL     1      -8.911  16.104 -34.759  1.00  0.00     0.007 A 
HETATM   21  C12 UNL     1     -10.140  15.238 -34.674  1.00  0.00     0.007 A 
ENDBRANCH  18  19
ENDBRANCH   7  18
BRANCH   1  22
HETATM   22  N1  UNL     1      -8.256  17.192 -39.074  1.00  0.00    -0.233 N 
ATOM     23  H12 UNL     1      -8.157  17.586 -40.011  1.00  0.00     0.174 HD
ATOM     24  H11 UNL     1      -8.991  17.735 -38.620  1.00  0.00     0.174 HD
ENDBRANCH   1  22
TORSDOF 7
ENDMDL
MODEL 2
REMARK VINA RESULT: -6.964736747      1.663      2.767
REMARK  7 active torsions:
REMARK  status: ('A' for Active; 'I' for Inactive)
REMARK    1  A    between atoms: N1_1  and  C1_4 
REMARK    2  A    between atoms: C2_9  and  C3_10 
REMARK    3  A    between atoms: C3_10  and  C4_11 
REMARK    4  A    between atoms: C4_11  and  C5_12 
REMARK    5  A    between atoms: C5_12  and  C6_13 
REMARK    6  A    between atoms: N6_20  and  C9_21 
REMARK    7  A    between atoms: C9_21  and  C10_22 
ROOT
HETATM    1  C1  UNL     1      -9.715  15.403 -36.238  1.00  0.00     0.694 A 
HETATM    2  N2  UNL     1      -9.855  14.097 -36.573  1.00  0.00    -0.131 N 
ATOM      3  H2  UNL     1     -10.730  13.572 -36.575  1.00  0.00     0.205 HD
HETATM    4  N3  UNL     1      -8.677  13.622 -36.894  1.00  0.00    -0.274 N 
ATOM      5  H3  UNL     1      -8.503  12.659 -37.186  1.00  0.00     0.189 HD
HETATM    6  C2  UNL     1      -7.731  14.564 -36.790  1.00  0.00     0.115 A 
HETATM    7  N6  UNL     1      -8.409  15.678 -36.374  1.00  0.00    -0.170 N 
ENDROOT
BRANCH   6   8
HETATM    8  C3  UNL     1      -6.277  14.470 -37.051  1.00  0.00     0.079 C 
BRANCH   8   9
HETATM    9  C4  UNL     1      -5.569  13.485 -36.197  1.00  0.00     0.013 C 
BRANCH   9  10
HETATM   10  C5  UNL     1      -5.722  13.634 -34.724  1.00  0.00     0.059 C 
BRANCH  10  11
HETATM   11  C6  UNL     1      -6.016  12.301 -34.124  1.00  0.00     0.027 A 
HETATM   12  C7  UNL     1      -5.572  11.861 -32.879  1.00  0.00     0.045 A 
HETATM   13  C8  UNL     1      -6.049  10.586 -32.684  1.00  0.00     0.109 A 
HETATM   14  N4  UNL     1      -6.761  10.258 -33.774  1.00  0.00    -0.312 N 
HETATM   15  N5  UNL     1      -6.736  11.280 -34.620  1.00  0.00    -0.305 N 
ATOM     16  H4  UNL     1      -7.242   9.372 -33.926  1.00  0.00     0.186 HD
ATOM     17  H5  UNL     1      -7.201  11.289 -35.528  1.00  0.00     0.186 HD
ENDBRANCH  10  11
ENDBRANCH   9  10
ENDBRANCH   8   9
ENDBRANCH   6   8
BRANCH   7  18
HETATM   18  C9  UNL     1      -7.760  16.924 -36.132  1.00  0.00     0.153 C 
BRANCH  18  19
HETATM   19  C10 UNL     1      -7.843  17.935 -37.226  1.00  0.00     0.005 A 
HETATM   20  C11 UNL     1      -7.043  17.941 -38.445  1.00  0.00     0.007 A 
HETATM   21  C12 UNL     1      -6.719  18.944 -37.370  1.00  0.00     0.007 A 
ENDBRANCH  18  19
ENDBRANCH   7  18
BRANCH   1  22
HETATM   22  N1  UNL     1     -10.690  16.166 -35.880  1.00  0.00    -0.233 N 
ATOM     23  H12 UNL     1     -11.695  16.055 -36.018  1.00  0.00     0.174 HD
ATOM     24  H11 UNL     1     -10.574  17.040 -35.368  1.00  0.00     0.174 HD
ENDBRANCH   1  22
TORSDOF 7
ENDMDL
MODEL 3
REMARK VINA RESULT: -6.896366915      0.828      1.221
REMARK  7 active torsions:
REMARK  status: ('A' for Active; 'I' for Inactive)
REMARK    1  A    between atoms: N1_1  and  C1_4 
REMARK    2  A    between atoms: C2_9  and  C3_10 
REMARK    3  A    between atoms: C3_10  and  C4_11 
REMARK    4  A    between atoms: C4_11  and  C5_12 
REMARK    5  A    between atoms: C5_12  and  C6_13 
REMARK    6  A    between atoms: N6_20  and  C9_21 
REMARK    7  A    between atoms: C9_21  and  C10_22 
ROOT
HETATM    1  C1  UNL     1      -7.418  16.420 -38.397  1.00  0.00     0.694 A 
HETATM    2  N2  UNL     1      -6.348  15.674 -38.766  1.00  0.00    -0.131 N 
ATOM      3  H2  UNL     1      -5.894  15.694 -39.680  1.00  0.00     0.205 HD
HETATM    4  N3  UNL     1      -5.996  14.923 -37.752  1.00  0.00    -0.274 N 
ATOM      5  H3  UNL     1      -5.216  14.265 -37.765  1.00  0.00     0.189 HD
HETATM    6  C2  UNL     1      -6.793  15.132 -36.696  1.00  0.00     0.115 A 
HETATM    7  N6  UNL     1      -7.682  16.079 -37.127  1.00  0.00    -0.170 N 
ENDROOT
BRANCH   6   8
HETATM    8  C3  UNL     1      -6.760  14.507 -35.355  1.00  0.00     0.079 C 
BRANCH   8   9
HETATM    9  C4  UNL     1      -5.986  13.242 -35.293  1.00  0.00     0.013 C 
BRANCH   9  10
HETATM   10  C5  UNL     1      -5.425  12.859 -33.968  1.00  0.00     0.059 C 
BRANCH  10  11
HETATM   11  C6  UNL     1      -6.001  11.548 -33.552  1.00  0.00     0.027 A 
HETATM   12  C7  UNL     1      -5.930  11.006 -32.271  1.00  0.00     0.045 A 
HETATM   13  C8  UNL     1      -6.576   9.792 -32.287  1.00  0.00     0.109 A 
HETATM   14  N4  UNL     1      -7.028   9.600 -33.537  1.00  0.00    -0.312 N 
HETATM   15  N5  UNL     1      -6.683  10.645 -34.278  1.00  0.00    -0.305 N 
ATOM     16  H4  UNL     1      -7.550   8.787 -33.862  1.00  0.00     0.186 HD
ATOM     17  H5  UNL     1      -6.905  10.749 -35.268  1.00  0.00     0.186 HD
ENDBRANCH  10  11
ENDBRANCH   9  10
ENDBRANCH   8   9
ENDBRANCH   6   8
BRANCH   7  18
HETATM   18  C9  UNL     1      -8.724  16.586 -36.296  1.00  0.00     0.153 C 
BRANCH  18  19
HETATM   19  C10 UNL     1      -9.957  15.751 -36.200  1.00  0.00     0.005 A 
HETATM   20  C11 UNL     1     -10.381  14.743 -37.164  1.00  0.00     0.007 A 
HETATM   21  C12 UNL     1     -11.116  16.056 -37.129  1.00  0.00     0.007 A 
ENDBRANCH  18  19
ENDBRANCH   7  18
BRANCH   1  22
HETATM   22  N1  UNL     1      -8.005  17.273 -39.166  1.00  0.00    -0.233 N 
ATOM     23  H12 UNL     1      -7.895  17.438 -40.167  1.00  0.00     0.174 HD
ATOM     24  H11 UNL     1      -8.711  17.937 -38.849  1.00  0.00     0.174 HD
ENDBRANCH   1  22
TORSDOF 7
ENDMDL
MODEL 4
REMARK VINA RESULT: -6.674166148      1.045      1.420
REMARK  7 active torsions:
REMARK  status: ('A' for Active; 'I' for Inactive)
REMARK    1  A    between atoms: N1_1  and  C1_4 
REMARK    2  A    between atoms: C2_9  and  C3_10 
REMARK    3  A    between atoms: C3_10  and  C4_11 
REMARK    4  A    between atoms: C4_11  and  C5_12 
REMARK    5  A    between atoms: C5_12  and  C6_13 
REMARK    6  A    between atoms: N6_20  and  C9_21 
REMARK    7  A    between atoms: C9_21  and  C10_22 
ROOT
HETATM    1  C1  UNL     1      -8.451  16.503 -38.222  1.00  0.00     0.694 A 
HETATM    2  N2  UNL     1      -7.492  16.213 -39.134  1.00  0.00    -0.131 N 
ATOM      3  H2  UNL     1      -7.520  16.453 -40.126  1.00  0.00     0.205 HD
HETATM    4  N3  UNL     1      -6.522  15.574 -38.529  1.00  0.00    -0.274 N 
ATOM      5  H3  UNL     1      -5.675  15.241 -38.989  1.00  0.00     0.189 HD
HETATM    6  C2  UNL     1      -6.787  15.416 -37.225  1.00  0.00     0.115 A 
HETATM    7  N6  UNL     1      -8.009  16.009 -37.055  1.00  0.00    -0.170 N 
ENDROOT
BRANCH   6   8
HETATM    8  C3  UNL     1      -5.979  14.759 -36.174  1.00  0.00     0.079 C 
BRANCH   8   9
HETATM    9  C4  UNL     1      -5.817  13.295 -36.358  1.00  0.00     0.013 C 
BRANCH   9  10
HETATM   10  C5  UNL     1      -6.918  12.426 -35.858  1.00  0.00     0.059 C 
BRANCH  10  11
HETATM   11  C6  UNL     1      -6.484  11.763 -34.595  1.00  0.00     0.027 A 
HETATM   12  C7  UNL     1      -5.693  12.346 -33.608  1.00  0.00     0.045 A 
HETATM   13  C8  UNL     1      -5.513  11.422 -32.606  1.00  0.00     0.109 A 
HETATM   14  N4  UNL     1      -6.173  10.311 -32.969  1.00  0.00    -0.312 N 
HETATM   15  N5  UNL     1      -6.745  10.522 -34.147  1.00  0.00    -0.305 N 
ATOM     16  H4  UNL     1      -6.227   9.448 -32.428  1.00  0.00     0.186 HD
ATOM     17  H5  UNL     1      -7.308   9.835 -34.646  1.00  0.00     0.186 HD
ENDBRANCH  10  11
ENDBRANCH   9  10
ENDBRANCH   8   9
ENDBRANCH   6   8
BRANCH   7  18
HETATM   18  C9  UNL     1      -8.669  16.056 -35.792  1.00  0.00     0.153 C 
BRANCH  18  19
HETATM   19  C10 UNL     1      -9.644  14.960 -35.517  1.00  0.00     0.005 A 
HETATM   20  C11 UNL     1     -11.090  15.043 -35.685  1.00  0.00     0.007 A 
HETATM   21  C12 UNL     1     -10.528  15.066 -34.289  1.00  0.00     0.007 A 
ENDBRANCH  18  19
ENDBRANCH   7  18
BRANCH   1  22
HETATM   22  N1  UNL     1      -9.540  17.137 -38.493  1.00  0.00    -0.233 N 
ATOM     23  H12 UNL     1      -9.727  18.140 -38.518  1.00  0.00     0.174 HD
ATOM     24  H11 UNL     1     -10.419  16.684 -38.744  1.00  0.00     0.174 HD
ENDBRANCH   1  22
TORSDOF 7
ENDMDL
MODEL 5
REMARK VINA RESULT: -6.584093479      1.355      1.463
REMARK  7 active torsions:
REMARK  status: ('A' for Active; 'I' for Inactive)
REMARK    1  A    between atoms: N1_1  and  C1_4 
REMARK    2  A    between atoms: C2_9  and  C3_10 
REMARK    3  A    between atoms: C3_10  and  C4_11 
REMARK    4  A    between atoms: C4_11  and  C5_12 
REMARK    5  A    between atoms: C5_12  and  C6_13 
REMARK    6  A    between atoms: N6_20  and  C9_21 
REMARK    7  A    between atoms: C9_21  and  C10_22 
ROOT
HETATM    1  C1  UNL     1      -7.990  16.235 -38.367  1.00  0.00     0.694 A 
HETATM    2  N2  UNL     1      -6.675  16.206 -38.693  1.00  0.00    -0.131 N 
ATOM      3  H2  UNL     1      -6.194  16.878 -39.292  1.00  0.00     0.205 HD
HETATM    4  N3  UNL     1      -6.125  15.171 -38.108  1.00  0.00    -0.274 N 
ATOM      5  H3  UNL     1      -5.139  14.919 -38.189  1.00  0.00     0.189 HD
HETATM    6  C2  UNL     1      -7.024  14.487 -37.389  1.00  0.00     0.115 A 
HETATM    7  N6  UNL     1      -8.194  15.176 -37.568  1.00  0.00    -0.170 N 
ENDROOT
BRANCH   6   8
HETATM    8  C3  UNL     1      -6.844  13.265 -36.575  1.00  0.00     0.079 C 
BRANCH   8   9
HETATM    9  C4  UNL     1      -5.668  13.304 -35.672  1.00  0.00     0.013 C 
BRANCH   9  10
HETATM   10  C5  UNL     1      -5.822  14.052 -34.393  1.00  0.00     0.059 C 
BRANCH  10  11
HETATM   11  C6  UNL     1      -5.841  13.085 -33.258  1.00  0.00     0.027 A 
HETATM   12  C7  UNL     1      -5.993  11.705 -33.377  1.00  0.00     0.045 A 
HETATM   13  C8  UNL     1      -5.957  11.164 -32.113  1.00  0.00     0.109 A 
HETATM   14  N4  UNL     1      -5.788  12.179 -31.252  1.00  0.00    -0.312 N 
HETATM   15  N5  UNL     1      -5.720  13.312 -31.939  1.00  0.00    -0.305 N 
ATOM     16  H4  UNL     1      -5.722  12.094 -30.238  1.00  0.00     0.186 HD
ATOM     17  H5  UNL     1      -5.593  14.233 -31.521  1.00  0.00     0.186 HD
ENDBRANCH  10  11
ENDBRANCH   9  10
ENDBRANCH   8   9
ENDBRANCH   6   8
BRANCH   7  18
HETATM   18  C9  UNL     1      -9.421  14.771 -36.967  1.00  0.00     0.153 C 
BRANCH  18  19
HETATM   19  C10 UNL     1      -9.827  15.506 -35.733  1.00  0.00     0.005 A 
HETATM   20  C11 UNL     1      -8.923  16.026 -34.715  1.00  0.00     0.007 A 
HETATM   21  C12 UNL     1      -9.728  14.794 -34.398  1.00  0.00     0.007 A 
ENDBRANCH  18  19
ENDBRANCH   7  18
BRANCH   1  22
HETATM   22  N1  UNL     1      -8.817  17.136 -38.775  1.00  0.00    -0.233 N 
ATOM     23  H12 UNL     1      -8.642  18.082 -39.114  1.00  0.00     0.174 HD
ATOM     24  H11 UNL     1      -9.828  17.007 -38.820  1.00  0.00     0.174 HD
ENDBRANCH   1  22
TORSDOF 7
ENDMDL
