MODEL 1
REMARK VINA RESULT: -7.054185437      0.000      0.000
REMARK  8 active torsions:
REMARK  status: ('A' for Active; 'I' for Inactive)
REMARK    1  A    between atoms: C1_1  and  C2_2 
REMARK    2  A    between atoms: C1_1  and  C5_15 
REMARK    3  A    between atoms: C2_2  and  C3_3 
REMARK    4  A    between atoms: C3_3  and  N1_4 
REMARK    5  A    between atoms: N1_4  and  C4_6 
REMARK    6  A    between atoms: C5_15  and  C6_16 
REMARK    7  A    between atoms: C6_16  and  N6_17 
REMARK    8  A    between atoms: N6_17  and  C7_19 
ROOT
HETATM    1  C2  UNL     1      -6.327  12.477 -36.947  1.00  0.00     0.020 C 
ENDROOT
BRANCH   1   2
HETATM    2  C1  UNL     1      -6.702  11.856 -35.648  1.00  0.00     0.003 C 
BRANCH   2   3
HETATM    3  C5  UNL     1      -6.491  12.675 -34.422  1.00  0.00     0.019 C 
BRANCH   3   4
HETATM    4  C6  UNL     1      -5.952  11.791 -33.273  1.00  0.00     0.114 C 
BRANCH   4   5
HETATM    5  N6  UNL     1      -6.691  10.568 -33.330  1.00  0.00    -0.417 N 
ATOM      6  H6  UNL     1      -7.448  10.421 -33.997  1.00  0.00     0.153 HD
BRANCH   5   7
HETATM    7  C7  UNL     1      -6.300   9.572 -32.393  1.00  0.00     0.076 C 
HETATM    8  C8  UNL     1      -7.124   9.518 -31.154  1.00  0.00     0.024 C 
HETATM    9  C9  UNL     1      -6.826   8.376 -30.273  1.00  0.00     0.002 C 
HETATM   10  C10 UNL     1      -5.683   7.503 -30.629  1.00  0.00     0.000 C 
HETATM   11  C11 UNL     1      -5.384   7.358 -32.084  1.00  0.00     0.002 C 
HETATM   12  C12 UNL     1      -6.291   8.177 -32.971  1.00  0.00     0.024 C 
ENDBRANCH   5   7
ENDBRANCH   4   5
ENDBRANCH   3   4
ENDBRANCH   2   3
ENDBRANCH   1   2
BRANCH   1  13
HETATM   13  C3  UNL     1      -6.236  13.952 -37.012  1.00  0.00     0.138 C 
BRANCH  13  14
HETATM   14  N1  UNL     1      -7.228  14.645 -37.753  1.00  0.00    -0.223 N 
ATOM     15  H1  UNL     1      -8.047  14.106 -38.034  1.00  0.00     0.177 HD
BRANCH  14  16
HETATM   16  C4  UNL     1      -7.206  15.870 -38.105  1.00  0.00     0.709 A 
HETATM   17  N2  UNL     1      -7.678  16.433 -39.225  1.00  0.00    -0.115 N 
HETATM   18  N3  UNL     1      -7.449  17.719 -39.186  1.00  0.00    -0.213 N 
ATOM     19  H2  UNL     1      -8.141  15.938 -39.986  1.00  0.00     0.207 HD
HETATM   20  N4  UNL     1      -6.835  18.014 -38.061  1.00  0.00    -0.213 N 
ATOM     21  H3  UNL     1      -7.704  18.387 -39.913  1.00  0.00     0.210 HD
HETATM   22  N5  UNL     1      -6.686  16.884 -37.396  1.00  0.00    -0.115 N 
ATOM     23  H4  UNL     1      -6.533  18.940 -37.761  1.00  0.00     0.210 HD
ATOM     24  H5  UNL     1      -6.242  16.795 -36.482  1.00  0.00     0.207 HD
ENDBRANCH  14  16
ENDBRANCH  13  14
ENDBRANCH   1  13
TORSDOF 8
ENDMDL
MODEL 2
REMARK VINA RESULT: -6.967457323      1.275      2.091
REMARK  8 active torsions:
REMARK  status: ('A' for Active; 'I' for Inactive)
REMARK    1  A    between atoms: C1_1  and  C2_2 
REMARK    2  A    between atoms: C1_1  and  C5_15 
REMARK    3  A    between atoms: C2_2  and  C3_3 
REMARK    4  A    between atoms: C3_3  and  N1_4 
REMARK    5  A    between atoms: N1_4  and  C4_6 
REMARK    6  A    between atoms: C5_15  and  C6_16 
REMARK    7  A    between atoms: C6_16  and  N6_17 
REMARK    8  A    between atoms: N6_17  and  C7_19 
ROOT
HETATM    1  C2  UNL     1      -5.959  13.839 -34.281  1.00  0.00     0.020 C 
ENDROOT
BRANCH   1   2
HETATM    2  C1  UNL     1      -7.004  12.803 -34.500  1.00  0.00     0.003 C 
BRANCH   2   3
HETATM    3  C5  UNL     1      -6.539  11.396 -34.654  1.00  0.00     0.019 C 
BRANCH   3   4
HETATM    4  C6  UNL     1      -6.236  10.778 -33.269  1.00  0.00     0.114 C 
BRANCH   4   5
HETATM    5  N6  UNL     1      -6.991   9.567 -33.198  1.00  0.00    -0.417 N 
ATOM      6  H6  UNL     1      -7.455   9.167 -34.013  1.00  0.00     0.153 HD
BRANCH   5   7
HETATM    7  C7  UNL     1      -7.052   8.957 -31.915  1.00  0.00     0.076 C 
HETATM    8  C8  UNL     1      -6.017   7.915 -31.667  1.00  0.00     0.024 C 
HETATM    9  C9  UNL     1      -5.975   7.415 -30.281  1.00  0.00     0.002 C 
HETATM   10  C10 UNL     1      -7.020   7.885 -29.341  1.00  0.00     0.000 C 
HETATM   11  C11 UNL     1      -7.553   9.259 -29.571  1.00  0.00     0.002 C 
HETATM   12  C12 UNL     1      -6.956   9.945 -30.777  1.00  0.00     0.024 C 
ENDBRANCH   5   7
ENDBRANCH   4   5
ENDBRANCH   3   4
ENDBRANCH   2   3
ENDBRANCH   1   2
BRANCH   1  13
HETATM   13  C3  UNL     1      -5.830  14.922 -35.280  1.00  0.00     0.138 C 
BRANCH  13  14
HETATM   14  N1  UNL     1      -5.849  14.562 -36.653  1.00  0.00    -0.223 N 
ATOM     15  H1  UNL     1      -5.119  13.921 -36.966  1.00  0.00     0.177 HD
BRANCH  14  16
HETATM   16  C4  UNL     1      -6.681  14.952 -37.536  1.00  0.00     0.709 A 
HETATM   17  N2  UNL     1      -7.939  14.542 -37.747  1.00  0.00    -0.115 N 
HETATM   18  N3  UNL     1      -8.439  15.202 -38.758  1.00  0.00    -0.213 N 
ATOM     19  H2  UNL     1      -8.428  13.829 -37.207  1.00  0.00     0.207 HD
HETATM   20  N4  UNL     1      -7.535  16.040 -39.216  1.00  0.00    -0.213 N 
ATOM     21  H3  UNL     1      -9.381  15.086 -39.132  1.00  0.00     0.210 HD
HETATM   22  N5  UNL     1      -6.458  15.890 -38.469  1.00  0.00    -0.115 N 
ATOM     23  H4  UNL     1      -7.646  16.683 -39.999  1.00  0.00     0.210 HD
ATOM     24  H5  UNL     1      -5.587  16.408 -38.584  1.00  0.00     0.207 HD
ENDBRANCH  14  16
ENDBRANCH  13  14
ENDBRANCH   1  13
TORSDOF 8
ENDMDL
MODEL 3
REMARK VINA RESULT: -6.933981751      0.724      1.680
REMARK  8 active torsions:
REMARK  status: ('A' for Active; 'I' for Inactive)
REMARK    1  A    between atoms: C1_1  and  C2_2 
REMARK    2  A    between atoms: C1_1  and  C5_15 
REMARK    3  A    between atoms: C2_2  and  C3_3 
REMARK    4  A    between atoms: C3_3  and  N1_4 
REMARK    5  A    between atoms: N1_4  and  C4_6 
REMARK    6  A    between atoms: C5_15  and  C6_16 
REMARK    7  A    between atoms: C6_16  and  N6_17 
REMARK    8  A    between atoms: N6_17  and  C7_19 
ROOT
HETATM    1  C2  UNL     1      -5.902  13.998 -35.519  1.00  0.00     0.020 C 
ENDROOT
BRANCH   1   2
HETATM    2  C1  UNL     1      -6.854  13.056 -34.873  1.00  0.00     0.003 C 
BRANCH   2   3
HETATM    3  C5  UNL     1      -6.553  11.602 -34.996  1.00  0.00     0.019 C 
BRANCH   3   4
HETATM    4  C6  UNL     1      -6.297  10.988 -33.600  1.00  0.00     0.114 C 
BRANCH   4   5
HETATM    5  N6  UNL     1      -6.984   9.734 -33.583  1.00  0.00    -0.417 N 
ATOM      6  H6  UNL     1      -7.491   9.380 -34.393  1.00  0.00     0.153 HD
BRANCH   5   7
HETATM    7  C7  UNL     1      -6.912   9.013 -32.359  1.00  0.00     0.076 C 
HETATM    8  C8  UNL     1      -5.842   7.979 -32.303  1.00  0.00     0.024 C 
HETATM    9  C9  UNL     1      -5.659   7.362 -30.977  1.00  0.00     0.002 C 
HETATM   10  C10 UNL     1      -6.617   7.722 -29.905  1.00  0.00     0.000 C 
HETATM   11  C11 UNL     1      -7.191   9.098 -29.960  1.00  0.00     0.002 C 
HETATM   12  C12 UNL     1      -6.723   9.901 -31.151  1.00  0.00     0.024 C 
ENDBRANCH   5   7
ENDBRANCH   4   5
ENDBRANCH   3   4
ENDBRANCH   2   3
ENDBRANCH   1   2
BRANCH   1  13
HETATM   13  C3  UNL     1      -5.798  13.982 -36.994  1.00  0.00     0.138 C 
BRANCH  13  14
HETATM   14  N1  UNL     1      -6.904  14.465 -37.741  1.00  0.00    -0.223 N 
ATOM     15  H1  UNL     1      -7.627  13.785 -37.977  1.00  0.00     0.177 HD
BRANCH  14  16
HETATM   16  C4  UNL     1      -7.091  15.659 -38.148  1.00  0.00     0.709 A 
HETATM   17  N2  UNL     1      -6.634  16.806 -37.629  1.00  0.00    -0.115 N 
HETATM   18  N3  UNL     1      -7.063  17.804 -38.356  1.00  0.00    -0.213 N 
ATOM     19  H2  UNL     1      -6.045  16.888 -36.801  1.00  0.00     0.207 HD
HETATM   20  N4  UNL     1      -7.794  17.335 -39.343  1.00  0.00    -0.213 N 
ATOM     21  H3  UNL     1      -6.863  18.789 -38.184  1.00  0.00     0.210 HD
HETATM   22  N5  UNL     1      -7.813  16.022 -39.219  1.00  0.00    -0.115 N 
ATOM     23  H4  UNL     1      -8.258  17.883 -40.067  1.00  0.00     0.210 HD
ATOM     24  H5  UNL     1      -8.302  15.380 -39.843  1.00  0.00     0.207 HD
ENDBRANCH  14  16
ENDBRANCH  13  14
ENDBRANCH   1  13
TORSDOF 8
ENDMDL
MODEL 4
REMARK VINA RESULT: -6.843426553      1.227      1.737
REMARK  8 active torsions:
REMARK  status: ('A' for Active; 'I' for Inactive)
REMARK    1  A    between atoms: C1_1  and  C2_2 
REMARK    2  A    between atoms: C1_1  and  C5_15 
REMARK    3  A    between atoms: C2_2  and  C3_3 
REMARK    4  A    between atoms: C3_3  and  N1_4 
REMARK    5  A    between atoms: N1_4  and  C4_6 
REMARK    6  A    between atoms: C5_15  and  C6_16 
REMARK    7  A    between atoms: C6_16  and  N6_17 
REMARK    8  A    between atoms: N6_17  and  C7_19 
ROOT
HETATM    1  C2  UNL     1      -7.282  14.769 -34.637  1.00  0.00     0.020 C 
ENDROOT
BRANCH   1   2
HETATM    2  C1  UNL     1      -6.029  14.185 -34.088  1.00  0.00     0.003 C 
BRANCH   2   3
HETATM    3  C5  UNL     1      -5.765  12.750 -34.388  1.00  0.00     0.019 C 
BRANCH   3   4
HETATM    4  C6  UNL     1      -5.620  11.947 -33.074  1.00  0.00     0.114 C 
BRANCH   4   5
HETATM    5  N6  UNL     1      -6.481  10.813 -33.202  1.00  0.00    -0.417 N 
ATOM      6  H6  UNL     1      -7.263  10.795 -33.856  1.00  0.00     0.153 HD
BRANCH   5   7
HETATM    7  C7  UNL     1      -6.173   9.711 -32.358  1.00  0.00     0.076 C 
HETATM    8  C8  UNL     1      -6.979   9.635 -31.108  1.00  0.00     0.024 C 
HETATM    9  C9  UNL     1      -6.779   8.401 -30.328  1.00  0.00     0.002 C 
HETATM   10  C10 UNL     1      -5.730   7.456 -30.779  1.00  0.00     0.000 C 
HETATM   11  C11 UNL     1      -5.470   7.402 -32.247  1.00  0.00     0.002 C 
HETATM   12  C12 UNL     1      -6.307   8.373 -33.045  1.00  0.00     0.024 C 
ENDBRANCH   5   7
ENDBRANCH   4   5
ENDBRANCH   3   4
ENDBRANCH   2   3
ENDBRANCH   1   2
BRANCH   1  13
HETATM   13  C3  UNL     1      -8.209  13.873 -35.362  1.00  0.00     0.138 C 
BRANCH  13  14
HETATM   14  N1  UNL     1      -8.013  13.706 -36.758  1.00  0.00    -0.223 N 
ATOM     15  H1  UNL     1      -8.242  12.790 -37.144  1.00  0.00     0.177 HD
BRANCH  14  16
HETATM   16  C4  UNL     1      -7.580  14.578 -37.580  1.00  0.00     0.709 A 
HETATM   17  N2  UNL     1      -6.319  14.967 -37.810  1.00  0.00    -0.115 N 
HETATM   18  N3  UNL     1      -6.319  15.889 -38.737  1.00  0.00    -0.213 N 
ATOM     19  H2  UNL     1      -5.492  14.602 -37.339  1.00  0.00     0.207 HD
HETATM   20  N4  UNL     1      -7.555  16.115 -39.121  1.00  0.00    -0.213 N 
ATOM     21  H3  UNL     1      -5.490  16.358 -39.102  1.00  0.00     0.210 HD
HETATM   22  N5  UNL     1      -8.331  15.314 -38.416  1.00  0.00    -0.115 N 
ATOM     23  H4  UNL     1      -7.857  16.782 -39.830  1.00  0.00     0.210 HD
ATOM     24  H5  UNL     1      -9.346  15.261 -38.494  1.00  0.00     0.207 HD
ENDBRANCH  14  16
ENDBRANCH  13  14
ENDBRANCH   1  13
TORSDOF 8
ENDMDL
MODEL 5
REMARK VINA RESULT: -6.757970977      3.992      5.132
REMARK  8 active torsions:
REMARK  status: ('A' for Active; 'I' for Inactive)
REMARK    1  A    between atoms: C1_1  and  C2_2 
REMARK    2  A    between atoms: C1_1  and  C5_15 
REMARK    3  A    between atoms: C2_2  and  C3_3 
REMARK    4  A    between atoms: C3_3  and  N1_4 
REMARK    5  A    between atoms: N1_4  and  C4_6 
REMARK    6  A    between atoms: C5_15  and  C6_16 
REMARK    7  A    between atoms: C6_16  and  N6_17 
REMARK    8  A    between atoms: N6_17  and  C7_19 
ROOT
HETATM    1  C2  UNL     1      -9.946  16.413 -38.162  1.00  0.00     0.020 C 
ENDROOT
BRANCH   1   2
HETATM    2  C1  UNL     1     -10.527  16.292 -36.798  1.00  0.00     0.003 C 
BRANCH   2   3
HETATM    3  C5  UNL     1     -10.707  14.914 -36.261  1.00  0.00     0.019 C 
BRANCH   3   4
HETATM    4  C6  UNL     1     -10.216  14.842 -34.796  1.00  0.00     0.114 C 
BRANCH   4   5
HETATM    5  N6  UNL     1      -9.305  13.742 -34.734  1.00  0.00    -0.417 N 
ATOM      6  H6  UNL     1      -9.554  12.854 -34.299  1.00  0.00     0.153 HD
BRANCH   5   7
HETATM    7  C7  UNL     1      -8.030  13.969 -35.320  1.00  0.00     0.076 C 
HETATM    8  C8  UNL     1      -7.012  14.549 -34.400  1.00  0.00     0.024 C 
HETATM    9  C9  UNL     1      -5.651  14.616 -34.961  1.00  0.00     0.002 C 
HETATM   10  C10 UNL     1      -5.466  14.241 -36.383  1.00  0.00     0.000 C 
HETATM   11  C11 UNL     1      -6.392  13.203 -36.923  1.00  0.00     0.002 C 
HETATM   12  C12 UNL     1      -7.416  12.727 -35.920  1.00  0.00     0.024 C 
ENDBRANCH   5   7
ENDBRANCH   4   5
ENDBRANCH   3   4
ENDBRANCH   2   3
ENDBRANCH   1   2
BRANCH   1  13
HETATM   13  C3  UNL     1      -8.823  15.521 -38.523  1.00  0.00     0.138 C 
BRANCH  13  14
HETATM   14  N1  UNL     1      -7.574  16.121 -38.831  1.00  0.00    -0.223 N 
ATOM     15  H1  UNL     1      -6.989  15.634 -39.510  1.00  0.00     0.177 HD
BRANCH  14  16
HETATM   16  C4  UNL     1      -7.104  17.204 -38.349  1.00  0.00     0.709 A 
HETATM   17  N2  UNL     1      -6.822  17.505 -37.074  1.00  0.00    -0.115 N 
HETATM   18  N3  UNL     1      -6.358  18.726 -37.017  1.00  0.00    -0.213 N 
ATOM     19  H2  UNL     1      -6.948  16.882 -36.277  1.00  0.00     0.207 HD
HETATM   20  N4  UNL     1      -6.330  19.233 -38.229  1.00  0.00    -0.213 N 
ATOM     21  H3  UNL     1      -6.066  19.207 -36.167  1.00  0.00     0.210 HD
HETATM   22  N5  UNL     1      -6.785  18.304 -39.047  1.00  0.00    -0.115 N 
ATOM     23  H4  UNL     1      -6.015  20.168 -38.487  1.00  0.00     0.210 HD
ATOM     24  H5  UNL     1      -6.880  18.406 -40.058  1.00  0.00     0.207 HD
ENDBRANCH  14  16
ENDBRANCH  13  14
ENDBRANCH   1  13
TORSDOF 8
ENDMDL
