MODEL 1
REMARK VINA RESULT: -6.359633388      0.000      0.000
REMARK  7 active torsions:
REMARK  status: ('A' for Active; 'I' for Inactive)
REMARK    1  A    between atoms: N1_1  and  C1_5 
REMARK    2  A    between atoms: C5_11  and  C6_12 
REMARK    3  A    between atoms: C6_12  and  C7_13 
REMARK    4  A    between atoms: C7_13  and  N3_14 
REMARK    5  A    between atoms: N3_14  and  C8_17 
REMARK    6  A    between atoms: C8_17  and  C9_18 
REMARK    7  A    between atoms: C9_18  and  N4_19 
ROOT
HETATM    1  C6  UNL     1      -7.012  12.538 -35.938  1.00  0.00     0.054 C 
ENDROOT
BRANCH   1   2
HETATM    2  C5  UNL     1      -7.769  13.821 -35.942  1.00  0.00     0.113 C 
HETATM    3  C1  UNL     1      -6.858  14.872 -36.569  1.00  0.00     0.209 C 
HETATM    4  C2  UNL     1      -7.570  16.173 -36.740  1.00  0.00     0.063 C 
HETATM    5  C3  UNL     1      -8.867  15.968 -37.386  1.00  0.00    -0.008 C 
HETATM    6  C4  UNL     1      -9.562  14.851 -37.341  1.00  0.00     0.079 C 
HETATM    7  N2  UNL     1      -9.018  13.734 -36.607  1.00  0.00    -0.392 N 
ATOM      8  H2  UNL     1      -9.545  12.862 -36.565  1.00  0.00     0.159 HD
BRANCH   3   9
HETATM    9  N1  UNL     1      -6.438  14.341 -37.863  1.00  0.00    -0.073 N 
ATOM     10  H13 UNL     1      -7.213  14.302 -38.525  1.00  0.00     0.274 HD
ATOM     11  H12 UNL     1      -5.840  14.997 -38.365  1.00  0.00     0.274 HD
ATOM     12  H11 UNL     1      -5.992  13.431 -37.750  1.00  0.00     0.274 HD
ENDBRANCH   3   9
ENDBRANCH   1   2
BRANCH   1  13
HETATM   13  C7  UNL     1      -6.475  12.208 -34.559  1.00  0.00     0.234 C 
BRANCH  13  14
HETATM   14  N3  UNL     1      -6.704  10.796 -34.363  1.00  0.00    -0.073 N 
ATOM     15  H32 UNL     1      -7.664  10.533 -34.590  1.00  0.00     0.277 HD
ATOM     16  H31 UNL     1      -6.221  10.234 -35.064  1.00  0.00     0.277 HD
BRANCH  14  17
HETATM   17  C8  UNL     1      -6.349  10.405 -33.032  1.00  0.00     0.262 C 
BRANCH  17  18
HETATM   18  C9  UNL     1      -6.128   8.958 -32.915  1.00  0.00     0.299 C 
BRANCH  18  19
HETATM   19  N4  UNL     1      -6.766   8.347 -31.749  1.00  0.00     0.090 N 
HETATM   20  C10 UNL     1      -7.485   9.358 -31.073  1.00  0.00     0.272 C 
HETATM   21  C11 UNL     1      -7.391   9.436 -29.608  1.00  0.00     0.030 C 
HETATM   22  C12 UNL     1      -7.163   8.081 -29.009  1.00  0.00     0.003 C 
HETATM   23  C13 UNL     1      -5.953   7.411 -29.612  1.00  0.00     0.030 C 
HETATM   24  C14 UNL     1      -5.912   7.459 -31.083  1.00  0.00     0.272 C 
ENDBRANCH  18  19
ENDBRANCH  17  18
ENDBRANCH  14  17
ENDBRANCH  13  14
ENDBRANCH   1  13
TORSDOF 7
ENDMDL
MODEL 2
REMARK VINA RESULT: -6.325468513      2.984      4.864
REMARK  7 active torsions:
REMARK  status: ('A' for Active; 'I' for Inactive)
REMARK    1  A    between atoms: N1_1  and  C1_5 
REMARK    2  A    between atoms: C5_11  and  C6_12 
REMARK    3  A    between atoms: C6_12  and  C7_13 
REMARK    4  A    between atoms: C7_13  and  N3_14 
REMARK    5  A    between atoms: N3_14  and  C8_17 
REMARK    6  A    between atoms: C8_17  and  C9_18 
REMARK    7  A    between atoms: C9_18  and  N4_19 
ROOT
HETATM    1  C6  UNL     1      -8.750  15.710 -38.182  1.00  0.00     0.054 C 
ENDROOT
BRANCH   1   2
HETATM    2  C5  UNL     1      -8.435  17.165 -38.139  1.00  0.00     0.113 C 
HETATM    3  C1  UNL     1      -7.807  17.444 -36.776  1.00  0.00     0.209 C 
HETATM    4  C2  UNL     1      -7.333  18.856 -36.677  1.00  0.00     0.063 C 
HETATM    5  C3  UNL     1      -6.532  19.213 -37.847  1.00  0.00    -0.008 C 
HETATM    6  C4  UNL     1      -6.634  18.647 -39.030  1.00  0.00     0.079 C 
HETATM    7  N2  UNL     1      -7.603  17.592 -39.205  1.00  0.00    -0.392 N 
ATOM      8  H2  UNL     1      -7.692  17.144 -40.117  1.00  0.00     0.159 HD
BRANCH   3   9
HETATM    9  N1  UNL     1      -6.690  16.515 -36.635  1.00  0.00    -0.073 N 
ATOM     10  H13 UNL     1      -5.826  16.902 -37.015  1.00  0.00     0.274 HD
ATOM     11  H12 UNL     1      -6.399  16.418 -35.661  1.00  0.00     0.274 HD
ATOM     12  H11 UNL     1      -6.917  15.613 -37.054  1.00  0.00     0.274 HD
ENDBRANCH   3   9
ENDBRANCH   1   2
BRANCH   1  13
HETATM   13  C7  UNL     1      -9.685  15.305 -37.060  1.00  0.00     0.234 C 
BRANCH  13  14
HETATM   14  N3  UNL     1      -9.396  13.919 -36.773  1.00  0.00    -0.073 N 
ATOM     15  H32 UNL     1     -10.224  13.419 -36.451  1.00  0.00     0.277 HD
ATOM     16  H31 UNL     1      -9.216  13.387 -37.624  1.00  0.00     0.277 HD
BRANCH  14  17
HETATM   17  C8  UNL     1      -8.314  13.809 -35.840  1.00  0.00     0.262 C 
BRANCH  17  18
HETATM   18  C9  UNL     1      -7.256  12.909 -36.315  1.00  0.00     0.299 C 
BRANCH  18  19
HETATM   19  N4  UNL     1      -6.211  12.641 -35.328  1.00  0.00     0.090 N 
HETATM   20  C10 UNL     1      -6.456  11.364 -34.776  1.00  0.00     0.272 C 
HETATM   21  C11 UNL     1      -6.344  11.188 -33.320  1.00  0.00     0.030 C 
HETATM   22  C12 UNL     1      -5.333  12.129 -32.739  1.00  0.00     0.003 C 
HETATM   23  C13 UNL     1      -5.640  13.560 -33.106  1.00  0.00     0.030 C 
HETATM   24  C14 UNL     1      -5.933  13.762 -34.535  1.00  0.00     0.272 C 
ENDBRANCH  18  19
ENDBRANCH  17  18
ENDBRANCH  14  17
ENDBRANCH  13  14
ENDBRANCH   1  13
TORSDOF 7
ENDMDL
MODEL 3
REMARK VINA RESULT: -6.253577118      1.607      2.567
REMARK  7 active torsions:
REMARK  status: ('A' for Active; 'I' for Inactive)
REMARK    1  A    between atoms: N1_1  and  C1_5 
REMARK    2  A    between atoms: C5_11  and  C6_12 
REMARK    3  A    between atoms: C6_12  and  C7_13 
REMARK    4  A    between atoms: C7_13  and  N3_14 
REMARK    5  A    between atoms: N3_14  and  C8_17 
REMARK    6  A    between atoms: C8_17  and  C9_18 
REMARK    7  A    between atoms: C9_18  and  N4_19 
ROOT
HETATM    1  C6  UNL     1      -6.206  14.208 -37.282  1.00  0.00     0.054 C 
ENDROOT
BRANCH   1   2
HETATM    2  C5  UNL     1      -7.417  14.973 -36.873  1.00  0.00     0.113 C 
HETATM    3  C1  UNL     1      -7.344  16.328 -37.572  1.00  0.00     0.209 C 
HETATM    4  C2  UNL     1      -8.581  17.128 -37.330  1.00  0.00     0.063 C 
HETATM    5  C3  UNL     1      -9.774  16.324 -37.595  1.00  0.00    -0.008 C 
HETATM    6  C4  UNL     1      -9.828  15.011 -37.520  1.00  0.00     0.079 C 
HETATM    7  N2  UNL     1      -8.631  14.294 -37.152  1.00  0.00    -0.392 N 
ATOM      8  H2  UNL     1      -8.658  13.277 -37.091  1.00  0.00     0.159 HD
BRANCH   3   9
HETATM    9  N1  UNL     1      -7.178  16.053 -38.996  1.00  0.00    -0.073 N 
ATOM     10  H13 UNL     1      -6.353  16.516 -39.377  1.00  0.00     0.274 HD
ATOM     11  H12 UNL     1      -6.901  15.085 -39.164  1.00  0.00     0.274 HD
ATOM     12  H11 UNL     1      -8.022  16.301 -39.511  1.00  0.00     0.274 HD
ENDBRANCH   3   9
ENDBRANCH   1   2
BRANCH   1  13
HETATM   13  C7  UNL     1      -5.811  13.182 -36.238  1.00  0.00     0.234 C 
BRANCH  13  14
HETATM   14  N3  UNL     1      -5.534  13.922 -35.029  1.00  0.00    -0.073 N 
ATOM     15  H32 UNL     1      -4.557  14.211 -34.978  1.00  0.00     0.277 HD
ATOM     16  H31 UNL     1      -5.967  14.846 -35.043  1.00  0.00     0.277 HD
BRANCH  14  17
HETATM   17  C8  UNL     1      -5.925  13.171 -33.874  1.00  0.00     0.262 C 
BRANCH  17  18
HETATM   18  C9  UNL     1      -6.575  11.902 -34.226  1.00  0.00     0.299 C 
BRANCH  18  19
HETATM   19  N4  UNL     1      -6.123  10.758 -33.435  1.00  0.00     0.090 N 
HETATM   20  C10 UNL     1      -6.609   9.586 -34.056  1.00  0.00     0.272 C 
HETATM   21  C11 UNL     1      -7.201   8.533 -33.218  1.00  0.00     0.030 C 
HETATM   22  C12 UNL     1      -6.579   8.516 -31.854  1.00  0.00     0.003 C 
HETATM   23  C13 UNL     1      -6.666   9.870 -31.194  1.00  0.00     0.030 C 
HETATM   24  C14 UNL     1      -6.246  10.985 -32.058  1.00  0.00     0.272 C 
ENDBRANCH  18  19
ENDBRANCH  17  18
ENDBRANCH  14  17
ENDBRANCH  13  14
ENDBRANCH   1  13
TORSDOF 7
ENDMDL
MODEL 4
REMARK VINA RESULT: -6.217384730      2.380      3.058
REMARK  7 active torsions:
REMARK  status: ('A' for Active; 'I' for Inactive)
REMARK    1  A    between atoms: N1_1  and  C1_5 
REMARK    2  A    between atoms: C5_11  and  C6_12 
REMARK    3  A    between atoms: C6_12  and  C7_13 
REMARK    4  A    between atoms: C7_13  and  N3_14 
REMARK    5  A    between atoms: N3_14  and  C8_17 
REMARK    6  A    between atoms: C8_17  and  C9_18 
REMARK    7  A    between atoms: C9_18  and  N4_19 
ROOT
HETATM    1  C6  UNL     1      -7.050  12.651 -36.105  1.00  0.00     0.054 C 
ENDROOT
BRANCH   1   2
HETATM    2  C5  UNL     1      -7.836  13.915 -36.055  1.00  0.00     0.113 C 
HETATM    3  C1  UNL     1      -6.961  15.007 -36.663  1.00  0.00     0.209 C 
HETATM    4  C2  UNL     1      -7.706  16.296 -36.780  1.00  0.00     0.063 C 
HETATM    5  C3  UNL     1      -9.009  16.081 -37.410  1.00  0.00    -0.008 C 
HETATM    6  C4  UNL     1      -9.677  14.947 -37.390  1.00  0.00     0.079 C 
HETATM    7  N2  UNL     1      -9.095  13.820 -36.701  1.00  0.00    -0.392 N 
ATOM      8  H2  UNL     1      -9.600  12.935 -36.679  1.00  0.00     0.159 HD
BRANCH   3   9
HETATM    9  N1  UNL     1      -6.552  14.527 -37.980  1.00  0.00    -0.073 N 
ATOM     10  H13 UNL     1      -6.494  13.510 -38.010  1.00  0.00     0.274 HD
ATOM     11  H12 UNL     1      -7.286  14.660 -38.675  1.00  0.00     0.274 HD
ATOM     12  H11 UNL     1      -5.676  14.964 -38.266  1.00  0.00     0.274 HD
ENDBRANCH   3   9
ENDBRANCH   1   2
BRANCH   1  13
HETATM   13  C7  UNL     1      -6.294  12.409 -34.813  1.00  0.00     0.234 C 
BRANCH  13  14
HETATM   14  N3  UNL     1      -6.652  11.079 -34.378  1.00  0.00    -0.073 N 
ATOM     15  H32 UNL     1      -7.645  10.891 -34.514  1.00  0.00     0.277 HD
ATOM     16  H31 UNL     1      -6.273  10.364 -35.000  1.00  0.00     0.277 HD
BRANCH  14  17
HETATM   17  C8  UNL     1      -6.253  10.865 -33.020  1.00  0.00     0.262 C 
BRANCH  17  18
HETATM   18  C9  UNL     1      -5.372  11.929 -32.521  1.00  0.00     0.299 C 
BRANCH  18  19
HETATM   19  N4  UNL     1      -5.930  12.695 -31.407  1.00  0.00     0.090 N 
HETATM   20  C10 UNL     1      -5.180  13.886 -31.286  1.00  0.00     0.272 C 
HETATM   21  C11 UNL     1      -4.766  14.329 -29.946  1.00  0.00     0.030 C 
HETATM   22  C12 UNL     1      -5.753  13.896 -28.905  1.00  0.00     0.003 C 
HETATM   23  C13 UNL     1      -5.984  12.406 -28.954  1.00  0.00     0.030 C 
HETATM   24  C14 UNL     1      -6.233  11.882 -30.306  1.00  0.00     0.272 C 
ENDBRANCH  18  19
ENDBRANCH  17  18
ENDBRANCH  14  17
ENDBRANCH  13  14
ENDBRANCH   1  13
TORSDOF 7
ENDMDL
MODEL 5
REMARK VINA RESULT: -6.207215978      3.721      3.992
REMARK  7 active torsions:
REMARK  status: ('A' for Active; 'I' for Inactive)
REMARK    1  A    between atoms: N1_1  and  C1_5 
REMARK    2  A    between atoms: C5_11  and  C6_12 
REMARK    3  A    between atoms: C6_12  and  C7_13 
REMARK    4  A    between atoms: C7_13  and  N3_14 
REMARK    5  A    between atoms: N3_14  and  C8_17 
REMARK    6  A    between atoms: C8_17  and  C9_18 
REMARK    7  A    between atoms: C9_18  and  N4_19 
ROOT
HETATM    1  C6  UNL     1      -6.275  14.442 -37.358  1.00  0.00     0.054 C 
ENDROOT
BRANCH   1   2
HETATM    2  C5  UNL     1      -7.519  15.167 -36.977  1.00  0.00     0.113 C 
HETATM    3  C1  UNL     1      -7.546  16.461 -37.787  1.00  0.00     0.209 C 
HETATM    4  C2  UNL     1      -8.822  17.205 -37.576  1.00  0.00     0.063 C 
HETATM    5  C3  UNL     1      -9.970  16.314 -37.737  1.00  0.00    -0.008 C 
HETATM    6  C4  UNL     1      -9.944  15.011 -37.553  1.00  0.00     0.079 C 
HETATM    7  N2  UNL     1      -8.696  14.398 -37.163  1.00  0.00    -0.392 N 
ATOM      8  H2  UNL     1      -8.661  13.390 -37.018  1.00  0.00     0.159 HD
BRANCH   3   9
HETATM    9  N1  UNL     1      -7.399  16.077 -39.188  1.00  0.00    -0.073 N 
ATOM     10  H13 UNL     1      -7.341  15.065 -39.299  1.00  0.00     0.274 HD
ATOM     11  H12 UNL     1      -8.255  16.242 -39.717  1.00  0.00     0.274 HD
ATOM     12  H11 UNL     1      -6.598  16.550 -39.608  1.00  0.00     0.274 HD
ENDBRANCH   3   9
ENDBRANCH   1   2
BRANCH   1  13
HETATM   13  C7  UNL     1      -5.643  13.749 -36.167  1.00  0.00     0.234 C 
BRANCH  13  14
HETATM   14  N3  UNL     1      -5.558  14.741 -35.120  1.00  0.00    -0.073 N 
ATOM     15  H32 UNL     1      -4.692  15.278 -35.178  1.00  0.00     0.277 HD
ATOM     16  H31 UNL     1      -6.221  15.502 -35.266  1.00  0.00     0.277 HD
BRANCH  14  17
HETATM   17  C8  UNL     1      -5.721  14.135 -33.833  1.00  0.00     0.262 C 
BRANCH  17  18
HETATM   18  C9  UNL     1      -4.845  12.971 -33.648  1.00  0.00     0.299 C 
BRANCH  18  19
HETATM   19  N4  UNL     1      -4.469  12.719 -32.258  1.00  0.00     0.090 N 
HETATM   20  C10 UNL     1      -5.275  13.542 -31.439  1.00  0.00     0.272 C 
HETATM   21  C11 UNL     1      -4.645  14.269 -30.326  1.00  0.00     0.030 C 
HETATM   22  C12 UNL     1      -3.465  13.516 -29.789  1.00  0.00     0.003 C 
HETATM   23  C13 UNL     1      -2.474  13.198 -30.881  1.00  0.00     0.030 C 
HETATM   24  C14 UNL     1      -3.081  12.624 -32.093  1.00  0.00     0.272 C 
ENDBRANCH  18  19
ENDBRANCH  17  18
ENDBRANCH  14  17
ENDBRANCH  13  14
ENDBRANCH   1  13
TORSDOF 7
ENDMDL
