MODEL 1
REMARK VINA RESULT: -6.392690322      0.000      0.000
REMARK  6 active torsions:
REMARK  status: ('A' for Active; 'I' for Inactive)
REMARK    1  A    between atoms: C4_5  and  C5_6 
REMARK    2  A    between atoms: C5_6  and  N2_7 
REMARK    3  A    between atoms: N2_7  and  C6_10 
REMARK    4  A    between atoms: C6_10  and  C7_11 
REMARK    5  A    between atoms: C7_11  and  N3_12 
REMARK    6  A    between atoms: N3_12  and  C8_14 
ROOT
HETATM    1  N2  UNL     1     -10.705  14.517 -36.018  1.00  0.00    -0.068 N 
ATOM      2  H21 UNL     1     -11.575  14.009 -35.861  1.00  0.00     0.277 HD
ATOM      3  H22 UNL     1     -10.390  14.012 -36.846  1.00  0.00     0.277 HD
ENDROOT
BRANCH   1   4
HETATM    4  C5  UNL     1      -9.784  14.384 -34.910  1.00  0.00     0.289 C 
BRANCH   4   5
HETATM    5  C4  UNL     1      -8.400  14.269 -35.453  1.00  0.00     0.034 A 
HETATM    6  C3  UNL     1      -7.311  14.847 -34.847  1.00  0.00     0.028 A 
HETATM    7  C2  UNL     1      -6.051  14.715 -35.384  1.00  0.00     0.030 A 
HETATM    8  C1  UNL     1      -5.892  13.979 -36.563  1.00  0.00     0.061 A 
HETATM    9  N1  UNL     1      -4.591  13.831 -37.136  1.00  0.00    -0.101 NA
HETATM   10  C14 UNL     1      -7.011  13.408 -37.151  1.00  0.00     0.114 A 
HETATM   11  N4  UNL     1      -8.226  13.560 -36.595  1.00  0.00    -0.366 N 
ATOM     12  H4  UNL     1      -9.036  13.131 -37.044  1.00  0.00     0.165 HD
ENDBRANCH   4   5
ENDBRANCH   1   4
BRANCH   1  13
HETATM   13  C6  UNL     1     -10.933  15.936 -36.288  1.00  0.00     0.251 C 
BRANCH  13  14
HETATM   14  C7  UNL     1     -10.555  16.186 -37.724  1.00  0.00     0.141 C 
BRANCH  14  15
HETATM   15  N3  UNL     1      -9.660  17.275 -37.934  1.00  0.00    -0.415 N 
ATOM     16  H3  UNL     1      -9.970  18.151 -38.355  1.00  0.00     0.153 HD
BRANCH  15  17
HETATM   17  C8  UNL     1      -8.309  17.075 -37.524  1.00  0.00     0.076 C 
HETATM   18  C9  UNL     1      -7.969  18.133 -36.500  1.00  0.00     0.024 C 
HETATM   19  C10 UNL     1      -6.590  18.722 -36.723  1.00  0.00     0.002 C 
HETATM   20  C11 UNL     1      -6.596  19.306 -38.121  1.00  0.00     0.000 C 
HETATM   21  C12 UNL     1      -6.776  18.235 -39.164  1.00  0.00     0.002 C 
HETATM   22  C13 UNL     1      -7.314  16.952 -38.634  1.00  0.00     0.024 C 
ENDBRANCH  15  17
ENDBRANCH  14  15
ENDBRANCH  13  14
ENDBRANCH   1  13
TORSDOF 6
ENDMDL
MODEL 2
REMARK VINA RESULT: -6.159342024      1.569      4.362
REMARK  6 active torsions:
REMARK  status: ('A' for Active; 'I' for Inactive)
REMARK    1  A    between atoms: C4_5  and  C5_6 
REMARK    2  A    between atoms: C5_6  and  N2_7 
REMARK    3  A    between atoms: N2_7  and  C6_10 
REMARK    4  A    between atoms: C6_10  and  C7_11 
REMARK    5  A    between atoms: C7_11  and  N3_12 
REMARK    6  A    between atoms: N3_12  and  C8_14 
ROOT
HETATM    1  N2  UNL     1     -10.900  16.094 -35.819  1.00  0.00    -0.068 N 
ATOM      2  H21 UNL     1     -11.789  16.593 -35.850  1.00  0.00     0.277 HD
ATOM      3  H22 UNL     1     -10.335  16.832 -35.399  1.00  0.00     0.277 HD
ENDROOT
BRANCH   1   4
HETATM    4  C5  UNL     1     -10.431  15.727 -37.137  1.00  0.00     0.289 C 
BRANCH   4   5
HETATM    5  C4  UNL     1      -9.250  16.572 -37.474  1.00  0.00     0.034 A 
HETATM    6  C3  UNL     1      -8.567  16.461 -38.661  1.00  0.00     0.028 A 
HETATM    7  C2  UNL     1      -7.482  17.263 -38.930  1.00  0.00     0.030 A 
HETATM    8  C1  UNL     1      -7.082  18.202 -37.973  1.00  0.00     0.061 A 
HETATM    9  N1  UNL     1      -5.957  19.044 -38.234  1.00  0.00    -0.101 NA
HETATM   10  C14 UNL     1      -7.791  18.291 -36.785  1.00  0.00     0.114 A 
HETATM   11  N4  UNL     1      -8.847  17.488 -36.559  1.00  0.00    -0.366 N 
ATOM     12  H4  UNL     1      -9.355  17.570 -35.679  1.00  0.00     0.165 HD
ENDBRANCH   4   5
ENDBRANCH   1   4
BRANCH   1  13
HETATM   13  C6  UNL     1     -10.964  14.899 -34.979  1.00  0.00     0.251 C 
BRANCH  13  14
HETATM   14  C7  UNL     1      -9.588  14.677 -34.409  1.00  0.00     0.141 C 
BRANCH  14  15
HETATM   15  N3  UNL     1      -8.909  13.524 -34.898  1.00  0.00    -0.415 N 
ATOM     16  H3  UNL     1      -9.409  12.754 -35.344  1.00  0.00     0.153 HD
BRANCH  15  17
HETATM   17  C8  UNL     1      -7.492  13.502 -34.732  1.00  0.00     0.076 C 
HETATM   18  C9  UNL     1      -6.957  14.869 -35.086  1.00  0.00     0.024 C 
HETATM   19  C10 UNL     1      -5.693  14.791 -35.919  1.00  0.00     0.002 C 
HETATM   20  C11 UNL     1      -6.051  14.011 -37.168  1.00  0.00     0.000 C 
HETATM   21  C12 UNL     1      -6.435  12.593 -36.839  1.00  0.00     0.002 C 
HETATM   22  C13 UNL     1      -6.785  12.371 -35.409  1.00  0.00     0.024 C 
ENDBRANCH  15  17
ENDBRANCH  14  15
ENDBRANCH  13  14
ENDBRANCH   1  13
TORSDOF 6
ENDMDL
MODEL 3
REMARK VINA RESULT: -6.111721123      2.051      5.245
REMARK  6 active torsions:
REMARK  status: ('A' for Active; 'I' for Inactive)
REMARK    1  A    between atoms: C4_5  and  C5_6 
REMARK    2  A    between atoms: C5_6  and  N2_7 
REMARK    3  A    between atoms: N2_7  and  C6_10 
REMARK    4  A    between atoms: C6_10  and  C7_11 
REMARK    5  A    between atoms: C7_11  and  N3_12 
REMARK    6  A    between atoms: N3_12  and  C8_14 
ROOT
HETATM    1  N2  UNL     1      -8.223  15.472 -38.631  1.00  0.00    -0.068 N 
ATOM      2  H21 UNL     1      -8.286  15.359 -39.643  1.00  0.00     0.277 HD
ATOM      3  H22 UNL     1      -8.493  14.525 -38.364  1.00  0.00     0.277 HD
ENDROOT
BRANCH   1   4
HETATM    4  C5  UNL     1      -9.146  16.468 -38.131  1.00  0.00     0.289 C 
BRANCH   4   5
HETATM    5  C4  UNL     1      -9.603  16.053 -36.775  1.00  0.00     0.034 A 
HETATM    6  C3  UNL     1     -10.638  15.171 -36.574  1.00  0.00     0.028 A 
HETATM    7  C2  UNL     1     -11.027  14.816 -35.303  1.00  0.00     0.030 A 
HETATM    8  C1  UNL     1     -10.349  15.368 -34.210  1.00  0.00     0.061 A 
HETATM    9  N1  UNL     1     -10.739  15.011 -32.882  1.00  0.00    -0.101 NA
HETATM   10  C14 UNL     1      -9.310  16.254 -34.445  1.00  0.00     0.114 A 
HETATM   11  N4  UNL     1      -8.959  16.577 -35.703  1.00  0.00    -0.366 N 
ATOM     12  H4  UNL     1      -8.192  17.231 -35.854  1.00  0.00     0.165 HD
ENDBRANCH   4   5
ENDBRANCH   1   4
BRANCH   1  13
HETATM   13  C6  UNL     1      -6.868  15.806 -38.195  1.00  0.00     0.251 C 
BRANCH  13  14
HETATM   14  C7  UNL     1      -6.206  14.524 -37.766  1.00  0.00     0.141 C 
BRANCH  14  15
HETATM   15  N3  UNL     1      -5.625  14.548 -36.465  1.00  0.00    -0.415 N 
ATOM     16  H3  UNL     1      -4.629  14.720 -36.325  1.00  0.00     0.153 HD
BRANCH  15  17
HETATM   17  C8  UNL     1      -6.509  14.319 -35.369  1.00  0.00     0.076 C 
HETATM   18  C9  UNL     1      -5.738  14.545 -34.090  1.00  0.00     0.024 C 
HETATM   19  C10 UNL     1      -6.042  13.489 -33.046  1.00  0.00     0.002 C 
HETATM   20  C11 UNL     1      -5.678  12.156 -33.668  1.00  0.00     0.000 C 
HETATM   21  C12 UNL     1      -6.551  11.846 -34.854  1.00  0.00     0.002 C 
HETATM   22  C13 UNL     1      -7.263  13.028 -35.413  1.00  0.00     0.024 C 
ENDBRANCH  15  17
ENDBRANCH  14  15
ENDBRANCH  13  14
ENDBRANCH   1  13
TORSDOF 6
ENDMDL
MODEL 4
REMARK VINA RESULT: -5.973226899      3.433      7.052
REMARK  6 active torsions:
REMARK  status: ('A' for Active; 'I' for Inactive)
REMARK    1  A    between atoms: C4_5  and  C5_6 
REMARK    2  A    between atoms: C5_6  and  N2_7 
REMARK    3  A    between atoms: N2_7  and  C6_10 
REMARK    4  A    between atoms: C6_10  and  C7_11 
REMARK    5  A    between atoms: C7_11  and  N3_12 
REMARK    6  A    between atoms: N3_12  and  C8_14 
ROOT
HETATM    1  N2  UNL     1      -5.673  14.687 -35.716  1.00  0.00    -0.068 N 
ATOM      2  H21 UNL     1      -6.347  15.327 -35.297  1.00  0.00     0.277 HD
ATOM      3  H22 UNL     1      -4.888  15.334 -35.792  1.00  0.00     0.277 HD
ENDROOT
BRANCH   1   4
HETATM    4  C5  UNL     1      -6.108  14.199 -37.007  1.00  0.00     0.289 C 
BRANCH   4   5
HETATM    5  C4  UNL     1      -7.355  14.918 -37.392  1.00  0.00     0.034 A 
HETATM    6  C3  UNL     1      -7.347  16.105 -38.085  1.00  0.00     0.028 A 
HETATM    7  C2  UNL     1      -8.524  16.734 -38.420  1.00  0.00     0.030 A 
HETATM    8  C1  UNL     1      -9.737  16.146 -38.045  1.00  0.00     0.061 A 
HETATM    9  N1  UNL     1     -10.969  16.785 -38.384  1.00  0.00    -0.101 NA
HETATM   10  C14 UNL     1      -9.711  14.948 -37.347  1.00  0.00     0.114 A 
HETATM   11  N4  UNL     1      -8.540  14.363 -37.037  1.00  0.00    -0.366 N 
ATOM     12  H4  UNL     1      -8.543  13.482 -36.523  1.00  0.00     0.165 HD
ENDBRANCH   4   5
ENDBRANCH   1   4
BRANCH   1  13
HETATM   13  C6  UNL     1      -5.374  13.550 -34.846  1.00  0.00     0.251 C 
BRANCH  13  14
HETATM   14  C7  UNL     1      -6.640  13.206 -34.107  1.00  0.00     0.141 C 
BRANCH  14  15
HETATM   15  N3  UNL     1      -7.059  11.850 -34.222  1.00  0.00    -0.415 N 
ATOM     16  H3  UNL     1      -7.959  11.598 -34.631  1.00  0.00     0.153 HD
BRANCH  15  17
HETATM   17  C8  UNL     1      -6.153  10.861 -33.736  1.00  0.00     0.076 C 
HETATM   18  C9  UNL     1      -6.657   9.507 -34.177  1.00  0.00     0.024 C 
HETATM   19  C10 UNL     1      -6.552   8.471 -33.075  1.00  0.00     0.002 C 
HETATM   20  C11 UNL     1      -7.369   8.999 -31.913  1.00  0.00     0.000 C 
HETATM   21  C12 UNL     1      -6.782  10.271 -31.362  1.00  0.00     0.002 C 
HETATM   22  C13 UNL     1      -5.827  10.951 -32.279  1.00  0.00     0.024 C 
ENDBRANCH  15  17
ENDBRANCH  14  15
ENDBRANCH  13  14
ENDBRANCH   1  13
TORSDOF 6
ENDMDL
MODEL 5
REMARK VINA RESULT: -5.870598327      3.460      4.545
REMARK  6 active torsions:
REMARK  status: ('A' for Active; 'I' for Inactive)
REMARK    1  A    between atoms: C4_5  and  C5_6 
REMARK    2  A    between atoms: C5_6  and  N2_7 
REMARK    3  A    between atoms: N2_7  and  C6_10 
REMARK    4  A    between atoms: C6_10  and  C7_11 
REMARK    5  A    between atoms: C7_11  and  N3_12 
REMARK    6  A    between atoms: N3_12  and  C8_14 
ROOT
HETATM    1  N2  UNL     1      -7.091  12.823 -34.453  1.00  0.00    -0.068 N 
ATOM      2  H21 UNL     1      -6.879  13.747 -34.077  1.00  0.00     0.277 HD
ATOM      3  H22 UNL     1      -8.057  12.756 -34.134  1.00  0.00     0.277 HD
ENDROOT
BRANCH   1   4
HETATM    4  C5  UNL     1      -6.252  11.793 -33.881  1.00  0.00     0.289 C 
BRANCH   4   5
HETATM    5  C4  UNL     1      -5.367  12.415 -32.855  1.00  0.00     0.034 A 
HETATM    6  C3  UNL     1      -3.998  12.297 -32.881  1.00  0.00     0.028 A 
HETATM    7  C2  UNL     1      -3.221  12.889 -31.912  1.00  0.00     0.030 A 
HETATM    8  C1  UNL     1      -3.846  13.618 -30.895  1.00  0.00     0.061 A 
HETATM    9  N1  UNL     1      -3.055  14.240 -29.880  1.00  0.00    -0.101 NA
HETATM   10  C14 UNL     1      -5.229  13.719 -30.897  1.00  0.00     0.114 A 
HETATM   11  N4  UNL     1      -5.955  13.125 -31.861  1.00  0.00    -0.366 N 
ATOM     12  H4  UNL     1      -6.971  13.212 -31.845  1.00  0.00     0.165 HD
ENDBRANCH   4   5
ENDBRANCH   1   4
BRANCH   1  13
HETATM   13  C6  UNL     1      -6.983  12.780 -35.911  1.00  0.00     0.251 C 
BRANCH  13  14
HETATM   14  C7  UNL     1      -6.091  13.919 -36.328  1.00  0.00     0.141 C 
BRANCH  14  15
HETATM   15  N3  UNL     1      -6.552  15.216 -35.959  1.00  0.00    -0.415 N 
ATOM     16  H3  UNL     1      -6.090  15.763 -35.233  1.00  0.00     0.153 HD
BRANCH  15  17
HETATM   17  C8  UNL     1      -7.693  15.707 -36.659  1.00  0.00     0.076 C 
HETATM   18  C9  UNL     1      -7.402  15.636 -38.139  1.00  0.00     0.024 C 
HETATM   19  C10 UNL     1      -7.866  16.879 -38.874  1.00  0.00     0.002 C 
HETATM   20  C11 UNL     1      -7.142  18.047 -38.237  1.00  0.00     0.000 C 
HETATM   21  C12 UNL     1      -7.546  18.226 -36.798  1.00  0.00     0.002 C 
HETATM   22  C13 UNL     1      -8.206  17.034 -36.197  1.00  0.00     0.024 C 
ENDBRANCH  15  17
ENDBRANCH  14  15
ENDBRANCH  13  14
ENDBRANCH   1  13
TORSDOF 6
ENDMDL
