MODEL 1
REMARK VINA RESULT: -7.424815089      0.000      0.000
REMARK  4 active torsions:
REMARK  status: ('A' for Active; 'I' for Inactive)
REMARK    1  A    between atoms: C7_8  and  C8_9 
REMARK    2  A    between atoms: C8_9  and  C9_10 
REMARK    3  A    between atoms: C9_10  and  N2_11 
REMARK       I    between atoms: N2_11  and  C10_13 
REMARK       I    between atoms: C10_13  and  N4_17 
REMARK    4  A    between atoms: N4_17  and  C11_19 
ROOT
HETATM    1  C11 UNL     1       6.968   8.363  27.062  1.00  0.00     0.140 C 
HETATM    2  C12 UNL     1       6.517   7.159  26.341  1.00  0.00     0.091 C 
HETATM    3  N5  UNL     1       6.174   6.200  25.783  1.00  0.00    -0.195 NA
HETATM    4  C13 UNL     1       8.451   8.348  27.283  1.00  0.00     0.073 C 
HETATM    5  C14 UNL     1       8.881   7.652  28.534  1.00  0.00     0.171 C 
HETATM    6  O1  UNL     1       8.112   8.087  29.612  1.00  0.00    -0.391 OA
HETATM    7  C15 UNL     1       6.824   7.554  29.381  1.00  0.00     0.171 C 
HETATM    8  C16 UNL     1       6.182   8.451  28.352  1.00  0.00     0.073 C 
ENDROOT
BRANCH   1   9
HETATM    9  N4  UNL     1       6.576   9.506  26.264  1.00  0.00    -0.204 N 
HETATM   10  C10 UNL     1       6.701   9.534  24.842  1.00  0.00     0.668 C 
HETATM   11  N2  UNL     1       5.579   9.931  24.084  1.00  0.00    -0.227 N 
HETATM   12  N3  UNL     1       7.832   9.198  24.291  1.00  0.00    -0.235 N 
ATOM     13  H2  UNL     1       4.845  10.483  24.528  1.00  0.00     0.177 HD
ATOM     14  H32 UNL     1       7.922   9.219  23.275  1.00  0.00     0.174 HD
ATOM     15  H31 UNL     1       8.644   8.912  24.839  1.00  0.00     0.174 HD
ATOM     16  H4  UNL     1       6.195  10.325  26.737  1.00  0.00     0.179 HD
BRANCH  11  17
HETATM   17  C9  UNL     1       5.450   9.574  22.698  1.00  0.00     0.140 C 
BRANCH  17  18
HETATM   18  C8  UNL     1       4.962   8.147  22.626  1.00  0.00     0.052 C 
BRANCH  18  19
HETATM   19  C7  UNL     1       5.955   7.306  21.770  1.00  0.00     0.123 C 
HETATM   20  C6  UNL     1       6.396   8.257  20.716  1.00  0.00     0.032 C 
HETATM   21  C5  UNL     1       7.741   7.929  20.028  1.00  0.00     0.002 C 
HETATM   22  C4  UNL     1       7.792   6.491  20.072  1.00  0.00     0.002 C 
HETATM   23  C3  UNL     1       8.740   5.568  19.438  1.00  0.00     0.020 C 
HETATM   24  C2  UNL     1       8.236   4.204  20.001  1.00  0.00     0.121 C 
HETATM   25  N1  UNL     1       6.849   4.203  20.329  1.00  0.00    -0.396 N 
HETATM   26  C1  UNL     1       6.035   3.580  19.338  1.00  0.00     0.148 C 
HETATM   27  C18 UNL     1       6.422   4.163  21.653  1.00  0.00     0.083 C 
HETATM   28  C17 UNL     1       5.256   5.070  22.053  1.00  0.00     0.212 C 
HETATM   29  O2  UNL     1       5.182   6.238  21.376  1.00  0.00    -0.381 OA
ENDBRANCH  18  19
ENDBRANCH  17  18
ENDBRANCH  11  17
ENDBRANCH   1   9
TORSDOF 4
ENDMDL
MODEL 2
REMARK VINA RESULT: -7.378282160      2.212      3.269
REMARK  4 active torsions:
REMARK  status: ('A' for Active; 'I' for Inactive)
REMARK    1  A    between atoms: C7_8  and  C8_9 
REMARK    2  A    between atoms: C8_9  and  C9_10 
REMARK    3  A    between atoms: C9_10  and  N2_11 
REMARK       I    between atoms: N2_11  and  C10_13 
REMARK       I    between atoms: C10_13  and  N4_17 
REMARK    4  A    between atoms: N4_17  and  C11_19 
ROOT
HETATM    1  C11 UNL     1       7.544   8.103  26.174  1.00  0.00     0.140 C 
HETATM    2  C12 UNL     1       7.192   6.750  25.708  1.00  0.00     0.091 C 
HETATM    3  N5  UNL     1       6.918   5.677  25.358  1.00  0.00    -0.195 NA
HETATM    4  C13 UNL     1       8.651   8.066  27.184  1.00  0.00     0.073 C 
HETATM    5  C14 UNL     1       8.192   7.890  28.596  1.00  0.00     0.171 C 
HETATM    6  O1  UNL     1       7.149   8.770  28.874  1.00  0.00    -0.391 OA
HETATM    7  C15 UNL     1       6.053   8.287  28.123  1.00  0.00     0.171 C 
HETATM    8  C16 UNL     1       6.284   8.752  26.706  1.00  0.00     0.073 C 
ENDROOT
BRANCH   1   9
HETATM    9  N4  UNL     1       7.936   8.865  25.007  1.00  0.00    -0.204 N 
HETATM   10  C10 UNL     1       7.012   9.245  23.987  1.00  0.00     0.668 C 
HETATM   11  N2  UNL     1       6.992  10.596  23.578  1.00  0.00    -0.227 N 
HETATM   12  N3  UNL     1       6.224   8.347  23.469  1.00  0.00    -0.235 N 
ATOM     13  H2  UNL     1       7.807  11.184  23.753  1.00  0.00     0.177 HD
ATOM     14  H32 UNL     1       5.564   8.618  22.741  1.00  0.00     0.174 HD
ATOM     15  H31 UNL     1       6.239   7.371  23.765  1.00  0.00     0.174 HD
ATOM     16  H4  UNL     1       8.913   9.142  24.908  1.00  0.00     0.179 HD
BRANCH  11  17
HETATM   17  C9  UNL     1       5.845  11.160  22.921  1.00  0.00     0.140 C 
BRANCH  17  18
HETATM   18  C8  UNL     1       6.227  11.461  21.491  1.00  0.00     0.052 C 
BRANCH  18  19
HETATM   19  C7  UNL     1       5.507  10.457  20.543  1.00  0.00     0.123 C 
HETATM   20  C6  UNL     1       4.133  10.375  21.103  1.00  0.00     0.032 C 
HETATM   21  C5  UNL     1       3.033   9.891  20.131  1.00  0.00     0.002 C 
HETATM   22  C4  UNL     1       3.740   8.997  19.253  1.00  0.00     0.002 C 
HETATM   23  C3  UNL     1       3.220   8.095  18.218  1.00  0.00     0.020 C 
HETATM   24  C2  UNL     1       4.551   7.534  17.628  1.00  0.00     0.121 C 
HETATM   25  N1  UNL     1       5.628   7.531  18.561  1.00  0.00    -0.396 N 
HETATM   26  C1  UNL     1       5.872   6.250  19.138  1.00  0.00     0.148 C 
HETATM   27  C18 UNL     1       6.701   8.408  18.425  1.00  0.00     0.083 C 
HETATM   28  C17 UNL     1       7.230   9.088  19.690  1.00  0.00     0.212 C 
HETATM   29  O2  UNL     1       6.298   9.335  20.638  1.00  0.00    -0.381 OA
ENDBRANCH  18  19
ENDBRANCH  17  18
ENDBRANCH  11  17
ENDBRANCH   1   9
TORSDOF 4
ENDMDL
MODEL 3
REMARK VINA RESULT: -7.330283604      4.142      5.189
REMARK  4 active torsions:
REMARK  status: ('A' for Active; 'I' for Inactive)
REMARK    1  A    between atoms: C7_8  and  C8_9 
REMARK    2  A    between atoms: C8_9  and  C9_10 
REMARK    3  A    between atoms: C9_10  and  N2_11 
REMARK       I    between atoms: N2_11  and  C10_13 
REMARK       I    between atoms: C10_13  and  N4_17 
REMARK    4  A    between atoms: N4_17  and  C11_19 
ROOT
HETATM    1  C11 UNL     1       6.253   8.257  25.179  1.00  0.00     0.140 C 
HETATM    2  C12 UNL     1       7.064   9.315  24.551  1.00  0.00     0.091 C 
HETATM    3  N5  UNL     1       7.706  10.157  24.073  1.00  0.00    -0.195 NA
HETATM    4  C13 UNL     1       5.419   8.796  26.301  1.00  0.00     0.073 C 
HETATM    5  C14 UNL     1       6.107   8.813  27.629  1.00  0.00     0.171 C 
HETATM    6  O1  UNL     1       6.719   7.585  27.866  1.00  0.00    -0.391 OA
HETATM    7  C15 UNL     1       7.796   7.530  26.952  1.00  0.00     0.171 C 
HETATM    8  C16 UNL     1       7.193   7.155  25.621  1.00  0.00     0.073 C 
ENDROOT
BRANCH   1   9
HETATM    9  N4  UNL     1       5.418   7.690  24.141  1.00  0.00    -0.204 N 
HETATM   10  C10 UNL     1       5.016   8.427  22.986  1.00  0.00     0.668 C 
HETATM   11  N2  UNL     1       5.201   7.830  21.719  1.00  0.00    -0.227 N 
HETATM   12  N3  UNL     1       4.497   9.612  23.130  1.00  0.00    -0.235 N 
ATOM     13  H2  UNL     1       5.296   6.816  21.653  1.00  0.00     0.177 HD
ATOM     14  H32 UNL     1       4.210  10.138  22.305  1.00  0.00     0.174 HD
ATOM     15  H31 UNL     1       4.364  10.043  24.045  1.00  0.00     0.174 HD
ATOM     16  H4  UNL     1       5.103   6.725  24.238  1.00  0.00     0.179 HD
BRANCH  11  17
HETATM   17  C9  UNL     1       5.256   8.622  20.522  1.00  0.00     0.140 C 
BRANCH  17  18
HETATM   18  C8  UNL     1       4.864   7.740  19.359  1.00  0.00     0.052 C 
BRANCH  18  19
HETATM   19  C7  UNL     1       3.622   8.351  18.647  1.00  0.00     0.123 C 
HETATM   20  C6  UNL     1       3.433   9.655  19.333  1.00  0.00     0.032 C 
HETATM   21  C5  UNL     1       2.637  10.725  18.551  1.00  0.00     0.002 C 
HETATM   22  C4  UNL     1       1.723   9.942  17.762  1.00  0.00     0.002 C 
HETATM   23  C3  UNL     1       0.594  10.377  16.930  1.00  0.00     0.020 C 
HETATM   24  C2  UNL     1       0.145   9.015  16.317  1.00  0.00     0.121 C 
HETATM   25  N1  UNL     1       0.456   7.893  17.139  1.00  0.00    -0.396 N 
HETATM   26  C1  UNL     1      -0.661   7.411  17.884  1.00  0.00     0.148 C 
HETATM   27  C18 UNL     1       1.445   6.985  16.774  1.00  0.00     0.083 C 
HETATM   28  C17 UNL     1       2.398   6.491  17.866  1.00  0.00     0.212 C 
HETATM   29  O2  UNL     1       2.660   7.387  18.844  1.00  0.00    -0.381 OA
ENDBRANCH  18  19
ENDBRANCH  17  18
ENDBRANCH  11  17
ENDBRANCH   1   9
TORSDOF 4
ENDMDL
MODEL 4
REMARK VINA RESULT: -7.306788885      2.762      4.283
REMARK  4 active torsions:
REMARK  status: ('A' for Active; 'I' for Inactive)
REMARK    1  A    between atoms: C7_8  and  C8_9 
REMARK    2  A    between atoms: C8_9  and  C9_10 
REMARK    3  A    between atoms: C9_10  and  N2_11 
REMARK       I    between atoms: N2_11  and  C10_13 
REMARK       I    between atoms: C10_13  and  N4_17 
REMARK    4  A    between atoms: N4_17  and  C11_19 
ROOT
HETATM    1  C11 UNL     1       7.305   7.613  26.222  1.00  0.00     0.140 C 
HETATM    2  C12 UNL     1       7.203   8.880  25.474  1.00  0.00     0.091 C 
HETATM    3  N5  UNL     1       7.113   9.885  24.899  1.00  0.00    -0.195 NA
HETATM    4  C13 UNL     1       6.075   7.357  27.039  1.00  0.00     0.073 C 
HETATM    5  C14 UNL     1       6.103   7.963  28.406  1.00  0.00     0.171 C 
HETATM    6  O1  UNL     1       7.315   7.678  29.030  1.00  0.00    -0.391 OA
HETATM    7  C15 UNL     1       8.277   8.437  28.327  1.00  0.00     0.171 C 
HETATM    8  C16 UNL     1       8.565   7.672  27.060  1.00  0.00     0.073 C 
ENDROOT
BRANCH   1   9
HETATM    9  N4  UNL     1       7.508   6.561  25.249  1.00  0.00    -0.204 N 
HETATM   10  C10 UNL     1       6.541   6.237  24.250  1.00  0.00     0.668 C 
HETATM   11  N2  UNL     1       6.977   6.135  22.911  1.00  0.00    -0.227 N 
HETATM   12  N3  UNL     1       5.301   6.045  24.597  1.00  0.00    -0.235 N 
ATOM     13  H2  UNL     1       7.964   5.969  22.718  1.00  0.00     0.177 HD
ATOM     14  H32 UNL     1       4.610   5.813  23.884  1.00  0.00     0.174 HD
ATOM     15  H31 UNL     1       4.986   6.118  25.565  1.00  0.00     0.174 HD
ATOM     16  H4  UNL     1       8.378   6.029  25.278  1.00  0.00     0.179 HD
BRANCH  11  17
HETATM   17  C9  UNL     1       6.056   6.261  21.815  1.00  0.00     0.140 C 
BRANCH  17  18
HETATM   18  C8  UNL     1       6.647   7.228  20.816  1.00  0.00     0.052 C 
BRANCH  18  19
HETATM   19  C7  UNL     1       5.535   8.198  20.320  1.00  0.00     0.123 C 
HETATM   20  C6  UNL     1       5.147   8.939  21.549  1.00  0.00     0.032 C 
HETATM   21  C5  UNL     1       4.462  10.307  21.328  1.00  0.00     0.002 C 
HETATM   22  C4  UNL     1       3.762  10.127  20.083  1.00  0.00     0.002 C 
HETATM   23  C3  UNL     1       2.794  11.008  19.417  1.00  0.00     0.020 C 
HETATM   24  C2  UNL     1       2.547  10.217  18.095  1.00  0.00     0.121 C 
HETATM   25  N1  UNL     1       2.752   8.813  18.227  1.00  0.00    -0.396 N 
HETATM   26  C1  UNL     1       1.540   8.075  18.365  1.00  0.00     0.148 C 
HETATM   27  C18 UNL     1       3.841   8.185  17.630  1.00  0.00     0.083 C 
HETATM   28  C17 UNL     1       4.588   7.126  18.443  1.00  0.00     0.212 C 
HETATM   29  O2  UNL     1       4.607   7.340  19.779  1.00  0.00    -0.381 OA
ENDBRANCH  18  19
ENDBRANCH  17  18
ENDBRANCH  11  17
ENDBRANCH   1   9
TORSDOF 4
ENDMDL
MODEL 5
REMARK VINA RESULT: -7.295427148      1.293      1.445
REMARK  4 active torsions:
REMARK  status: ('A' for Active; 'I' for Inactive)
REMARK    1  A    between atoms: C7_8  and  C8_9 
REMARK    2  A    between atoms: C8_9  and  C9_10 
REMARK    3  A    between atoms: C9_10  and  N2_11 
REMARK       I    between atoms: N2_11  and  C10_13 
REMARK       I    between atoms: C10_13  and  N4_17 
REMARK    4  A    between atoms: N4_17  and  C11_19 
ROOT
HETATM    1  C11 UNL     1       6.485   8.827  26.459  1.00  0.00     0.140 C 
HETATM    2  C12 UNL     1       5.636   7.757  25.904  1.00  0.00     0.091 C 
HETATM    3  N5  UNL     1       4.980   6.901  25.473  1.00  0.00    -0.195 NA
HETATM    4  C13 UNL     1       7.941   8.500  26.323  1.00  0.00     0.073 C 
HETATM    5  C14 UNL     1       8.505   7.705  27.457  1.00  0.00     0.171 C 
HETATM    6  O1  UNL     1       8.122   8.268  28.672  1.00  0.00    -0.391 OA
HETATM    7  C15 UNL     1       6.734   8.020  28.770  1.00  0.00     0.171 C 
HETATM    8  C16 UNL     1       6.065   9.051  27.896  1.00  0.00     0.073 C 
ENDROOT
BRANCH   1   9
HETATM    9  N4  UNL     1       6.159  10.042  25.742  1.00  0.00    -0.204 N 
HETATM   10  C10 UNL     1       6.396  10.200  24.343  1.00  0.00     0.668 C 
HETATM   11  N2  UNL     1       5.337  10.675  23.540  1.00  0.00    -0.227 N 
HETATM   12  N3  UNL     1       7.566   9.906  23.854  1.00  0.00    -0.235 N 
ATOM     13  H2  UNL     1       4.571  11.189  23.974  1.00  0.00     0.177 HD
ATOM     14  H32 UNL     1       7.736  10.019  22.855  1.00  0.00     0.174 HD
ATOM     15  H31 UNL     1       8.331   9.563  24.435  1.00  0.00     0.174 HD
ATOM     16  H4  UNL     1       5.743  10.817  26.258  1.00  0.00     0.179 HD
BRANCH  11  17
HETATM   17  C9  UNL     1       5.317  10.448  22.120  1.00  0.00     0.140 C 
BRANCH  17  18
HETATM   18  C8  UNL     1       4.569   9.161  21.863  1.00  0.00     0.052 C 
BRANCH  18  19
HETATM   19  C7  UNL     1       5.384   8.282  20.869  1.00  0.00     0.123 C 
HETATM   20  C6  UNL     1       4.684   8.483  19.573  1.00  0.00     0.032 C 
HETATM   21  C5  UNL     1       5.512   8.186  18.302  1.00  0.00     0.002 C 
HETATM   22  C4  UNL     1       6.409   7.144  18.730  1.00  0.00     0.002 C 
HETATM   23  C3  UNL     1       7.336   6.324  17.940  1.00  0.00     0.020 C 
HETATM   24  C2  UNL     1       8.027   5.501  19.070  1.00  0.00     0.121 C 
HETATM   25  N1  UNL     1       7.209   5.322  20.224  1.00  0.00    -0.396 N 
HETATM   26  C1  UNL     1       6.592   4.039  20.286  1.00  0.00     0.148 C 
HETATM   27  C18 UNL     1       7.499   5.973  21.419  1.00  0.00     0.083 C 
HETATM   28  C17 UNL     1       6.333   6.582  22.202  1.00  0.00     0.212 C 
HETATM   29  O2  UNL     1       5.310   7.034  21.442  1.00  0.00    -0.381 OA
ENDBRANCH  18  19
ENDBRANCH  17  18
ENDBRANCH  11  17
ENDBRANCH   1   9
TORSDOF 4
ENDMDL
