MODEL 1
REMARK VINA RESULT: -7.409020113      0.000      0.000
REMARK  7 active torsions:
REMARK  status: ('A' for Active; 'I' for Inactive)
REMARK    1  A    between atoms: C1_2  and  N1_3 
REMARK    2  A    between atoms: N1_3  and  C2_5 
REMARK    3  A    between atoms: C3_10  and  S2_11 
REMARK    4  A    between atoms: S2_11  and  C4_12 
REMARK    5  A    between atoms: C9_19  and  N5_20 
REMARK    6  A    between atoms: N5_20  and  C10_22 
REMARK    7  A    between atoms: C10_22  and  C11_23 
ROOT
HETATM    1  C2  UNL     1       5.122   8.026  23.950  1.00  0.00     0.165 A 
HETATM    2  N2  UNL     1       4.999   9.203  24.589  1.00  0.00    -0.280 N 
ATOM      3  H2  UNL     1       4.717  10.027  24.059  1.00  0.00     0.188 HD
HETATM    4  N3  UNL     1       5.234   9.326  25.891  1.00  0.00    -0.278 N 
ATOM      5  H3  UNL     1       5.125  10.243  26.322  1.00  0.00     0.189 HD
HETATM    6  C3  UNL     1       5.610   8.291  26.663  1.00  0.00     0.161 A 
HETATM    7  N4  UNL     1       5.745   7.095  26.060  1.00  0.00    -0.319 N 
ATOM      8  H4  UNL     1       6.028   6.283  26.609  1.00  0.00     0.169 HD
HETATM    9  C9  UNL     1       5.508   6.954  24.728  1.00  0.00     0.149 A 
ENDROOT
BRANCH   9  10
HETATM   10  N5  UNL     1       5.634   5.812  24.138  1.00  0.00    -0.373 N 
ATOM     11  H5  UNL     1       4.902   5.519  23.490  1.00  0.00     0.161 HD
BRANCH  10  12
HETATM   12  C10 UNL     1       6.758   4.923  24.349  1.00  0.00     0.126 C 
BRANCH  12  13
HETATM   13  C11 UNL     1       7.242   4.444  22.998  1.00  0.00     0.006 C 
HETATM   14  C12 UNL     1       7.790   3.055  23.044  1.00  0.00     0.025 C 
HETATM   15  C13 UNL     1       6.854   2.042  22.424  1.00  0.00     0.114 C 
HETATM   16  N6  UNL     1       6.418   2.372  21.103  1.00  0.00    -0.421 N 
HETATM   17  C14 UNL     1       6.427   3.761  20.777  1.00  0.00     0.114 C 
ATOM     18  H6  UNL     1       6.119   1.660  20.436  1.00  0.00     0.153 HD
HETATM   19  C15 UNL     1       6.097   4.576  22.008  1.00  0.00     0.025 C 
ENDBRANCH  12  13
ENDBRANCH  10  12
ENDBRANCH   9  10
BRANCH   1  20
HETATM   20  N1  UNL     1       4.903   7.879  22.689  1.00  0.00    -0.339 N 
ATOM     21  H1  UNL     1       4.135   7.265  22.415  1.00  0.00     0.167 HD
BRANCH  20  22
HETATM   22  C1  UNL     1       5.631   8.492  21.667  1.00  0.00     0.171 C 
HETATM   23  S1  UNL     1       7.271   8.322  21.672  1.00  0.00    -0.074 SA
ENDBRANCH  20  22
ENDBRANCH   1  20
BRANCH   6  24
HETATM   24  S2  UNL     1       5.914   8.516  28.416  1.00  0.00    -0.088 SA
BRANCH  24  25
HETATM   25  C4  UNL     1       7.491   7.702  28.789  1.00  0.00     0.055 C 
HETATM   26  C5  UNL     1       7.995   8.079  30.159  1.00  0.00     0.015 C 
HETATM   27  C6  UNL     1       9.497   8.066  30.056  1.00  0.00     0.001 C 
HETATM   28  C7  UNL     1       9.828   7.706  28.628  1.00  0.00     0.001 C 
HETATM   29  C8  UNL     1       8.590   8.128  27.862  1.00  0.00     0.015 C 
ENDBRANCH  24  25
ENDBRANCH   6  24
TORSDOF 7
ENDMDL
MODEL 2
REMARK VINA RESULT: -7.326570415      2.375      6.358
REMARK  7 active torsions:
REMARK  status: ('A' for Active; 'I' for Inactive)
REMARK    1  A    between atoms: C1_2  and  N1_3 
REMARK    2  A    between atoms: N1_3  and  C2_5 
REMARK    3  A    between atoms: C3_10  and  S2_11 
REMARK    4  A    between atoms: S2_11  and  C4_12 
REMARK    5  A    between atoms: C9_19  and  N5_20 
REMARK    6  A    between atoms: N5_20  and  C10_22 
REMARK    7  A    between atoms: C10_22  and  C11_23 
ROOT
HETATM    1  C2  UNL     1       5.870   9.441  24.404  1.00  0.00     0.165 A 
HETATM    2  N2  UNL     1       4.948   9.065  23.499  1.00  0.00    -0.280 N 
ATOM      3  H2  UNL     1       4.271   9.753  23.168  1.00  0.00     0.188 HD
HETATM    4  N3  UNL     1       4.892   7.827  23.023  1.00  0.00    -0.278 N 
ATOM      5  H3  UNL     1       4.171   7.599  22.338  1.00  0.00     0.189 HD
HETATM    6  C3  UNL     1       5.746   6.861  23.406  1.00  0.00     0.161 A 
HETATM    7  N4  UNL     1       6.683   7.197  24.311  1.00  0.00    -0.319 N 
ATOM      8  H4  UNL     1       7.351   6.494  24.629  1.00  0.00     0.169 HD
HETATM    9  C9  UNL     1       6.753   8.461  24.808  1.00  0.00     0.149 A 
ENDROOT
BRANCH   9  10
HETATM   10  N5  UNL     1       7.648   8.795  25.677  1.00  0.00    -0.373 N 
ATOM     11  H5  UNL     1       7.921   9.777  25.736  1.00  0.00     0.161 HD
BRANCH  10  12
HETATM   12  C10 UNL     1       8.285   7.852  26.571  1.00  0.00     0.126 C 
BRANCH  12  13
HETATM   13  C11 UNL     1       8.198   8.400  27.979  1.00  0.00     0.006 C 
HETATM   14  C12 UNL     1       6.884   8.111  28.628  1.00  0.00     0.025 C 
HETATM   15  C13 UNL     1       6.983   7.025  29.676  1.00  0.00     0.114 C 
HETATM   16  N6  UNL     1       7.998   7.244  30.658  1.00  0.00    -0.421 N 
HETATM   17  C14 UNL     1       9.090   8.065  30.249  1.00  0.00     0.114 C 
ATOM     18  H6  UNL     1       7.944   6.838  31.593  1.00  0.00     0.153 HD
HETATM   19  C15 UNL     1       9.366   7.848  28.777  1.00  0.00     0.025 C 
ENDBRANCH  12  13
ENDBRANCH  10  12
ENDBRANCH   9  10
BRANCH   1  20
HETATM   20  N1  UNL     1       5.946  10.634  24.884  1.00  0.00    -0.339 N 
ATOM     21  H1  UNL     1       5.955  10.732  25.899  1.00  0.00     0.167 HD
BRANCH  20  22
HETATM   22  C1  UNL     1       6.016  11.804  24.125  1.00  0.00     0.171 C 
HETATM   23  S1  UNL     1       6.694  11.720  22.625  1.00  0.00    -0.074 SA
ENDBRANCH  20  22
ENDBRANCH   1  20
BRANCH   6  24
HETATM   24  S2  UNL     1       5.622   5.205  22.728  1.00  0.00    -0.088 SA
BRANCH  24  25
HETATM   25  C4  UNL     1       7.002   4.248  23.414  1.00  0.00     0.055 C 
HETATM   26  C5  UNL     1       7.699   3.445  22.345  1.00  0.00     0.015 C 
HETATM   27  C6  UNL     1       8.191   2.198  23.032  1.00  0.00     0.001 C 
HETATM   28  C7  UNL     1       7.748   2.296  24.472  1.00  0.00     0.001 C 
HETATM   29  C8  UNL     1       6.551   3.224  24.410  1.00  0.00     0.015 C 
ENDBRANCH  24  25
ENDBRANCH   6  24
TORSDOF 7
ENDMDL
MODEL 3
REMARK VINA RESULT: -7.324227044      0.522      1.136
REMARK  7 active torsions:
REMARK  status: ('A' for Active; 'I' for Inactive)
REMARK    1  A    between atoms: C1_2  and  N1_3 
REMARK    2  A    between atoms: N1_3  and  C2_5 
REMARK    3  A    between atoms: C3_10  and  S2_11 
REMARK    4  A    between atoms: S2_11  and  C4_12 
REMARK    5  A    between atoms: C9_19  and  N5_20 
REMARK    6  A    between atoms: N5_20  and  C10_22 
REMARK    7  A    between atoms: C10_22  and  C11_23 
ROOT
HETATM    1  C2  UNL     1       5.059   7.957  23.877  1.00  0.00     0.165 A 
HETATM    2  N2  UNL     1       4.956   9.161  24.468  1.00  0.00    -0.280 N 
ATOM      3  H2  UNL     1       4.676   9.965  23.906  1.00  0.00     0.188 HD
HETATM    4  N3  UNL     1       5.208   9.335  25.760  1.00  0.00    -0.278 N 
ATOM      5  H3  UNL     1       5.114  10.272  26.154  1.00  0.00     0.189 HD
HETATM    6  C3  UNL     1       5.583   8.330  26.570  1.00  0.00     0.161 A 
HETATM    7  N4  UNL     1       5.698   7.108  26.016  1.00  0.00    -0.319 N 
ATOM      8  H4  UNL     1       5.979   6.317  26.596  1.00  0.00     0.169 HD
HETATM    9  C9  UNL     1       5.443   6.914  24.694  1.00  0.00     0.149 A 
ENDROOT
BRANCH   9  10
HETATM   10  N5  UNL     1       5.550   5.747  24.152  1.00  0.00    -0.373 N 
ATOM     11  H5  UNL     1       4.789   5.420  23.556  1.00  0.00     0.161 HD
BRANCH  10  12
HETATM   12  C10 UNL     1       6.691   4.877  24.345  1.00  0.00     0.126 C 
BRANCH  12  13
HETATM   13  C11 UNL     1       6.569   3.715  23.383  1.00  0.00     0.006 C 
HETATM   14  C12 UNL     1       6.048   4.129  22.046  1.00  0.00     0.025 C 
HETATM   15  C13 UNL     1       7.125   4.145  20.984  1.00  0.00     0.114 C 
HETATM   16  N6  UNL     1       7.874   2.932  20.885  1.00  0.00    -0.421 N 
HETATM   17  C14 UNL     1       7.925   2.137  22.068  1.00  0.00     0.114 C 
ATOM     18  H6  UNL     1       8.341   2.652  20.022  1.00  0.00     0.153 HD
HETATM   19  C15 UNL     1       7.924   3.035  23.286  1.00  0.00     0.025 C 
ENDBRANCH  12  13
ENDBRANCH  10  12
ENDBRANCH   9  10
BRANCH   1  20
HETATM   20  N1  UNL     1       4.822   7.759  22.626  1.00  0.00    -0.339 N 
ATOM     21  H1  UNL     1       4.045   7.143  22.387  1.00  0.00     0.167 HD
BRANCH  20  22
HETATM   22  C1  UNL     1       5.544   8.321  21.571  1.00  0.00     0.171 C 
HETATM   23  S1  UNL     1       7.151   7.970  21.454  1.00  0.00    -0.074 SA
ENDBRANCH  20  22
ENDBRANCH   1  20
BRANCH   6  24
HETATM   24  S2  UNL     1       5.910   8.626  28.309  1.00  0.00    -0.088 SA
BRANCH  24  25
HETATM   25  C4  UNL     1       7.449   7.754  28.713  1.00  0.00     0.055 C 
HETATM   26  C5  UNL     1       7.909   8.071  30.113  1.00  0.00     0.015 C 
HETATM   27  C6  UNL     1       9.413   8.017  30.067  1.00  0.00     0.001 C 
HETATM   28  C7  UNL     1       9.790   7.696  28.641  1.00  0.00     0.001 C 
HETATM   29  C8  UNL     1       8.594   8.178  27.843  1.00  0.00     0.015 C 
ENDBRANCH  24  25
ENDBRANCH   6  24
TORSDOF 7
ENDMDL
MODEL 4
REMARK VINA RESULT: -7.259101279      2.359      3.148
REMARK  7 active torsions:
REMARK  status: ('A' for Active; 'I' for Inactive)
REMARK    1  A    between atoms: C1_2  and  N1_3 
REMARK    2  A    between atoms: N1_3  and  C2_5 
REMARK    3  A    between atoms: C3_10  and  S2_11 
REMARK    4  A    between atoms: S2_11  and  C4_12 
REMARK    5  A    between atoms: C9_19  and  N5_20 
REMARK    6  A    between atoms: N5_20  and  C10_22 
REMARK    7  A    between atoms: C10_22  and  C11_23 
ROOT
HETATM    1  C2  UNL     1       6.556  10.455  23.579  1.00  0.00     0.165 A 
HETATM    2  N2  UNL     1       5.768  10.687  24.644  1.00  0.00    -0.280 N 
ATOM      3  H2  UNL     1       5.180  11.521  24.652  1.00  0.00     0.188 HD
HETATM    4  N3  UNL     1       5.732   9.865  25.686  1.00  0.00    -0.278 N 
ATOM      5  H3  UNL     1       5.115  10.092  26.466  1.00  0.00     0.189 HD
HETATM    6  C3  UNL     1       6.475   8.746  25.756  1.00  0.00     0.161 A 
HETATM    7  N4  UNL     1       7.277   8.478  24.709  1.00  0.00    -0.319 N 
ATOM      8  H4  UNL     1       7.857   7.639  24.721  1.00  0.00     0.169 HD
HETATM    9  C9  UNL     1       7.325   9.311  23.635  1.00  0.00     0.149 A 
ENDROOT
BRANCH   9  10
HETATM   10  N5  UNL     1       8.092   9.065  22.625  1.00  0.00    -0.373 N 
ATOM     11  H5  UNL     1       8.884   9.685  22.457  1.00  0.00     0.161 HD
BRANCH  10  12
HETATM   12  C10 UNL     1       7.887   7.954  21.719  1.00  0.00     0.126 C 
BRANCH  12  13
HETATM   13  C11 UNL     1       6.514   7.373  21.985  1.00  0.00     0.006 C 
HETATM   14  C12 UNL     1       5.581   7.553  20.833  1.00  0.00     0.025 C 
HETATM   15  C13 UNL     1       5.344   6.266  20.074  1.00  0.00     0.114 C 
HETATM   16  N6  UNL     1       4.937   5.166  20.890  1.00  0.00    -0.421 N 
HETATM   17  C14 UNL     1       5.338   5.228  22.258  1.00  0.00     0.114 C 
ATOM     18  H6  UNL     1       4.395   4.386  20.518  1.00  0.00     0.153 HD
HETATM   19  C15 UNL     1       6.683   5.912  22.365  1.00  0.00     0.025 C 
ENDBRANCH  12  13
ENDBRANCH  10  12
ENDBRANCH   9  10
BRANCH   1  20
HETATM   20  N1  UNL     1       6.612  11.236  22.556  1.00  0.00    -0.339 N 
ATOM     21  H1  UNL     1       6.748  10.804  21.642  1.00  0.00     0.167 HD
BRANCH  20  22
HETATM   22  C1  UNL     1       6.504  12.628  22.598  1.00  0.00     0.171 C 
HETATM   23  S1  UNL     1       7.294  13.505  21.448  1.00  0.00    -0.074 SA
ENDBRANCH  20  22
ENDBRANCH   1  20
BRANCH   6  24
HETATM   24  S2  UNL     1       6.384   7.672  27.190  1.00  0.00    -0.088 SA
BRANCH  24  25
HETATM   25  C4  UNL     1       7.594   8.291  28.391  1.00  0.00     0.055 C 
HETATM   26  C5  UNL     1       9.006   8.004  27.947  1.00  0.00     0.015 C 
HETATM   27  C6  UNL     1       9.793   7.793  29.214  1.00  0.00     0.001 C 
HETATM   28  C7  UNL     1       8.818   7.937  30.357  1.00  0.00     0.001 C 
HETATM   29  C8  UNL     1       7.480   7.612  29.722  1.00  0.00     0.015 C 
ENDBRANCH  24  25
ENDBRANCH   6  24
TORSDOF 7
ENDMDL
MODEL 5
REMARK VINA RESULT: -7.148342566      2.250      2.859
REMARK  7 active torsions:
REMARK  status: ('A' for Active; 'I' for Inactive)
REMARK    1  A    between atoms: C1_2  and  N1_3 
REMARK    2  A    between atoms: N1_3  and  C2_5 
REMARK    3  A    between atoms: C3_10  and  S2_11 
REMARK    4  A    between atoms: S2_11  and  C4_12 
REMARK    5  A    between atoms: C9_19  and  N5_20 
REMARK    6  A    between atoms: N5_20  and  C10_22 
REMARK    7  A    between atoms: C10_22  and  C11_23 
ROOT
HETATM    1  C2  UNL     1       6.202  10.474  23.407  1.00  0.00     0.165 A 
HETATM    2  N2  UNL     1       6.047  10.892  24.676  1.00  0.00    -0.280 N 
ATOM      3  H2  UNL     1       5.949  11.891  24.859  1.00  0.00     0.188 HD
HETATM    4  N3  UNL     1       6.017  10.045  25.698  1.00  0.00    -0.278 N 
ATOM      5  H3  UNL     1       5.897  10.419  26.639  1.00  0.00     0.189 HD
HETATM    6  C3  UNL     1       6.139   8.715  25.544  1.00  0.00     0.161 A 
HETATM    7  N4  UNL     1       6.296   8.256  24.288  1.00  0.00    -0.319 N 
ATOM      8  H4  UNL     1       6.392   7.254  24.126  1.00  0.00     0.169 HD
HETATM    9  C9  UNL     1       6.329   9.112  23.231  1.00  0.00     0.149 A 
ENDROOT
BRANCH   9  10
HETATM   10  N5  UNL     1       6.480   8.684  22.022  1.00  0.00    -0.373 N 
ATOM     11  H5  UNL     1       5.748   8.891  21.341  1.00  0.00     0.161 HD
BRANCH  10  12
HETATM   12  C10 UNL     1       7.631   7.925  21.581  1.00  0.00     0.126 C 
BRANCH  12  13
HETATM   13  C11 UNL     1       7.140   6.625  20.981  1.00  0.00     0.006 C 
HETATM   14  C12 UNL     1       7.008   5.538  21.998  1.00  0.00     0.025 C 
HETATM   15  C13 UNL     1       5.566   5.249  22.352  1.00  0.00     0.114 C 
HETATM   16  N6  UNL     1       4.720   4.999  21.228  1.00  0.00    -0.421 N 
HETATM   17  C14 UNL     1       5.142   5.578  19.995  1.00  0.00     0.114 C 
ATOM     18  H6  UNL     1       3.869   4.442  21.302  1.00  0.00     0.153 HD
HETATM   19  C15 UNL     1       5.831   6.898  20.261  1.00  0.00     0.025 C 
ENDBRANCH  12  13
ENDBRANCH  10  12
ENDBRANCH   9  10
BRANCH   1  20
HETATM   20  N1  UNL     1       6.237  11.274  22.397  1.00  0.00    -0.339 N 
ATOM     21  H1  UNL     1       6.074  10.871  21.474  1.00  0.00     0.167 HD
BRANCH  20  22
HETATM   22  C1  UNL     1       6.480  12.647  22.465  1.00  0.00     0.171 C 
HETATM   23  S1  UNL     1       7.256  13.363  21.200  1.00  0.00    -0.074 SA
ENDBRANCH  20  22
ENDBRANCH   1  20
BRANCH   6  24
HETATM   24  S2  UNL     1       6.091   7.618  26.963  1.00  0.00    -0.088 SA
BRANCH  24  25
HETATM   25  C4  UNL     1       7.273   8.269  28.174  1.00  0.00     0.055 C 
HETATM   26  C5  UNL     1       8.697   8.041  27.731  1.00  0.00     0.015 C 
HETATM   27  C6  UNL     1       9.488   7.846  28.996  1.00  0.00     0.001 C 
HETATM   28  C7  UNL     1       8.506   7.939  30.139  1.00  0.00     0.001 C 
HETATM   29  C8  UNL     1       7.183   7.570  29.497  1.00  0.00     0.015 C 
ENDBRANCH  24  25
ENDBRANCH   6  24
TORSDOF 7
ENDMDL
