MODEL 1
REMARK VINA RESULT: -7.407219547      0.000      0.000
REMARK  7 active torsions:
REMARK  status: ('A' for Active; 'I' for Inactive)
REMARK    1  A    between atoms: C2_2  and  C3_3 
REMARK    2  A    between atoms: C6_6  and  O1_7 
REMARK    3  A    between atoms: O1_7  and  C7_8 
REMARK       I    between atoms: C7_8  and  N1_10 
REMARK    4  A    between atoms: N1_10  and  C8_12 
REMARK    5  A    between atoms: N2_17  and  C13_18 
REMARK    6  A    between atoms: C13_18  and  C14_19 
REMARK    7  A    between atoms: C25_31  and  O4_32 
ROOT
HETATM    1  C3  UNL     1      16.359  13.290  -7.758  1.00  0.00     0.002 C 
HETATM    2  C4  UNL     1      16.458  12.469  -9.066  1.00  0.00     0.022 C 
HETATM    3  C5  UNL     1      17.675  13.314  -7.147  1.00  0.00     0.049 C 
HETATM    4  C6  UNL     1      18.825  13.994  -7.799  1.00  0.00     0.142 C 
HETATM    5  C11 UNL     1      18.548  15.392  -8.117  1.00  0.00     0.069 A 
HETATM    6  C12 UNL     1      19.105  16.649  -7.743  1.00  0.00     0.248 A 
HETATM    7  N2  UNL     1      18.450  17.872  -8.156  1.00  0.00     0.096 N 
HETATM    8  C17 UNL     1      17.035  17.627  -8.214  1.00  0.00     0.284 C 
HETATM    9  C18 UNL     1      16.736  16.573  -7.136  1.00  0.00     0.009 C 
HETATM   10  C19 UNL     1      16.506  17.395  -5.853  1.00  0.00     0.020 C 
HETATM   11  C20 UNL     1      17.327  16.733  -4.784  1.00  0.00     0.080 C 
HETATM   12  C21 UNL     1      18.404  16.005  -5.555  1.00  0.00     0.139 C 
HETATM   13  O3  UNL     1      19.350  15.539  -4.939  1.00  0.00    -0.297 OA
HETATM   14  C22 UNL     1      18.057  16.020  -6.916  1.00  0.00     0.070 A 
HETATM   15  C23 UNL     1      15.595  15.715  -7.349  1.00  0.00     0.023 C 
HETATM   16  C24 UNL     1      14.514  16.598  -8.019  1.00  0.00     0.013 C 
HETATM   17  C25 UNL     1      15.572  14.460  -8.107  1.00  0.00     0.134 C 
ENDROOT
BRANCH   4  18
HETATM   18  O1  UNL     1      20.062  13.795  -7.163  1.00  0.00    -0.298 OA
BRANCH  18  19
HETATM   19  C7  UNL     1      21.273  14.301  -7.510  1.00  0.00     0.361 C 
HETATM   20  O2  UNL     1      21.619  13.983  -8.668  1.00  0.00    -0.238 OA
HETATM   21  N1  UNL     1      22.111  15.110  -6.708  1.00  0.00    -0.332 N 
ATOM     22  H1  UNL     1      21.787  15.345  -5.769  1.00  0.00     0.165 HD
BRANCH  21  23
HETATM   23  C8  UNL     1      23.382  15.620  -7.124  1.00  0.00     0.086 A 
HETATM   24  C9  UNL     1      24.356  15.938  -6.012  1.00  0.00     0.027 A 
HETATM   25  C10 UNL     1      24.626  14.859  -6.983  1.00  0.00     0.027 A 
ENDBRANCH  21  23
ENDBRANCH  18  19
ENDBRANCH   4  18
BRANCH   1  26
HETATM   26  C2  UNL     1      15.549  12.367  -6.865  1.00  0.00    -0.025 C 
HETATM   27  C1  UNL     1      15.619  12.313  -5.572  1.00  0.00     0.008 C 
ENDBRANCH   1  26
BRANCH  17  28
HETATM   28  O4  UNL     1      15.350  14.644  -9.509  1.00  0.00    -0.394 OA
ATOM     29  H4  UNL     1      15.467  15.533  -9.820  1.00  0.00     0.210 HD
ENDBRANCH  17  28
BRANCH   7  30
HETATM   30  C13 UNL     1      18.905  19.038  -7.580  1.00  0.00     0.277 C 
BRANCH  30  31
HETATM   31  C14 UNL     1      17.873  20.143  -7.798  1.00  0.00     0.014 A 
HETATM   32  C15 UNL     1      18.244  21.559  -7.663  1.00  0.00     0.007 A 
HETATM   33  C16 UNL     1      17.394  20.934  -6.610  1.00  0.00     0.007 A 
ENDBRANCH  30  31
ENDBRANCH   7  30
TORSDOF 7
ENDMDL
MODEL 2
REMARK VINA RESULT: -7.283964690      2.141      5.551
REMARK  7 active torsions:
REMARK  status: ('A' for Active; 'I' for Inactive)
REMARK    1  A    between atoms: C2_2  and  C3_3 
REMARK    2  A    between atoms: C6_6  and  O1_7 
REMARK    3  A    between atoms: O1_7  and  C7_8 
REMARK       I    between atoms: C7_8  and  N1_10 
REMARK    4  A    between atoms: N1_10  and  C8_12 
REMARK    5  A    between atoms: N2_17  and  C13_18 
REMARK    6  A    between atoms: C13_18  and  C14_19 
REMARK    7  A    between atoms: C25_31  and  O4_32 
ROOT
HETATM    1  C3  UNL     1      17.298  16.945  -7.868  1.00  0.00     0.002 C 
HETATM    2  C4  UNL     1      16.450  16.755  -9.149  1.00  0.00     0.022 C 
HETATM    3  C5  UNL     1      17.380  15.662  -7.194  1.00  0.00     0.049 C 
HETATM    4  C6  UNL     1      18.081  14.503  -7.806  1.00  0.00     0.142 C 
HETATM    5  C11 UNL     1      19.462  14.808  -8.172  1.00  0.00     0.069 A 
HETATM    6  C12 UNL     1      20.744  14.310  -7.804  1.00  0.00     0.248 A 
HETATM    7  N2  UNL     1      21.935  14.981  -8.279  1.00  0.00     0.096 N 
HETATM    8  C17 UNL     1      21.643  16.383  -8.399  1.00  0.00     0.284 C 
HETATM    9  C18 UNL     1      20.606  16.703  -7.312  1.00  0.00     0.009 C 
HETATM   10  C19 UNL     1      21.450  17.021  -6.062  1.00  0.00     0.020 C 
HETATM   11  C20 UNL     1      20.841  16.234  -4.938  1.00  0.00     0.080 C 
HETATM   12  C21 UNL     1      20.129  15.098  -5.637  1.00  0.00     0.139 C 
HETATM   13  O3  UNL     1      19.710  14.169  -4.964  1.00  0.00    -0.297 OA
HETATM   14  C22 UNL     1      20.101  15.378  -7.014  1.00  0.00     0.070 A 
HETATM   15  C23 UNL     1      19.706  17.804  -7.558  1.00  0.00     0.023 C 
HETATM   16  C24 UNL     1      20.538  18.878  -8.302  1.00  0.00     0.013 C 
HETATM   17  C25 UNL     1      18.434  17.750  -8.284  1.00  0.00     0.134 C 
ENDROOT
BRANCH   4  18
HETATM   18  O1  UNL     1      17.938  13.294  -7.105  1.00  0.00    -0.298 OA
BRANCH  18  19
HETATM   19  C7  UNL     1      16.901  12.899  -6.321  1.00  0.00     0.361 C 
HETATM   20  O2  UNL     1      15.904  12.535  -6.980  1.00  0.00    -0.238 OA
HETATM   21  N1  UNL     1      16.877  12.872  -4.908  1.00  0.00    -0.332 N 
ATOM     22  H1  UNL     1      17.714  13.176  -4.411  1.00  0.00     0.165 HD
BRANCH  21  23
HETATM   23  C8  UNL     1      15.755  12.444  -4.127  1.00  0.00     0.086 A 
HETATM   24  C9  UNL     1      16.041  12.167  -2.668  1.00  0.00     0.027 A 
HETATM   25  C10 UNL     1      15.156  13.275  -3.080  1.00  0.00     0.027 A 
ENDBRANCH  21  23
ENDBRANCH  18  19
ENDBRANCH   4  18
BRANCH   1  26
HETATM   26  C2  UNL     1      16.371  17.769  -6.993  1.00  0.00    -0.025 C 
HETATM   27  C1  UNL     1      16.415  17.837  -5.699  1.00  0.00     0.008 C 
ENDBRANCH   1  26
BRANCH  17  28
HETATM   28  O4  UNL     1      18.576  17.907  -9.700  1.00  0.00    -0.394 OA
ATOM     29  H4  UNL     1      19.087  17.231 -10.129  1.00  0.00     0.210 HD
ENDBRANCH  17  28
BRANCH   7  30
HETATM   30  C13 UNL     1      23.129  14.592  -7.711  1.00  0.00     0.277 C 
BRANCH  30  31
HETATM   31  C14 UNL     1      23.935  15.834  -7.333  1.00  0.00     0.014 A 
HETATM   32  C15 UNL     1      25.404  15.811  -7.345  1.00  0.00     0.007 A 
HETATM   33  C16 UNL     1      24.695  15.838  -6.034  1.00  0.00     0.007 A 
ENDBRANCH  30  31
ENDBRANCH   7  30
TORSDOF 7
ENDMDL
MODEL 3
REMARK VINA RESULT: -7.199372422      2.222      5.910
REMARK  7 active torsions:
REMARK  status: ('A' for Active; 'I' for Inactive)
REMARK    1  A    between atoms: C2_2  and  C3_3 
REMARK    2  A    between atoms: C6_6  and  O1_7 
REMARK    3  A    between atoms: O1_7  and  C7_8 
REMARK       I    between atoms: C7_8  and  N1_10 
REMARK    4  A    between atoms: N1_10  and  C8_12 
REMARK    5  A    between atoms: N2_17  and  C13_18 
REMARK    6  A    between atoms: C13_18  and  C14_19 
REMARK    7  A    between atoms: C25_31  and  O4_32 
ROOT
HETATM    1  C3  UNL     1      17.180  17.237  -7.986  1.00  0.00     0.002 C 
HETATM    2  C4  UNL     1      16.368  17.125  -9.299  1.00  0.00     0.022 C 
HETATM    3  C5  UNL     1      17.126  15.950  -7.317  1.00  0.00     0.049 C 
HETATM    4  C6  UNL     1      17.750  14.738  -7.910  1.00  0.00     0.142 C 
HETATM    5  C11 UNL     1      19.164  14.925  -8.221  1.00  0.00     0.069 A 
HETATM    6  C12 UNL     1      20.384  14.319  -7.806  1.00  0.00     0.248 A 
HETATM    7  N2  UNL     1      21.645  14.889  -8.232  1.00  0.00     0.096 N 
HETATM    8  C17 UNL     1      21.478  16.311  -8.354  1.00  0.00     0.284 C 
HETATM    9  C18 UNL     1      20.431  16.714  -7.305  1.00  0.00     0.009 C 
HETATM   10  C19 UNL     1      21.250  16.955  -6.022  1.00  0.00     0.020 C 
HETATM   11  C20 UNL     1      20.533  16.220  -4.927  1.00  0.00     0.080 C 
HETATM   12  C21 UNL     1      19.755  15.150  -5.660  1.00  0.00     0.139 C 
HETATM   13  O3  UNL     1      19.233  14.258  -5.009  1.00  0.00    -0.297 OA
HETATM   14  C22 UNL     1      19.804  15.435  -7.035  1.00  0.00     0.070 A 
HETATM   15  C23 UNL     1      19.637  17.888  -7.578  1.00  0.00     0.023 C 
HETATM   16  C24 UNL     1      20.585  18.890  -8.283  1.00  0.00     0.013 C 
HETATM   17  C25 UNL     1      18.394  17.944  -8.353  1.00  0.00     0.134 C 
ENDROOT
BRANCH   4  18
HETATM   18  O1  UNL     1      17.477  13.543  -7.223  1.00  0.00    -0.298 OA
BRANCH  18  19
HETATM   19  C7  UNL     1      16.337  12.805  -7.246  1.00  0.00     0.361 C 
HETATM   20  O2  UNL     1      15.982  12.422  -6.111  1.00  0.00    -0.238 OA
HETATM   21  N1  UNL     1      15.576  12.467  -8.388  1.00  0.00    -0.332 N 
ATOM     22  H1  UNL     1      15.902  12.802  -9.295  1.00  0.00     0.165 HD
BRANCH  21  23
HETATM   23  C8  UNL     1      14.376  11.685  -8.358  1.00  0.00     0.086 A 
HETATM   24  C9  UNL     1      13.648  11.551  -9.676  1.00  0.00     0.027 A 
HETATM   25  C10 UNL     1      14.263  10.382  -9.017  1.00  0.00     0.027 A 
ENDBRANCH  21  23
ENDBRANCH  18  19
ENDBRANCH   4  18
BRANCH   1  26
HETATM   26  C2  UNL     1      16.292  18.135  -7.141  1.00  0.00    -0.025 C 
HETATM   27  C1  UNL     1      16.322  18.226  -5.849  1.00  0.00     0.008 C 
ENDBRANCH   1  26
BRANCH  17  28
HETATM   28  O4  UNL     1      18.604  18.094  -9.761  1.00  0.00    -0.394 OA
ATOM     29  H4  UNL     1      18.394  18.952 -10.109  1.00  0.00     0.210 HD
ENDBRANCH  17  28
BRANCH   7  30
HETATM   30  C13 UNL     1      22.779  14.398  -7.621  1.00  0.00     0.277 C 
BRANCH  30  31
HETATM   31  C14 UNL     1      23.789  15.531  -7.448  1.00  0.00     0.014 A 
HETATM   32  C15 UNL     1      25.173  15.252  -7.040  1.00  0.00     0.007 A 
HETATM   33  C16 UNL     1      24.247  15.890  -6.060  1.00  0.00     0.007 A 
ENDBRANCH  30  31
ENDBRANCH   7  30
TORSDOF 7
ENDMDL
MODEL 4
REMARK VINA RESULT: -7.196968945      2.548      5.895
REMARK  7 active torsions:
REMARK  status: ('A' for Active; 'I' for Inactive)
REMARK    1  A    between atoms: C2_2  and  C3_3 
REMARK    2  A    between atoms: C6_6  and  O1_7 
REMARK    3  A    between atoms: O1_7  and  C7_8 
REMARK       I    between atoms: C7_8  and  N1_10 
REMARK    4  A    between atoms: N1_10  and  C8_12 
REMARK    5  A    between atoms: N2_17  and  C13_18 
REMARK    6  A    between atoms: C13_18  and  C14_19 
REMARK    7  A    between atoms: C25_31  and  O4_32 
ROOT
HETATM    1  C3  UNL     1      21.692  15.781  -6.902  1.00  0.00     0.002 C 
HETATM    2  C4  UNL     1      22.728  15.694  -8.049  1.00  0.00     0.022 C 
HETATM    3  C5  UNL     1      20.804  16.893  -7.188  1.00  0.00     0.049 C 
HETATM    4  C6  UNL     1      19.895  16.881  -8.364  1.00  0.00     0.142 C 
HETATM    5  C11 UNL     1      19.027  15.707  -8.395  1.00  0.00     0.069 A 
HETATM    6  C12 UNL     1      17.621  15.481  -8.370  1.00  0.00     0.248 A 
HETATM    7  N2  UNL     1      17.116  14.129  -8.262  1.00  0.00     0.096 N 
HETATM    8  C17 UNL     1      18.047  13.362  -7.481  1.00  0.00     0.284 C 
HETATM    9  C18 UNL     1      18.682  14.342  -6.482  1.00  0.00     0.009 C 
HETATM   10  C19 UNL     1      17.721  14.335  -5.278  1.00  0.00     0.020 C 
HETATM   11  C20 UNL     1      17.479  15.775  -4.932  1.00  0.00     0.080 C 
HETATM   12  C21 UNL     1      17.767  16.510  -6.221  1.00  0.00     0.139 C 
HETATM   13  O3  UNL     1      17.454  17.688  -6.306  1.00  0.00    -0.297 OA
HETATM   14  C22 UNL     1      18.380  15.612  -7.111  1.00  0.00     0.070 A 
HETATM   15  C23 UNL     1      20.015  14.041  -6.016  1.00  0.00     0.023 C 
HETATM   16  C24 UNL     1      20.081  12.499  -5.877  1.00  0.00     0.013 C 
HETATM   17  C25 UNL     1      21.275  14.410  -6.667  1.00  0.00     0.134 C 
ENDROOT
BRANCH   4  18
HETATM   18  O1  UNL     1      19.216  18.090  -8.592  1.00  0.00    -0.298 OA
BRANCH  18  19
HETATM   19  C7  UNL     1      19.747  19.306  -8.882  1.00  0.00     0.361 C 
HETATM   20  O2  UNL     1      18.987  20.252  -8.583  1.00  0.00    -0.238 OA
HETATM   21  N1  UNL     1      21.014  19.557  -9.457  1.00  0.00    -0.332 N 
ATOM     22  H1  UNL     1      21.601  18.754  -9.684  1.00  0.00     0.165 HD
BRANCH  21  23
HETATM   23  C8  UNL     1      21.527  20.863  -9.742  1.00  0.00     0.086 A 
HETATM   24  C9  UNL     1      22.789  20.903 -10.575  1.00  0.00     0.027 A 
HETATM   25  C10 UNL     1      21.514  21.443 -11.087  1.00  0.00     0.027 A 
ENDBRANCH  21  23
ENDBRANCH  18  19
ENDBRANCH   4  18
BRANCH   1  26
HETATM   26  C2  UNL     1      22.544  16.270  -5.744  1.00  0.00    -0.025 C 
HETATM   27  C1  UNL     1      23.839  16.230  -5.688  1.00  0.00     0.008 C 
ENDBRANCH   1  26
BRANCH  17  28
HETATM   28  O4  UNL     1      21.704  13.469  -7.656  1.00  0.00    -0.394 OA
ATOM     29  H4  UNL     1      21.676  12.560  -7.383  1.00  0.00     0.210 HD
ENDBRANCH  17  28
BRANCH   7  30
HETATM   30  C13 UNL     1      15.766  13.995  -8.017  1.00  0.00     0.277 C 
BRANCH  30  31
HETATM   31  C14 UNL     1      15.439  12.518  -7.800  1.00  0.00     0.014 A 
HETATM   32  C15 UNL     1      14.902  11.696  -8.893  1.00  0.00     0.007 A 
HETATM   33  C16 UNL     1      13.996  12.090  -7.777  1.00  0.00     0.007 A 
ENDBRANCH  30  31
ENDBRANCH   7  30
TORSDOF 7
ENDMDL
MODEL 5
REMARK VINA RESULT: -7.095684421      2.539      5.498
REMARK  7 active torsions:
REMARK  status: ('A' for Active; 'I' for Inactive)
REMARK    1  A    between atoms: C2_2  and  C3_3 
REMARK    2  A    between atoms: C6_6  and  O1_7 
REMARK    3  A    between atoms: O1_7  and  C7_8 
REMARK       I    between atoms: C7_8  and  N1_10 
REMARK    4  A    between atoms: N1_10  and  C8_12 
REMARK    5  A    between atoms: N2_17  and  C13_18 
REMARK    6  A    between atoms: C13_18  and  C14_19 
REMARK    7  A    between atoms: C25_31  and  O4_32 
ROOT
HETATM    1  C3  UNL     1      21.684  15.783  -6.907  1.00  0.00     0.002 C 
HETATM    2  C4  UNL     1      22.714  15.683  -8.058  1.00  0.00     0.022 C 
HETATM    3  C5  UNL     1      20.804  16.901  -7.194  1.00  0.00     0.049 C 
HETATM    4  C6  UNL     1      19.890  16.893  -8.366  1.00  0.00     0.142 C 
HETATM    5  C11 UNL     1      19.012  15.726  -8.389  1.00  0.00     0.069 A 
HETATM    6  C12 UNL     1      17.605  15.513  -8.357  1.00  0.00     0.248 A 
HETATM    7  N2  UNL     1      17.088  14.165  -8.243  1.00  0.00     0.096 N 
HETATM    8  C17 UNL     1      18.016  13.393  -7.463  1.00  0.00     0.284 C 
HETATM    9  C18 UNL     1      18.664  14.371  -6.470  1.00  0.00     0.009 C 
HETATM   10  C19 UNL     1      17.707  14.377  -5.262  1.00  0.00     0.020 C 
HETATM   11  C20 UNL     1      17.479  15.821  -4.920  1.00  0.00     0.080 C 
HETATM   12  C21 UNL     1      17.768  16.548  -6.213  1.00  0.00     0.139 C 
HETATM   13  O3  UNL     1      17.465  17.728  -6.301  1.00  0.00    -0.297 OA
HETATM   14  C22 UNL     1      18.370  15.641  -7.102  1.00  0.00     0.070 A 
HETATM   15  C23 UNL     1      19.995  14.060  -6.008  1.00  0.00     0.023 C 
HETATM   16  C24 UNL     1      20.049  12.519  -5.863  1.00  0.00     0.013 C 
HETATM   17  C25 UNL     1      21.256  14.416  -6.665  1.00  0.00     0.134 C 
ENDROOT
BRANCH   4  18
HETATM   18  O1  UNL     1      19.221  18.107  -8.596  1.00  0.00    -0.298 OA
BRANCH  18  19
HETATM   19  C7  UNL     1      19.761  19.316  -8.895  1.00  0.00     0.361 C 
HETATM   20  O2  UNL     1      18.998  20.269  -8.625  1.00  0.00    -0.238 OA
HETATM   21  N1  UNL     1      21.038  19.555  -9.450  1.00  0.00    -0.332 N 
ATOM     22  H1  UNL     1      21.628  18.747  -9.653  1.00  0.00     0.165 HD
BRANCH  21  23
HETATM   23  C8  UNL     1      21.561  20.855  -9.745  1.00  0.00     0.086 A 
HETATM   24  C9  UNL     1      22.806  20.880 -10.605  1.00  0.00     0.027 A 
HETATM   25  C10 UNL     1      21.527  21.436 -11.089  1.00  0.00     0.027 A 
ENDBRANCH  21  23
ENDBRANCH  18  19
ENDBRANCH   4  18
BRANCH   1  26
HETATM   26  C2  UNL     1      22.544  16.270  -5.754  1.00  0.00    -0.025 C 
HETATM   27  C1  UNL     1      23.839  16.229  -5.709  1.00  0.00     0.008 C 
ENDBRANCH   1  26
BRANCH  17  28
HETATM   28  O4  UNL     1      21.673  13.468  -7.652  1.00  0.00    -0.394 OA
ATOM     29  H4  UNL     1      20.977  13.127  -8.200  1.00  0.00     0.210 HD
ENDBRANCH  17  28
BRANCH   7  30
HETATM   30  C13 UNL     1      15.739  14.043  -7.992  1.00  0.00     0.277 C 
BRANCH  30  31
HETATM   31  C14 UNL     1      15.042  15.359  -8.333  1.00  0.00     0.014 A 
HETATM   32  C15 UNL     1      14.179  16.032  -7.351  1.00  0.00     0.007 A 
HETATM   33  C16 UNL     1      13.549  15.361  -8.524  1.00  0.00     0.007 A 
ENDBRANCH  30  31
ENDBRANCH   7  30
TORSDOF 7
ENDMDL
