MODEL 1
REMARK VINA RESULT: -7.339035398      0.000      0.000
REMARK  8 active torsions:
REMARK  status: ('A' for Active; 'I' for Inactive)
REMARK       I    between atoms: C2_2  and  N1_4 
REMARK    1  A    between atoms: C9_11  and  C10_12 
REMARK    2  A    between atoms: C10_12  and  O2_13 
REMARK    3  A    between atoms: O2_13  and  C11_14 
REMARK       I    between atoms: C11_14  and  N2_16 
REMARK    4  A    between atoms: N2_16  and  C12_18 
REMARK    5  A    between atoms: C15_21  and  C16_22 
REMARK    6  A    between atoms: C16_22  and  O4_23 
REMARK    7  A    between atoms: C16_22  and  N3_25 
REMARK    8  A    between atoms: C20_29  and  C21_30 
ROOT
HETATM    1  C1  UNL     1      15.211  10.964  -4.496  1.00  0.00     0.117 C 
HETATM    2  C2  UNL     1      15.339  11.755  -5.743  1.00  0.00     0.216 C 
HETATM    3  O1  UNL     1      14.518  11.476  -6.681  1.00  0.00    -0.274 OA
HETATM    4  N1  UNL     1      16.306  12.764  -5.905  1.00  0.00    -0.347 N 
HETATM    5  C3  UNL     1      17.228  13.070  -4.849  1.00  0.00     0.135 C 
HETATM    6  C4  UNL     1      18.572  13.428  -5.497  1.00  0.00     0.041 C 
HETATM    7  C5  UNL     1      18.648  12.649  -6.804  1.00  0.00     0.013 C 
HETATM    8  C6  UNL     1      17.700  13.214  -7.851  1.00  0.00     0.026 C 
HETATM    9  C7  UNL     1      16.381  13.515  -7.158  1.00  0.00     0.091 C 
HETATM   10  C8  UNL     1      16.265  14.961  -6.832  1.00  0.00     0.062 C 
HETATM   11  C9  UNL     1      17.590  15.535  -6.352  1.00  0.00    -0.043 C 
HETATM   12  C15 UNL     1      18.605  14.910  -5.785  1.00  0.00     0.003 C 
ENDROOT
BRANCH  12  13
HETATM   13  C16 UNL     1      19.892  15.518  -5.627  1.00  0.00     0.145 C 
BRANCH  13  14
HETATM   14  O4  UNL     1      20.186  15.843  -4.387  1.00  0.00    -0.346 OA
ATOM     15  H4  UNL     1      21.118  15.904  -4.210  1.00  0.00     0.219 HD
ENDBRANCH  13  14
BRANCH  13  16
HETATM   16  N3  UNL     1      20.934  15.853  -6.497  1.00  0.00    -0.347 N 
HETATM   17  C17 UNL     1      21.049  16.749  -7.587  1.00  0.00     0.126 C 
HETATM   18  C18 UNL     1      22.232  16.335  -8.429  1.00  0.00     0.022 C 
HETATM   19  C19 UNL     1      22.658  15.034  -7.785  1.00  0.00     0.038 C 
HETATM   20  C20 UNL     1      22.288  15.238  -6.328  1.00  0.00     0.187 C 
BRANCH  20  21
HETATM   21  C21 UNL     1      23.122  16.236  -5.660  1.00  0.00     0.196 C 
HETATM   22  O5  UNL     1      24.375  16.185  -5.811  1.00  0.00    -0.646 OA
HETATM   23  O6  UNL     1      22.586  17.226  -4.874  1.00  0.00    -0.646 OA
ENDBRANCH  20  21
ENDBRANCH  13  16
ENDBRANCH  12  13
BRANCH  11  24
HETATM   24  C10 UNL     1      17.502  17.009  -6.428  1.00  0.00     0.215 C 
BRANCH  24  25
HETATM   25  O2  UNL     1      17.054  17.361  -7.767  1.00  0.00    -0.300 OA
BRANCH  25  26
HETATM   26  C11 UNL     1      17.901  18.033  -8.631  1.00  0.00     0.361 C 
HETATM   27  O3  UNL     1      18.213  17.440  -9.692  1.00  0.00    -0.238 OA
HETATM   28  N2  UNL     1      18.405  19.331  -8.351  1.00  0.00    -0.333 N 
ATOM     29  H2  UNL     1      18.154  19.816  -7.491  1.00  0.00     0.165 HD
BRANCH  28  30
HETATM   30  C12 UNL     1      19.283  19.945  -9.322  1.00  0.00     0.078 C 
HETATM   31  C13 UNL     1      18.693  21.289  -9.692  1.00  0.00     0.032 C 
HETATM   32  C14 UNL     1      20.671  20.164  -8.794  1.00  0.00     0.032 C 
ENDBRANCH  28  30
ENDBRANCH  25  26
ENDBRANCH  24  25
ENDBRANCH  11  24
TORSDOF 8
ENDMDL
MODEL 2
REMARK VINA RESULT: -7.297052336      2.190      7.091
REMARK  8 active torsions:
REMARK  status: ('A' for Active; 'I' for Inactive)
REMARK       I    between atoms: C2_2  and  N1_4 
REMARK    1  A    between atoms: C9_11  and  C10_12 
REMARK    2  A    between atoms: C10_12  and  O2_13 
REMARK    3  A    between atoms: O2_13  and  C11_14 
REMARK       I    between atoms: C11_14  and  N2_16 
REMARK    4  A    between atoms: N2_16  and  C12_18 
REMARK    5  A    between atoms: C15_21  and  C16_22 
REMARK    6  A    between atoms: C16_22  and  O4_23 
REMARK    7  A    between atoms: C16_22  and  N3_25 
REMARK    8  A    between atoms: C20_29  and  C21_30 
ROOT
HETATM    1  C1  UNL     1      25.118  17.039  -4.673  1.00  0.00     0.117 C 
HETATM    2  C2  UNL     1      24.685  16.264  -5.860  1.00  0.00     0.216 C 
HETATM    3  O1  UNL     1      25.611  15.829  -6.625  1.00  0.00    -0.274 OA
HETATM    4  N1  UNL     1      23.331  16.010  -6.148  1.00  0.00    -0.347 N 
HETATM    5  C3  UNL     1      22.296  16.504  -5.287  1.00  0.00     0.135 C 
HETATM    6  C4  UNL     1      21.105  16.896  -6.173  1.00  0.00     0.041 C 
HETATM    7  C5  UNL     1      21.681  17.316  -7.518  1.00  0.00     0.013 C 
HETATM    8  C6  UNL     1      22.204  16.122  -8.303  1.00  0.00     0.026 C 
HETATM    9  C7  UNL     1      22.965  15.234  -7.332  1.00  0.00     0.091 C 
HETATM   10  C8  UNL     1      22.130  14.087  -6.887  1.00  0.00     0.062 C 
HETATM   11  C9  UNL     1      20.685  14.503  -6.654  1.00  0.00    -0.043 C 
HETATM   12  C15 UNL     1      20.207  15.696  -6.355  1.00  0.00     0.003 C 
ENDROOT
BRANCH  12  13
HETATM   13  C16 UNL     1      18.809  16.005  -6.424  1.00  0.00     0.145 C 
BRANCH  13  14
HETATM   14  O4  UNL     1      18.164  15.843  -5.290  1.00  0.00    -0.346 OA
ATOM     15  H4  UNL     1      18.023  16.647  -4.803  1.00  0.00     0.219 HD
ENDBRANCH  13  14
BRANCH  13  16
HETATM   16  N3  UNL     1      17.951  16.449  -7.434  1.00  0.00    -0.347 N 
HETATM   17  C17 UNL     1      18.146  17.169  -8.638  1.00  0.00     0.126 C 
HETATM   18  C18 UNL     1      16.826  17.768  -9.062  1.00  0.00     0.022 C 
HETATM   19  C19 UNL     1      15.924  17.440  -7.892  1.00  0.00     0.038 C 
HETATM   20  C20 UNL     1      16.490  16.129  -7.381  1.00  0.00     0.187 C 
BRANCH  20  21
HETATM   21  C21 UNL     1      16.270  15.014  -8.300  1.00  0.00     0.196 C 
HETATM   22  O5  UNL     1      15.257  15.034  -9.054  1.00  0.00    -0.646 OA
HETATM   23  O6  UNL     1      17.130  13.945  -8.370  1.00  0.00    -0.646 OA
ENDBRANCH  20  21
ENDBRANCH  13  16
ENDBRANCH  12  13
BRANCH  11  24
HETATM   24  C10 UNL     1      19.861  13.277  -6.605  1.00  0.00     0.215 C 
BRANCH  24  25
HETATM   25  O2  UNL     1      19.636  12.945  -5.207  1.00  0.00    -0.300 OA
BRANCH  25  26
HETATM   26  C11 UNL     1      18.363  12.643  -4.758  1.00  0.00     0.361 C 
HETATM   27  O3  UNL     1      18.269  12.168  -3.600  1.00  0.00    -0.238 OA
HETATM   28  N2  UNL     1      17.203  12.852  -5.551  1.00  0.00    -0.333 N 
ATOM     29  H2  UNL     1      17.274  13.238  -6.492  1.00  0.00     0.165 HD
BRANCH  28  30
HETATM   30  C12 UNL     1      15.919  12.503  -4.986  1.00  0.00     0.078 C 
HETATM   31  C13 UNL     1      15.236  13.787  -4.566  1.00  0.00     0.032 C 
HETATM   32  C14 UNL     1      15.030  11.787  -5.961  1.00  0.00     0.032 C 
ENDBRANCH  28  30
ENDBRANCH  25  26
ENDBRANCH  24  25
ENDBRANCH  11  24
TORSDOF 8
ENDMDL
MODEL 3
REMARK VINA RESULT: -7.216722616      2.350      7.508
REMARK  8 active torsions:
REMARK  status: ('A' for Active; 'I' for Inactive)
REMARK       I    between atoms: C2_2  and  N1_4 
REMARK    1  A    between atoms: C9_11  and  C10_12 
REMARK    2  A    between atoms: C10_12  and  O2_13 
REMARK    3  A    between atoms: O2_13  and  C11_14 
REMARK       I    between atoms: C11_14  and  N2_16 
REMARK    4  A    between atoms: N2_16  and  C12_18 
REMARK    5  A    between atoms: C15_21  and  C16_22 
REMARK    6  A    between atoms: C16_22  and  O4_23 
REMARK    7  A    between atoms: C16_22  and  N3_25 
REMARK    8  A    between atoms: C20_29  and  C21_30 
ROOT
HETATM    1  C1  UNL     1      24.771  16.298  -5.636  1.00  0.00     0.117 C 
HETATM    2  C2  UNL     1      23.969  15.326  -6.416  1.00  0.00     0.216 C 
HETATM    3  O1  UNL     1      24.621  14.426  -7.047  1.00  0.00    -0.274 OA
HETATM    4  N1  UNL     1      22.564  15.373  -6.471  1.00  0.00    -0.347 N 
HETATM    5  C3  UNL     1      21.838  16.387  -5.763  1.00  0.00     0.135 C 
HETATM    6  C4  UNL     1      20.628  16.776  -6.623  1.00  0.00     0.041 C 
HETATM    7  C5  UNL     1      21.033  16.554  -8.074  1.00  0.00     0.013 C 
HETATM    8  C6  UNL     1      21.124  15.074  -8.412  1.00  0.00     0.026 C 
HETATM    9  C7  UNL     1      21.826  14.382  -7.255  1.00  0.00     0.091 C 
HETATM   10  C8  UNL     1      20.848  13.722  -6.352  1.00  0.00     0.062 C 
HETATM   11  C9  UNL     1      19.600  14.571  -6.160  1.00  0.00    -0.043 C 
HETATM   12  C15 UNL     1      19.464  15.878  -6.277  1.00  0.00     0.003 C 
ENDROOT
BRANCH  12  13
HETATM   13  C16 UNL     1      18.183  16.518  -6.331  1.00  0.00     0.145 C 
BRANCH  13  14
HETATM   14  O4  UNL     1      17.765  16.987  -5.176  1.00  0.00    -0.346 OA
ATOM     15  H4  UNL     1      16.824  17.109  -5.122  1.00  0.00     0.219 HD
ENDBRANCH  13  14
BRANCH  13  16
HETATM   16  N3  UNL     1      17.253  16.769  -7.344  1.00  0.00    -0.347 N 
HETATM   17  C17 UNL     1      17.306  17.484  -8.565  1.00  0.00     0.126 C 
HETATM   18  C18 UNL     1      15.895  17.813  -8.993  1.00  0.00     0.022 C 
HETATM   19  C19 UNL     1      15.074  17.349  -7.809  1.00  0.00     0.038 C 
HETATM   20  C20 UNL     1      15.879  16.180  -7.272  1.00  0.00     0.187 C 
BRANCH  20  21
HETATM   21  C21 UNL     1      15.870  15.023  -8.165  1.00  0.00     0.196 C 
HETATM   22  O5  UNL     1      14.766  14.605  -8.612  1.00  0.00    -0.646 OA
HETATM   23  O6  UNL     1      17.025  14.376  -8.531  1.00  0.00    -0.646 OA
ENDBRANCH  20  21
ENDBRANCH  13  16
ENDBRANCH  12  13
BRANCH  11  24
HETATM   24  C10 UNL     1      18.543  13.705  -5.596  1.00  0.00     0.215 C 
BRANCH  24  25
HETATM   25  O2  UNL     1      19.163  12.817  -4.625  1.00  0.00    -0.300 OA
BRANCH  25  26
HETATM   26  C11 UNL     1      18.768  11.494  -4.539  1.00  0.00     0.361 C 
HETATM   27  O3  UNL     1      19.406  10.667  -5.234  1.00  0.00    -0.238 OA
HETATM   28  N2  UNL     1      17.697  11.069  -3.709  1.00  0.00    -0.333 N 
ATOM     29  H2  UNL     1      17.176  11.737  -3.142  1.00  0.00     0.165 HD
BRANCH  28  30
HETATM   30  C12 UNL     1      17.366   9.662  -3.691  1.00  0.00     0.078 C 
HETATM   31  C13 UNL     1      17.570   9.158  -2.278  1.00  0.00     0.032 C 
HETATM   32  C14 UNL     1      15.943   9.394  -4.090  1.00  0.00     0.032 C 
ENDBRANCH  28  30
ENDBRANCH  25  26
ENDBRANCH  24  25
ENDBRANCH  11  24
TORSDOF 8
ENDMDL
MODEL 4
REMARK VINA RESULT: -7.110525830      2.491      7.469
REMARK  8 active torsions:
REMARK  status: ('A' for Active; 'I' for Inactive)
REMARK       I    between atoms: C2_2  and  N1_4 
REMARK    1  A    between atoms: C9_11  and  C10_12 
REMARK    2  A    between atoms: C10_12  and  O2_13 
REMARK    3  A    between atoms: O2_13  and  C11_14 
REMARK       I    between atoms: C11_14  and  N2_16 
REMARK    4  A    between atoms: N2_16  and  C12_18 
REMARK    5  A    between atoms: C15_21  and  C16_22 
REMARK    6  A    between atoms: C16_22  and  O4_23 
REMARK    7  A    between atoms: C16_22  and  N3_25 
REMARK    8  A    between atoms: C20_29  and  C21_30 
ROOT
HETATM    1  C1  UNL     1      24.639  16.168  -5.985  1.00  0.00     0.117 C 
HETATM    2  C2  UNL     1      23.773  15.223  -6.729  1.00  0.00     0.216 C 
HETATM    3  O1  UNL     1      24.363  14.417  -7.527  1.00  0.00    -0.274 OA
HETATM    4  N1  UNL     1      22.375  15.197  -6.580  1.00  0.00    -0.347 N 
HETATM    5  C3  UNL     1      21.718  16.106  -5.686  1.00  0.00     0.135 C 
HETATM    6  C4  UNL     1      20.380  16.499  -6.326  1.00  0.00     0.041 C 
HETATM    7  C5  UNL     1      20.577  16.423  -7.834  1.00  0.00     0.013 C 
HETATM    8  C6  UNL     1      20.680  14.984  -8.315  1.00  0.00     0.026 C 
HETATM    9  C7  UNL     1      21.573  14.237  -7.338  1.00  0.00     0.091 C 
HETATM   10  C8  UNL     1      20.766  13.449  -6.369  1.00  0.00     0.062 C 
HETATM   11  C9  UNL     1      19.524  14.209  -5.925  1.00  0.00    -0.043 C 
HETATM   12  C15 UNL     1      19.318  15.512  -5.901  1.00  0.00     0.003 C 
ENDROOT
BRANCH  12  13
HETATM   13  C16 UNL     1      18.017  16.083  -5.714  1.00  0.00     0.145 C 
BRANCH  13  14
HETATM   14  O4  UNL     1      17.858  16.697  -4.562  1.00  0.00    -0.346 OA
ATOM     15  H4  UNL     1      18.327  17.520  -4.490  1.00  0.00     0.219 HD
ENDBRANCH  13  14
BRANCH  13  16
HETATM   16  N3  UNL     1      16.852  16.145  -6.484  1.00  0.00    -0.347 N 
HETATM   17  C17 UNL     1      15.508  16.487  -6.200  1.00  0.00     0.126 C 
HETATM   18  C18 UNL     1      14.624  15.913  -7.281  1.00  0.00     0.022 C 
HETATM   19  C19 UNL     1      15.595  15.089  -8.099  1.00  0.00     0.038 C 
HETATM   20  C20 UNL     1      16.899  15.851  -7.951  1.00  0.00     0.187 C 
BRANCH  20  21
HETATM   21  C21 UNL     1      16.887  17.141  -8.638  1.00  0.00     0.196 C 
HETATM   22  O5  UNL     1      16.355  17.221  -9.780  1.00  0.00    -0.646 OA
HETATM   23  O6  UNL     1      17.438  18.269  -8.080  1.00  0.00    -0.646 OA
ENDBRANCH  20  21
ENDBRANCH  13  16
ENDBRANCH  12  13
BRANCH  11  24
HETATM   24  C10 UNL     1      18.599  13.242  -5.298  1.00  0.00     0.215 C 
BRANCH  24  25
HETATM   25  O2  UNL     1      19.391  12.137  -4.780  1.00  0.00    -0.300 OA
BRANCH  25  26
HETATM   26  C11 UNL     1      18.794  10.919  -4.509  1.00  0.00     0.361 C 
HETATM   27  O3  UNL     1      19.416   9.891  -4.874  1.00  0.00    -0.238 OA
HETATM   28  N2  UNL     1      17.541  10.811  -3.850  1.00  0.00    -0.333 N 
ATOM     29  H2  UNL     1      17.032  11.643  -3.551  1.00  0.00     0.165 HD
BRANCH  28  30
HETATM   30  C12 UNL     1      17.006   9.489  -3.615  1.00  0.00     0.078 C 
HETATM   31  C13 UNL     1      17.236   9.152  -2.156  1.00  0.00     0.032 C 
HETATM   32  C14 UNL     1      15.534   9.398  -3.898  1.00  0.00     0.032 C 
ENDBRANCH  28  30
ENDBRANCH  25  26
ENDBRANCH  24  25
ENDBRANCH  11  24
TORSDOF 8
ENDMDL
MODEL 5
REMARK VINA RESULT: -7.055999469      2.450      7.424
REMARK  8 active torsions:
REMARK  status: ('A' for Active; 'I' for Inactive)
REMARK       I    between atoms: C2_2  and  N1_4 
REMARK    1  A    between atoms: C9_11  and  C10_12 
REMARK    2  A    between atoms: C10_12  and  O2_13 
REMARK    3  A    between atoms: O2_13  and  C11_14 
REMARK       I    between atoms: C11_14  and  N2_16 
REMARK    4  A    between atoms: N2_16  and  C12_18 
REMARK    5  A    between atoms: C15_21  and  C16_22 
REMARK    6  A    between atoms: C16_22  and  O4_23 
REMARK    7  A    between atoms: C16_22  and  N3_25 
REMARK    8  A    between atoms: C20_29  and  C21_30 
ROOT
HETATM    1  C1  UNL     1      24.822  16.295  -5.654  1.00  0.00     0.117 C 
HETATM    2  C2  UNL     1      24.005  15.404  -6.512  1.00  0.00     0.216 C 
HETATM    3  O1  UNL     1      24.646  14.601  -7.272  1.00  0.00    -0.274 OA
HETATM    4  N1  UNL     1      22.599  15.423  -6.504  1.00  0.00    -0.347 N 
HETATM    5  C3  UNL     1      21.885  16.328  -5.651  1.00  0.00     0.135 C 
HETATM    6  C4  UNL     1      20.632  16.788  -6.409  1.00  0.00     0.041 C 
HETATM    7  C5  UNL     1      20.978  16.750  -7.891  1.00  0.00     0.013 C 
HETATM    8  C6  UNL     1      21.082  15.322  -8.407  1.00  0.00     0.026 C 
HETATM    9  C7  UNL     1      21.847  14.515  -7.370  1.00  0.00     0.091 C 
HETATM   10  C8  UNL     1      20.920  13.729  -6.514  1.00  0.00     0.062 C 
HETATM   11  C9  UNL     1      19.666  14.520  -6.172  1.00  0.00    -0.043 C 
HETATM   12  C15 UNL     1      19.501  15.828  -6.125  1.00  0.00     0.003 C 
ENDROOT
BRANCH  12  13
HETATM   13  C16 UNL     1      18.207  16.439  -6.051  1.00  0.00     0.145 C 
BRANCH  13  14
HETATM   14  O4  UNL     1      17.826  16.748  -4.830  1.00  0.00    -0.346 OA
ATOM     15  H4  UNL     1      17.457  16.022  -4.341  1.00  0.00     0.219 HD
ENDBRANCH  13  14
BRANCH  13  16
HETATM   16  N3  UNL     1      17.233  16.793  -6.989  1.00  0.00    -0.347 N 
HETATM   17  C17 UNL     1      15.993  16.229  -7.373  1.00  0.00     0.126 C 
HETATM   18  C18 UNL     1      15.625  16.756  -8.740  1.00  0.00     0.022 C 
HETATM   19  C19 UNL     1      16.858  17.538  -9.135  1.00  0.00     0.038 C 
HETATM   20  C20 UNL     1      17.386  18.040  -7.804  1.00  0.00     0.187 C 
BRANCH  20  21
HETATM   21  C21 UNL     1      16.525  19.050  -7.192  1.00  0.00     0.196 C 
HETATM   22  O5  UNL     1      15.965  19.905  -7.933  1.00  0.00    -0.646 OA
HETATM   23  O6  UNL     1      16.308  19.098  -5.836  1.00  0.00    -0.646 OA
ENDBRANCH  20  21
ENDBRANCH  13  16
ENDBRANCH  12  13
BRANCH  11  24
HETATM   24  C10 UNL     1      18.651  13.568  -5.673  1.00  0.00     0.215 C 
BRANCH  24  25
HETATM   25  O2  UNL     1      19.310  12.652  -4.755  1.00  0.00    -0.300 OA
BRANCH  25  26
HETATM   26  C11 UNL     1      18.833  11.363  -4.594  1.00  0.00     0.361 C 
HETATM   27  O3  UNL     1      19.439  10.455  -5.213  1.00  0.00    -0.238 OA
HETATM   28  N2  UNL     1      17.716  11.058  -3.772  1.00  0.00    -0.333 N 
ATOM     29  H2  UNL     1      17.221  11.793  -3.267  1.00  0.00     0.165 HD
BRANCH  28  30
HETATM   30  C12 UNL     1      17.300   9.677  -3.672  1.00  0.00     0.078 C 
HETATM   31  C13 UNL     1      17.433   9.259  -2.223  1.00  0.00     0.032 C 
HETATM   32  C14 UNL     1      15.876   9.467  -4.099  1.00  0.00     0.032 C 
ENDBRANCH  28  30
ENDBRANCH  25  26
ENDBRANCH  24  25
ENDBRANCH  11  24
TORSDOF 8
ENDMDL
