MODEL 1
REMARK VINA RESULT: -8.326529807      0.000      0.000
REMARK  5 active torsions:
REMARK  status: ('A' for Active; 'I' for Inactive)
REMARK       I    between atoms: C1_2  and  N1_3 
REMARK    1  A    between atoms: C1_2  and  C9_12 
REMARK    2  A    between atoms: N1_3  and  C2_5 
REMARK    3  A    between atoms: N2_15  and  S1_16 
REMARK    4  A    between atoms: S1_16  and  C12_19 
REMARK    5  A    between atoms: N4_24  and  C15_26 
ROOT
HETATM    1  C9  UNL     1      17.090  11.751  -4.373  1.00  0.00     0.080 C 
HETATM    2  C10 UNL     1      16.596  12.720  -5.426  1.00  0.00     0.029 C 
HETATM    3  C11 UNL     1      17.405  14.003  -5.235  1.00  0.00     0.108 C 
HETATM    4  N2  UNL     1      18.829  13.737  -5.423  1.00  0.00    -0.206 NA
HETATM    5  C18 UNL     1      19.072  12.377  -5.787  1.00  0.00     0.108 C 
HETATM    6  C19 UNL     1      18.533  11.412  -4.767  1.00  0.00     0.029 C 
ENDROOT
BRANCH   4   7
HETATM    7  S1  UNL     1      19.383  14.816  -6.633  1.00  0.00     0.251 S 
HETATM    8  O2  UNL     1      18.631  16.103  -6.496  1.00  0.00    -0.205 OA
HETATM    9  O3  UNL     1      19.075  14.227  -7.966  1.00  0.00    -0.205 OA
BRANCH   7  10
HETATM   10  C12 UNL     1      21.092  15.153  -6.440  1.00  0.00     0.134 A 
HETATM   11  C13 UNL     1      22.128  14.455  -6.983  1.00  0.00     0.122 A 
HETATM   12  N3  UNL     1      23.351  14.865  -6.722  1.00  0.00    -0.345 N 
HETATM   13  C14 UNL     1      23.536  15.925  -5.954  1.00  0.00     0.146 A 
ATOM     14  H3  UNL     1      24.152  14.368  -7.111  1.00  0.00     0.167 HD
HETATM   15  N4  UNL     1      24.600  16.522  -5.551  1.00  0.00    -0.366 N 
HETATM   16  S2  UNL     1      21.897  16.378  -5.572  1.00  0.00    -0.040 SA
ATOM     17  H4  UNL     1      24.410  17.329  -4.956  1.00  0.00     0.162 HD
BRANCH  15  18
HETATM   18  C15 UNL     1      25.964  16.297  -5.759  1.00  0.00     0.083 A 
HETATM   19  C16 UNL     1      27.084  17.037  -5.136  1.00  0.00     0.027 A 
HETATM   20  C17 UNL     1      26.872  17.084  -6.616  1.00  0.00     0.027 A 
ENDBRANCH  15  18
ENDBRANCH   7  10
ENDBRANCH   4   7
BRANCH   1  21
HETATM   21  C1  UNL     1      16.261  10.559  -4.250  1.00  0.00     0.222 C 
HETATM   22  O1  UNL     1      15.034  10.616  -4.542  1.00  0.00    -0.273 OA
HETATM   23  N1  UNL     1      16.739   9.291  -3.812  1.00  0.00    -0.356 N 
ATOM     24  H1  UNL     1      17.726   9.209  -3.568  1.00  0.00     0.162 HD
BRANCH  23  25
HETATM   25  C2  UNL     1      15.916   8.126  -3.696  1.00  0.00     0.084 C 
HETATM   26  C3  UNL     1      16.158   7.360  -2.418  1.00  0.00     0.025 C 
HETATM   27  C4  UNL     1      15.627   5.966  -2.459  1.00  0.00     0.002 C 
HETATM   28  C5  UNL     1      14.278   5.839  -3.097  1.00  0.00     0.000 C 
HETATM   29  C6  UNL     1      14.354   5.460  -4.562  1.00  0.00     0.000 C 
HETATM   30  C7  UNL     1      14.726   6.681  -5.372  1.00  0.00     0.002 C 
HETATM   31  C8  UNL     1      16.039   7.276  -4.919  1.00  0.00     0.025 C 
ENDBRANCH  23  25
ENDBRANCH   1  21
TORSDOF 5
ENDMDL
MODEL 2
REMARK VINA RESULT: -8.102352891      2.024      2.922
REMARK  5 active torsions:
REMARK  status: ('A' for Active; 'I' for Inactive)
REMARK       I    between atoms: C1_2  and  N1_3 
REMARK    1  A    between atoms: C1_2  and  C9_12 
REMARK    2  A    between atoms: N1_3  and  C2_5 
REMARK    3  A    between atoms: N2_15  and  S1_16 
REMARK    4  A    between atoms: S1_16  and  C12_19 
REMARK    5  A    between atoms: N4_24  and  C15_26 
ROOT
HETATM    1  C9  UNL     1      18.089  12.378  -5.590  1.00  0.00     0.080 C 
HETATM    2  C10 UNL     1      19.462  12.909  -5.945  1.00  0.00     0.029 C 
HETATM    3  C11 UNL     1      19.290  13.693  -7.246  1.00  0.00     0.108 C 
HETATM    4  N2  UNL     1      18.356  14.799  -7.052  1.00  0.00    -0.206 NA
HETATM    5  C18 UNL     1      17.905  14.883  -5.699  1.00  0.00     0.108 C 
HETATM    6  C19 UNL     1      17.245  13.611  -5.241  1.00  0.00     0.029 C 
ENDROOT
BRANCH   4   7
HETATM    7  S1  UNL     1      19.170  16.229  -7.529  1.00  0.00     0.251 S 
HETATM    8  O2  UNL     1      18.513  17.392  -6.853  1.00  0.00    -0.205 OA
HETATM    9  O3  UNL     1      19.015  16.389  -9.003  1.00  0.00    -0.205 OA
BRANCH   7  10
HETATM   10  C12 UNL     1      20.853  16.187  -7.044  1.00  0.00     0.134 A 
HETATM   11  C13 UNL     1      21.351  16.432  -5.800  1.00  0.00     0.122 A 
HETATM   12  N3  UNL     1      22.653  16.352  -5.631  1.00  0.00    -0.345 N 
HETATM   13  C14 UNL     1      23.428  16.041  -6.656  1.00  0.00     0.146 A 
ATOM     14  H3  UNL     1      23.063  16.528  -4.713  1.00  0.00     0.167 HD
HETATM   15  N4  UNL     1      24.701  15.899  -6.761  1.00  0.00    -0.366 N 
HETATM   16  S2  UNL     1      22.264  15.848  -7.938  1.00  0.00    -0.040 SA
ATOM     17  H4  UNL     1      25.003  15.651  -7.704  1.00  0.00     0.162 HD
BRANCH  15  18
HETATM   18  C15 UNL     1      25.758  16.013  -5.854  1.00  0.00     0.083 A 
HETATM   19  C16 UNL     1      25.907  17.039  -4.799  1.00  0.00     0.027 A 
HETATM   20  C17 UNL     1      26.889  16.959  -5.925  1.00  0.00     0.027 A 
ENDBRANCH  15  18
ENDBRANCH   7  10
ENDBRANCH   4   7
BRANCH   1  21
HETATM   21  C1  UNL     1      18.109  11.403  -4.506  1.00  0.00     0.222 C 
HETATM   22  O1  UNL     1      19.140  10.702  -4.314  1.00  0.00    -0.273 OA
HETATM   23  N1  UNL     1      17.021  11.171  -3.617  1.00  0.00    -0.356 N 
ATOM     24  H1  UNL     1      16.171  11.720  -3.744  1.00  0.00     0.162 HD
BRANCH  23  25
HETATM   25  C2  UNL     1      17.052  10.211  -2.555  1.00  0.00     0.084 C 
HETATM   26  C3  UNL     1      16.755   8.807  -3.023  1.00  0.00     0.025 C 
HETATM   27  C4  UNL     1      16.388   7.883  -1.911  1.00  0.00     0.002 C 
HETATM   28  C5  UNL     1      17.222   8.040  -0.677  1.00  0.00     0.000 C 
HETATM   29  C6  UNL     1      16.581   8.944   0.355  1.00  0.00     0.000 C 
HETATM   30  C7  UNL     1      16.763  10.385  -0.065  1.00  0.00     0.002 C 
HETATM   31  C8  UNL     1      16.172  10.651  -1.430  1.00  0.00     0.025 C 
ENDBRANCH  23  25
ENDBRANCH   1  21
TORSDOF 5
ENDMDL
MODEL 3
REMARK VINA RESULT: -7.912206782      1.261      1.591
REMARK  5 active torsions:
REMARK  status: ('A' for Active; 'I' for Inactive)
REMARK       I    between atoms: C1_2  and  N1_3 
REMARK    1  A    between atoms: C1_2  and  C9_12 
REMARK    2  A    between atoms: N1_3  and  C2_5 
REMARK    3  A    between atoms: N2_15  and  S1_16 
REMARK    4  A    between atoms: S1_16  and  C12_19 
REMARK    5  A    between atoms: N4_24  and  C15_26 
ROOT
HETATM    1  C9  UNL     1      17.472  11.240  -4.095  1.00  0.00     0.080 C 
HETATM    2  C10 UNL     1      16.840  12.199  -5.082  1.00  0.00     0.029 C 
HETATM    3  C11 UNL     1      17.594  13.520  -4.931  1.00  0.00     0.108 C 
HETATM    4  N2  UNL     1      19.009  13.335  -5.243  1.00  0.00    -0.206 NA
HETATM    5  C18 UNL     1      19.292  11.997  -5.656  1.00  0.00     0.108 C 
HETATM    6  C19 UNL     1      18.893  10.986  -4.616  1.00  0.00     0.029 C 
ENDROOT
BRANCH   4   7
HETATM    7  S1  UNL     1      19.401  14.464  -6.471  1.00  0.00     0.251 S 
HETATM    8  O2  UNL     1      18.400  15.576  -6.425  1.00  0.00    -0.205 OA
HETATM    9  O3  UNL     1      19.291  13.781  -7.791  1.00  0.00    -0.205 OA
BRANCH   7  10
HETATM   10  C12 UNL     1      20.995  15.145  -6.213  1.00  0.00     0.134 A 
HETATM   11  C13 UNL     1      21.301  16.259  -5.490  1.00  0.00     0.122 A 
HETATM   12  N3  UNL     1      22.565  16.614  -5.412  1.00  0.00    -0.345 N 
HETATM   13  C14 UNL     1      23.487  15.894  -6.026  1.00  0.00     0.146 A 
ATOM     14  H3  UNL     1      22.832  17.442  -4.879  1.00  0.00     0.167 HD
HETATM   15  N4  UNL     1      24.764  16.017  -6.108  1.00  0.00    -0.366 N 
HETATM   16  S2  UNL     1      22.527  14.638  -6.760  1.00  0.00    -0.040 SA
ATOM     17  H4  UNL     1      25.205  15.286  -6.667  1.00  0.00     0.162 HD
BRANCH  15  18
HETATM   18  C15 UNL     1      25.674  16.944  -5.592  1.00  0.00     0.083 A 
HETATM   19  C16 UNL     1      27.089  17.106  -5.992  1.00  0.00     0.027 A 
HETATM   20  C17 UNL     1      26.736  16.686  -4.601  1.00  0.00     0.027 A 
ENDBRANCH  15  18
ENDBRANCH   7  10
ENDBRANCH   4   7
BRANCH   1  21
HETATM   21  C1  UNL     1      16.720  10.002  -3.930  1.00  0.00     0.222 C 
HETATM   22  O1  UNL     1      16.843   9.332  -2.868  1.00  0.00    -0.273 OA
HETATM   23  N1  UNL     1      15.827   9.471  -4.904  1.00  0.00    -0.356 N 
ATOM     24  H1  UNL     1      15.703   9.987  -5.774  1.00  0.00     0.162 HD
BRANCH  23  25
HETATM   25  C2  UNL     1      15.092   8.254  -4.731  1.00  0.00     0.084 C 
HETATM   26  C3  UNL     1      15.896   7.027  -5.086  1.00  0.00     0.025 C 
HETATM   27  C4  UNL     1      15.053   5.815  -5.301  1.00  0.00     0.002 C 
HETATM   28  C5  UNL     1      13.943   5.652  -4.310  1.00  0.00     0.000 C 
HETATM   29  C6  UNL     1      12.623   6.206  -4.808  1.00  0.00     0.000 C 
HETATM   30  C7  UNL     1      12.639   7.713  -4.685  1.00  0.00     0.002 C 
HETATM   31  C8  UNL     1      13.786   8.327  -5.453  1.00  0.00     0.025 C 
ENDBRANCH  23  25
ENDBRANCH   1  21
TORSDOF 5
ENDMDL
MODEL 4
REMARK VINA RESULT: -7.885952796      1.325      1.512
REMARK  5 active torsions:
REMARK  status: ('A' for Active; 'I' for Inactive)
REMARK       I    between atoms: C1_2  and  N1_3 
REMARK    1  A    between atoms: C1_2  and  C9_12 
REMARK    2  A    between atoms: N1_3  and  C2_5 
REMARK    3  A    between atoms: N2_15  and  S1_16 
REMARK    4  A    between atoms: S1_16  and  C12_19 
REMARK    5  A    between atoms: N4_24  and  C15_26 
ROOT
HETATM    1  C9  UNL     1      16.667  12.886  -5.143  1.00  0.00     0.080 C 
HETATM    2  C10 UNL     1      16.463  13.671  -6.421  1.00  0.00     0.029 C 
HETATM    3  C11 UNL     1      17.129  15.028  -6.196  1.00  0.00     0.108 C 
HETATM    4  N2  UNL     1      18.555  14.855  -5.934  1.00  0.00    -0.206 NA
HETATM    5  C18 UNL     1      18.948  13.484  -6.013  1.00  0.00     0.108 C 
HETATM    6  C19 UNL     1      18.175  12.616  -5.059  1.00  0.00     0.029 C 
ENDROOT
BRANCH   4   7
HETATM    7  S1  UNL     1      19.394  15.813  -7.080  1.00  0.00     0.251 S 
HETATM    8  O2  UNL     1      18.839  17.203  -7.028  1.00  0.00    -0.205 OA
HETATM    9  O3  UNL     1      19.141  15.253  -8.437  1.00  0.00    -0.205 OA
BRANCH   7  10
HETATM   10  C12 UNL     1      21.104  15.888  -6.706  1.00  0.00     0.134 A 
HETATM   11  C13 UNL     1      21.678  16.476  -5.619  1.00  0.00     0.122 A 
HETATM   12  N3  UNL     1      22.988  16.427  -5.513  1.00  0.00    -0.345 N 
HETATM   13  C14 UNL     1      23.699  15.820  -6.448  1.00  0.00     0.146 A 
ATOM     14  H3  UNL     1      23.454  16.856  -4.713  1.00  0.00     0.167 HD
HETATM   15  N4  UNL     1      24.964  15.633  -6.584  1.00  0.00    -0.366 N 
HETATM   16  S2  UNL     1      22.458  15.282  -7.545  1.00  0.00    -0.040 SA
ATOM     17  H4  UNL     1      25.207  15.117  -7.430  1.00  0.00     0.162 HD
BRANCH  15  18
HETATM   18  C15 UNL     1      26.075  15.990  -5.815  1.00  0.00     0.083 A 
HETATM   19  C16 UNL     1      26.155  17.105  -4.847  1.00  0.00     0.027 A 
HETATM   20  C17 UNL     1      27.012  17.100  -6.073  1.00  0.00     0.027 A 
ENDBRANCH  15  18
ENDBRANCH   7  10
ENDBRANCH   4   7
BRANCH   1  21
HETATM   21  C1  UNL     1      15.886  11.656  -5.089  1.00  0.00     0.222 C 
HETATM   22  O1  UNL     1      14.900  11.506  -5.862  1.00  0.00    -0.273 OA
HETATM   23  N1  UNL     1      16.156  10.573  -4.204  1.00  0.00    -0.356 N 
ATOM     24  H1  UNL     1      16.945  10.661  -3.564  1.00  0.00     0.162 HD
BRANCH  23  25
HETATM   25  C2  UNL     1      15.383   9.369  -4.160  1.00  0.00     0.084 C 
HETATM   26  C3  UNL     1      14.405   9.340  -3.010  1.00  0.00     0.025 C 
HETATM   27  C4  UNL     1      13.894   7.971  -2.708  1.00  0.00     0.002 C 
HETATM   28  C5  UNL     1      13.563   7.156  -3.919  1.00  0.00     0.000 C 
HETATM   29  C6  UNL     1      14.694   6.240  -4.340  1.00  0.00     0.000 C 
HETATM   30  C7  UNL     1      15.748   7.052  -5.059  1.00  0.00     0.002 C 
HETATM   31  C8  UNL     1      16.278   8.173  -4.196  1.00  0.00     0.025 C 
ENDBRANCH  23  25
ENDBRANCH   1  21
TORSDOF 5
ENDMDL
MODEL 5
REMARK VINA RESULT: -7.821559977      1.178      1.686
REMARK  5 active torsions:
REMARK  status: ('A' for Active; 'I' for Inactive)
REMARK       I    between atoms: C1_2  and  N1_3 
REMARK    1  A    between atoms: C1_2  and  C9_12 
REMARK    2  A    between atoms: N1_3  and  C2_5 
REMARK    3  A    between atoms: N2_15  and  S1_16 
REMARK    4  A    between atoms: S1_16  and  C12_19 
REMARK    5  A    between atoms: N4_24  and  C15_26 
ROOT
HETATM    1  C9  UNL     1      17.358  11.473  -4.377  1.00  0.00     0.080 C 
HETATM    2  C10 UNL     1      16.815  12.390  -5.453  1.00  0.00     0.029 C 
HETATM    3  C11 UNL     1      17.482  13.748  -5.229  1.00  0.00     0.108 C 
HETATM    4  N2  UNL     1      18.931  13.628  -5.353  1.00  0.00    -0.206 NA
HETATM    5  C18 UNL     1      19.327  12.300  -5.703  1.00  0.00     0.108 C 
HETATM    6  C19 UNL     1      18.844  11.283  -4.707  1.00  0.00     0.029 C 
ENDROOT
BRANCH   4   7
HETATM    7  S1  UNL     1      19.427  14.761  -6.539  1.00  0.00     0.251 S 
HETATM    8  O2  UNL     1      18.655  16.027  -6.331  1.00  0.00    -0.205 OA
HETATM    9  O3  UNL     1      19.087  14.215  -7.883  1.00  0.00    -0.205 OA
BRANCH   7  10
HETATM   10  C12 UNL     1      21.134  15.124  -6.388  1.00  0.00     0.134 A 
HETATM   11  C13 UNL     1      22.168  14.437  -6.950  1.00  0.00     0.122 A 
HETATM   12  N3  UNL     1      23.390  14.867  -6.720  1.00  0.00    -0.345 N 
HETATM   13  C14 UNL     1      23.577  15.934  -5.963  1.00  0.00     0.146 A 
ATOM     14  H3  UNL     1      24.190  14.379  -7.124  1.00  0.00     0.167 HD
HETATM   15  N4  UNL     1      24.642  16.550  -5.589  1.00  0.00    -0.366 N 
HETATM   16  S2  UNL     1      21.941  16.366  -5.546  1.00  0.00    -0.040 SA
ATOM     17  H4  UNL     1      24.453  17.357  -4.995  1.00  0.00     0.162 HD
BRANCH  15  18
HETATM   18  C15 UNL     1      26.003  16.343  -5.827  1.00  0.00     0.083 A 
HETATM   19  C16 UNL     1      27.127  17.076  -5.203  1.00  0.00     0.027 A 
HETATM   20  C17 UNL     1      26.889  17.162  -6.678  1.00  0.00     0.027 A 
ENDBRANCH  15  18
ENDBRANCH   7  10
ENDBRANCH   4   7
BRANCH   1  21
HETATM   21  C1  UNL     1      16.649  10.203  -4.289  1.00  0.00     0.222 C 
HETATM   22  O1  UNL     1      17.190   9.223  -3.705  1.00  0.00    -0.273 OA
HETATM   23  N1  UNL     1      15.351   9.970  -4.827  1.00  0.00    -0.356 N 
ATOM     24  H1  UNL     1      14.885  10.740  -5.306  1.00  0.00     0.162 HD
BRANCH  23  25
HETATM   25  C2  UNL     1      14.664   8.718  -4.735  1.00  0.00     0.084 C 
HETATM   26  C3  UNL     1      14.092   8.262  -6.055  1.00  0.00     0.025 C 
HETATM   27  C4  UNL     1      13.054   7.200  -5.911  1.00  0.00     0.002 C 
HETATM   28  C5  UNL     1      13.385   6.147  -4.900  1.00  0.00     0.000 C 
HETATM   29  C6  UNL     1      12.769   6.418  -3.544  1.00  0.00     0.000 C 
HETATM   30  C7  UNL     1      13.575   7.485  -2.836  1.00  0.00     0.002 C 
HETATM   31  C8  UNL     1      13.646   8.761  -3.641  1.00  0.00     0.025 C 
ENDBRANCH  23  25
ENDBRANCH   1  21
TORSDOF 5
ENDMDL
