MODEL 1
REMARK VINA RESULT: -9.662268198      0.000      0.000
REMARK  13 active torsions:
REMARK  status: ('A' for Active; 'I' for Inactive)
REMARK    1  A    between atoms: N1_2  and  C2_3 
REMARK    2  A    between atoms: N1_2  and  C6_9 
REMARK    3  A    between atoms: C2_3  and  O1_4 
REMARK    4  A    between atoms: C2_3  and  C3_6 
REMARK    5  A    between atoms: C8_14  and  N4_15 
REMARK    6  A    between atoms: N4_15  and  C9_17 
REMARK    7  A    between atoms: C10_20  and  S1_21 
REMARK    8  A    between atoms: S1_21  and  C11_22 
REMARK    9  A    between atoms: C11_22  and  S2_23 
REMARK   10  A    between atoms: S2_23  and  C12_24 
REMARK   11  A    between atoms: C13_27  and  N7_28 
REMARK   12  A    between atoms: C14_38  and  C15_39 
REMARK   13  A    between atoms: C17_44  and  N13_45 
ROOT
HETATM    1  C9  UNL     1      25.510  -4.876   3.700  1.00  0.00     0.156 A 
HETATM    2  N5  UNL     1      24.485  -4.248   3.048  1.00  0.00    -0.319 N 
ATOM      3  H5  UNL     1      24.706  -3.398   2.530  1.00  0.00     0.169 HD
HETATM    4  C10 UNL     1      23.227  -4.660   3.037  1.00  0.00     0.161 A 
HETATM    5  N9  UNL     1      22.938  -5.789   3.724  1.00  0.00    -0.279 N 
ATOM      6  H9  UNL     1      21.981  -6.139   3.739  1.00  0.00     0.189 HD
HETATM    7  N10 UNL     1      23.884  -6.441   4.373  1.00  0.00    -0.291 N 
ATOM      8  H10 UNL     1      23.635  -7.289   4.882  1.00  0.00     0.187 HD
HETATM    9  C14 UNL     1      25.180  -6.023   4.388  1.00  0.00     0.158 A 
ENDROOT
BRANCH   1  10
HETATM   10  N4  UNL     1      26.824  -4.337   3.651  1.00  0.00    -0.174 N 
ATOM     11  H4  UNL     1      27.404  -4.461   2.821  1.00  0.00     0.186 HD
BRANCH  10  12
HETATM   12  C8  UNL     1      27.267  -3.695   4.662  1.00  0.00     0.688 A 
HETATM   13  N3  UNL     1      26.575  -2.660   5.149  1.00  0.00    -0.176 N 
HETATM   14  C7  UNL     1      27.007  -1.936   6.222  1.00  0.00     0.162 A 
ATOM     15  H3  UNL     1      25.695  -2.402   4.703  1.00  0.00     0.185 HD
HETATM   16  C6  UNL     1      28.200  -2.321   6.791  1.00  0.00     0.122 A 
HETATM   17  N2  UNL     1      26.231  -0.856   6.689  1.00  0.00    -0.080 NA
HETATM   18  C17 UNL     1      28.892  -3.387   6.275  1.00  0.00     0.147 A 
HETATM   19  N12 UNL     1      28.427  -4.076   5.210  1.00  0.00    -0.170 N 
HETATM   20  C16 UNL     1      29.189  -5.189   4.702  1.00  0.00     0.177 C 
BRANCH  16  21
HETATM   21  N1  UNL     1      28.689  -1.572   7.934  1.00  0.00    -0.330 N 
HETATM   22  C1  UNL     1      29.710  -0.617   7.628  1.00  0.00     0.158 C 
BRANCH  21  23
HETATM   23  C2  UNL     1      28.141  -1.863   9.172  1.00  0.00     0.122 C 
BRANCH  23  24
HETATM   24  O1  UNL     1      28.069  -3.128   9.506  1.00  0.00    -0.349 OA
ATOM     25  H1  UNL     1      27.484  -3.352  10.220  1.00  0.00     0.219 HD
ENDBRANCH  23  24
BRANCH  23  26
HETATM   26  C3  UNL     1      27.615  -0.955  10.196  1.00  0.00     0.060 A 
HETATM   27  C4  UNL     1      27.773  -1.144  11.664  1.00  0.00     0.013 A 
HETATM   28  C5  UNL     1      28.510  -0.038  10.982  1.00  0.00     0.013 A 
ENDBRANCH  23  26
ENDBRANCH  21  23
ENDBRANCH  16  21
BRANCH  18  29
HETATM   29  N13 UNL     1      30.027  -3.759   6.804  1.00  0.00    -0.383 N 
ATOM     30 2H13 UNL     1      30.621  -3.044   7.224  1.00  0.00     0.157 HD
ATOM     31 1H13 UNL     1      30.304  -4.740   6.799  1.00  0.00     0.157 HD
ENDBRANCH  18  29
ENDBRANCH  10  12
ENDBRANCH   1  10
BRANCH   9  32
HETATM   32  C15 UNL     1      26.198  -6.774   5.098  1.00  0.00     0.286 C 
HETATM   33  N11 UNL     1      26.384  -6.662   6.486  1.00  0.00    -0.056 NA
HETATM   34  O3  UNL     1      26.952  -7.561   4.454  1.00  0.00    -0.269 OA
ENDBRANCH   9  32
BRANCH   4  35
HETATM   35  S1  UNL     1      21.894  -3.853   2.167  1.00  0.00    -0.082 SA
BRANCH  35  36
HETATM   36  C11 UNL     1      21.660  -2.236   3.003  1.00  0.00     0.165 C 
BRANCH  36  37
HETATM   37  S2  UNL     1      22.264  -0.962   1.860  1.00  0.00    -0.073 SA
BRANCH  37  38
HETATM   38  C12 UNL     1      20.858  -0.054   1.266  1.00  0.00     0.224 A 
HETATM   39  N6  UNL     1      19.590  -0.466   1.172  1.00  0.00    -0.161 N 
HETATM   40  C13 UNL     1      18.842   0.534   0.669  1.00  0.00     0.698 A 
ATOM     41  H6  UNL     1      19.245  -1.388   1.438  1.00  0.00     0.187 HD
HETATM   42  N8  UNL     1      19.696   1.554   0.465  1.00  0.00    -0.089 N 
HETATM   43  O2  UNL     1      20.895   1.177   0.830  1.00  0.00    -0.197 OA
ATOM     44  H8  UNL     1      19.450   2.470   0.089  1.00  0.00     0.213 HD
BRANCH  40  45
HETATM   45  N7  UNL     1      17.593   0.525   0.435  1.00  0.00    -0.233 N 
ATOM     46  H72 UNL     1      17.090  -0.110  -0.185  1.00  0.00     0.174 HD
ATOM     47  H71 UNL     1      16.883   1.147   0.822  1.00  0.00     0.174 HD
ENDBRANCH  40  45
ENDBRANCH  37  38
ENDBRANCH  36  37
ENDBRANCH  35  36
ENDBRANCH   4  35
TORSDOF 13
ENDMDL
MODEL 2
REMARK VINA RESULT: -9.196782063      1.333      1.662
REMARK  13 active torsions:
REMARK  status: ('A' for Active; 'I' for Inactive)
REMARK    1  A    between atoms: N1_2  and  C2_3 
REMARK    2  A    between atoms: N1_2  and  C6_9 
REMARK    3  A    between atoms: C2_3  and  O1_4 
REMARK    4  A    between atoms: C2_3  and  C3_6 
REMARK    5  A    between atoms: C8_14  and  N4_15 
REMARK    6  A    between atoms: N4_15  and  C9_17 
REMARK    7  A    between atoms: C10_20  and  S1_21 
REMARK    8  A    between atoms: S1_21  and  C11_22 
REMARK    9  A    between atoms: C11_22  and  S2_23 
REMARK   10  A    between atoms: S2_23  and  C12_24 
REMARK   11  A    between atoms: C13_27  and  N7_28 
REMARK   12  A    between atoms: C14_38  and  C15_39 
REMARK   13  A    between atoms: C17_44  and  N13_45 
ROOT
HETATM    1  C9  UNL     1      25.363  -4.716   3.672  1.00  0.00     0.156 A 
HETATM    2  N5  UNL     1      24.381  -4.016   3.027  1.00  0.00    -0.319 N 
ATOM      3  H5  UNL     1      24.654  -3.169   2.530  1.00  0.00     0.169 HD
HETATM    4  C10 UNL     1      23.102  -4.355   3.000  1.00  0.00     0.161 A 
HETATM    5  N9  UNL     1      22.743  -5.480   3.660  1.00  0.00    -0.279 N 
ATOM      6  H9  UNL     1      21.767  -5.775   3.662  1.00  0.00     0.189 HD
HETATM    7  N10 UNL     1      23.645  -6.199   4.301  1.00  0.00    -0.291 N 
ATOM      8  H10 UNL     1      23.344  -7.042   4.790  1.00  0.00     0.187 HD
HETATM    9  C14 UNL     1      24.964  -5.856   4.333  1.00  0.00     0.158 A 
ENDROOT
BRANCH   1  10
HETATM   10  N4  UNL     1      26.707  -4.252   3.642  1.00  0.00    -0.174 N 
ATOM     11  H4  UNL     1      27.292  -4.412   2.821  1.00  0.00     0.186 HD
BRANCH  10  12
HETATM   12  C8  UNL     1      27.170  -3.634   4.659  1.00  0.00     0.688 A 
HETATM   13  N3  UNL     1      26.518  -2.573   5.146  1.00  0.00    -0.176 N 
HETATM   14  C7  UNL     1      26.972  -1.871   6.225  1.00  0.00     0.162 A 
ATOM     15  H3  UNL     1      25.651  -2.277   4.697  1.00  0.00     0.185 HD
HETATM   16  C6  UNL     1      28.145  -2.308   6.799  1.00  0.00     0.122 A 
HETATM   17  N2  UNL     1      26.238  -0.763   6.692  1.00  0.00    -0.080 NA
HETATM   18  C17 UNL     1      28.796  -3.399   6.283  1.00  0.00     0.147 A 
HETATM   19  N12 UNL     1      28.310  -4.063   5.211  1.00  0.00    -0.170 N 
HETATM   20  C16 UNL     1      29.029  -5.204   4.704  1.00  0.00     0.177 C 
BRANCH  16  21
HETATM   21  N1  UNL     1      28.657  -1.583   7.948  1.00  0.00    -0.330 N 
HETATM   22  C1  UNL     1      29.693  -0.642   7.646  1.00  0.00     0.158 C 
BRANCH  21  23
HETATM   23  C2  UNL     1      28.115  -1.882   9.186  1.00  0.00     0.122 C 
BRANCH  23  24
HETATM   24  O1  UNL     1      28.041  -3.149   9.511  1.00  0.00    -0.349 OA
ATOM     25  H1  UNL     1      28.664  -3.465  10.156  1.00  0.00     0.219 HD
ENDBRANCH  23  24
BRANCH  23  26
HETATM   26  C3  UNL     1      27.597  -0.980  10.220  1.00  0.00     0.060 A 
HETATM   27  C4  UNL     1      27.779  -1.171  11.686  1.00  0.00     0.013 A 
HETATM   28  C5  UNL     1      28.497  -0.058  10.995  1.00  0.00     0.013 A 
ENDBRANCH  23  26
ENDBRANCH  21  23
ENDBRANCH  16  21
BRANCH  18  29
HETATM   29  N13 UNL     1      29.912  -3.818   6.817  1.00  0.00    -0.383 N 
ATOM     30 2H13 UNL     1      30.297  -3.296   7.603  1.00  0.00     0.157 HD
ATOM     31 1H13 UNL     1      30.378  -4.650   6.454  1.00  0.00     0.157 HD
ENDBRANCH  18  29
ENDBRANCH  10  12
ENDBRANCH   1  10
BRANCH   9  32
HETATM   32  C15 UNL     1      25.931  -6.680   5.032  1.00  0.00     0.286 C 
HETATM   33  N11 UNL     1      26.087  -6.637   6.428  1.00  0.00    -0.056 NA
HETATM   34  O3  UNL     1      26.670  -7.469   4.371  1.00  0.00    -0.269 OA
ENDBRANCH   9  32
BRANCH   4  35
HETATM   35  S1  UNL     1      21.824  -3.453   2.141  1.00  0.00    -0.082 SA
BRANCH  35  36
HETATM   36  C11 UNL     1      22.400  -1.712   2.073  1.00  0.00     0.165 C 
BRANCH  36  37
HETATM   37  S2  UNL     1      20.970  -0.706   1.589  1.00  0.00    -0.073 SA
BRANCH  37  38
HETATM   38  C12 UNL     1      21.366   0.994   1.918  1.00  0.00     0.224 A 
HETATM   39  N6  UNL     1      22.335   1.479   2.700  1.00  0.00    -0.161 N 
HETATM   40  C13 UNL     1      22.288   2.824   2.672  1.00  0.00     0.698 A 
ATOM     41  H6  UNL     1      23.003   0.920   3.233  1.00  0.00     0.187 HD
HETATM   42  N8  UNL     1      21.265   3.131   1.853  1.00  0.00    -0.089 N 
HETATM   43  O2  UNL     1      20.730   2.019   1.415  1.00  0.00    -0.197 OA
ATOM     44  H8  UNL     1      20.958   4.073   1.612  1.00  0.00     0.213 HD
BRANCH  40  45
HETATM   45  N7  UNL     1      23.046   3.639   3.286  1.00  0.00    -0.233 N 
ATOM     46  H72 UNL     1      23.728   4.274   2.869  1.00  0.00     0.174 HD
ATOM     47  H71 UNL     1      23.104   3.797   4.292  1.00  0.00     0.174 HD
ENDBRANCH  40  45
ENDBRANCH  37  38
ENDBRANCH  36  37
ENDBRANCH  35  36
ENDBRANCH   4  35
TORSDOF 13
ENDMDL
MODEL 3
REMARK VINA RESULT: -8.906507134      0.800      1.756
REMARK  13 active torsions:
REMARK  status: ('A' for Active; 'I' for Inactive)
REMARK    1  A    between atoms: N1_2  and  C2_3 
REMARK    2  A    between atoms: N1_2  and  C6_9 
REMARK    3  A    between atoms: C2_3  and  O1_4 
REMARK    4  A    between atoms: C2_3  and  C3_6 
REMARK    5  A    between atoms: C8_14  and  N4_15 
REMARK    6  A    between atoms: N4_15  and  C9_17 
REMARK    7  A    between atoms: C10_20  and  S1_21 
REMARK    8  A    between atoms: S1_21  and  C11_22 
REMARK    9  A    between atoms: C11_22  and  S2_23 
REMARK   10  A    between atoms: S2_23  and  C12_24 
REMARK   11  A    between atoms: C13_27  and  N7_28 
REMARK   12  A    between atoms: C14_38  and  C15_39 
REMARK   13  A    between atoms: C17_44  and  N13_45 
ROOT
HETATM    1  C9  UNL     1      25.501  -4.898   3.651  1.00  0.00     0.156 A 
HETATM    2  N5  UNL     1      24.318  -4.387   3.196  1.00  0.00    -0.319 N 
ATOM      3  H5  UNL     1      24.337  -3.460   2.771  1.00  0.00     0.169 HD
HETATM    4  C10 UNL     1      23.149  -5.004   3.264  1.00  0.00     0.161 A 
HETATM    5  N9  UNL     1      23.128  -6.233   3.826  1.00  0.00    -0.279 N 
ATOM      6  H9  UNL     1      22.246  -6.742   3.896  1.00  0.00     0.189 HD
HETATM    7  N10 UNL     1      24.237  -6.782   4.285  1.00  0.00    -0.291 N 
ATOM      8  H10 UNL     1      24.189  -7.710   4.704  1.00  0.00     0.187 HD
HETATM    9  C14 UNL     1      25.444  -6.153   4.218  1.00  0.00     0.158 A 
ENDROOT
BRANCH   1  10
HETATM   10  N4  UNL     1      26.699  -4.141   3.535  1.00  0.00    -0.174 N 
ATOM     11  H4  UNL     1      27.188  -4.080   2.642  1.00  0.00     0.186 HD
BRANCH  10  12
HETATM   12  C8  UNL     1      27.151  -3.538   4.566  1.00  0.00     0.688 A 
HETATM   13  N3  UNL     1      28.160  -4.075   5.262  1.00  0.00    -0.176 N 
HETATM   14  C7  UNL     1      28.676  -3.477   6.374  1.00  0.00     0.162 A 
ATOM     15  H3  UNL     1      28.556  -4.961   4.950  1.00  0.00     0.185 HD
HETATM   16  C6  UNL     1      28.109  -2.282   6.755  1.00  0.00     0.122 A 
HETATM   17  N2  UNL     1      29.740  -4.093   7.063  1.00  0.00    -0.080 NA
HETATM   18  C17 UNL     1      27.077  -1.750   6.026  1.00  0.00     0.147 A 
HETATM   19  N12 UNL     1      26.596  -2.377   4.930  1.00  0.00    -0.170 N 
HETATM   20  C16 UNL     1      25.509  -1.780   4.196  1.00  0.00     0.177 C 
BRANCH  16  21
HETATM   21  N1  UNL     1      28.634  -1.619   7.936  1.00  0.00    -0.330 N 
HETATM   22  C1  UNL     1      29.729  -0.733   7.684  1.00  0.00     0.158 C 
BRANCH  21  23
HETATM   23  C2  UNL     1      28.043  -1.917   9.152  1.00  0.00     0.122 C 
BRANCH  23  24
HETATM   24  O1  UNL     1      27.886  -3.186   9.440  1.00  0.00    -0.349 OA
ATOM     25  H1  UNL     1      28.565  -3.596   9.963  1.00  0.00     0.219 HD
ENDBRANCH  23  24
BRANCH  23  26
HETATM   26  C3  UNL     1      27.554  -1.013  10.198  1.00  0.00     0.060 A 
HETATM   27  C4  UNL     1      27.734  -1.228  11.661  1.00  0.00     0.013 A 
HETATM   28  C5  UNL     1      28.482  -0.128  10.982  1.00  0.00     0.013 A 
ENDBRANCH  23  26
ENDBRANCH  21  23
ENDBRANCH  16  21
BRANCH  18  29
HETATM   29  N13 UNL     1      26.528  -0.619   6.382  1.00  0.00    -0.383 N 
ATOM     30 2H13 UNL     1      25.946  -0.130   5.703  1.00  0.00     0.157 HD
ATOM     31 1H13 UNL     1      26.679  -0.243   7.318  1.00  0.00     0.157 HD
ENDBRANCH  18  29
ENDBRANCH  10  12
ENDBRANCH   1  10
BRANCH   9  32
HETATM   32  C15 UNL     1      26.647  -6.792   4.716  1.00  0.00     0.286 C 
HETATM   33  N11 UNL     1      27.583  -7.401   3.863  1.00  0.00    -0.056 NA
HETATM   34  O3  UNL     1      26.871  -6.810   5.962  1.00  0.00    -0.269 OA
ENDBRANCH   9  32
BRANCH   4  35
HETATM   35  S1  UNL     1      21.608  -4.345   2.648  1.00  0.00    -0.082 SA
BRANCH  35  36
HETATM   36  C11 UNL     1      21.533  -2.611   3.243  1.00  0.00     0.165 C 
BRANCH  36  37
HETATM   37  S2  UNL     1      22.235  -1.575   1.930  1.00  0.00    -0.073 SA
BRANCH  37  38
HETATM   38  C12 UNL     1      20.949  -0.506   1.334  1.00  0.00     0.224 A 
HETATM   39  N6  UNL     1      19.644  -0.772   1.217  1.00  0.00    -0.161 N 
HETATM   40  C13 UNL     1      19.019   0.313   0.722  1.00  0.00     0.698 A 
ATOM     41  H6  UNL     1      19.194  -1.654   1.463  1.00  0.00     0.187 HD
HETATM   42  N8  UNL     1      19.985   1.234   0.546  1.00  0.00    -0.089 N 
HETATM   43  O2  UNL     1      21.129   0.720   0.919  1.00  0.00    -0.197 OA
ATOM     44  H8  UNL     1      19.847   2.178   0.182  1.00  0.00     0.213 HD
BRANCH  40  45
HETATM   45  N7  UNL     1      17.781   0.448   0.472  1.00  0.00    -0.233 N 
ATOM     46  H72 UNL     1      17.243   1.315   0.486  1.00  0.00     0.174 HD
ATOM     47  H71 UNL     1      17.115  -0.282   0.217  1.00  0.00     0.174 HD
ENDBRANCH  40  45
ENDBRANCH  37  38
ENDBRANCH  36  37
ENDBRANCH  35  36
ENDBRANCH   4  35
TORSDOF 13
ENDMDL
MODEL 4
REMARK VINA RESULT: -8.902757299      2.521      3.939
REMARK  13 active torsions:
REMARK  status: ('A' for Active; 'I' for Inactive)
REMARK    1  A    between atoms: N1_2  and  C2_3 
REMARK    2  A    between atoms: N1_2  and  C6_9 
REMARK    3  A    between atoms: C2_3  and  O1_4 
REMARK    4  A    between atoms: C2_3  and  C3_6 
REMARK    5  A    between atoms: C8_14  and  N4_15 
REMARK    6  A    between atoms: N4_15  and  C9_17 
REMARK    7  A    between atoms: C10_20  and  S1_21 
REMARK    8  A    between atoms: S1_21  and  C11_22 
REMARK    9  A    between atoms: C11_22  and  S2_23 
REMARK   10  A    between atoms: S2_23  and  C12_24 
REMARK   11  A    between atoms: C13_27  and  N7_28 
REMARK   12  A    between atoms: C14_38  and  C15_39 
REMARK   13  A    between atoms: C17_44  and  N13_45 
ROOT
HETATM    1  C9  UNL     1      23.445  -4.210   3.032  1.00  0.00     0.156 A 
HETATM    2  N5  UNL     1      23.362  -2.920   2.588  1.00  0.00    -0.319 N 
ATOM      3  H5  UNL     1      24.228  -2.463   2.303  1.00  0.00     0.169 HD
HETATM    4  C10 UNL     1      22.243  -2.219   2.499  1.00  0.00     0.161 A 
HETATM    5  N9  UNL     1      21.097  -2.829   2.876  1.00  0.00    -0.279 N 
ATOM      6  H9  UNL     1      20.214  -2.322   2.821  1.00  0.00     0.189 HD
HETATM    7  N10 UNL     1      21.111  -4.073   3.313  1.00  0.00    -0.291 N 
ATOM      8  H10 UNL     1      20.230  -4.507   3.591  1.00  0.00     0.187 HD
HETATM    9  C14 UNL     1      22.259  -4.801   3.407  1.00  0.00     0.158 A 
ENDROOT
BRANCH   1  10
HETATM   10  N4  UNL     1      24.705  -4.865   3.095  1.00  0.00    -0.174 N 
ATOM     11  H4  UNL     1      24.945  -5.593   2.422  1.00  0.00     0.186 HD
BRANCH  10  12
HETATM   12  C8  UNL     1      25.533  -4.526   4.007  1.00  0.00     0.688 A 
HETATM   13  N3  UNL     1      25.893  -3.245   4.137  1.00  0.00    -0.176 N 
HETATM   14  C7  UNL     1      26.778  -2.830   5.089  1.00  0.00     0.162 A 
ATOM     15  H3  UNL     1      25.492  -2.553   3.503  1.00  0.00     0.185 HD
HETATM   16  C6  UNL     1      27.292  -3.799   5.921  1.00  0.00     0.122 A 
HETATM   17  N2  UNL     1      27.116  -1.465   5.175  1.00  0.00    -0.080 NA
HETATM   18  C17 UNL     1      26.908  -5.106   5.770  1.00  0.00     0.147 A 
HETATM   19  N12 UNL     1      26.028  -5.472   4.812  1.00  0.00    -0.170 N 
HETATM   20  C16 UNL     1      25.654  -6.859   4.691  1.00  0.00     0.177 C 
BRANCH  16  21
HETATM   21  N1  UNL     1      28.238  -3.393   6.944  1.00  0.00    -0.330 N 
HETATM   22  C1  UNL     1      27.663  -3.181   8.238  1.00  0.00     0.158 C 
BRANCH  21  23
HETATM   23  C2  UNL     1      29.562  -3.243   6.568  1.00  0.00     0.122 C 
BRANCH  23  24
HETATM   24  O1  UNL     1      30.017  -2.018   6.476  1.00  0.00    -0.349 OA
ATOM     25  H1  UNL     1      30.908  -1.866   6.771  1.00  0.00     0.219 HD
ENDBRANCH  23  24
BRANCH  23  26
HETATM   26  C3  UNL     1      30.563  -4.266   6.250  1.00  0.00     0.060 A 
HETATM   27  C4  UNL     1      30.563  -5.102   5.017  1.00  0.00     0.013 A 
HETATM   28  C5  UNL     1      31.611  -4.052   5.193  1.00  0.00     0.013 A 
ENDBRANCH  23  26
ENDBRANCH  21  23
ENDBRANCH  16  21
BRANCH  18  29
HETATM   29  N13 UNL     1      27.393  -6.034   6.551  1.00  0.00    -0.383 N 
ATOM     30 2H13 UNL     1      28.370  -6.302   6.435  1.00  0.00     0.157 HD
ATOM     31 1H13 UNL     1      26.805  -6.472   7.261  1.00  0.00     0.157 HD
ENDBRANCH  18  29
ENDBRANCH  10  12
ENDBRANCH   1  10
BRANCH   9  32
HETATM   32  C15 UNL     1      22.235  -6.174   3.875  1.00  0.00     0.286 C 
HETATM   33  N11 UNL     1      22.481  -7.264   3.023  1.00  0.00    -0.056 NA
HETATM   34  O3  UNL     1      21.983  -6.411   5.094  1.00  0.00    -0.269 OA
ENDBRANCH   9  32
BRANCH   4  35
HETATM   35  S1  UNL     1      22.133  -0.542   1.898  1.00  0.00    -0.082 SA
BRANCH  35  36
HETATM   36  C11 UNL     1      20.347  -0.229   1.616  1.00  0.00     0.165 C 
BRANCH  36  37
HETATM   37  S2  UNL     1      20.185   1.524   1.176  1.00  0.00    -0.073 SA
BRANCH  37  38
HETATM   38  C12 UNL     1      20.378   2.477   2.662  1.00  0.00     0.224 A 
HETATM   39  N6  UNL     1      19.428   2.882   3.512  1.00  0.00    -0.161 N 
HETATM   40  C13 UNL     1      20.003   3.581   4.508  1.00  0.00     0.698 A 
ATOM     41  H6  UNL     1      18.430   2.692   3.420  1.00  0.00     0.187 HD
HETATM   42  N8  UNL     1      21.320   3.584   4.233  1.00  0.00    -0.089 N 
HETATM   43  O2  UNL     1      21.518   2.917   3.124  1.00  0.00    -0.197 OA
ATOM     44  H8  UNL     1      22.044   4.031   4.795  1.00  0.00     0.213 HD
BRANCH  40  45
HETATM   45  N7  UNL     1      19.430   4.126   5.503  1.00  0.00    -0.233 N 
ATOM     46  H72 UNL     1      18.911   3.655   6.245  1.00  0.00     0.174 HD
ATOM     47  H71 UNL     1      19.389   5.119   5.730  1.00  0.00     0.174 HD
ENDBRANCH  40  45
ENDBRANCH  37  38
ENDBRANCH  36  37
ENDBRANCH  35  36
ENDBRANCH   4  35
TORSDOF 13
ENDMDL
MODEL 5
REMARK VINA RESULT: -8.889382817      2.300      3.059
REMARK  13 active torsions:
REMARK  status: ('A' for Active; 'I' for Inactive)
REMARK    1  A    between atoms: N1_2  and  C2_3 
REMARK    2  A    between atoms: N1_2  and  C6_9 
REMARK    3  A    between atoms: C2_3  and  O1_4 
REMARK    4  A    between atoms: C2_3  and  C3_6 
REMARK    5  A    between atoms: C8_14  and  N4_15 
REMARK    6  A    between atoms: N4_15  and  C9_17 
REMARK    7  A    between atoms: C10_20  and  S1_21 
REMARK    8  A    between atoms: S1_21  and  C11_22 
REMARK    9  A    between atoms: C11_22  and  S2_23 
REMARK   10  A    between atoms: S2_23  and  C12_24 
REMARK   11  A    between atoms: C13_27  and  N7_28 
REMARK   12  A    between atoms: C14_38  and  C15_39 
REMARK   13  A    between atoms: C17_44  and  N13_45 
ROOT
HETATM    1  C9  UNL     1      23.641  -4.256   3.093  1.00  0.00     0.156 A 
HETATM    2  N5  UNL     1      23.455  -2.996   2.596  1.00  0.00    -0.319 N 
ATOM      3  H5  UNL     1      24.285  -2.467   2.329  1.00  0.00     0.169 HD
HETATM    4  C10 UNL     1      22.279  -2.410   2.435  1.00  0.00     0.161 A 
HETATM    5  N9  UNL     1      21.181  -3.115   2.788  1.00  0.00    -0.279 N 
ATOM      6  H9  UNL     1      20.256  -2.698   2.678  1.00  0.00     0.189 HD
HETATM    7  N10 UNL     1      21.294  -4.337   3.274  1.00  0.00    -0.291 N 
ATOM      8  H10 UNL     1      20.447  -4.843   3.532  1.00  0.00     0.187 HD
HETATM    9  C14 UNL     1      22.501  -4.946   3.443  1.00  0.00     0.158 A 
ENDROOT
BRANCH   1  10
HETATM   10  N4  UNL     1      24.954  -4.783   3.233  1.00  0.00    -0.174 N 
ATOM     11  H4  UNL     1      25.262  -5.565   2.655  1.00  0.00     0.186 HD
BRANCH  10  12
HETATM   12  C8  UNL     1      25.741  -4.261   4.092  1.00  0.00     0.688 A 
HETATM   13  N3  UNL     1      25.907  -2.934   4.124  1.00  0.00    -0.176 N 
HETATM   14  C7  UNL     1      26.741  -2.326   5.016  1.00  0.00     0.162 A 
ATOM     15  H3  UNL     1      25.393  -2.357   3.458  1.00  0.00     0.185 HD
HETATM   16  C6  UNL     1      27.413  -3.145   5.895  1.00  0.00     0.122 A 
HETATM   17  N2  UNL     1      26.872  -0.923   4.999  1.00  0.00    -0.080 NA
HETATM   18  C17 UNL     1      27.226  -4.503   5.845  1.00  0.00     0.147 A 
HETATM   19  N12 UNL     1      26.390  -5.063   4.943  1.00  0.00    -0.170 N 
HETATM   20  C16 UNL     1      26.226  -6.495   4.928  1.00  0.00     0.177 C 
BRANCH  16  21
HETATM   21  N1  UNL     1      28.310  -2.531   6.857  1.00  0.00    -0.330 N 
HETATM   22  C1  UNL     1      29.688  -2.529   6.471  1.00  0.00     0.158 C 
BRANCH  21  23
HETATM   23  C2  UNL     1      27.753  -2.038   8.025  1.00  0.00     0.122 C 
BRANCH  23  24
HETATM   24  O1  UNL     1      27.377  -0.783   8.018  1.00  0.00    -0.349 OA
ATOM     25  H1  UNL     1      27.687  -0.237   8.731  1.00  0.00     0.219 HD
ENDBRANCH  23  24
BRANCH  23  26
HETATM   26  C3  UNL     1      27.511  -2.716   9.302  1.00  0.00     0.060 A 
HETATM   27  C4  UNL     1      27.290  -2.028  10.604  1.00  0.00     0.013 A 
HETATM   28  C5  UNL     1      26.152  -2.738   9.946  1.00  0.00     0.013 A 
ENDBRANCH  23  26
ENDBRANCH  21  23
ENDBRANCH  16  21
BRANCH  18  29
HETATM   29  N13 UNL     1      27.862  -5.290   6.671  1.00  0.00    -0.383 N 
ATOM     30 2H13 UNL     1      27.716  -5.160   7.672  1.00  0.00     0.157 HD
ATOM     31 1H13 UNL     1      28.483  -6.018   6.318  1.00  0.00     0.157 HD
ENDBRANCH  18  29
ENDBRANCH  10  12
ENDBRANCH   1  10
BRANCH   9  32
HETATM   32  C15 UNL     1      22.587  -6.297   3.963  1.00  0.00     0.286 C 
HETATM   33  N11 UNL     1      23.123  -7.359   3.214  1.00  0.00    -0.056 NA
HETATM   34  O3  UNL     1      22.167  -6.542   5.132  1.00  0.00    -0.269 OA
ENDBRANCH   9  32
BRANCH   4  35
HETATM   35  S1  UNL     1      22.036  -0.774   1.765  1.00  0.00    -0.082 SA
BRANCH  35  36
HETATM   36  C11 UNL     1      20.223  -0.583   1.558  1.00  0.00     0.165 C 
BRANCH  36  37
HETATM   37  S2  UNL     1      19.937   1.112   0.977  1.00  0.00    -0.073 SA
BRANCH  37  38
HETATM   38  C12 UNL     1      20.896   2.205   1.996  1.00  0.00     0.224 A 
HETATM   39  N6  UNL     1      20.590   2.688   3.204  1.00  0.00    -0.161 N 
HETATM   40  C13 UNL     1      21.593   3.482   3.624  1.00  0.00     0.698 A 
ATOM     41  H6  UNL     1      19.735   2.488   3.723  1.00  0.00     0.187 HD
HETATM   42  N8  UNL     1      22.506   3.462   2.636  1.00  0.00    -0.089 N 
HETATM   43  O2  UNL     1      22.066   2.691   1.674  1.00  0.00    -0.197 OA
ATOM     44  H8  UNL     1      23.394   3.963   2.637  1.00  0.00     0.213 HD
BRANCH  40  45
HETATM   45  N7  UNL     1      21.668   4.119   4.721  1.00  0.00    -0.233 N 
ATOM     46  H72 UNL     1      21.113   3.960   5.562  1.00  0.00     0.174 HD
ATOM     47  H71 UNL     1      22.292   4.894   4.948  1.00  0.00     0.174 HD
ENDBRANCH  40  45
ENDBRANCH  37  38
ENDBRANCH  36  37
ENDBRANCH  35  36
ENDBRANCH   4  35
TORSDOF 13
ENDMDL
