MODEL 1
REMARK VINA RESULT: -9.494424080      0.000      0.000
REMARK  11 active torsions:
REMARK  status: ('A' for Active; 'I' for Inactive)
REMARK    1  A    between atoms: N1_1  and  C1_4 
REMARK    2  A    between atoms: N5_17  and  C6_18 
REMARK    3  A    between atoms: C6_18  and  C7_19 
REMARK    4  A    between atoms: C7_19  and  C8_20 
REMARK    5  A    between atoms: C8_20  and  C9_21 
REMARK    6  A    between atoms: C9_21  and  N6_22 
REMARK    7  A    between atoms: C9_21  and  C16_36 
REMARK    8  A    between atoms: N6_22  and  C10_24 
REMARK    9  A    between atoms: C13_27  and  N7_28 
REMARK   10  A    between atoms: C15_32  and  N8_33 
REMARK   11  A    between atoms: N12_46  and  N13_47 
ROOT
HETATM    1  C7  UNL     1      26.481  -5.899   5.999  1.00  0.00     0.023 C 
ENDROOT
BRANCH   1   2
HETATM    2  C6  UNL     1      26.077  -6.373   4.628  1.00  0.00     0.149 C 
BRANCH   2   3
HETATM    3  N5  UNL     1      24.788  -5.896   4.186  1.00  0.00    -0.167 N 
HETATM    4  C2  UNL     1      24.575  -4.582   3.958  1.00  0.00     0.160 A 
HETATM    5  N2  UNL     1      25.576  -3.700   4.064  1.00  0.00    -0.173 N 
HETATM    6  C3  UNL     1      23.291  -4.180   3.593  1.00  0.00     0.148 A 
HETATM    7  C1  UNL     1      25.299  -2.396   3.804  1.00  0.00     0.701 A 
ATOM      8  H2  UNL     1      26.514  -3.996   4.330  1.00  0.00     0.186 HD
HETATM    9  N12 UNL     1      24.070  -1.986   3.452  1.00  0.00    -0.054 N 
HETATM   10  C18 UNL     1      23.052  -2.833   3.337  1.00  0.00     0.301 A 
HETATM   11  O6  UNL     1      21.884  -2.505   3.011  1.00  0.00    -0.264 OA
HETATM   12  C4  UNL     1      22.302  -5.107   3.475  1.00  0.00     0.279 A 
HETATM   13  O1  UNL     1      21.156  -4.701   3.144  1.00  0.00    -0.266 OA
HETATM   14  N3  UNL     1      22.581  -6.393   3.714  1.00  0.00    -0.155 N 
HETATM   15  C5  UNL     1      23.789  -6.829   4.065  1.00  0.00     0.682 A 
ATOM     16  H3  UNL     1      21.829  -7.076   3.622  1.00  0.00     0.187 HD
HETATM   17  N4  UNL     1      24.097  -8.054   4.296  1.00  0.00    -0.234 N 
ATOM     18  H42 UNL     1      23.354  -8.747   4.206  1.00  0.00     0.174 HD
ATOM     19  H41 UNL     1      25.022  -8.388   4.565  1.00  0.00     0.174 HD
BRANCH   7  20
HETATM   20  N1  UNL     1      26.250  -1.537   3.902  1.00  0.00    -0.233 N 
ATOM     21  H12 UNL     1      27.213  -1.861   3.993  1.00  0.00     0.174 HD
ATOM     22  H11 UNL     1      26.013  -0.545   3.885  1.00  0.00     0.174 HD
ENDBRANCH   7  20
BRANCH   9  23
HETATM   23  N13 UNL     1      23.840  -0.614   3.193  1.00  0.00    -0.321 N 
ATOM     24 2H13 UNL     1      24.632  -0.031   2.921  1.00  0.00     0.178 HD
ATOM     25 1H13 UNL     1      22.897  -0.237   3.284  1.00  0.00     0.178 HD
ENDBRANCH   9  23
ENDBRANCH   2   3
ENDBRANCH   1   2
BRANCH   1  26
HETATM   26  C8  UNL     1      27.824  -6.297   6.465  1.00  0.00     0.034 C 
BRANCH  26  27
HETATM   27  C9  UNL     1      28.646  -5.135   6.990  1.00  0.00     0.151 C 
BRANCH  27  28
HETATM   28  N6  UNL     1      27.842  -3.906   6.933  1.00  0.00    -0.376 N 
ATOM     29  H6  UNL     1      27.307  -3.727   6.083  1.00  0.00     0.160 HD
BRANCH  28  30
HETATM   30  C10 UNL     1      27.762  -2.967   7.961  1.00  0.00     0.062 A 
HETATM   31  C11 UNL     1      26.998  -3.279   9.101  1.00  0.00     0.034 A 
HETATM   32  C12 UNL     1      26.886  -2.405  10.169  1.00  0.00     0.038 A 
HETATM   33  C13 UNL     1      27.526  -1.207  10.126  1.00  0.00     0.105 A 
HETATM   34  C14 UNL     1      28.276  -0.868   9.036  1.00  0.00     0.074 A 
HETATM   35  C15 UNL     1      28.394  -1.766   7.932  1.00  0.00     0.131 A 
BRANCH  33  36
HETATM   36  N7  UNL     1      27.442  -0.262  11.213  1.00  0.00    -0.116 N 
HETATM   37  O2  UNL     1      27.654  -0.622  12.389  1.00  0.00    -0.532 OA
HETATM   38  O3  UNL     1      27.127   1.052  10.985  1.00  0.00    -0.532 OA
ENDBRANCH  33  36
BRANCH  35  39
HETATM   39  N8  UNL     1      29.188  -1.326   6.869  1.00  0.00    -0.113 N 
HETATM   40  O4  UNL     1      28.614  -0.817   5.855  1.00  0.00    -0.532 OA
HETATM   41  O5  UNL     1      30.524  -1.391   6.822  1.00  0.00    -0.532 OA
ENDBRANCH  35  39
ENDBRANCH  28  30
ENDBRANCH  27  28
BRANCH  27  42
HETATM   42  C16 UNL     1      29.837  -4.905   6.140  1.00  0.00     0.120 A 
HETATM   43  N9  UNL     1      31.018  -4.372   6.496  1.00  0.00    -0.338 N 
HETATM   44  C17 UNL     1      31.837  -4.303   5.436  1.00  0.00     0.198 A 
ATOM     45  H9  UNL     1      31.257  -4.064   7.438  1.00  0.00     0.168 HD
HETATM   46  N10 UNL     1      31.145  -4.805   4.403  1.00  0.00    -0.295 N 
HETATM   47  N11 UNL     1      29.940  -5.167   4.829  1.00  0.00    -0.286 N 
ATOM     48  H10 UNL     1      31.488  -4.894   3.447  1.00  0.00     0.187 HD
ATOM     49  H11 UNL     1      29.209  -5.580   4.250  1.00  0.00     0.188 HD
ENDBRANCH  27  42
ENDBRANCH  26  27
ENDBRANCH   1  26
TORSDOF 11
ENDMDL
MODEL 2
REMARK VINA RESULT: -8.876814330      3.867      6.953
REMARK  11 active torsions:
REMARK  status: ('A' for Active; 'I' for Inactive)
REMARK    1  A    between atoms: N1_1  and  C1_4 
REMARK    2  A    between atoms: N5_17  and  C6_18 
REMARK    3  A    between atoms: C6_18  and  C7_19 
REMARK    4  A    between atoms: C7_19  and  C8_20 
REMARK    5  A    between atoms: C8_20  and  C9_21 
REMARK    6  A    between atoms: C9_21  and  N6_22 
REMARK    7  A    between atoms: C9_21  and  C16_36 
REMARK    8  A    between atoms: N6_22  and  C10_24 
REMARK    9  A    between atoms: C13_27  and  N7_28 
REMARK   10  A    between atoms: C15_32  and  N8_33 
REMARK   11  A    between atoms: N12_46  and  N13_47 
ROOT
HETATM    1  C7  UNL     1      22.386  -1.690   2.631  1.00  0.00     0.023 C 
ENDROOT
BRANCH   1   2
HETATM    2  C6  UNL     1      22.251  -0.689   1.513  1.00  0.00     0.149 C 
BRANCH   2   3
HETATM    3  N5  UNL     1      21.152   0.235   1.667  1.00  0.00    -0.167 N 
HETATM    4  C2  UNL     1      21.319   1.411   2.308  1.00  0.00     0.160 A 
HETATM    5  N2  UNL     1      22.527   1.783   2.748  1.00  0.00    -0.173 N 
HETATM    6  C3  UNL     1      20.203   2.230   2.477  1.00  0.00     0.148 A 
HETATM    7  C1  UNL     1      22.630   2.987   3.369  1.00  0.00     0.701 A 
ATOM      8  H2  UNL     1      23.342   1.184   2.623  1.00  0.00     0.186 HD
HETATM    9  N12 UNL     1      21.569   3.791   3.544  1.00  0.00    -0.054 N 
HETATM   10  C18 UNL     1      20.355   3.455   3.119  1.00  0.00     0.301 A 
HETATM   11  O6  UNL     1      19.329   4.168   3.255  1.00  0.00    -0.264 OA
HETATM   12  C4  UNL     1      18.994   1.829   1.997  1.00  0.00     0.279 A 
HETATM   13  O1  UNL     1      18.012   2.599   2.172  1.00  0.00    -0.266 OA
HETATM   14  N3  UNL     1      18.898   0.652   1.371  1.00  0.00    -0.155 N 
HETATM   15  C5  UNL     1      19.931  -0.166   1.183  1.00  0.00     0.682 A 
ATOM     16  H3  UNL     1      17.985   0.365   1.018  1.00  0.00     0.187 HD
HETATM   17  N4  UNL     1      19.881  -1.300   0.583  1.00  0.00    -0.234 N 
ATOM     18  H42 UNL     1      18.974  -1.597   0.223  1.00  0.00     0.174 HD
ATOM     19  H41 UNL     1      20.672  -1.926   0.439  1.00  0.00     0.174 HD
BRANCH   7  20
HETATM   20  N1  UNL     1      23.784   3.357   3.798  1.00  0.00    -0.233 N 
ATOM     21  H12 UNL     1      24.572   2.713   3.742  1.00  0.00     0.174 HD
ATOM     22  H11 UNL     1      23.879   4.296   4.186  1.00  0.00     0.174 HD
ENDBRANCH   7  20
BRANCH   9  23
HETATM   23  N13 UNL     1      21.737   5.034   4.197  1.00  0.00    -0.321 N 
ATOM     24 2H13 UNL     1      22.685   5.359   4.391  1.00  0.00     0.178 HD
ATOM     25 1H13 UNL     1      20.916   5.578   4.461  1.00  0.00     0.178 HD
ENDBRANCH   9  23
ENDBRANCH   2   3
ENDBRANCH   1   2
BRANCH   1  26
HETATM   26  C8  UNL     1      22.391  -3.113   2.242  1.00  0.00     0.034 C 
BRANCH  26  27
HETATM   27  C9  UNL     1      23.181  -3.992   3.194  1.00  0.00     0.151 C 
BRANCH  27  28
HETATM   28  N6  UNL     1      24.619  -3.782   2.968  1.00  0.00    -0.376 N 
ATOM     29  H6  UNL     1      24.941  -3.694   2.004  1.00  0.00     0.160 HD
BRANCH  28  30
HETATM   30  C10 UNL     1      25.573  -3.695   3.982  1.00  0.00     0.062 A 
HETATM   31  C11 UNL     1      26.040  -2.423   4.361  1.00  0.00     0.034 A 
HETATM   32  C12 UNL     1      26.972  -2.257   5.371  1.00  0.00     0.038 A 
HETATM   33  C13 UNL     1      27.459  -3.346   6.021  1.00  0.00     0.105 A 
HETATM   34  C14 UNL     1      27.030  -4.597   5.680  1.00  0.00     0.074 A 
HETATM   35  C15 UNL     1      26.069  -4.774   4.640  1.00  0.00     0.131 A 
BRANCH  33  36
HETATM   36  N7  UNL     1      28.431  -3.227   7.081  1.00  0.00    -0.116 N 
HETATM   37  O2  UNL     1      29.394  -2.439   6.977  1.00  0.00    -0.532 OA
HETATM   38  O3  UNL     1      28.325  -3.973   8.225  1.00  0.00    -0.532 OA
ENDBRANCH  33  36
BRANCH  35  39
HETATM   39  N8  UNL     1      25.694  -6.094   4.372  1.00  0.00    -0.113 N 
HETATM   40  O4  UNL     1      25.966  -6.581   3.229  1.00  0.00    -0.532 OA
HETATM   41  O5  UNL     1      25.064  -6.908   5.228  1.00  0.00    -0.532 OA
ENDBRANCH  35  39
ENDBRANCH  28  30
ENDBRANCH  27  28
BRANCH  27  42
HETATM   42  C16 UNL     1      22.915  -5.425   2.933  1.00  0.00     0.120 A 
HETATM   43  N9  UNL     1      22.252  -6.299   3.709  1.00  0.00    -0.338 N 
HETATM   44  C17 UNL     1      22.243  -7.515   3.142  1.00  0.00     0.198 A 
ATOM     45  H9  UNL     1      21.817  -6.071   4.602  1.00  0.00     0.168 HD
HETATM   46  N10 UNL     1      22.917  -7.387   1.989  1.00  0.00    -0.295 N 
HETATM   47  N11 UNL     1      23.320  -6.127   1.864  1.00  0.00    -0.286 N 
ATOM     48  H10 UNL     1      23.090  -8.134   1.317  1.00  0.00     0.187 HD
ATOM     49  H11 UNL     1      23.854  -5.753   1.080  1.00  0.00     0.188 HD
ENDBRANCH  27  42
ENDBRANCH  26  27
ENDBRANCH   1  26
TORSDOF 11
ENDMDL
MODEL 3
REMARK VINA RESULT: -8.768708164      0.683      2.707
REMARK  11 active torsions:
REMARK  status: ('A' for Active; 'I' for Inactive)
REMARK    1  A    between atoms: N1_1  and  C1_4 
REMARK    2  A    between atoms: N5_17  and  C6_18 
REMARK    3  A    between atoms: C6_18  and  C7_19 
REMARK    4  A    between atoms: C7_19  and  C8_20 
REMARK    5  A    between atoms: C8_20  and  C9_21 
REMARK    6  A    between atoms: C9_21  and  N6_22 
REMARK    7  A    between atoms: C9_21  and  C16_36 
REMARK    8  A    between atoms: N6_22  and  C10_24 
REMARK    9  A    between atoms: C13_27  and  N7_28 
REMARK   10  A    between atoms: C15_32  and  N8_33 
REMARK   11  A    between atoms: N12_46  and  N13_47 
ROOT
HETATM    1  C7  UNL     1      26.782  -5.377   5.628  1.00  0.00     0.023 C 
ENDROOT
BRANCH   1   2
HETATM    2  C6  UNL     1      26.901  -4.363   4.520  1.00  0.00     0.149 C 
BRANCH   2   3
HETATM    3  N5  UNL     1      25.642  -3.814   4.074  1.00  0.00    -0.167 N 
HETATM    4  C2  UNL     1      24.631  -4.621   3.688  1.00  0.00     0.160 A 
HETATM    5  N2  UNL     1      24.745  -5.951   3.782  1.00  0.00    -0.173 N 
HETATM    6  C3  UNL     1      23.465  -4.026   3.210  1.00  0.00     0.148 A 
HETATM    7  C1  UNL     1      23.684  -6.705   3.393  1.00  0.00     0.701 A 
ATOM      8  H2  UNL     1      25.599  -6.383   4.133  1.00  0.00     0.186 HD
HETATM    9  N12 UNL     1      22.552  -6.154   2.929  1.00  0.00    -0.054 N 
HETATM   10  C18 UNL     1      22.402  -4.837   2.823  1.00  0.00     0.301 A 
HETATM   11  O6  UNL     1      21.366  -4.269   2.396  1.00  0.00    -0.264 OA
HETATM   12  C4  UNL     1      23.375  -2.669   3.148  1.00  0.00     0.279 A 
HETATM   13  O1  UNL     1      22.303  -2.173   2.709  1.00  0.00    -0.266 OA
HETATM   14  N3  UNL     1      24.414  -1.928   3.548  1.00  0.00    -0.155 N 
HETATM   15  C5  UNL     1      25.549  -2.446   4.012  1.00  0.00     0.682 A 
ATOM     16  H3  UNL     1      24.333  -0.913   3.495  1.00  0.00     0.187 HD
HETATM   17  N4  UNL     1      26.565  -1.769   4.411  1.00  0.00    -0.234 N 
ATOM     18  H42 UNL     1      26.496  -0.752   4.365  1.00  0.00     0.174 HD
ATOM     19  H41 UNL     1      27.435  -2.165   4.767  1.00  0.00     0.174 HD
BRANCH   7  20
HETATM   20  N1  UNL     1      23.780  -7.984   3.477  1.00  0.00    -0.233 N 
ATOM     21  H12 UNL     1      24.584  -8.399   3.946  1.00  0.00     0.174 HD
ATOM     22  H11 UNL     1      23.039  -8.554   3.068  1.00  0.00     0.174 HD
ENDBRANCH   7  20
BRANCH   9  23
HETATM   23  N13 UNL     1      21.479  -6.989   2.539  1.00  0.00    -0.321 N 
ATOM     24 2H13 UNL     1      21.645  -7.994   2.467  1.00  0.00     0.178 HD
ATOM     25 1H13 UNL     1      20.568  -6.577   2.338  1.00  0.00     0.178 HD
ENDBRANCH   9  23
ENDBRANCH   2   3
ENDBRANCH   1   2
BRANCH   1  26
HETATM   26  C8  UNL     1      28.045  -5.935   6.148  1.00  0.00     0.034 C 
BRANCH  26  27
HETATM   27  C9  UNL     1      28.898  -4.913   6.876  1.00  0.00     0.151 C 
BRANCH  27  28
HETATM   28  N6  UNL     1      28.217  -3.610   6.857  1.00  0.00    -0.376 N 
ATOM     29  H6  UNL     1      27.811  -3.299   5.974  1.00  0.00     0.160 HD
BRANCH  28  30
HETATM   30  C10 UNL     1      28.089  -2.770   7.963  1.00  0.00     0.062 A 
HETATM   31  C11 UNL     1      27.337  -3.217   9.066  1.00  0.00     0.034 A 
HETATM   32  C12 UNL     1      27.180  -2.448  10.205  1.00  0.00     0.038 A 
HETATM   33  C13 UNL     1      27.762  -1.221  10.273  1.00  0.00     0.105 A 
HETATM   34  C14 UNL     1      28.499  -0.753   9.222  1.00  0.00     0.074 A 
HETATM   35  C15 UNL     1      28.664  -1.543   8.045  1.00  0.00     0.131 A 
BRANCH  33  36
HETATM   36  N7  UNL     1      27.630  -0.380  11.438  1.00  0.00    -0.116 N 
HETATM   37  O2  UNL     1      27.551  -0.880  12.579  1.00  0.00    -0.532 OA
HETATM   38  O3  UNL     1      27.586   0.984  11.324  1.00  0.00    -0.532 OA
ENDBRANCH  33  36
BRANCH  35  39
HETATM   39  N8  UNL     1      29.439  -0.974   7.030  1.00  0.00    -0.113 N 
HETATM   40  O4  UNL     1      28.850  -0.316   6.115  1.00  0.00    -0.532 OA
HETATM   41  O5  UNL     1      30.771  -1.059   6.934  1.00  0.00    -0.532 OA
ENDBRANCH  35  39
ENDBRANCH  28  30
ENDBRANCH  27  28
BRANCH  27  42
HETATM   42  C16 UNL     1      30.196  -4.724   6.189  1.00  0.00     0.120 A 
HETATM   43  N9  UNL     1      31.242  -3.979   6.584  1.00  0.00    -0.338 N 
HETATM   44  C17 UNL     1      32.229  -4.040   5.678  1.00  0.00     0.198 A 
ATOM     45  H9  UNL     1      31.280  -3.443   7.451  1.00  0.00     0.168 HD
HETATM   46  N10 UNL     1      31.781  -4.842   4.700  1.00  0.00    -0.295 N 
HETATM   47  N11 UNL     1      30.556  -5.253   5.010  1.00  0.00    -0.286 N 
ATOM     48  H10 UNL     1      32.296  -5.094   3.858  1.00  0.00     0.187 HD
ATOM     49  H11 UNL     1      29.980  -5.874   4.441  1.00  0.00     0.188 HD
ENDBRANCH  27  42
ENDBRANCH  26  27
ENDBRANCH   1  26
TORSDOF 11
ENDMDL
MODEL 4
REMARK VINA RESULT: -8.577979655      1.878      7.925
REMARK  11 active torsions:
REMARK  status: ('A' for Active; 'I' for Inactive)
REMARK    1  A    between atoms: N1_1  and  C1_4 
REMARK    2  A    between atoms: N5_17  and  C6_18 
REMARK    3  A    between atoms: C6_18  and  C7_19 
REMARK    4  A    between atoms: C7_19  and  C8_20 
REMARK    5  A    between atoms: C8_20  and  C9_21 
REMARK    6  A    between atoms: C9_21  and  N6_22 
REMARK    7  A    between atoms: C9_21  and  C16_36 
REMARK    8  A    between atoms: N6_22  and  C10_24 
REMARK    9  A    between atoms: C13_27  and  N7_28 
REMARK   10  A    between atoms: C15_32  and  N8_33 
REMARK   11  A    between atoms: N12_46  and  N13_47 
ROOT
HETATM    1  C7  UNL     1      26.246  -5.196   5.273  1.00  0.00     0.023 C 
ENDROOT
BRANCH   1   2
HETATM    2  C6  UNL     1      27.472  -5.584   6.058  1.00  0.00     0.149 C 
BRANCH   2   3
HETATM    3  N5  UNL     1      28.391  -4.498   6.307  1.00  0.00    -0.167 N 
HETATM    4  C2  UNL     1      28.132  -3.574   7.256  1.00  0.00     0.160 A 
HETATM    5  N2  UNL     1      27.054  -3.685   8.041  1.00  0.00    -0.173 N 
HETATM    6  C3  UNL     1      29.029  -2.517   7.403  1.00  0.00     0.148 A 
HETATM    7  C1  UNL     1      26.862  -2.731   8.989  1.00  0.00     0.701 A 
ATOM      8  H2  UNL     1      26.400  -4.459   7.932  1.00  0.00     0.186 HD
HETATM    9  N12 UNL     1      27.711  -1.703   9.148  1.00  0.00    -0.054 N 
HETATM   10  C18 UNL     1      28.792  -1.561   8.387  1.00  0.00     0.301 A 
HETATM   11  O6  UNL     1      29.620  -0.622   8.492  1.00  0.00    -0.264 OA
HETATM   12  C4  UNL     1      30.126  -2.446   6.601  1.00  0.00     0.279 A 
HETATM   13  O1  UNL     1      30.911  -1.474   6.767  1.00  0.00    -0.266 OA
HETATM   14  N3  UNL     1      30.324  -3.396   5.681  1.00  0.00    -0.155 N 
HETATM   15  C5  UNL     1      29.499  -4.425   5.499  1.00  0.00     0.682 A 
ATOM     16  H3  UNL     1      31.150  -3.329   5.086  1.00  0.00     0.187 HD
HETATM   17  N4  UNL     1      29.657  -5.359   4.633  1.00  0.00    -0.234 N 
ATOM     18  H42 UNL     1      30.481  -5.305   4.033  1.00  0.00     0.174 HD
ATOM     19  H41 UNL     1      29.026  -6.148   4.494  1.00  0.00     0.174 HD
BRANCH   7  20
HETATM   20  N1  UNL     1      25.830  -2.824   9.750  1.00  0.00    -0.233 N 
ATOM     21  H12 UNL     1      25.617  -3.713  10.202  1.00  0.00     0.174 HD
ATOM     22  H11 UNL     1      25.248  -1.997   9.882  1.00  0.00     0.174 HD
ENDBRANCH   7  20
BRANCH   9  23
HETATM   23  N13 UNL     1      27.459  -0.739  10.151  1.00  0.00    -0.321 N 
ATOM     24 2H13 UNL     1      27.506   0.249   9.900  1.00  0.00     0.178 HD
ATOM     25 1H13 UNL     1      27.239  -1.046  11.098  1.00  0.00     0.178 HD
ENDBRANCH   9  23
ENDBRANCH   2   3
ENDBRANCH   1   2
BRANCH   1  26
HETATM   26  C8  UNL     1      26.291  -5.442   3.819  1.00  0.00     0.034 C 
BRANCH  26  27
HETATM   27  C9  UNL     1      25.001  -5.074   3.108  1.00  0.00     0.151 C 
BRANCH  27  28
HETATM   28  N6  UNL     1      24.250  -4.113   3.930  1.00  0.00    -0.376 N 
ATOM     29  H6  UNL     1      24.389  -4.142   4.941  1.00  0.00     0.160 HD
BRANCH  28  30
HETATM   30  C10 UNL     1      23.362  -3.165   3.423  1.00  0.00     0.062 A 
HETATM   31  C11 UNL     1      23.879  -1.953   2.929  1.00  0.00     0.034 A 
HETATM   32  C12 UNL     1      23.061  -0.973   2.395  1.00  0.00     0.038 A 
HETATM   33  C13 UNL     1      21.718  -1.174   2.341  1.00  0.00     0.105 A 
HETATM   34  C14 UNL     1      21.180  -2.337   2.812  1.00  0.00     0.074 A 
HETATM   35  C15 UNL     1      22.019  -3.352   3.364  1.00  0.00     0.131 A 
BRANCH  33  36
HETATM   36  N7  UNL     1      20.822  -0.185   1.793  1.00  0.00    -0.116 N 
HETATM   37  O2  UNL     1      19.594  -0.399   1.735  1.00  0.00    -0.532 OA
HETATM   38  O3  UNL     1      21.294   1.012   1.320  1.00  0.00    -0.532 OA
ENDBRANCH  33  36
BRANCH  35  39
HETATM   39  N8  UNL     1      21.369  -4.505   3.814  1.00  0.00    -0.113 N 
HETATM   40  O4  UNL     1      21.189  -5.459   2.992  1.00  0.00    -0.532 OA
HETATM   41  O5  UNL     1      20.913  -4.701   5.057  1.00  0.00    -0.532 OA
ENDBRANCH  35  39
ENDBRANCH  28  30
ENDBRANCH  27  28
BRANCH  27  42
HETATM   42  C16 UNL     1      24.133  -6.262   2.943  1.00  0.00     0.120 A 
HETATM   43  N9  UNL     1      23.864  -7.223   3.842  1.00  0.00    -0.338 N 
HETATM   44  C17 UNL     1      23.053  -8.148   3.309  1.00  0.00     0.198 A 
ATOM     45  H9  UNL     1      24.225  -7.245   4.795  1.00  0.00     0.168 HD
HETATM   46  N10 UNL     1      22.817  -7.748   2.050  1.00  0.00    -0.295 N 
HETATM   47  N11 UNL     1      23.468  -6.611   1.832  1.00  0.00    -0.286 N 
ATOM     48  H10 UNL     1      22.232  -8.237   1.372  1.00  0.00     0.187 HD
ATOM     49  H11 UNL     1      23.463  -6.086   0.957  1.00  0.00     0.188 HD
ENDBRANCH  27  42
ENDBRANCH  26  27
ENDBRANCH   1  26
TORSDOF 11
ENDMDL
MODEL 5
REMARK VINA RESULT: -8.397606755      1.953      7.393
REMARK  11 active torsions:
REMARK  status: ('A' for Active; 'I' for Inactive)
REMARK    1  A    between atoms: N1_1  and  C1_4 
REMARK    2  A    between atoms: N5_17  and  C6_18 
REMARK    3  A    between atoms: C6_18  and  C7_19 
REMARK    4  A    between atoms: C7_19  and  C8_20 
REMARK    5  A    between atoms: C8_20  and  C9_21 
REMARK    6  A    between atoms: C9_21  and  N6_22 
REMARK    7  A    between atoms: C9_21  and  C16_36 
REMARK    8  A    between atoms: N6_22  and  C10_24 
REMARK    9  A    between atoms: C13_27  and  N7_28 
REMARK   10  A    between atoms: C15_32  and  N8_33 
REMARK   11  A    between atoms: N12_46  and  N13_47 
ROOT
HETATM    1  C7  UNL     1      26.141  -5.839   5.651  1.00  0.00     0.023 C 
ENDROOT
BRANCH   1   2
HETATM    2  C6  UNL     1      27.419  -6.149   6.385  1.00  0.00     0.149 C 
BRANCH   2   3
HETATM    3  N5  UNL     1      28.356  -5.052   6.445  1.00  0.00    -0.167 N 
HETATM    4  C2  UNL     1      28.134  -3.994   7.253  1.00  0.00     0.160 A 
HETATM    5  N2  UNL     1      27.078  -3.972   8.075  1.00  0.00    -0.173 N 
HETATM    6  C3  UNL     1      29.046  -2.940   7.218  1.00  0.00     0.148 A 
HETATM    7  C1  UNL     1      26.923  -2.885   8.875  1.00  0.00     0.701 A 
ATOM      8  H2  UNL     1      26.413  -4.744   8.100  1.00  0.00     0.186 HD
HETATM    9  N12 UNL     1      27.787  -1.858   8.857  1.00  0.00    -0.054 N 
HETATM   10  C18 UNL     1      28.848  -1.846   8.055  1.00  0.00     0.301 A 
HETATM   11  O6  UNL     1      29.688  -0.914   7.998  1.00  0.00    -0.264 OA
HETATM   12  C4  UNL     1      30.121  -3.005   6.385  1.00  0.00     0.279 A 
HETATM   13  O1  UNL     1      30.920  -2.031   6.385  1.00  0.00    -0.266 OA
HETATM   14  N3  UNL     1      30.282  -4.084   5.612  1.00  0.00    -0.155 N 
HETATM   15  C5  UNL     1      29.442  -5.116   5.607  1.00  0.00     0.682 A 
ATOM     16  H3  UNL     1      31.091  -4.117   4.992  1.00  0.00     0.187 HD
HETATM   17  N4  UNL     1      29.565  -6.170   4.885  1.00  0.00    -0.234 N 
ATOM     18  H42 UNL     1      30.372  -6.218   4.262  1.00  0.00     0.174 HD
ATOM     19  H41 UNL     1      28.921  -6.961   4.882  1.00  0.00     0.174 HD
BRANCH   7  20
HETATM   20  N1  UNL     1      25.912  -2.849   9.669  1.00  0.00    -0.233 N 
ATOM     21  H12 UNL     1      25.601  -3.706  10.126  1.00  0.00     0.174 HD
ATOM     22  H11 UNL     1      25.446  -1.955   9.822  1.00  0.00     0.174 HD
ENDBRANCH   7  20
BRANCH   9  23
HETATM   23  N13 UNL     1      27.574  -0.753   9.713  1.00  0.00    -0.321 N 
ATOM     24 2H13 UNL     1      26.891  -0.843  10.466  1.00  0.00     0.178 HD
ATOM     25 1H13 UNL     1      28.102   0.107   9.564  1.00  0.00     0.178 HD
ENDBRANCH   9  23
ENDBRANCH   2   3
ENDBRANCH   1   2
BRANCH   1  26
HETATM   26  C8  UNL     1      25.986  -6.446   4.315  1.00  0.00     0.034 C 
BRANCH  26  27
HETATM   27  C9  UNL     1      25.036  -5.678   3.414  1.00  0.00     0.151 C 
BRANCH  27  28
HETATM   28  N6  UNL     1      24.552  -4.484   4.122  1.00  0.00    -0.376 N 
ATOM     29  H6  UNL     1      24.707  -4.435   5.130  1.00  0.00     0.160 HD
BRANCH  28  30
HETATM   30  C10 UNL     1      23.897  -3.415   3.512  1.00  0.00     0.062 A 
HETATM   31  C11 UNL     1      22.739  -3.677   2.755  1.00  0.00     0.034 A 
HETATM   32  C12 UNL     1      22.026  -2.666   2.136  1.00  0.00     0.038 A 
HETATM   33  C13 UNL     1      22.446  -1.378   2.252  1.00  0.00     0.105 A 
HETATM   34  C14 UNL     1      23.565  -1.086   2.977  1.00  0.00     0.074 A 
HETATM   35  C15 UNL     1      24.305  -2.125   3.618  1.00  0.00     0.131 A 
BRANCH  33  36
HETATM   36  N7  UNL     1      21.737  -0.288   1.627  1.00  0.00    -0.116 N 
HETATM   37  O2  UNL     1      20.727  -0.503   0.926  1.00  0.00    -0.532 OA
HETATM   38  O3  UNL     1      22.153   1.008   1.783  1.00  0.00    -0.532 OA
ENDBRANCH  33  36
BRANCH  35  39
HETATM   39  N8  UNL     1      25.432  -1.719   4.339  1.00  0.00    -0.113 N 
HETATM   40  O4  UNL     1      26.478  -2.440   4.285  1.00  0.00    -0.532 OA
HETATM   41  O5  UNL     1      25.512  -0.616   5.094  1.00  0.00    -0.532 OA
ENDBRANCH  35  39
ENDBRANCH  28  30
ENDBRANCH  27  28
BRANCH  27  42
HETATM   42  C16 UNL     1      23.843  -6.492   3.088  1.00  0.00     0.120 A 
HETATM   43  N9  UNL     1      22.854  -6.877   3.911  1.00  0.00    -0.338 N 
HETATM   44  C17 UNL     1      21.962  -7.630   3.250  1.00  0.00     0.198 A 
ATOM     45  H9  UNL     1      22.789  -6.631   4.899  1.00  0.00     0.168 HD
HETATM   46  N10 UNL     1      22.413  -7.712   1.990  1.00  0.00    -0.295 N 
HETATM   47  N11 UNL     1      23.547  -7.025   1.894  1.00  0.00    -0.286 N 
ATOM     48  H10 UNL     1      21.960  -8.218   1.229  1.00  0.00     0.187 HD
ATOM     49  H11 UNL     1      24.104  -6.920   1.046  1.00  0.00     0.188 HD
ENDBRANCH  27  42
ENDBRANCH  26  27
ENDBRANCH   1  26
TORSDOF 11
ENDMDL
