MODEL 1
REMARK VINA RESULT: -9.863765370      0.000      0.000
REMARK  12 active torsions:
REMARK  status: ('A' for Active; 'I' for Inactive)
REMARK    1  A    between atoms: N1_1  and  C1_4 
REMARK    2  A    between atoms: C2_7  and  C3_8 
REMARK    3  A    between atoms: C3_8  and  O1_9 
REMARK    4  A    between atoms: O1_9  and  C4_10 
REMARK    5  A    between atoms: C5_13  and  N4_14 
REMARK    6  A    between atoms: C9_22  and  C10_23 
REMARK    7  A    between atoms: C10_23  and  O3_25 
REMARK    8  A    between atoms: O3_25  and  C11_26 
REMARK    9  A    between atoms: C11_26  and  C12_27 
REMARK   10  A    between atoms: C15_30  and  C16_31 
REMARK   11  A    between atoms: C16_31  and  C17_32 
REMARK   12  A    between atoms: C19_50  and  N14_51 
ROOT
HETATM    1  C4  UNL     1      27.272  -4.050   4.927  1.00  0.00     0.187 A 
HETATM    2  N3  UNL     1      28.209  -4.992   5.056  1.00  0.00    -0.168 N 
ATOM      3  H3  UNL     1      29.045  -4.772   5.597  1.00  0.00     0.186 HD
HETATM    4  C5  UNL     1      28.105  -6.214   4.508  1.00  0.00     0.678 A 
HETATM    5  N5  UNL     1      26.999  -6.493   3.799  1.00  0.00    -0.190 N 
ATOM      6  H5  UNL     1      26.896  -7.415   3.374  1.00  0.00     0.184 HD
HETATM    7  C6  UNL     1      26.018  -5.576   3.637  1.00  0.00     0.080 A 
HETATM    8  C7  UNL     1      24.884  -5.884   2.901  1.00  0.00     0.035 A 
HETATM    9  C8  UNL     1      23.903  -4.919   2.759  1.00  0.00     0.038 A 
HETATM   10  C9  UNL     1      24.022  -3.677   3.323  1.00  0.00     0.109 A 
HETATM   11  N12 UNL     1      25.138  -3.421   4.027  1.00  0.00    -0.346 N 
ATOM     12  H12 UNL     1      25.244  -2.501   4.454  1.00  0.00     0.166 HD
HETATM   13  C18 UNL     1      26.119  -4.324   4.195  1.00  0.00     0.112 A 
ENDROOT
BRANCH  10  14
HETATM   14  C10 UNL     1      22.968  -2.671   3.157  1.00  0.00     0.310 C 
HETATM   15  O2  UNL     1      21.929  -2.713   3.857  1.00  0.00    -0.258 OA
BRANCH  14  16
HETATM   16  O3  UNL     1      23.087  -1.661   2.235  1.00  0.00    -0.310 OA
BRANCH  16  17
HETATM   17  C11 UNL     1      22.124  -1.202   1.346  1.00  0.00     0.237 C 
BRANCH  17  18
HETATM   18  C12 UNL     1      21.610   0.118   1.829  1.00  0.00     0.050 A 
HETATM   19  C13 UNL     1      20.299   0.506   1.554  1.00  0.00     0.031 A 
HETATM   20  C14 UNL     1      19.828   1.720   1.989  1.00  0.00     0.029 A 
HETATM   21  C15 UNL     1      20.677   2.538   2.699  1.00  0.00     0.033 A 
HETATM   22  N10 UNL     1      21.919   2.135   2.942  1.00  0.00    -0.304 N 
HETATM   23  N11 UNL     1      22.350   0.982   2.523  1.00  0.00    -0.303 N 
ATOM     24  H10 UNL     1      22.547   2.742   3.468  1.00  0.00     0.186 HD
ATOM     25  H11 UNL     1      23.314   0.724   2.738  1.00  0.00     0.186 HD
BRANCH  21  26
HETATM   26  C16 UNL     1      20.227   3.861   3.196  1.00  0.00     0.138 C 
BRANCH  26  27
HETATM   27  C17 UNL     1      20.323   3.987   4.661  1.00  0.00     0.118 A 
HETATM   28  N6  UNL     1      21.328   4.618   5.333  1.00  0.00    -0.272 N 
HETATM   29  N7  UNL     1      21.071   4.527   6.645  1.00  0.00    -0.227 N 
ATOM     30  H6  UNL     1      22.135   5.078   4.910  1.00  0.00     0.190 HD
HETATM   31  N8  UNL     1      19.944   3.863   6.795  1.00  0.00    -0.227 N 
ATOM     32  H7  UNL     1      21.647   4.906   7.396  1.00  0.00     0.210 HD
HETATM   33  N9  UNL     1      19.488   3.535   5.599  1.00  0.00    -0.272 N 
ATOM     34  H8  UNL     1      19.498   3.640   7.684  1.00  0.00     0.210 HD
ATOM     35  H9  UNL     1      18.629   3.015   5.419  1.00  0.00     0.190 HD
ENDBRANCH  26  27
ENDBRANCH  21  26
ENDBRANCH  17  18
ENDBRANCH  16  17
ENDBRANCH  14  16
ENDBRANCH  10  14
BRANCH   1  36
HETATM   36  O1  UNL     1      27.368  -2.797   5.484  1.00  0.00    -0.326 OA
BRANCH  36  37
HETATM   37  C3  UNL     1      28.461  -2.272   6.180  1.00  0.00     0.255 C 
BRANCH  37  38
HETATM   38  C2  UNL     1      28.044  -1.975   7.570  1.00  0.00     0.137 A 
HETATM   39  N2  UNL     1      27.004  -2.649   8.106  1.00  0.00    -0.178 N 
HETATM   40  C1  UNL     1      26.585  -2.431   9.364  1.00  0.00     0.691 A 
ATOM     41  H2  UNL     1      26.521  -3.346   7.538  1.00  0.00     0.185 HD
HETATM   42  N15 UNL     1      27.248  -1.507  10.075  1.00  0.00    -0.023 N 
HETATM   43  C19 UNL     1      28.291  -0.816   9.570  1.00  0.00     0.691 A 
ATOM     44  H15 UNL     1      26.953  -1.321  11.033  1.00  0.00     0.203 HD
HETATM   45  N13 UNL     1      28.693  -1.056   8.299  1.00  0.00    -0.178 N 
ATOM     46  H13 UNL     1      29.481  -0.543   7.902  1.00  0.00     0.185 HD
BRANCH  40  47
HETATM   47  N1  UNL     1      25.603  -3.042   9.921  1.00  0.00    -0.234 N 
ATOM     48  H12 UNL     1      25.191  -3.840   9.438  1.00  0.00     0.174 HD
ATOM     49  H11 UNL     1      25.198  -2.786  10.822  1.00  0.00     0.174 HD
ENDBRANCH  40  47
BRANCH  43  50
HETATM   50  N14 UNL     1      28.865   0.053  10.331  1.00  0.00    -0.234 N 
ATOM     51 2H14 UNL     1      29.884   0.051  10.374  1.00  0.00     0.174 HD
ATOM     52 1H14 UNL     1      28.342   0.733  10.884  1.00  0.00     0.174 HD
ENDBRANCH  43  50
ENDBRANCH  37  38
ENDBRANCH  36  37
ENDBRANCH   1  36
BRANCH   4  53
HETATM   53  N4  UNL     1      29.038  -7.106   4.654  1.00  0.00    -0.234 N 
ATOM     54  H42 UNL     1      29.397  -7.334   5.581  1.00  0.00     0.174 HD
ATOM     55  H41 UNL     1      29.436  -7.598   3.854  1.00  0.00     0.174 HD
ENDBRANCH   4  53
TORSDOF 12
ENDMDL
MODEL 2
REMARK VINA RESULT: -9.706809301      2.850      4.317
REMARK  12 active torsions:
REMARK  status: ('A' for Active; 'I' for Inactive)
REMARK    1  A    between atoms: N1_1  and  C1_4 
REMARK    2  A    between atoms: C2_7  and  C3_8 
REMARK    3  A    between atoms: C3_8  and  O1_9 
REMARK    4  A    between atoms: O1_9  and  C4_10 
REMARK    5  A    between atoms: C5_13  and  N4_14 
REMARK    6  A    between atoms: C9_22  and  C10_23 
REMARK    7  A    between atoms: C10_23  and  O3_25 
REMARK    8  A    between atoms: O3_25  and  C11_26 
REMARK    9  A    between atoms: C11_26  and  C12_27 
REMARK   10  A    between atoms: C15_30  and  C16_31 
REMARK   11  A    between atoms: C16_31  and  C17_32 
REMARK   12  A    between atoms: C19_50  and  N14_51 
ROOT
HETATM    1  C4  UNL     1      28.232  -4.026   6.535  1.00  0.00     0.187 A 
HETATM    2  N3  UNL     1      29.514  -3.657   6.507  1.00  0.00    -0.168 N 
ATOM      3  H3  UNL     1      29.831  -2.954   7.175  1.00  0.00     0.186 HD
HETATM    4  C5  UNL     1      30.408  -4.165   5.643  1.00  0.00     0.678 A 
HETATM    5  N5  UNL     1      29.981  -5.092   4.768  1.00  0.00    -0.190 N 
ATOM      6  H5  UNL     1      30.642  -5.494   4.103  1.00  0.00     0.184 HD
HETATM    7  C6  UNL     1      28.693  -5.502   4.753  1.00  0.00     0.080 A 
HETATM    8  C7  UNL     1      28.272  -6.458   3.843  1.00  0.00     0.035 A 
HETATM    9  C8  UNL     1      26.945  -6.852   3.859  1.00  0.00     0.038 A 
HETATM   10  C9  UNL     1      26.044  -6.326   4.745  1.00  0.00     0.109 A 
HETATM   11  N12 UNL     1      26.496  -5.401   5.610  1.00  0.00    -0.346 N 
ATOM     12  H12 UNL     1      25.839  -4.996   6.277  1.00  0.00     0.166 HD
HETATM   13  C18 UNL     1      27.774  -4.985   5.635  1.00  0.00     0.112 A 
ENDROOT
BRANCH  10  14
HETATM   14  C10 UNL     1      24.644  -6.760   4.742  1.00  0.00     0.310 C 
HETATM   15  O2  UNL     1      24.161  -7.368   5.726  1.00  0.00    -0.258 OA
BRANCH  14  16
HETATM   16  O3  UNL     1      23.826  -6.514   3.668  1.00  0.00    -0.310 OA
BRANCH  16  17
HETATM   17  C11 UNL     1      22.488  -6.144   3.684  1.00  0.00     0.237 C 
BRANCH  17  18
HETATM   18  C12 UNL     1      22.371  -4.730   3.210  1.00  0.00     0.050 A 
HETATM   19  C13 UNL     1      21.816  -3.754   4.038  1.00  0.00     0.031 A 
HETATM   20  C14 UNL     1      21.700  -2.456   3.601  1.00  0.00     0.029 A 
HETATM   21  C15 UNL     1      22.143  -2.148   2.336  1.00  0.00     0.033 A 
HETATM   22  N10 UNL     1      22.666  -3.103   1.576  1.00  0.00    -0.304 N 
HETATM   23  N11 UNL     1      22.768  -4.327   2.004  1.00  0.00    -0.303 N 
ATOM     24  H10 UNL     1      22.995  -2.873   0.638  1.00  0.00     0.186 HD
ATOM     25  H11 UNL     1      23.178  -5.021   1.377  1.00  0.00     0.186 HD
BRANCH  21  26
HETATM   26  C16 UNL     1      22.046  -0.765   1.807  1.00  0.00     0.138 C 
BRANCH  26  27
HETATM   27  C17 UNL     1      20.655  -0.338   1.571  1.00  0.00     0.118 A 
HETATM   28  N6  UNL     1      20.125   0.861   1.946  1.00  0.00    -0.272 N 
HETATM   29  N7  UNL     1      18.842   0.886   1.561  1.00  0.00    -0.227 N 
ATOM     30  H6  UNL     1      20.619   1.608   2.434  1.00  0.00     0.190 HD
HETATM   31  N8  UNL     1      18.573  -0.256   0.964  1.00  0.00    -0.227 N 
ATOM     32  H7  UNL     1      18.187   1.655   1.705  1.00  0.00     0.210 HD
HETATM   33  N9  UNL     1      19.665  -0.999   0.967  1.00  0.00    -0.272 N 
ATOM     34  H8  UNL     1      17.672  -0.523   0.566  1.00  0.00     0.210 HD
ATOM     35  H9  UNL     1      19.741  -1.936   0.569  1.00  0.00     0.190 HD
ENDBRANCH  26  27
ENDBRANCH  21  26
ENDBRANCH  17  18
ENDBRANCH  16  17
ENDBRANCH  14  16
ENDBRANCH  10  14
BRANCH   1  36
HETATM   36  O1  UNL     1      27.310  -3.512   7.415  1.00  0.00    -0.326 OA
BRANCH  36  37
HETATM   37  C3  UNL     1      27.049  -2.162   7.661  1.00  0.00     0.255 C 
BRANCH  37  38
HETATM   38  C2  UNL     1      27.334  -1.871   9.086  1.00  0.00     0.137 A 
HETATM   39  N2  UNL     1      27.994  -0.738   9.409  1.00  0.00    -0.178 N 
HETATM   40  C1  UNL     1      28.274  -0.414  10.683  1.00  0.00     0.691 A 
ATOM     41  H2  UNL     1      28.289  -0.107   8.663  1.00  0.00     0.185 HD
HETATM   42  N15 UNL     1      27.868  -1.270  11.631  1.00  0.00    -0.023 N 
HETATM   43  C19 UNL     1      27.207  -2.411  11.343  1.00  0.00     0.691 A 
ATOM     44  H15 UNL     1      28.066  -1.050  12.608  1.00  0.00     0.203 HD
HETATM   45  N13 UNL     1      26.937  -2.713  10.051  1.00  0.00    -0.178 N 
ATOM     46  H13 UNL     1      26.437  -3.570   9.814  1.00  0.00     0.185 HD
BRANCH  40  47
HETATM   47  N1  UNL     1      28.898   0.648  11.044  1.00  0.00    -0.234 N 
ATOM     48  H12 UNL     1      29.876   0.567  11.320  1.00  0.00     0.174 HD
ATOM     49  H11 UNL     1      28.482   1.579  11.078  1.00  0.00     0.174 HD
ENDBRANCH  40  47
BRANCH  43  50
HETATM   50  N14 UNL     1      26.857  -3.171  12.324  1.00  0.00    -0.234 N 
ATOM     51 2H14 UNL     1      26.730  -4.165  12.137  1.00  0.00     0.174 HD
ATOM     52 1H14 UNL     1      26.706  -2.817  13.270  1.00  0.00     0.174 HD
ENDBRANCH  43  50
ENDBRANCH  37  38
ENDBRANCH  36  37
ENDBRANCH   1  36
BRANCH   4  53
HETATM   53  N4  UNL     1      31.650  -3.782   5.644  1.00  0.00    -0.234 N 
ATOM     54  H42 UNL     1      32.386  -4.413   5.960  1.00  0.00     0.174 HD
ATOM     55  H41 UNL     1      31.920  -2.849   5.332  1.00  0.00     0.174 HD
ENDBRANCH   4  53
TORSDOF 12
ENDMDL
MODEL 3
REMARK VINA RESULT: -9.703001294      2.523      4.054
REMARK  12 active torsions:
REMARK  status: ('A' for Active; 'I' for Inactive)
REMARK    1  A    between atoms: N1_1  and  C1_4 
REMARK    2  A    between atoms: C2_7  and  C3_8 
REMARK    3  A    between atoms: C3_8  and  O1_9 
REMARK    4  A    between atoms: O1_9  and  C4_10 
REMARK    5  A    between atoms: C5_13  and  N4_14 
REMARK    6  A    between atoms: C9_22  and  C10_23 
REMARK    7  A    between atoms: C10_23  and  O3_25 
REMARK    8  A    between atoms: O3_25  and  C11_26 
REMARK    9  A    between atoms: C11_26  and  C12_27 
REMARK   10  A    between atoms: C15_30  and  C16_31 
REMARK   11  A    between atoms: C16_31  and  C17_32 
REMARK   12  A    between atoms: C19_50  and  N14_51 
ROOT
HETATM    1  C4  UNL     1      28.963  -3.490   5.726  1.00  0.00     0.187 A 
HETATM    2  N3  UNL     1      30.242  -3.373   6.091  1.00  0.00    -0.168 N 
ATOM      3  H3  UNL     1      30.551  -2.490   6.497  1.00  0.00     0.186 HD
HETATM    4  C5  UNL     1      31.141  -4.361   5.951  1.00  0.00     0.678 A 
HETATM    5  N5  UNL     1      30.723  -5.520   5.417  1.00  0.00    -0.190 N 
ATOM      6  H5  UNL     1      31.388  -6.286   5.301  1.00  0.00     0.184 HD
HETATM    7  C6  UNL     1      29.439  -5.693   5.029  1.00  0.00     0.080 A 
HETATM    8  C7  UNL     1      29.028  -6.897   4.480  1.00  0.00     0.035 A 
HETATM    9  C8  UNL     1      27.706  -7.034   4.096  1.00  0.00     0.038 A 
HETATM   10  C9  UNL     1      26.799  -6.019   4.245  1.00  0.00     0.109 A 
HETATM   11  N12 UNL     1      27.242  -4.869   4.782  1.00  0.00    -0.346 N 
ATOM     12  H12 UNL     1      26.581  -4.100   4.899  1.00  0.00     0.166 HD
HETATM   13  C18 UNL     1      28.515  -4.685   5.170  1.00  0.00     0.112 A 
ENDROOT
BRANCH  10  14
HETATM   14  C10 UNL     1      25.403  -6.190   3.830  1.00  0.00     0.310 C 
HETATM   15  O2  UNL     1      25.123  -6.577   2.671  1.00  0.00    -0.258 OA
BRANCH  14  16
HETATM   16  O3  UNL     1      24.369  -5.932   4.695  1.00  0.00    -0.310 OA
BRANCH  16  17
HETATM   17  C11 UNL     1      23.006  -6.040   4.447  1.00  0.00     0.237 C 
BRANCH  17  18
HETATM   18  C12 UNL     1      22.564  -4.848   3.657  1.00  0.00     0.050 A 
HETATM   19  C13 UNL     1      21.877  -3.806   4.281  1.00  0.00     0.031 A 
HETATM   20  C14 UNL     1      21.463  -2.715   3.556  1.00  0.00     0.029 A 
HETATM   21  C15 UNL     1      21.740  -2.678   2.210  1.00  0.00     0.033 A 
HETATM   22  N10 UNL     1      22.396  -3.688   1.650  1.00  0.00    -0.304 N 
HETATM   23  N11 UNL     1      22.781  -4.714   2.350  1.00  0.00    -0.303 N 
ATOM     24  H10 UNL     1      22.601  -3.659   0.651  1.00  0.00     0.186 HD
ATOM     25  H11 UNL     1      23.281  -5.462   1.868  1.00  0.00     0.186 HD
BRANCH  21  26
HETATM   26  C16 UNL     1      21.318  -1.527   1.373  1.00  0.00     0.138 C 
BRANCH  26  27
HETATM   27  C17 UNL     1      21.768  -0.231   1.912  1.00  0.00     0.118 A 
HETATM   28  N6  UNL     1      23.011   0.028   2.406  1.00  0.00    -0.272 N 
HETATM   29  N7  UNL     1      23.044   1.308   2.799  1.00  0.00    -0.227 N 
ATOM     30  H6  UNL     1      23.783  -0.638   2.467  1.00  0.00     0.190 HD
HETATM   31  N8  UNL     1      21.863   1.838   2.561  1.00  0.00    -0.227 N 
ATOM     32  H7  UNL     1      23.844   1.789   3.211  1.00  0.00     0.210 HD
HETATM   33  N9  UNL     1      21.088   0.912   2.024  1.00  0.00    -0.272 N 
ATOM     34  H8  UNL     1      21.592   2.802   2.757  1.00  0.00     0.210 HD
ATOM     35  H9  UNL     1      20.118   1.050   1.739  1.00  0.00     0.190 HD
ENDBRANCH  26  27
ENDBRANCH  21  26
ENDBRANCH  17  18
ENDBRANCH  16  17
ENDBRANCH  14  16
ENDBRANCH  10  14
BRANCH   1  36
HETATM   36  O1  UNL     1      28.036  -2.485   5.866  1.00  0.00    -0.326 OA
BRANCH  36  37
HETATM   37  C3  UNL     1      28.239  -1.234   6.455  1.00  0.00     0.255 C 
BRANCH  37  38
HETATM   38  C2  UNL     1      27.873  -1.315   7.888  1.00  0.00     0.137 A 
HETATM   39  N2  UNL     1      26.882  -2.150   8.271  1.00  0.00    -0.178 N 
HETATM   40  C1  UNL     1      26.510  -2.274   9.556  1.00  0.00     0.691 A 
ATOM     41  H2  UNL     1      26.402  -2.704   7.562  1.00  0.00     0.185 HD
HETATM   42  N15 UNL     1      27.169  -1.528  10.455  1.00  0.00    -0.023 N 
HETATM   43  C19 UNL     1      28.162  -0.684  10.107  1.00  0.00     0.691 A 
ATOM     44  H15 UNL     1      26.909  -1.602  11.438  1.00  0.00     0.203 HD
HETATM   45  N13 UNL     1      28.518  -0.578   8.804  1.00  0.00    -0.178 N 
ATOM     46  H13 UNL     1      29.268   0.054   8.523  1.00  0.00     0.185 HD
BRANCH  40  47
HETATM   47  N1  UNL     1      25.578  -3.051   9.973  1.00  0.00    -0.234 N 
ATOM     48  H12 UNL     1      25.832  -3.839  10.568  1.00  0.00     0.174 HD
ATOM     49  H11 UNL     1      24.589  -2.939   9.749  1.00  0.00     0.174 HD
ENDBRANCH  40  47
BRANCH  43  50
HETATM   50  N14 UNL     1      28.737  -0.008  11.043  1.00  0.00    -0.234 N 
ATOM     51 2H14 UNL     1      29.113   0.910  10.808  1.00  0.00     0.174 HD
ATOM     52 1H14 UNL     1      28.826  -0.355  11.998  1.00  0.00     0.174 HD
ENDBRANCH  43  50
ENDBRANCH  37  38
ENDBRANCH  36  37
ENDBRANCH   1  36
BRANCH   4  53
HETATM   53  N4  UNL     1      32.379  -4.211   6.317  1.00  0.00    -0.234 N 
ATOM     54  H42 UNL     1      32.606  -3.746   7.197  1.00  0.00     0.174 HD
ATOM     55  H41 UNL     1      33.150  -4.550   5.743  1.00  0.00     0.174 HD
ENDBRANCH   4  53
TORSDOF 12
ENDMDL
MODEL 4
REMARK VINA RESULT: -9.670020405      3.485      9.496
REMARK  12 active torsions:
REMARK  status: ('A' for Active; 'I' for Inactive)
REMARK    1  A    between atoms: N1_1  and  C1_4 
REMARK    2  A    between atoms: C2_7  and  C3_8 
REMARK    3  A    between atoms: C3_8  and  O1_9 
REMARK    4  A    between atoms: O1_9  and  C4_10 
REMARK    5  A    between atoms: C5_13  and  N4_14 
REMARK    6  A    between atoms: C9_22  and  C10_23 
REMARK    7  A    between atoms: C10_23  and  O3_25 
REMARK    8  A    between atoms: O3_25  and  C11_26 
REMARK    9  A    between atoms: C11_26  and  C12_27 
REMARK   10  A    between atoms: C15_30  and  C16_31 
REMARK   11  A    between atoms: C16_31  and  C17_32 
REMARK   12  A    between atoms: C19_50  and  N14_51 
ROOT
HETATM    1  C4  UNL     1      20.312   3.223   2.540  1.00  0.00     0.187 A 
HETATM    2  N3  UNL     1      19.507   4.172   2.055  1.00  0.00    -0.168 N 
ATOM      3  H3  UNL     1      19.543   5.100   2.477  1.00  0.00     0.186 HD
HETATM    4  C5  UNL     1      18.653   3.964   1.040  1.00  0.00     0.678 A 
HETATM    5  N5  UNL     1      18.615   2.739   0.490  1.00  0.00    -0.190 N 
ATOM      6  H5  UNL     1      17.975   2.557  -0.284  1.00  0.00     0.184 HD
HETATM    7  C6  UNL     1      19.408   1.741   0.942  1.00  0.00     0.080 A 
HETATM    8  C7  UNL     1      19.354   0.484   0.362  1.00  0.00     0.035 A 
HETATM    9  C8  UNL     1      20.182  -0.510   0.853  1.00  0.00     0.038 A 
HETATM   10  C9  UNL     1      21.048  -0.285   1.889  1.00  0.00     0.109 A 
HETATM   11  N12 UNL     1      21.068   0.949   2.422  1.00  0.00    -0.346 N 
ATOM     12  H12 UNL     1      21.706   1.135   3.196  1.00  0.00     0.166 HD
HETATM   13  C18 UNL     1      20.284   1.948   1.981  1.00  0.00     0.112 A 
ENDROOT
BRANCH  10  14
HETATM   14  C10 UNL     1      21.915  -1.356   2.391  1.00  0.00     0.310 C 
HETATM   15  O2  UNL     1      23.136  -1.376   2.107  1.00  0.00    -0.258 OA
BRANCH  14  16
HETATM   16  O3  UNL     1      21.418  -2.360   3.183  1.00  0.00    -0.310 OA
BRANCH  16  17
HETATM   17  C11 UNL     1      21.175  -3.681   2.828  1.00  0.00     0.237 C 
BRANCH  17  18
HETATM   18  C12 UNL     1      22.240  -4.546   3.427  1.00  0.00     0.050 A 
HETATM   19  C13 UNL     1      21.895  -5.701   4.130  1.00  0.00     0.031 A 
HETATM   20  C14 UNL     1      22.870  -6.491   4.687  1.00  0.00     0.029 A 
HETATM   21  C15 UNL     1      24.185  -6.117   4.536  1.00  0.00     0.033 A 
HETATM   22  N10 UNL     1      24.476  -5.011   3.861  1.00  0.00    -0.304 N 
HETATM   23  N11 UNL     1      23.541  -4.273   3.339  1.00  0.00    -0.303 N 
ATOM     24  H10 UNL     1      25.451  -4.735   3.750  1.00  0.00     0.186 HD
ATOM     25  H11 UNL     1      23.821  -3.433   2.831  1.00  0.00     0.186 HD
BRANCH  21  26
HETATM   26  C16 UNL     1      25.283  -6.929   5.116  1.00  0.00     0.138 C 
BRANCH  26  27
HETATM   27  C17 UNL     1      26.619  -6.470   4.696  1.00  0.00     0.118 A 
HETATM   28  N6  UNL     1      27.136  -6.594   3.441  1.00  0.00    -0.272 N 
HETATM   29  N7  UNL     1      28.366  -6.062   3.444  1.00  0.00    -0.227 N 
ATOM     30  H6  UNL     1      26.668  -7.017   2.639  1.00  0.00     0.190 HD
HETATM   31  N8  UNL     1      28.616  -5.619   4.658  1.00  0.00    -0.227 N 
ATOM     32  H7  UNL     1      28.999  -6.010   2.645  1.00  0.00     0.210 HD
HETATM   33  N9  UNL     1      27.563  -5.863   5.418  1.00  0.00    -0.272 N 
ATOM     34  H8  UNL     1      29.477  -5.164   4.961  1.00  0.00     0.210 HD
ATOM     35  H9  UNL     1      27.483  -5.623   6.407  1.00  0.00     0.190 HD
ENDBRANCH  26  27
ENDBRANCH  21  26
ENDBRANCH  17  18
ENDBRANCH  16  17
ENDBRANCH  14  16
ENDBRANCH  10  14
BRANCH   1  36
HETATM   36  O1  UNL     1      21.189   3.426   3.578  1.00  0.00    -0.326 OA
BRANCH  36  37
HETATM   37  C3  UNL     1      21.971   4.562   3.805  1.00  0.00     0.255 C 
BRANCH  37  38
HETATM   38  C2  UNL     1      23.379   4.144   4.000  1.00  0.00     0.137 A 
HETATM   39  N2  UNL     1      24.355   5.077   3.972  1.00  0.00    -0.178 N 
HETATM   40  C1  UNL     1      25.648   4.762   4.151  1.00  0.00     0.691 A 
ATOM     41  H2  UNL     1      24.101   6.052   3.811  1.00  0.00     0.185 HD
HETATM   42  N15 UNL     1      25.936   3.469   4.361  1.00  0.00    -0.023 N 
HETATM   43  C19 UNL     1      24.987   2.512   4.394  1.00  0.00     0.691 A 
ATOM     44  H15 UNL     1      26.910   3.200   4.501  1.00  0.00     0.203 HD
HETATM   45  N13 UNL     1      23.689   2.857   4.211  1.00  0.00    -0.178 N 
ATOM     46  H13 UNL     1      22.957   2.146   4.234  1.00  0.00     0.185 HD
BRANCH  40  47
HETATM   47  N1  UNL     1      26.613   5.608   4.134  1.00  0.00    -0.234 N 
ATOM     48  H12 UNL     1      27.014   5.871   3.234  1.00  0.00     0.174 HD
ATOM     49  H11 UNL     1      27.017   6.042   4.965  1.00  0.00     0.174 HD
ENDBRANCH  40  47
BRANCH  43  50
HETATM   50  N14 UNL     1      25.361   1.295   4.602  1.00  0.00    -0.234 N 
ATOM     51 2H14 UNL     1      24.654   0.620   4.891  1.00  0.00     0.174 HD
ATOM     52 1H14 UNL     1      26.328   0.989   4.488  1.00  0.00     0.174 HD
ENDBRANCH  43  50
ENDBRANCH  37  38
ENDBRANCH  36  37
ENDBRANCH   1  36
BRANCH   4  53
HETATM   53  N4  UNL     1      17.884   4.911   0.594  1.00  0.00    -0.234 N 
ATOM     54  H42 UNL     1      18.285   5.742   0.157  1.00  0.00     0.174 HD
ATOM     55  H41 UNL     1      16.868   4.853   0.667  1.00  0.00     0.174 HD
ENDBRANCH   4  53
TORSDOF 12
ENDMDL
MODEL 5
REMARK VINA RESULT: -9.665110452      2.482      4.231
REMARK  12 active torsions:
REMARK  status: ('A' for Active; 'I' for Inactive)
REMARK    1  A    between atoms: N1_1  and  C1_4 
REMARK    2  A    between atoms: C2_7  and  C3_8 
REMARK    3  A    between atoms: C3_8  and  O1_9 
REMARK    4  A    between atoms: O1_9  and  C4_10 
REMARK    5  A    between atoms: C5_13  and  N4_14 
REMARK    6  A    between atoms: C9_22  and  C10_23 
REMARK    7  A    between atoms: C10_23  and  O3_25 
REMARK    8  A    between atoms: O3_25  and  C11_26 
REMARK    9  A    between atoms: C11_26  and  C12_27 
REMARK   10  A    between atoms: C15_30  and  C16_31 
REMARK   11  A    between atoms: C16_31  and  C17_32 
REMARK   12  A    between atoms: C19_50  and  N14_51 
ROOT
HETATM    1  C4  UNL     1      29.015  -3.388   5.756  1.00  0.00     0.187 A 
HETATM    2  N3  UNL     1      30.278  -3.279   6.173  1.00  0.00    -0.168 N 
ATOM      3  H3  UNL     1      30.587  -2.385   6.554  1.00  0.00     0.186 HD
HETATM    4  C5  UNL     1      31.162  -4.289   6.115  1.00  0.00     0.678 A 
HETATM    5  N5  UNL     1      30.745  -5.463   5.613  1.00  0.00    -0.190 N 
ATOM      6  H5  UNL     1      31.397  -6.245   5.561  1.00  0.00     0.184 HD
HETATM    7  C6  UNL     1      29.475  -5.628   5.177  1.00  0.00     0.080 A 
HETATM    8  C7  UNL     1      29.064  -6.847   4.662  1.00  0.00     0.035 A 
HETATM    9  C8  UNL     1      27.757  -6.977   4.225  1.00  0.00     0.038 A 
HETATM   10  C9  UNL     1      26.866  -5.940   4.290  1.00  0.00     0.109 A 
HETATM   11  N12 UNL     1      27.308  -4.775   4.796  1.00  0.00    -0.346 N 
ATOM     12  H12 UNL     1      26.658  -3.990   4.851  1.00  0.00     0.166 HD
HETATM   13  C18 UNL     1      28.567  -4.599   5.233  1.00  0.00     0.112 A 
ENDROOT
BRANCH  10  14
HETATM   14  C10 UNL     1      25.487  -6.103   3.821  1.00  0.00     0.310 C 
HETATM   15  O2  UNL     1      25.250  -6.530   2.667  1.00  0.00    -0.258 OA
BRANCH  14  16
HETATM   16  O3  UNL     1      24.421  -5.793   4.629  1.00  0.00    -0.310 OA
BRANCH  16  17
HETATM   17  C11 UNL     1      23.069  -5.953   4.351  1.00  0.00     0.237 C 
BRANCH  17  18
HETATM   18  C12 UNL     1      22.588  -4.757   3.590  1.00  0.00     0.050 A 
HETATM   19  C13 UNL     1      21.797  -3.795   4.218  1.00  0.00     0.031 A 
HETATM   20  C14 UNL     1      21.347  -2.701   3.519  1.00  0.00     0.029 A 
HETATM   21  C15 UNL     1      21.695  -2.581   2.194  1.00  0.00     0.033 A 
HETATM   22  N10 UNL     1      22.450  -3.517   1.629  1.00  0.00    -0.304 N 
HETATM   23  N11 UNL     1      22.867  -4.547   2.305  1.00  0.00    -0.303 N 
ATOM     24  H10 UNL     1      22.707  -3.426   0.647  1.00  0.00     0.186 HD
ATOM     25  H11 UNL     1      23.443  -5.236   1.820  1.00  0.00     0.186 HD
BRANCH  21  26
HETATM   26  C16 UNL     1      21.240  -1.422   1.386  1.00  0.00     0.138 C 
BRANCH  26  27
HETATM   27  C17 UNL     1      21.709  -0.132   1.919  1.00  0.00     0.118 A 
HETATM   28  N6  UNL     1      22.964   0.118   2.390  1.00  0.00    -0.272 N 
HETATM   29  N7  UNL     1      23.013   1.397   2.786  1.00  0.00    -0.227 N 
ATOM     30  H6  UNL     1      23.732  -0.553   2.433  1.00  0.00     0.190 HD
HETATM   31  N8  UNL     1      21.831   1.935   2.573  1.00  0.00    -0.227 N 
ATOM     32  H7  UNL     1      23.824   1.871   3.184  1.00  0.00     0.210 HD
HETATM   33  N9  UNL     1      21.039   1.016   2.049  1.00  0.00    -0.272 N 
ATOM     34  H8  UNL     1      21.569   2.900   2.778  1.00  0.00     0.210 HD
ATOM     35  H9  UNL     1      20.065   1.161   1.783  1.00  0.00     0.190 HD
ENDBRANCH  26  27
ENDBRANCH  21  26
ENDBRANCH  17  18
ENDBRANCH  16  17
ENDBRANCH  14  16
ENDBRANCH  10  14
BRANCH   1  36
HETATM   36  O1  UNL     1      28.103  -2.362   5.811  1.00  0.00    -0.326 OA
BRANCH  36  37
HETATM   37  C3  UNL     1      28.257  -1.139   6.471  1.00  0.00     0.255 C 
BRANCH  37  38
HETATM   38  C2  UNL     1      27.863  -1.308   7.889  1.00  0.00     0.137 A 
HETATM   39  N2  UNL     1      28.487  -0.578   8.839  1.00  0.00    -0.178 N 
HETATM   40  C1  UNL     1      28.169  -0.680  10.140  1.00  0.00     0.691 A 
ATOM     41  H2  UNL     1      29.223   0.071   8.559  1.00  0.00     0.185 HD
HETATM   42  N15 UNL     1      27.196  -1.544  10.463  1.00  0.00    -0.023 N 
HETATM   43  C19 UNL     1      26.553  -2.289   9.540  1.00  0.00     0.691 A 
ATOM     44  H15 UNL     1      26.933  -1.642  11.444  1.00  0.00     0.203 HD
HETATM   45  N13 UNL     1      26.893  -2.167   8.235  1.00  0.00    -0.178 N 
ATOM     46  H13 UNL     1      26.416  -2.721   7.523  1.00  0.00     0.185 HD
BRANCH  40  47
HETATM   47  N1  UNL     1      28.729  -0.010  11.081  1.00  0.00    -0.234 N 
ATOM     48  H12 UNL     1      28.907  -0.478  11.970  1.00  0.00     0.174 HD
ATOM     49  H11 UNL     1      29.013   0.967  11.007  1.00  0.00     0.174 HD
ENDBRANCH  40  47
BRANCH  43  50
HETATM   50  N14 UNL     1      25.631  -3.093   9.948  1.00  0.00    -0.234 N 
ATOM     51 2H14 UNL     1      25.919  -3.956  10.408  1.00  0.00     0.174 HD
ATOM     52 1H14 UNL     1      24.637  -2.897   9.829  1.00  0.00     0.174 HD
ENDBRANCH  43  50
ENDBRANCH  37  38
ENDBRANCH  36  37
ENDBRANCH   1  36
BRANCH   4  53
HETATM   53  N4  UNL     1      32.385  -4.146   6.530  1.00  0.00    -0.234 N 
ATOM     54  H42 UNL     1      32.632  -3.386   7.164  1.00  0.00     0.174 HD
ATOM     55  H41 UNL     1      33.126  -4.783   6.237  1.00  0.00     0.174 HD
ENDBRANCH   4  53
TORSDOF 12
ENDMDL
