MODEL 1
REMARK VINA RESULT: -9.208396459      0.000      0.000
REMARK  9 active torsions:
REMARK  status: ('A' for Active; 'I' for Inactive)
REMARK       I    between atoms: C2_2  and  N1_4 
REMARK    1  A    between atoms: C6_11  and  N2_12 
REMARK       I    between atoms: N2_12  and  C7_14 
REMARK       I    between atoms: C7_14  and  N3_15 
REMARK       I    between atoms: C7_14  and  N4_19 
REMARK    2  A    between atoms: N4_19  and  C8_21 
REMARK    3  A    between atoms: C8_21  and  C9_22 
REMARK    4  A    between atoms: C8_21  and  C17_39 
REMARK    5  A    between atoms: C9_22  and  C10_24 
REMARK    6  A    between atoms: C11_29  and  N7_30 
REMARK    7  A    between atoms: N7_30  and  C12_31 
REMARK    8  A    between atoms: C17_39  and  O3_40 
REMARK    9  A    between atoms: N9_42  and  O4_44 
ROOT
HETATM    1  C8  UNL     1      23.602  -5.397   3.569  1.00  0.00     0.137 C 
ENDROOT
BRANCH   1   2
HETATM    2  N4  UNL     1      24.912  -4.880   3.461  1.00  0.00    -0.340 N 
HETATM    3  C7  UNL     1      26.023  -5.761   3.367  1.00  0.00     0.383 C 
HETATM    4  N2  UNL     1      27.218  -4.973   3.474  1.00  0.00    -0.365 N 
HETATM    5  N3  UNL     1      26.055  -6.930   4.114  1.00  0.00    -0.041 N 
ATOM      6  H2  UNL     1      27.759  -4.700   2.654  1.00  0.00     0.158 HD
ATOM      7  H33 UNL     1      26.875  -7.486   3.875  1.00  0.00     0.279 HD
ATOM      8  H32 UNL     1      26.264  -6.727   5.091  1.00  0.00     0.279 HD
ATOM      9  H31 UNL     1      25.206  -7.491   4.037  1.00  0.00     0.279 HD
ATOM     10  H4  UNL     1      25.062  -3.871   3.451  1.00  0.00     0.163 HD
BRANCH   4  11
HETATM   11  C6  UNL     1      27.595  -4.603   4.752  1.00  0.00     0.178 C 
HETATM   12  C3  UNL     1      29.001  -4.716   5.178  1.00  0.00     0.027 C 
HETATM   13  N1  UNL     1      30.049  -4.796   4.483  1.00  0.00    -0.332 N 
HETATM   14  C4  UNL     1      28.977  -4.648   6.694  1.00  0.00     0.135 C 
HETATM   15  C2  UNL     1      31.373  -4.836   4.961  1.00  0.00     0.217 C 
ATOM     16  H1  UNL     1      29.926  -4.836   3.471  1.00  0.00     0.168 HD
HETATM   17  C1  UNL     1      32.196  -3.630   5.219  1.00  0.00     0.117 C 
HETATM   18  O1  UNL     1      31.949  -5.950   5.206  1.00  0.00    -0.274 OA
HETATM   19  S1  UNL     1      27.921  -3.121   6.822  1.00  0.00    -0.114 SA
HETATM   20  C5  UNL     1      27.184  -3.233   5.202  1.00  0.00     0.073 C 
HETATM   21  S2  UNL     1      26.421  -2.303   4.520  1.00  0.00    -0.075 SA
ENDBRANCH   4  11
ENDBRANCH   1   2
BRANCH   1  22
HETATM   22  C9  UNL     1      22.518  -4.515   3.911  1.00  0.00     0.237 C 
HETATM   23  O2  UNL     1      21.646  -4.871   4.766  1.00  0.00    -0.283 OA
BRANCH  22  24
HETATM   24  C10 UNL     1      22.270  -3.165   3.363  1.00  0.00     0.146 A 
HETATM   25  N5  UNL     1      23.119  -2.169   3.223  1.00  0.00    -0.288 N 
HETATM   26  N6  UNL     1      22.790  -1.066   2.755  1.00  0.00    -0.267 N 
ATOM     27  H5  UNL     1      24.087  -2.309   3.510  1.00  0.00     0.188 HD
HETATM   28  C11 UNL     1      21.487  -0.877   2.368  1.00  0.00     0.241 A 
ATOM     29  H6  UNL     1      23.474  -0.316   2.659  1.00  0.00     0.190 HD
HETATM   30  S3  UNL     1      20.848  -2.456   2.764  1.00  0.00    -0.014 SA
BRANCH  28  31
HETATM   31  N7  UNL     1      20.998   0.114   1.907  1.00  0.00    -0.361 NA
BRANCH  31  32
HETATM   32  C12 UNL     1      20.245   1.104   1.570  1.00  0.00     0.181 A 
HETATM   33  C13 UNL     1      19.349   1.076   0.473  1.00  0.00     0.064 A 
HETATM   34  C14 UNL     1      18.569   2.159   0.162  1.00  0.00     0.006 A 
HETATM   35  C15 UNL     1      18.662   3.296   0.934  1.00  0.00     0.017 A 
HETATM   36  C16 UNL     1      19.525   3.341   2.002  1.00  0.00     0.090 A 
HETATM   37  N8  UNL     1      20.265   2.285   2.282  1.00  0.00    -0.341 N 
ATOM     38  H8  UNL     1      20.898   2.346   3.079  1.00  0.00     0.167 HD
ENDBRANCH  31  32
ENDBRANCH  28  31
ENDBRANCH  22  24
ENDBRANCH   1  22
BRANCH   1  39
HETATM   39  C17 UNL     1      23.375  -6.394   2.513  1.00  0.00     0.191 C 
HETATM   40  N9  UNL     1      23.100  -7.606   2.949  1.00  0.00    -0.245 N 
ATOM     41  H9  UNL     1      23.061  -7.780   3.954  1.00  0.00     0.196 HD
BRANCH  39  42
HETATM   42  O3  UNL     1      23.411  -6.224   1.165  1.00  0.00    -0.343 OA
ATOM     43  H3  UNL     1      23.544  -6.878   0.489  1.00  0.00     0.219 HD
ENDBRANCH  39  42
BRANCH  40  44
HETATM   44  O4  UNL     1      22.864  -8.643   2.072  1.00  0.00    -0.288 OA
ATOM     45  H4  UNL     1      21.991  -8.997   1.955  1.00  0.00     0.244 HD
ENDBRANCH  40  44
ENDBRANCH   1  39
TORSDOF 9
ENDMDL
MODEL 2
REMARK VINA RESULT: -8.749380837      1.313      1.444
REMARK  9 active torsions:
REMARK  status: ('A' for Active; 'I' for Inactive)
REMARK       I    between atoms: C2_2  and  N1_4 
REMARK    1  A    between atoms: C6_11  and  N2_12 
REMARK       I    between atoms: N2_12  and  C7_14 
REMARK       I    between atoms: C7_14  and  N3_15 
REMARK       I    between atoms: C7_14  and  N4_19 
REMARK    2  A    between atoms: N4_19  and  C8_21 
REMARK    3  A    between atoms: C8_21  and  C9_22 
REMARK    4  A    between atoms: C8_21  and  C17_39 
REMARK    5  A    between atoms: C9_22  and  C10_24 
REMARK    6  A    between atoms: C11_29  and  N7_30 
REMARK    7  A    between atoms: N7_30  and  C12_31 
REMARK    8  A    between atoms: C17_39  and  O3_40 
REMARK    9  A    between atoms: N9_42  and  O4_44 
ROOT
HETATM    1  C8  UNL     1      23.856  -4.496   3.567  1.00  0.00     0.137 C 
ENDROOT
BRANCH   1   2
HETATM    2  N4  UNL     1      25.005  -3.758   3.928  1.00  0.00    -0.340 N 
HETATM    3  C7  UNL     1      26.281  -4.135   3.429  1.00  0.00     0.383 C 
HETATM    4  N2  UNL     1      27.268  -3.347   4.113  1.00  0.00    -0.365 N 
HETATM    5  N3  UNL     1      26.620  -5.475   3.311  1.00  0.00    -0.041 N 
ATOM      6  H2  UNL     1      27.688  -2.521   3.687  1.00  0.00     0.158 HD
ATOM      7  H33 UNL     1      27.532  -5.577   2.868  1.00  0.00     0.279 HD
ATOM      8  H32 UNL     1      26.828  -5.875   4.225  1.00  0.00     0.279 HD
ATOM      9  H31 UNL     1      25.919  -6.035   2.825  1.00  0.00     0.279 HD
ATOM     10  H4  UNL     1      24.918  -2.953   4.548  1.00  0.00     0.163 HD
BRANCH   4  11
HETATM   11  C6  UNL     1      27.617  -3.769   5.383  1.00  0.00     0.178 C 
HETATM   12  C3  UNL     1      28.940  -4.368   5.633  1.00  0.00     0.027 C 
HETATM   13  N1  UNL     1      29.999  -4.292   4.954  1.00  0.00    -0.332 N 
HETATM   14  C4  UNL     1      28.821  -5.083   6.967  1.00  0.00     0.135 C 
HETATM   15  C2  UNL     1      31.252  -4.841   5.291  1.00  0.00     0.217 C 
ATOM     16  H1  UNL     1      29.943  -3.782   4.072  1.00  0.00     0.168 HD
HETATM   17  C1  UNL     1      32.274  -4.134   6.101  1.00  0.00     0.117 C 
HETATM   18  O1  UNL     1      31.582  -6.013   4.903  1.00  0.00    -0.274 OA
HETATM   19  S1  UNL     1      28.076  -3.660   7.905  1.00  0.00    -0.114 SA
HETATM   20  C5  UNL     1      27.449  -2.773   6.491  1.00  0.00     0.073 C 
HETATM   21  S2  UNL     1      26.934  -1.492   6.417  1.00  0.00    -0.075 SA
ENDBRANCH   4  11
ENDBRANCH   1   2
BRANCH   1  22
HETATM   22  C9  UNL     1      22.980  -3.989   2.544  1.00  0.00     0.237 C 
HETATM   23  O2  UNL     1      22.448  -4.781   1.703  1.00  0.00    -0.283 OA
BRANCH  22  24
HETATM   24  C10 UNL     1      22.595  -2.578   2.330  1.00  0.00     0.146 A 
HETATM   25  N5  UNL     1      23.224  -1.489   2.718  1.00  0.00    -0.288 N 
HETATM   26  N6  UNL     1      22.795  -0.346   2.487  1.00  0.00    -0.267 N 
ATOM     27  H5  UNL     1      24.100  -1.588   3.231  1.00  0.00     0.188 HD
HETATM   28  C11 UNL     1      21.616  -0.212   1.800  1.00  0.00     0.241 A 
ATOM     29  H6  UNL     1      23.309   0.477   2.803  1.00  0.00     0.190 HD
HETATM   30  S3  UNL     1      21.245  -1.903   1.551  1.00  0.00    -0.014 SA
BRANCH  28  31
HETATM   31  N7  UNL     1      21.057   0.803   1.497  1.00  0.00    -0.361 NA
BRANCH  31  32
HETATM   32  C12 UNL     1      20.298   1.840   1.406  1.00  0.00     0.181 A 
HETATM   33  C13 UNL     1      19.078   1.864   0.687  1.00  0.00     0.064 A 
HETATM   34  C14 UNL     1      18.308   2.996   0.625  1.00  0.00     0.006 A 
HETATM   35  C15 UNL     1      18.734   4.133   1.277  1.00  0.00     0.017 A 
HETATM   36  C16 UNL     1      19.915   4.128   1.980  1.00  0.00     0.090 A 
HETATM   37  N8  UNL     1      20.639   3.025   2.024  1.00  0.00    -0.341 N 
ATOM     38  H8  UNL     1      21.511   3.050   2.552  1.00  0.00     0.167 HD
ENDBRANCH  31  32
ENDBRANCH  28  31
ENDBRANCH  22  24
ENDBRANCH   1  22
BRANCH   1  39
HETATM   39  C17 UNL     1      24.172  -5.932   3.557  1.00  0.00     0.191 C 
HETATM   40  N9  UNL     1      24.366  -6.462   4.747  1.00  0.00    -0.245 N 
ATOM     41  H9  UNL     1      24.290  -5.873   5.577  1.00  0.00     0.196 HD
BRANCH  39  42
HETATM   42  O3  UNL     1      24.284  -6.767   2.491  1.00  0.00    -0.343 OA
ATOM     43  H3  UNL     1      25.072  -7.059   2.048  1.00  0.00     0.219 HD
ENDBRANCH  39  42
BRANCH  40  44
HETATM   44  O4  UNL     1      24.670  -7.798   4.891  1.00  0.00    -0.288 OA
ATOM     45  H4  UNL     1      25.245  -8.099   5.584  1.00  0.00     0.244 HD
ENDBRANCH  40  44
ENDBRANCH   1  39
TORSDOF 9
ENDMDL
MODEL 3
REMARK VINA RESULT: -8.663788244      1.301      1.516
REMARK  9 active torsions:
REMARK  status: ('A' for Active; 'I' for Inactive)
REMARK       I    between atoms: C2_2  and  N1_4 
REMARK    1  A    between atoms: C6_11  and  N2_12 
REMARK       I    between atoms: N2_12  and  C7_14 
REMARK       I    between atoms: C7_14  and  N3_15 
REMARK       I    between atoms: C7_14  and  N4_19 
REMARK    2  A    between atoms: N4_19  and  C8_21 
REMARK    3  A    between atoms: C8_21  and  C9_22 
REMARK    4  A    between atoms: C8_21  and  C17_39 
REMARK    5  A    between atoms: C9_22  and  C10_24 
REMARK    6  A    between atoms: C11_29  and  N7_30 
REMARK    7  A    between atoms: N7_30  and  C12_31 
REMARK    8  A    between atoms: C17_39  and  O3_40 
REMARK    9  A    between atoms: N9_42  and  O4_44 
ROOT
HETATM    1  C8  UNL     1      23.889  -4.859   3.702  1.00  0.00     0.137 C 
ENDROOT
BRANCH   1   2
HETATM    2  N4  UNL     1      25.099  -4.164   3.923  1.00  0.00    -0.340 N 
HETATM    3  C7  UNL     1      26.319  -4.670   3.399  1.00  0.00     0.383 C 
HETATM    4  N2  UNL     1      27.389  -3.882   3.944  1.00  0.00    -0.365 N 
HETATM    5  N3  UNL     1      26.570  -6.034   3.404  1.00  0.00    -0.041 N 
ATOM      6  H2  UNL     1      27.830  -3.133   3.411  1.00  0.00     0.158 HD
ATOM      7  H33 UNL     1      27.447  -6.239   2.926  1.00  0.00     0.279 HD
ATOM      8  H32 UNL     1      26.809  -6.353   4.343  1.00  0.00     0.279 HD
ATOM      9  H31 UNL     1      25.810  -6.594   3.017  1.00  0.00     0.279 HD
ATOM     10  H4  UNL     1      25.096  -3.296   4.459  1.00  0.00     0.163 HD
BRANCH   4  11
HETATM   11  C6  UNL     1      27.787  -4.196   5.230  1.00  0.00     0.178 C 
HETATM   12  C3  UNL     1      29.155  -4.677   5.491  1.00  0.00     0.027 C 
HETATM   13  N1  UNL     1      30.196  -4.565   4.789  1.00  0.00    -0.332 N 
HETATM   14  C4  UNL     1      29.111  -5.313   6.869  1.00  0.00     0.135 C 
HETATM   15  C2  UNL     1      31.492  -4.996   5.134  1.00  0.00     0.217 C 
ATOM     16  H1  UNL     1      30.089  -4.118   3.878  1.00  0.00     0.168 HD
HETATM   17  C1  UNL     1      32.468  -4.164   5.879  1.00  0.00     0.117 C 
HETATM   18  O1  UNL     1      31.904  -6.162   4.814  1.00  0.00    -0.274 OA
HETATM   19  S1  UNL     1      28.273  -3.893   7.731  1.00  0.00    -0.114 SA
HETATM   20  C5  UNL     1      27.561  -3.147   6.277  1.00  0.00     0.073 C 
HETATM   21  S2  UNL     1      26.948  -1.916   6.134  1.00  0.00    -0.075 SA
ENDBRANCH   4  11
ENDBRANCH   1   2
BRANCH   1  22
HETATM   22  C9  UNL     1      23.141  -4.616   2.498  1.00  0.00     0.237 C 
HETATM   23  O2  UNL     1      23.070  -5.508   1.594  1.00  0.00    -0.283 OA
BRANCH  22  24
HETATM   24  C10 UNL     1      22.398  -3.385   2.152  1.00  0.00     0.146 A 
HETATM   25  N5  UNL     1      21.430  -3.233   1.273  1.00  0.00    -0.288 N 
HETATM   26  N6  UNL     1      20.883  -2.137   1.058  1.00  0.00    -0.267 N 
ATOM     27  H5  UNL     1      21.114  -4.048   0.747  1.00  0.00     0.188 HD
HETATM   28  C11 UNL     1      21.307  -1.041   1.764  1.00  0.00     0.241 A 
ATOM     29  H6  UNL     1      20.134  -2.056   0.371  1.00  0.00     0.190 HD
HETATM   30  S3  UNL     1      22.549  -1.798   2.735  1.00  0.00    -0.014 SA
BRANCH  28  31
HETATM   31  N7  UNL     1      20.901   0.083   1.683  1.00  0.00    -0.361 NA
BRANCH  31  32
HETATM   32  C12 UNL     1      20.207   1.164   1.583  1.00  0.00     0.181 A 
HETATM   33  C13 UNL     1      19.173   1.353   0.635  1.00  0.00     0.064 A 
HETATM   34  C14 UNL     1      18.464   2.524   0.575  1.00  0.00     0.006 A 
HETATM   35  C15 UNL     1      18.768   3.537   1.458  1.00  0.00     0.017 A 
HETATM   36  C16 UNL     1      19.769   3.372   2.385  1.00  0.00     0.090 A 
HETATM   37  N8  UNL     1      20.437   2.234   2.422  1.00  0.00    -0.341 N 
ATOM     38  H8  UNL     1      21.174   2.139   3.120  1.00  0.00     0.167 HD
ENDBRANCH  31  32
ENDBRANCH  28  31
ENDBRANCH  22  24
ENDBRANCH   1  22
BRANCH   1  39
HETATM   39  C17 UNL     1      24.024  -6.248   4.163  1.00  0.00     0.191 C 
HETATM   40  N9  UNL     1      23.491  -7.149   3.363  1.00  0.00    -0.245 N 
ATOM     41  H9  UNL     1      23.033  -6.847   2.504  1.00  0.00     0.196 HD
BRANCH  39  42
HETATM   42  O3  UNL     1      24.623  -6.712   5.292  1.00  0.00    -0.343 OA
ATOM     43  H3  UNL     1      24.558  -7.574   5.685  1.00  0.00     0.219 HD
ENDBRANCH  39  42
BRANCH  40  44
HETATM   44  O4  UNL     1      23.543  -8.492   3.669  1.00  0.00    -0.288 OA
ATOM     45  H4  UNL     1      23.390  -9.153   3.004  1.00  0.00     0.244 HD
ENDBRANCH  40  44
ENDBRANCH   1  39
TORSDOF 9
ENDMDL
MODEL 4
REMARK VINA RESULT: -8.606796536      1.618      1.867
REMARK  9 active torsions:
REMARK  status: ('A' for Active; 'I' for Inactive)
REMARK       I    between atoms: C2_2  and  N1_4 
REMARK    1  A    between atoms: C6_11  and  N2_12 
REMARK       I    between atoms: N2_12  and  C7_14 
REMARK       I    between atoms: C7_14  and  N3_15 
REMARK       I    between atoms: C7_14  and  N4_19 
REMARK    2  A    between atoms: N4_19  and  C8_21 
REMARK    3  A    between atoms: C8_21  and  C9_22 
REMARK    4  A    between atoms: C8_21  and  C17_39 
REMARK    5  A    between atoms: C9_22  and  C10_24 
REMARK    6  A    between atoms: C11_29  and  N7_30 
REMARK    7  A    between atoms: N7_30  and  C12_31 
REMARK    8  A    between atoms: C17_39  and  O3_40 
REMARK    9  A    between atoms: N9_42  and  O4_44 
ROOT
HETATM    1  C8  UNL     1      23.624  -4.638   3.493  1.00  0.00     0.137 C 
ENDROOT
BRANCH   1   2
HETATM    2  N4  UNL     1      24.702  -3.810   3.875  1.00  0.00    -0.340 N 
HETATM    3  C7  UNL     1      26.013  -4.077   3.396  1.00  0.00     0.383 C 
HETATM    4  N2  UNL     1      26.920  -3.213   4.099  1.00  0.00    -0.365 N 
HETATM    5  N3  UNL     1      26.463  -5.384   3.279  1.00  0.00    -0.041 N 
ATOM      6  H2  UNL     1      27.277  -2.354   3.683  1.00  0.00     0.158 HD
ATOM      7  H33 UNL     1      27.388  -5.408   2.850  1.00  0.00     0.279 HD
ATOM      8  H32 UNL     1      26.689  -5.770   4.195  1.00  0.00     0.279 HD
ATOM      9  H31 UNL     1      25.819  -5.997   2.779  1.00  0.00     0.279 HD
ATOM     10  H4  UNL     1      24.539  -3.017   4.497  1.00  0.00     0.163 HD
BRANCH   4  11
HETATM   11  C6  UNL     1      27.282  -3.612   5.373  1.00  0.00     0.178 C 
HETATM   12  C3  UNL     1      28.560  -4.309   5.601  1.00  0.00     0.027 C 
HETATM   13  N1  UNL     1      29.595  -4.350   4.883  1.00  0.00    -0.332 N 
HETATM   14  C4  UNL     1      28.435  -4.957   6.969  1.00  0.00     0.135 C 
HETATM   15  C2  UNL     1      30.811  -4.988   5.198  1.00  0.00     0.217 C 
ATOM     16  H1  UNL     1      29.547  -3.874   3.982  1.00  0.00     0.168 HD
HETATM   17  C1  UNL     1      31.918  -4.337   5.940  1.00  0.00     0.117 C 
HETATM   18  O1  UNL     1      31.027  -6.198   4.851  1.00  0.00    -0.274 OA
HETATM   19  S1  UNL     1      27.847  -3.439   7.870  1.00  0.00    -0.114 SA
HETATM   20  C5  UNL     1      27.241  -2.561   6.441  1.00  0.00     0.073 C 
HETATM   21  S2  UNL     1      26.830  -1.246   6.330  1.00  0.00    -0.075 SA
ENDBRANCH   4  11
ENDBRANCH   1   2
BRANCH   1  22
HETATM   22  C9  UNL     1      22.782  -4.245   2.395  1.00  0.00     0.237 C 
HETATM   23  O2  UNL     1      22.426  -5.097   1.520  1.00  0.00    -0.283 OA
BRANCH  22  24
HETATM   24  C10 UNL     1      22.245  -2.893   2.133  1.00  0.00     0.146 A 
HETATM   25  N5  UNL     1      21.145  -2.558   1.492  1.00  0.00    -0.288 N 
HETATM   26  N6  UNL     1      20.797  -1.377   1.323  1.00  0.00    -0.267 N 
ATOM     27  H5  UNL     1      20.553  -3.300   1.118  1.00  0.00     0.188 HD
HETATM   28  C11 UNL     1      21.593  -0.379   1.825  1.00  0.00     0.241 A 
ATOM     29  H6  UNL     1      19.937  -1.154   0.822  1.00  0.00     0.190 HD
HETATM   30  S3  UNL     1      22.851  -1.360   2.540  1.00  0.00    -0.014 SA
BRANCH  28  31
HETATM   31  N7  UNL     1      21.417   0.803   1.752  1.00  0.00    -0.361 NA
BRANCH  31  32
HETATM   32  C12 UNL     1      21.099   2.040   1.927  1.00  0.00     0.181 A 
HETATM   33  C13 UNL     1      19.768   2.497   2.084  1.00  0.00     0.064 A 
HETATM   34  C14 UNL     1      19.487   3.825   2.270  1.00  0.00     0.006 A 
HETATM   35  C15 UNL     1      20.525   4.731   2.305  1.00  0.00     0.017 A 
HETATM   36  C16 UNL     1      21.823   4.305   2.155  1.00  0.00     0.090 A 
HETATM   37  N8  UNL     1      22.067   3.021   1.977  1.00  0.00    -0.341 N 
ATOM     38  H8  UNL     1      23.039   2.733   1.868  1.00  0.00     0.167 HD
ENDBRANCH  31  32
ENDBRANCH  28  31
ENDBRANCH  22  24
ENDBRANCH   1  22
BRANCH   1  39
HETATM   39  C17 UNL     1      24.027  -6.049   3.584  1.00  0.00     0.191 C 
HETATM   40  N9  UNL     1      24.163  -6.505   4.812  1.00  0.00    -0.245 N 
ATOM     41  H9  UNL     1      23.988  -5.882   5.601  1.00  0.00     0.196 HD
BRANCH  39  42
HETATM   42  O3  UNL     1      24.270  -6.927   2.576  1.00  0.00    -0.343 OA
ATOM     43  H3  UNL     1      24.175  -7.873   2.578  1.00  0.00     0.219 HD
ENDBRANCH  39  42
BRANCH  40  44
HETATM   44  O4  UNL     1      24.536  -7.811   5.050  1.00  0.00    -0.288 OA
ATOM     45  H4  UNL     1      24.568  -8.159   5.933  1.00  0.00     0.244 HD
ENDBRANCH  40  44
ENDBRANCH   1  39
TORSDOF 9
ENDMDL
MODEL 5
REMARK VINA RESULT: -8.167346740      1.056      1.241
REMARK  9 active torsions:
REMARK  status: ('A' for Active; 'I' for Inactive)
REMARK       I    between atoms: C2_2  and  N1_4 
REMARK    1  A    between atoms: C6_11  and  N2_12 
REMARK       I    between atoms: N2_12  and  C7_14 
REMARK       I    between atoms: C7_14  and  N3_15 
REMARK       I    between atoms: C7_14  and  N4_19 
REMARK    2  A    between atoms: N4_19  and  C8_21 
REMARK    3  A    between atoms: C8_21  and  C9_22 
REMARK    4  A    between atoms: C8_21  and  C17_39 
REMARK    5  A    between atoms: C9_22  and  C10_24 
REMARK    6  A    between atoms: C11_29  and  N7_30 
REMARK    7  A    between atoms: N7_30  and  C12_31 
REMARK    8  A    between atoms: C17_39  and  O3_40 
REMARK    9  A    between atoms: N9_42  and  O4_44 
ROOT
HETATM    1  C8  UNL     1      23.337  -4.453   3.500  1.00  0.00     0.137 C 
ENDROOT
BRANCH   1   2
HETATM    2  N4  UNL     1      24.671  -3.990   3.519  1.00  0.00    -0.340 N 
HETATM    3  C7  UNL     1      25.741  -4.882   3.237  1.00  0.00     0.383 C 
HETATM    4  N2  UNL     1      26.969  -4.197   3.527  1.00  0.00    -0.365 N 
HETATM    5  N3  UNL     1      25.705  -6.188   3.704  1.00  0.00    -0.041 N 
ATOM      6  H2  UNL     1      27.537  -3.775   2.791  1.00  0.00     0.158 HD
ATOM      7  H33 UNL     1      26.503  -6.716   3.353  1.00  0.00     0.279 HD
ATOM      8  H32 UNL     1      25.907  -6.218   4.704  1.00  0.00     0.279 HD
ATOM      9  H31 UNL     1      24.833  -6.675   3.499  1.00  0.00     0.279 HD
ATOM     10  H4  UNL     1      24.867  -3.013   3.736  1.00  0.00     0.163 HD
BRANCH   4  11
HETATM   11  C6  UNL     1      27.340  -4.140   4.857  1.00  0.00     0.178 C 
HETATM   12  C3  UNL     1      28.697  -4.538   5.271  1.00  0.00     0.027 C 
HETATM   13  N1  UNL     1      29.752  -4.635   4.588  1.00  0.00    -0.332 N 
HETATM   14  C4  UNL     1      28.620  -4.761   6.771  1.00  0.00     0.135 C 
HETATM   15  C2  UNL     1      31.035  -4.961   5.067  1.00  0.00     0.217 C 
ATOM     16  H1  UNL     1      29.667  -4.461   3.586  1.00  0.00     0.168 HD
HETATM   17  C1  UNL     1      32.009  -3.961   5.569  1.00  0.00     0.117 C 
HETATM   18  O1  UNL     1      31.438  -6.173   5.096  1.00  0.00    -0.274 OA
HETATM   19  S1  UNL     1      27.785  -3.151   7.182  1.00  0.00    -0.114 SA
HETATM   20  C5  UNL     1      27.108  -2.838   5.563  1.00  0.00     0.073 C 
HETATM   21  S2  UNL     1      26.514  -1.692   5.068  1.00  0.00    -0.075 SA
ENDBRANCH   4  11
ENDBRANCH   1   2
BRANCH   1  22
HETATM   22  C9  UNL     1      22.381  -3.825   2.626  1.00  0.00     0.237 C 
HETATM   23  O2  UNL     1      21.602  -4.533   1.912  1.00  0.00    -0.283 OA
BRANCH  22  24
HETATM   24  C10 UNL     1      22.175  -2.373   2.439  1.00  0.00     0.146 A 
HETATM   25  N5  UNL     1      23.047  -1.397   2.581  1.00  0.00    -0.288 N 
HETATM   26  N6  UNL     1      22.753  -0.202   2.405  1.00  0.00    -0.267 N 
ATOM     27  H5  UNL     1      24.003  -1.631   2.847  1.00  0.00     0.188 HD
HETATM   28  C11 UNL     1      21.467   0.113   2.049  1.00  0.00     0.241 A 
ATOM     29  H6  UNL     1      23.455   0.529   2.523  1.00  0.00     0.190 HD
HETATM   30  S3  UNL     1      20.786  -1.497   2.008  1.00  0.00    -0.014 SA
BRANCH  28  31
HETATM   31  N7  UNL     1      21.011   1.202   1.846  1.00  0.00    -0.361 NA
BRANCH  31  32
HETATM   32  C12 UNL     1      20.269   2.242   1.679  1.00  0.00     0.181 A 
HETATM   33  C13 UNL     1      19.023   2.223   1.007  1.00  0.00     0.064 A 
HETATM   34  C14 UNL     1      18.273   3.361   0.861  1.00  0.00     0.006 A 
HETATM   35  C15 UNL     1      18.746   4.546   1.380  1.00  0.00     0.017 A 
HETATM   36  C16 UNL     1      19.953   4.584   2.036  1.00  0.00     0.090 A 
HETATM   37  N8  UNL     1      20.656   3.474   2.163  1.00  0.00    -0.341 N 
ATOM     38  H8  UNL     1      21.549   3.532   2.654  1.00  0.00     0.167 HD
ENDBRANCH  31  32
ENDBRANCH  28  31
ENDBRANCH  22  24
ENDBRANCH   1  22
BRANCH   1  39
HETATM   39  C17 UNL     1      23.319  -5.919   3.603  1.00  0.00     0.191 C 
HETATM   40  N9  UNL     1      23.281  -6.553   2.449  1.00  0.00    -0.245 N 
ATOM     41  H9  UNL     1      23.267  -6.015   1.582  1.00  0.00     0.196 HD
BRANCH  39  42
HETATM   42  O3  UNL     1      23.339  -6.690   4.722  1.00  0.00    -0.343 OA
ATOM     43  H3  UNL     1      24.020  -7.281   5.022  1.00  0.00     0.219 HD
ENDBRANCH  39  42
BRANCH  40  44
HETATM   44  O4  UNL     1      23.261  -7.930   2.393  1.00  0.00    -0.288 OA
ATOM     45  H4  UNL     1      22.789  -8.386   1.707  1.00  0.00     0.244 HD
ENDBRANCH  40  44
ENDBRANCH   1  39
TORSDOF 9
ENDMDL
