MODEL 1
REMARK VINA RESULT: -8.923546914      0.000      0.000
REMARK  12 active torsions:
REMARK  status: ('A' for Active; 'I' for Inactive)
REMARK    1  A    between atoms: C4_8  and  S1_9 
REMARK    2  A    between atoms: S1_9  and  S2_10 
REMARK    3  A    between atoms: S2_10  and  C5_11 
REMARK    4  A    between atoms: C5_11  and  C6_12 
REMARK    5  A    between atoms: C6_12  and  N3_13 
REMARK    6  A    between atoms: N3_13  and  C7_14 
REMARK    7  A    between atoms: N3_13  and  C9_20 
REMARK    8  A    between atoms: C7_14  and  C8_15 
REMARK    9  A    between atoms: C8_15  and  O2_16 
REMARK   10  A    between atoms: C8_15  and  O3_18 
REMARK   11  A    between atoms: C10_21  and  O4_22 
REMARK   12  A    between atoms: N5_27  and  O5_29 
ROOT
HETATM    1  C9  UNL     1      27.020  -5.066   5.045  1.00  0.00     0.156 C 
HETATM    2  C10 UNL     1      28.066  -5.360   4.289  1.00  0.00     0.187 C 
HETATM    3  N4  UNL     1      29.452  -5.207   4.623  1.00  0.00    -0.319 N 
ATOM      4  H4  UNL     1      30.124  -5.678   4.017  1.00  0.00     0.169 HD
HETATM    5  C11 UNL     1      29.983  -4.468   5.713  1.00  0.00     0.129 C 
HETATM    6  N5  UNL     1      31.238  -4.240   5.653  1.00  0.00    -0.253 N 
ATOM      7  H5  UNL     1      31.701  -3.714   6.395  1.00  0.00     0.196 HD
HETATM    8  C12 UNL     1      29.312  -3.929   6.890  1.00  0.00     0.091 C 
HETATM    9  C13 UNL     1      27.999  -3.957   7.175  1.00  0.00     0.119 C 
HETATM   10  C14 UNL     1      27.604  -3.345   8.420  1.00  0.00     0.117 C 
HETATM   11  N6  UNL     1      27.296  -2.839   9.421  1.00  0.00    -0.190 NA
HETATM   12  N7  UNL     1      26.991  -4.532   6.360  1.00  0.00    -0.330 N 
ATOM     13  H7  UNL     1      26.072  -4.569   6.802  1.00  0.00     0.168 HD
ENDROOT
BRANCH   1  14
HETATM   14  N3  UNL     1      25.735  -5.343   4.404  1.00  0.00    -0.358 N 
BRANCH  14  15
HETATM   15  C6  UNL     1      25.301  -4.430   3.381  1.00  0.00     0.136 C 
BRANCH  15  16
HETATM   16  C5  UNL     1      24.649  -3.173   3.804  1.00  0.00     0.106 C 
BRANCH  16  17
HETATM   17  S2  UNL     1      22.865  -3.210   3.826  1.00  0.00    -0.088 SA
BRANCH  17  18
HETATM   18  S1  UNL     1      22.181  -2.862   1.845  1.00  0.00    -0.021 SA
BRANCH  18  19
HETATM   19  C4  UNL     1      21.438  -1.255   1.826  1.00  0.00     0.157 A 
HETATM   20  N2  UNL     1      20.229  -1.013   1.266  1.00  0.00    -0.329 N 
HETATM   21  C3  UNL     1      19.889   0.280   1.381  1.00  0.00     0.148 A 
ATOM     22  H2  UNL     1      19.651  -1.722   0.815  1.00  0.00     0.168 HD
HETATM   23  C2  UNL     1      18.808   1.060   1.007  1.00  0.00     0.281 A 
HETATM   24  C15 UNL     1      20.934   0.882   2.046  1.00  0.00     0.146 A 
HETATM   25  N1  UNL     1      18.737   2.388   1.267  1.00  0.00    -0.269 N 
HETATM   26  O1  UNL     1      17.850   0.531   0.403  1.00  0.00    -0.265 OA
HETATM   27  C1  UNL     1      17.588   3.193   0.863  1.00  0.00     0.164 C 
HETATM   28  C17 UNL     1      19.779   2.935   1.917  1.00  0.00     0.332 A 
HETATM   29  N9  UNL     1      20.847   2.196   2.295  1.00  0.00    -0.287 N 
HETATM   30  O6  UNL     1      19.707   4.174   2.157  1.00  0.00    -0.246 OA
HETATM   31  C16 UNL     1      21.946   2.832   2.993  1.00  0.00     0.163 C 
HETATM   32  N8  UNL     1      21.848  -0.067   2.298  1.00  0.00    -0.320 N 
ATOM     33  H8  UNL     1      22.732   0.092   2.782  1.00  0.00     0.169 HD
ENDBRANCH  18  19
ENDBRANCH  17  18
ENDBRANCH  16  17
ENDBRANCH  15  16
ENDBRANCH  14  15
BRANCH  14  34
HETATM   34  C7  UNL     1      25.032  -6.509   4.861  1.00  0.00     0.184 C 
BRANCH  34  35
HETATM   35  C8  UNL     1      23.730  -6.769   4.140  1.00  0.00     0.271 C 
BRANCH  35  36
HETATM   36  O2  UNL     1      23.592  -8.000   3.594  1.00  0.00    -0.370 OA
ATOM     37  H2  UNL     1      22.876  -8.102   2.977  1.00  0.00     0.212 HD
ENDBRANCH  35  36
BRANCH  35  38
HETATM   38  O3  UNL     1      22.652  -6.593   5.041  1.00  0.00    -0.370 OA
ATOM     39  H3  UNL     1      21.960  -6.104   4.612  1.00  0.00     0.212 HD
ENDBRANCH  35  38
ENDBRANCH  34  35
ENDBRANCH  14  34
ENDBRANCH   1  14
BRANCH   6  40
HETATM   40  O5  UNL     1      31.956  -4.703   4.591  1.00  0.00    -0.288 OA
ATOM     41  H5  UNL     1      32.895  -4.564   4.565  1.00  0.00     0.244 HD
ENDBRANCH   6  40
BRANCH   2  42
HETATM   42  O4  UNL     1      27.785  -5.874   3.035  1.00  0.00    -0.343 OA
ATOM     43  H4  UNL     1      28.493  -5.840   2.402  1.00  0.00     0.219 HD
ENDBRANCH   2  42
TORSDOF 12
ENDMDL
MODEL 2
REMARK VINA RESULT: -8.740662278      0.838      1.757
REMARK  12 active torsions:
REMARK  status: ('A' for Active; 'I' for Inactive)
REMARK    1  A    between atoms: C4_8  and  S1_9 
REMARK    2  A    between atoms: S1_9  and  S2_10 
REMARK    3  A    between atoms: S2_10  and  C5_11 
REMARK    4  A    between atoms: C5_11  and  C6_12 
REMARK    5  A    between atoms: C6_12  and  N3_13 
REMARK    6  A    between atoms: N3_13  and  C7_14 
REMARK    7  A    between atoms: N3_13  and  C9_20 
REMARK    8  A    between atoms: C7_14  and  C8_15 
REMARK    9  A    between atoms: C8_15  and  O2_16 
REMARK   10  A    between atoms: C8_15  and  O3_18 
REMARK   11  A    between atoms: C10_21  and  O4_22 
REMARK   12  A    between atoms: N5_27  and  O5_29 
ROOT
HETATM    1  C9  UNL     1      27.163  -5.059   5.099  1.00  0.00     0.156 C 
HETATM    2  C10 UNL     1      28.183  -5.351   4.307  1.00  0.00     0.187 C 
HETATM    3  N4  UNL     1      29.579  -5.201   4.595  1.00  0.00    -0.319 N 
ATOM      4  H4  UNL     1      30.230  -5.670   3.965  1.00  0.00     0.169 HD
HETATM    5  C11 UNL     1      30.148  -4.465   5.668  1.00  0.00     0.129 C 
HETATM    6  N5  UNL     1      31.401  -4.238   5.567  1.00  0.00    -0.253 N 
ATOM      7  H5  UNL     1      31.889  -3.715   6.295  1.00  0.00     0.196 HD
HETATM    8  C12 UNL     1      29.517  -3.929   6.869  1.00  0.00     0.091 C 
HETATM    9  C13 UNL     1      28.215  -3.957   7.199  1.00  0.00     0.119 C 
HETATM   10  C14 UNL     1      27.863  -3.349   8.457  1.00  0.00     0.117 C 
HETATM   11  N6  UNL     1      27.590  -2.845   9.471  1.00  0.00    -0.190 NA
HETATM   12  N7  UNL     1      27.179  -4.529   6.416  1.00  0.00    -0.330 N 
ATOM     13  H7  UNL     1      26.276  -4.566   6.888  1.00  0.00     0.168 HD
ENDROOT
BRANCH   1  14
HETATM   14  N3  UNL     1      25.857  -5.332   4.501  1.00  0.00    -0.358 N 
BRANCH  14  15
HETATM   15  C6  UNL     1      25.415  -4.448   3.457  1.00  0.00     0.136 C 
BRANCH  15  16
HETATM   16  C5  UNL     1      24.740  -3.192   3.849  1.00  0.00     0.106 C 
BRANCH  16  17
HETATM   17  S2  UNL     1      22.956  -3.252   3.841  1.00  0.00    -0.088 SA
BRANCH  17  18
HETATM   18  S1  UNL     1      22.306  -3.001   1.834  1.00  0.00    -0.021 SA
BRANCH  18  19
HETATM   19  C4  UNL     1      21.481  -1.437   1.746  1.00  0.00     0.157 A 
HETATM   20  N2  UNL     1      22.015  -0.297   2.245  1.00  0.00    -0.329 N 
HETATM   21  C3  UNL     1      21.197   0.749   2.053  1.00  0.00     0.148 A 
ATOM     22  H2  UNL     1      22.923  -0.240   2.707  1.00  0.00     0.168 HD
HETATM   23  C2  UNL     1      21.228   2.102   2.346  1.00  0.00     0.281 A 
HETATM   24  C15 UNL     1      20.094   0.244   1.401  1.00  0.00     0.146 A 
HETATM   25  N1  UNL     1      20.221   2.948   2.019  1.00  0.00    -0.269 N 
HETATM   26  O1  UNL     1      22.221   2.579   2.937  1.00  0.00    -0.265 OA
HETATM   27  C1  UNL     1      20.273   4.371   2.337  1.00  0.00     0.164 C 
HETATM   28  C17 UNL     1      19.164   2.412   1.384  1.00  0.00     0.332 A 
HETATM   29  N9  UNL     1      19.107   1.094   1.085  1.00  0.00    -0.287 N 
HETATM   30  O6  UNL     1      18.227   3.205   1.081  1.00  0.00    -0.246 OA
HETATM   31  C16 UNL     1      17.944   0.565   0.400  1.00  0.00     0.163 C 
HETATM   32  N8  UNL     1      20.296  -1.071   1.232  1.00  0.00    -0.320 N 
ATOM     33  H8  UNL     1      19.639  -1.705   0.776  1.00  0.00     0.169 HD
ENDBRANCH  18  19
ENDBRANCH  17  18
ENDBRANCH  16  17
ENDBRANCH  15  16
ENDBRANCH  14  15
BRANCH  14  34
HETATM   34  C7  UNL     1      25.143  -6.466   5.018  1.00  0.00     0.184 C 
BRANCH  34  35
HETATM   35  C8  UNL     1      23.872  -6.790   4.270  1.00  0.00     0.271 C 
BRANCH  35  36
HETATM   36  O2  UNL     1      23.740  -8.071   3.854  1.00  0.00    -0.370 OA
ATOM     37  H2  UNL     1      23.433  -8.690   4.507  1.00  0.00     0.212 HD
ENDBRANCH  35  36
BRANCH  35  38
HETATM   38  O3  UNL     1      22.757  -6.507   5.097  1.00  0.00    -0.370 OA
ATOM     39  H3  UNL     1      21.957  -6.630   4.600  1.00  0.00     0.212 HD
ENDBRANCH  35  38
ENDBRANCH  34  35
ENDBRANCH  14  34
ENDBRANCH   1  14
BRANCH   6  40
HETATM   40  O5  UNL     1      32.082  -4.699   4.480  1.00  0.00    -0.288 OA
ATOM     41  H5  UNL     1      32.869  -5.215   4.605  1.00  0.00     0.244 HD
ENDBRANCH   6  40
BRANCH   2  42
HETATM   42  O4  UNL     1      27.859  -5.860   3.061  1.00  0.00    -0.343 OA
ATOM     43  H4  UNL     1      26.935  -6.010   2.899  1.00  0.00     0.219 HD
ENDBRANCH   2  42
TORSDOF 12
ENDMDL
MODEL 3
REMARK VINA RESULT: -8.502542254      1.215      2.087
REMARK  12 active torsions:
REMARK  status: ('A' for Active; 'I' for Inactive)
REMARK    1  A    between atoms: C4_8  and  S1_9 
REMARK    2  A    between atoms: S1_9  and  S2_10 
REMARK    3  A    between atoms: S2_10  and  C5_11 
REMARK    4  A    between atoms: C5_11  and  C6_12 
REMARK    5  A    between atoms: C6_12  and  N3_13 
REMARK    6  A    between atoms: N3_13  and  C7_14 
REMARK    7  A    between atoms: N3_13  and  C9_20 
REMARK    8  A    between atoms: C7_14  and  C8_15 
REMARK    9  A    between atoms: C8_15  and  O2_16 
REMARK   10  A    between atoms: C8_15  and  O3_18 
REMARK   11  A    between atoms: C10_21  and  O4_22 
REMARK   12  A    between atoms: N5_27  and  O5_29 
ROOT
HETATM    1  C9  UNL     1      26.782  -4.613   4.861  1.00  0.00     0.156 C 
HETATM    2  C10 UNL     1      27.822  -5.207   4.296  1.00  0.00     0.187 C 
HETATM    3  N4  UNL     1      29.204  -5.065   4.649  1.00  0.00    -0.319 N 
ATOM      4  H4  UNL     1      29.850  -5.751   4.259  1.00  0.00     0.169 HD
HETATM    5  C11 UNL     1      29.765  -4.065   5.487  1.00  0.00     0.129 C 
HETATM    6  N5  UNL     1      31.037  -3.964   5.435  1.00  0.00    -0.253 N 
ATOM      7  H5  UNL     1      31.521  -3.270   6.005  1.00  0.00     0.196 HD
HETATM    8  C12 UNL     1      29.107  -3.136   6.399  1.00  0.00     0.091 C 
HETATM    9  C13 UNL     1      27.789  -2.972   6.600  1.00  0.00     0.119 C 
HETATM   10  C14 UNL     1      27.411  -1.974   7.570  1.00  0.00     0.117 C 
HETATM   11  N6  UNL     1      27.119  -1.159   8.346  1.00  0.00    -0.190 NA
HETATM   12  N7  UNL     1      26.760  -3.694   5.943  1.00  0.00    -0.330 N 
ATOM     13  H7  UNL     1      25.827  -3.520   6.319  1.00  0.00     0.168 HD
ENDROOT
BRANCH   1  14
HETATM   14  N3  UNL     1      25.499  -4.976   4.261  1.00  0.00    -0.358 N 
BRANCH  14  15
HETATM   15  C6  UNL     1      24.982  -4.107   3.240  1.00  0.00     0.136 C 
BRANCH  15  16
HETATM   16  C5  UNL     1      24.274  -2.881   3.665  1.00  0.00     0.106 C 
BRANCH  16  17
HETATM   17  S2  UNL     1      22.501  -2.916   3.461  1.00  0.00    -0.088 SA
BRANCH  17  18
HETATM   18  S1  UNL     1      22.045  -2.059   1.572  1.00  0.00    -0.021 SA
BRANCH  18  19
HETATM   19  C4  UNL     1      21.458  -0.416   1.873  1.00  0.00     0.157 A 
HETATM   20  N2  UNL     1      22.240   0.557   2.398  1.00  0.00    -0.329 N 
HETATM   21  C3  UNL     1      21.564   1.708   2.528  1.00  0.00     0.148 A 
ATOM     22  H2  UNL     1      23.218   0.431   2.662  1.00  0.00     0.168 HD
HETATM   23  C2  UNL     1      21.850   2.982   2.988  1.00  0.00     0.281 A 
HETATM   24  C15 UNL     1      20.294   1.449   2.062  1.00  0.00     0.146 A 
HETATM   25  N1  UNL     1      20.935   3.982   3.000  1.00  0.00    -0.269 N 
HETATM   26  O1  UNL     1      22.997   3.237   3.416  1.00  0.00    -0.265 OA
HETATM   27  C1  UNL     1      21.257   5.318   3.490  1.00  0.00     0.164 C 
HETATM   28  C17 UNL     1      19.709   3.685   2.536  1.00  0.00     0.332 A 
HETATM   29  N9  UNL     1      19.402   2.448   2.080  1.00  0.00    -0.287 N 
HETATM   30  O6  UNL     1      18.859   4.620   2.549  1.00  0.00    -0.246 OA
HETATM   31  C16 UNL     1      18.065   2.178   1.591  1.00  0.00     0.163 C 
HETATM   32  N8  UNL     1      20.264   0.164   1.676  1.00  0.00    -0.320 N 
ATOM     33  H8  UNL     1      19.446  -0.306   1.288  1.00  0.00     0.169 HD
ENDBRANCH  18  19
ENDBRANCH  17  18
ENDBRANCH  16  17
ENDBRANCH  15  16
ENDBRANCH  14  15
BRANCH  14  34
HETATM   34  C7  UNL     1      24.882  -6.176   4.754  1.00  0.00     0.184 C 
BRANCH  34  35
HETATM   35  C8  UNL     1      23.621  -6.568   4.020  1.00  0.00     0.271 C 
BRANCH  35  36
HETATM   36  O2  UNL     1      23.586  -7.834   3.540  1.00  0.00    -0.370 OA
ATOM     37  H2  UNL     1      23.458  -8.519   4.186  1.00  0.00     0.212 HD
ENDBRANCH  35  36
BRANCH  35  38
HETATM   38  O3  UNL     1      22.511  -6.424   4.887  1.00  0.00    -0.370 OA
ATOM     39  H3  UNL     1      21.708  -6.489   4.383  1.00  0.00     0.212 HD
ENDBRANCH  35  38
ENDBRANCH  34  35
ENDBRANCH  14  34
ENDBRANCH   1  14
BRANCH   6  40
HETATM   40  O5  UNL     1      31.744  -4.790   4.612  1.00  0.00    -0.288 OA
ATOM     41  H5  UNL     1      32.286  -5.473   4.988  1.00  0.00     0.244 HD
ENDBRANCH   6  40
BRANCH   2  42
HETATM   42  O4  UNL     1      27.536  -6.064   3.247  1.00  0.00    -0.343 OA
ATOM     43  H4  UNL     1      26.999  -6.818   3.458  1.00  0.00     0.219 HD
ENDBRANCH   2  42
TORSDOF 12
ENDMDL
MODEL 4
REMARK VINA RESULT: -8.456082376      1.272      1.559
REMARK  12 active torsions:
REMARK  status: ('A' for Active; 'I' for Inactive)
REMARK    1  A    between atoms: C4_8  and  S1_9 
REMARK    2  A    between atoms: S1_9  and  S2_10 
REMARK    3  A    between atoms: S2_10  and  C5_11 
REMARK    4  A    between atoms: C5_11  and  C6_12 
REMARK    5  A    between atoms: C6_12  and  N3_13 
REMARK    6  A    between atoms: N3_13  and  C7_14 
REMARK    7  A    between atoms: N3_13  and  C9_20 
REMARK    8  A    between atoms: C7_14  and  C8_15 
REMARK    9  A    between atoms: C8_15  and  O2_16 
REMARK   10  A    between atoms: C8_15  and  O3_18 
REMARK   11  A    between atoms: C10_21  and  O4_22 
REMARK   12  A    between atoms: N5_27  and  O5_29 
ROOT
HETATM    1  C9  UNL     1      27.861  -4.038   5.709  1.00  0.00     0.156 C 
HETATM    2  C10 UNL     1      29.037  -4.323   5.173  1.00  0.00     0.187 C 
HETATM    3  N4  UNL     1      30.319  -3.817   5.566  1.00  0.00    -0.319 N 
ATOM      4  H4  UNL     1      31.137  -4.299   5.193  1.00  0.00     0.169 HD
HETATM    5  C11 UNL     1      30.566  -2.712   6.423  1.00  0.00     0.129 C 
HETATM    6  N5  UNL     1      31.765  -2.271   6.408  1.00  0.00    -0.253 N 
ATOM      7  H5  UNL     1      32.028  -1.478   6.994  1.00  0.00     0.196 HD
HETATM    8  C12 UNL     1      29.658  -2.005   7.319  1.00  0.00     0.091 C 
HETATM    9  C13 UNL     1      28.340  -2.205   7.482  1.00  0.00     0.119 C 
HETATM   10  C14 UNL     1      27.679  -1.357   8.443  1.00  0.00     0.117 C 
HETATM   11  N6  UNL     1      27.157  -0.659   9.213  1.00  0.00    -0.190 NA
HETATM   12  N7  UNL     1      27.562  -3.171   6.793  1.00  0.00    -0.330 N 
ATOM     13  H7  UNL     1      26.607  -3.260   7.142  1.00  0.00     0.168 HD
ENDROOT
BRANCH   1  14
HETATM   14  N3  UNL     1      26.740  -4.728   5.071  1.00  0.00    -0.358 N 
BRANCH  14  15
HETATM   15  C6  UNL     1      26.212  -4.148   3.867  1.00  0.00     0.136 C 
BRANCH  15  16
HETATM   16  C5  UNL     1      24.746  -4.158   3.676  1.00  0.00     0.106 C 
BRANCH  16  17
HETATM   17  S2  UNL     1      23.995  -2.553   3.466  1.00  0.00    -0.088 SA
BRANCH  17  18
HETATM   18  S1  UNL     1      22.268  -2.795   2.254  1.00  0.00    -0.021 SA
BRANCH  18  19
HETATM   19  C4  UNL     1      21.508  -1.202   2.104  1.00  0.00     0.157 A 
HETATM   20  N2  UNL     1      20.288  -1.021   1.546  1.00  0.00    -0.329 N 
HETATM   21  C3  UNL     1      19.937   0.274   1.552  1.00  0.00     0.148 A 
ATOM     22  H2  UNL     1      19.710  -1.772   1.169  1.00  0.00     0.168 HD
HETATM   23  C2  UNL     1      18.843   1.009   1.129  1.00  0.00     0.281 A 
HETATM   24  C15 UNL     1      20.987   0.941   2.144  1.00  0.00     0.146 A 
HETATM   25  N1  UNL     1      18.762   2.354   1.271  1.00  0.00    -0.269 N 
HETATM   26  O1  UNL     1      17.881   0.421   0.589  1.00  0.00    -0.265 OA
HETATM   27  C1  UNL     1      17.600   3.111   0.817  1.00  0.00     0.164 C 
HETATM   28  C17 UNL     1      19.809   2.965   1.853  1.00  0.00     0.332 A 
HETATM   29  N9  UNL     1      20.891   2.271   2.277  1.00  0.00    -0.287 N 
HETATM   30  O6  UNL     1      19.729   4.219   1.984  1.00  0.00    -0.246 OA
HETATM   31  C16 UNL     1      21.994   2.976   2.899  1.00  0.00     0.163 C 
HETATM   32  N8  UNL     1      21.914   0.026   2.464  1.00  0.00    -0.320 N 
ATOM     33  H8  UNL     1      22.804   0.235   2.916  1.00  0.00     0.169 HD
ENDBRANCH  18  19
ENDBRANCH  17  18
ENDBRANCH  16  17
ENDBRANCH  15  16
ENDBRANCH  14  15
BRANCH  14  34
HETATM   34  C7  UNL     1      26.280  -5.926   5.715  1.00  0.00     0.184 C 
BRANCH  34  35
HETATM   35  C8  UNL     1      26.173  -7.120   4.796  1.00  0.00     0.271 C 
BRANCH  35  36
HETATM   36  O2  UNL     1      24.927  -7.428   4.368  1.00  0.00    -0.370 OA
ATOM     37  H2  UNL     1      24.875  -7.897   3.543  1.00  0.00     0.212 HD
ENDBRANCH  35  36
BRANCH  35  38
HETATM   38  O3  UNL     1      26.962  -6.894   3.641  1.00  0.00    -0.370 OA
ATOM     39  H3  UNL     1      26.648  -6.117   3.193  1.00  0.00     0.212 HD
ENDBRANCH  35  38
ENDBRANCH  34  35
ENDBRANCH  14  34
ENDBRANCH   1  14
BRANCH   6  40
HETATM   40  O5  UNL     1      32.690  -2.866   5.604  1.00  0.00    -0.288 OA
ATOM     41  H5  UNL     1      33.095  -2.365   4.906  1.00  0.00     0.244 HD
ENDBRANCH   6  40
BRANCH   2  42
HETATM   42  O4  UNL     1      29.022  -5.214   4.113  1.00  0.00    -0.343 OA
ATOM     43  H4  UNL     1      28.313  -5.108   3.489  1.00  0.00     0.219 HD
ENDBRANCH   2  42
TORSDOF 12
ENDMDL
MODEL 5
REMARK VINA RESULT: -8.269412305      1.520      2.120
REMARK  12 active torsions:
REMARK  status: ('A' for Active; 'I' for Inactive)
REMARK    1  A    between atoms: C4_8  and  S1_9 
REMARK    2  A    between atoms: S1_9  and  S2_10 
REMARK    3  A    between atoms: S2_10  and  C5_11 
REMARK    4  A    between atoms: C5_11  and  C6_12 
REMARK    5  A    between atoms: C6_12  and  N3_13 
REMARK    6  A    between atoms: N3_13  and  C7_14 
REMARK    7  A    between atoms: N3_13  and  C9_20 
REMARK    8  A    between atoms: C7_14  and  C8_15 
REMARK    9  A    between atoms: C8_15  and  O2_16 
REMARK   10  A    between atoms: C8_15  and  O3_18 
REMARK   11  A    between atoms: C10_21  and  O4_22 
REMARK   12  A    between atoms: N5_27  and  O5_29 
ROOT
HETATM    1  C9  UNL     1      27.087  -4.624   5.100  1.00  0.00     0.156 C 
HETATM    2  C10 UNL     1      28.044  -5.160   4.360  1.00  0.00     0.187 C 
HETATM    3  N4  UNL     1      29.407  -5.396   4.737  1.00  0.00    -0.319 N 
ATOM      4  H4  UNL     1      29.952  -6.008   4.129  1.00  0.00     0.169 HD
HETATM    5  C11 UNL     1      30.075  -4.864   5.871  1.00  0.00     0.129 C 
HETATM    6  N5  UNL     1      31.348  -4.978   5.855  1.00  0.00    -0.253 N 
ATOM      7  H5  UNL     1      31.906  -4.622   6.631  1.00  0.00     0.196 HD
HETATM    8  C12 UNL     1      29.529  -4.206   7.053  1.00  0.00     0.091 C 
HETATM    9  C13 UNL     1      28.247  -3.892   7.302  1.00  0.00     0.119 C 
HETATM   10  C14 UNL     1      27.983  -3.240   8.561  1.00  0.00     0.117 C 
HETATM   11  N6  UNL     1      27.785  -2.705   9.575  1.00  0.00    -0.190 NA
HETATM   12  N7  UNL     1      27.153  -4.147   6.436  1.00  0.00    -0.330 N 
ATOM     13  H7  UNL     1      26.241  -3.952   6.851  1.00  0.00     0.168 HD
ENDROOT
BRANCH   1  14
HETATM   14  N3  UNL     1      25.799  -4.524   4.414  1.00  0.00    -0.358 N 
BRANCH  14  15
HETATM   15  C6  UNL     1      24.854  -5.584   4.634  1.00  0.00     0.136 C 
BRANCH  15  16
HETATM   16  C5  UNL     1      23.686  -5.672   3.732  1.00  0.00     0.106 C 
BRANCH  16  17
HETATM   17  S2  UNL     1      22.577  -4.274   3.783  1.00  0.00    -0.088 SA
BRANCH  17  18
HETATM   18  S1  UNL     1      22.128  -3.726   1.781  1.00  0.00    -0.021 SA
BRANCH  18  19
HETATM   19  C4  UNL     1      21.644  -2.022   1.804  1.00  0.00     0.157 A 
HETATM   20  N2  UNL     1      20.439  -1.596   1.358  1.00  0.00    -0.329 N 
HETATM   21  C3  UNL     1      20.316  -0.266   1.482  1.00  0.00     0.148 A 
ATOM     22  H2  UNL     1      19.717  -2.208   0.976  1.00  0.00     0.168 HD
HETATM   23  C2  UNL     1      19.338   0.672   1.199  1.00  0.00     0.281 A 
HETATM   24  C15 UNL     1      21.501   0.167   2.034  1.00  0.00     0.146 A 
HETATM   25  N1  UNL     1      19.498   1.996   1.441  1.00  0.00    -0.269 N 
HETATM   26  O1  UNL     1      18.255   0.298   0.698  1.00  0.00    -0.265 OA
HETATM   27  C1  UNL     1      18.454   2.969   1.135  1.00  0.00     0.164 C 
HETATM   28  C17 UNL     1      20.670   2.375   1.980  1.00  0.00     0.332 A 
HETATM   29  N9  UNL     1      21.643   1.479   2.267  1.00  0.00    -0.287 N 
HETATM   30  O6  UNL     1      20.815   3.611   2.204  1.00  0.00    -0.246 OA
HETATM   31  C16 UNL     1      22.889   1.939   2.847  1.00  0.00     0.163 C 
HETATM   32  N8  UNL     1      22.277  -0.912   2.214  1.00  0.00    -0.320 N 
ATOM     33  H8  UNL     1      23.217  -0.891   2.608  1.00  0.00     0.169 HD
ENDBRANCH  18  19
ENDBRANCH  17  18
ENDBRANCH  16  17
ENDBRANCH  15  16
ENDBRANCH  14  15
BRANCH  14  34
HETATM   34  C7  UNL     1      25.606  -3.366   3.586  1.00  0.00     0.184 C 
BRANCH  34  35
HETATM   35  C8  UNL     1      25.579  -2.061   4.346  1.00  0.00     0.271 C 
BRANCH  35  36
HETATM   36  O2  UNL     1      26.709  -1.319   4.286  1.00  0.00    -0.370 OA
ATOM     37  H2  UNL     1      26.598  -0.415   4.014  1.00  0.00     0.212 HD
ENDBRANCH  35  36
BRANCH  35  38
HETATM   38  O3  UNL     1      24.527  -1.252   3.851  1.00  0.00    -0.370 OA
ATOM     39  H3  UNL     1      23.694  -1.668   4.043  1.00  0.00     0.212 HD
ENDBRANCH  35  38
ENDBRANCH  34  35
ENDBRANCH  14  34
ENDBRANCH   1  14
BRANCH   6  40
HETATM   40  O5  UNL     1      31.955  -5.580   4.793  1.00  0.00    -0.288 OA
ATOM     41  H5  UNL     1      32.503  -5.065   4.214  1.00  0.00     0.244 HD
ENDBRANCH   6  40
BRANCH   2  42
HETATM   42  O4  UNL     1      27.683  -5.536   3.077  1.00  0.00    -0.343 OA
ATOM     43  H4  UNL     1      28.344  -6.001   2.577  1.00  0.00     0.219 HD
ENDBRANCH   2  42
TORSDOF 12
ENDMDL
