MODEL 1
REMARK VINA RESULT: -5.750214319      0.000      0.000
REMARK  3 active torsions:
REMARK  status: ('A' for Active; 'I' for Inactive)
REMARK    1  A    between atoms: C4_7  and  C5_8 
REMARK    2  A    between atoms: C5_8  and  O3_9 
REMARK    3  A    between atoms: O3_9  and  N2_10 
ROOT
HETATM    1  C1  UNL     1      27.293  -8.729  13.254  1.00  0.00     0.166 C 
HETATM    2  N1  UNL     1      25.974  -8.703  12.637  1.00  0.00    -0.249 N 
HETATM    3  C2  UNL     1      24.945  -8.037  13.199  1.00  0.00     0.377 A 
HETATM    4  O1  UNL     1      25.168  -7.436  14.281  1.00  0.00    -0.237 OA
HETATM    5  O2  UNL     1      23.770  -8.035  12.614  1.00  0.00    -0.241 OA
HETATM    6  C3  UNL     1      23.522  -8.653  11.491  1.00  0.00     0.191 A 
HETATM    7  C4  UNL     1      22.369  -8.780  10.710  1.00  0.00     0.090 A 
HETATM    8  N3  UNL     1      22.731  -9.533   9.673  1.00  0.00    -0.330 N 
ATOM      9  H3  UNL     1      22.118  -9.816   8.908  1.00  0.00     0.168 HD
HETATM   10  C6  UNL     1      24.052  -9.867   9.793  1.00  0.00     0.189 A 
HETATM   11  S1  UNL     1      24.883 -10.785   8.725  1.00  0.00    -0.040 SA
HETATM   12  N4  UNL     1      24.535  -9.320  10.919  1.00  0.00    -0.216 N 
HETATM   13  C7  UNL     1      25.752  -9.343  11.490  1.00  0.00     0.341 A 
HETATM   14  O4  UNL     1      26.719  -9.961  10.974  1.00  0.00    -0.246 OA
ENDROOT
BRANCH   7  15
HETATM   15  C5  UNL     1      21.036  -8.169  11.042  1.00  0.00     0.262 C 
BRANCH  15  16
HETATM   16  O3  UNL     1      20.303  -8.916  11.928  1.00  0.00    -0.281 OA
BRANCH  16  17
HETATM   17  N2  UNL     1      19.602  -9.918  11.394  1.00  0.00    -0.311 N 
ATOM     18  H22 UNL     1      19.580 -10.072  10.386  1.00  0.00     0.184 HD
ATOM     19  H21 UNL     1      19.098 -10.505  12.058  1.00  0.00     0.184 HD
ENDBRANCH  16  17
ENDBRANCH  15  16
ENDBRANCH   7  15
TORSDOF 3
ENDMDL
MODEL 2
REMARK VINA RESULT: -5.544239746      3.351      5.363
REMARK  3 active torsions:
REMARK  status: ('A' for Active; 'I' for Inactive)
REMARK    1  A    between atoms: C4_7  and  C5_8 
REMARK    2  A    between atoms: C5_8  and  O3_9 
REMARK    3  A    between atoms: O3_9  and  N2_10 
ROOT
HETATM    1  C1  UNL     1      21.597  -5.063   6.871  1.00  0.00     0.166 C 
HETATM    2  N1  UNL     1      22.110  -5.987   7.873  1.00  0.00    -0.249 N 
HETATM    3  C2  UNL     1      23.384  -5.922   8.309  1.00  0.00     0.377 A 
HETATM    4  O1  UNL     1      24.117  -5.026   7.815  1.00  0.00    -0.237 OA
HETATM    5  O2  UNL     1      23.811  -6.772   9.213  1.00  0.00    -0.241 OA
HETATM    6  C3  UNL     1      23.063  -7.705   9.735  1.00  0.00     0.191 A 
HETATM    7  C4  UNL     1      23.308  -8.696  10.691  1.00  0.00     0.090 A 
HETATM    8  N3  UNL     1      22.156  -9.353  10.816  1.00  0.00    -0.330 N 
ATOM      9  H3  UNL     1      21.993 -10.144  11.440  1.00  0.00     0.168 HD
HETATM   10  C6  UNL     1      21.226  -8.803   9.978  1.00  0.00     0.189 A 
HETATM   11  S1  UNL     1      19.682  -9.320   9.829  1.00  0.00    -0.040 SA
HETATM   12  N4  UNL     1      21.793  -7.785   9.313  1.00  0.00    -0.216 N 
HETATM   13  C7  UNL     1      21.322  -6.930   8.387  1.00  0.00     0.341 A 
HETATM   14  O4  UNL     1      20.134  -6.983   7.974  1.00  0.00    -0.246 OA
ENDROOT
BRANCH   7  15
HETATM   15  C5  UNL     1      24.625  -8.914  11.383  1.00  0.00     0.262 C 
BRANCH  15  16
HETATM   16  O3  UNL     1      25.277 -10.046  10.963  1.00  0.00    -0.281 OA
BRANCH  16  17
HETATM   17  N2  UNL     1      25.713 -10.025   9.702  1.00  0.00    -0.311 N 
ATOM     18  H22 UNL     1      25.697  -9.167   9.150  1.00  0.00     0.184 HD
ATOM     19  H21 UNL     1      26.054 -10.915   9.340  1.00  0.00     0.184 HD
ENDBRANCH  16  17
ENDBRANCH  15  16
ENDBRANCH   7  15
TORSDOF 3
ENDMDL
MODEL 3
REMARK VINA RESULT: -5.458027422      3.323      5.336
REMARK  3 active torsions:
REMARK  status: ('A' for Active; 'I' for Inactive)
REMARK    1  A    between atoms: C4_7  and  C5_8 
REMARK    2  A    between atoms: C5_8  and  O3_9 
REMARK    3  A    between atoms: O3_9  and  N2_10 
ROOT
HETATM    1  C1  UNL     1      21.639  -5.061   6.843  1.00  0.00     0.166 C 
HETATM    2  N1  UNL     1      22.092  -5.985   7.874  1.00  0.00    -0.249 N 
HETATM    3  C2  UNL     1      23.349  -5.941   8.360  1.00  0.00     0.377 A 
HETATM    4  O1  UNL     1      24.120  -5.066   7.887  1.00  0.00    -0.237 OA
HETATM    5  O2  UNL     1      23.722  -6.789   9.289  1.00  0.00    -0.241 OA
HETATM    6  C3  UNL     1      22.934  -7.701   9.791  1.00  0.00     0.191 A 
HETATM    7  C4  UNL     1      23.120  -8.687  10.766  1.00  0.00     0.090 A 
HETATM    8  N3  UNL     1      21.950  -9.318  10.852  1.00  0.00    -0.330 N 
ATOM      9  H3  UNL     1      21.746 -10.098  11.477  1.00  0.00     0.168 HD
HETATM   10  C6  UNL     1      21.066  -8.758   9.971  1.00  0.00     0.189 A 
HETATM   11  S1  UNL     1      19.518  -9.244   9.766  1.00  0.00    -0.040 SA
HETATM   12  N4  UNL     1      21.680  -7.759   9.319  1.00  0.00    -0.216 N 
HETATM   13  C7  UNL     1      21.264  -6.905   8.366  1.00  0.00     0.341 A 
HETATM   14  O4  UNL     1      20.094  -6.938   7.907  1.00  0.00    -0.246 OA
ENDROOT
BRANCH   7  15
HETATM   15  C5  UNL     1      24.403  -8.924  11.512  1.00  0.00     0.262 C 
BRANCH  15  16
HETATM   16  O3  UNL     1      24.551  -8.114  12.608  1.00  0.00    -0.281 OA
BRANCH  16  17
HETATM   17  N2  UNL     1      25.532  -8.453  13.446  1.00  0.00    -0.311 N 
ATOM     18  H22 UNL     1      26.462  -8.697  13.104  1.00  0.00     0.184 HD
ATOM     19  H21 UNL     1      25.286  -8.450  14.436  1.00  0.00     0.184 HD
ENDBRANCH  16  17
ENDBRANCH  15  16
ENDBRANCH   7  15
TORSDOF 3
ENDMDL
MODEL 4
REMARK VINA RESULT: -5.143527810      3.676      4.897
REMARK  3 active torsions:
REMARK  status: ('A' for Active; 'I' for Inactive)
REMARK    1  A    between atoms: C4_7  and  C5_8 
REMARK    2  A    between atoms: C5_8  and  O3_9 
REMARK    3  A    between atoms: O3_9  and  N2_10 
ROOT
HETATM    1  C1  UNL     1      23.861  -4.668   7.668  1.00  0.00     0.166 C 
HETATM    2  N1  UNL     1      22.899  -5.714   7.987  1.00  0.00    -0.249 N 
HETATM    3  C2  UNL     1      21.660  -5.722   7.453  1.00  0.00     0.377 A 
HETATM    4  O1  UNL     1      21.367  -4.786   6.664  1.00  0.00    -0.237 OA
HETATM    5  O2  UNL     1      20.819  -6.680   7.764  1.00  0.00    -0.241 OA
HETATM    6  C3  UNL     1      21.109  -7.657   8.580  1.00  0.00     0.191 A 
HETATM    7  C4  UNL     1      20.381  -8.758   9.041  1.00  0.00     0.090 A 
HETATM    8  N3  UNL     1      21.208  -9.406   9.859  1.00  0.00    -0.330 N 
ATOM      9  H3  UNL     1      20.984 -10.263  10.367  1.00  0.00     0.168 HD
HETATM   10  C6  UNL     1      22.404  -8.745   9.913  1.00  0.00     0.189 A 
HETATM   11  S1  UNL     1      23.691  -9.215  10.806  1.00  0.00    -0.040 SA
HETATM   12  N4  UNL     1      22.336  -7.665   9.120  1.00  0.00    -0.216 N 
HETATM   13  C7  UNL     1      23.224  -6.698   8.824  1.00  0.00     0.341 A 
HETATM   14  O4  UNL     1      24.381  -6.682   9.317  1.00  0.00    -0.246 OA
ENDROOT
BRANCH   7  15
HETATM   15  C5  UNL     1      18.963  -9.073   8.653  1.00  0.00     0.262 C 
BRANCH  15  16
HETATM   16  O3  UNL     1      18.514 -10.265   9.161  1.00  0.00    -0.281 OA
BRANCH  16  17
HETATM   17  N2  UNL     1      17.190 -10.436   9.142  1.00  0.00    -0.311 N 
ATOM     18  H22 UNL     1      16.777 -11.353   8.971  1.00  0.00     0.184 HD
ATOM     19  H21 UNL     1      16.636  -9.596   9.307  1.00  0.00     0.184 HD
ENDBRANCH  16  17
ENDBRANCH  15  16
ENDBRANCH   7  15
TORSDOF 3
ENDMDL
MODEL 5
REMARK VINA RESULT: -4.667374978      2.918      5.757
REMARK  3 active torsions:
REMARK  status: ('A' for Active; 'I' for Inactive)
REMARK    1  A    between atoms: C4_7  and  C5_8 
REMARK    2  A    between atoms: C5_8  and  O3_9 
REMARK    3  A    between atoms: O3_9  and  N2_10 
ROOT
HETATM    1  C1  UNL     1      18.648  -7.712   8.610  1.00  0.00     0.166 C 
HETATM    2  N1  UNL     1      20.043  -8.038   8.872  1.00  0.00    -0.249 N 
HETATM    3  C2  UNL     1      20.409  -9.245   9.347  1.00  0.00     0.377 A 
HETATM    4  O1  UNL     1      19.495 -10.084   9.556  1.00  0.00    -0.237 OA
HETATM    5  O2  UNL     1      21.676  -9.503   9.572  1.00  0.00    -0.241 OA
HETATM    6  C3  UNL     1      22.635  -8.644   9.359  1.00  0.00     0.191 A 
HETATM    7  C4  UNL     1      24.023  -8.707   9.526  1.00  0.00     0.090 A 
HETATM    8  N3  UNL     1      24.476  -7.515   9.142  1.00  0.00    -0.330 N 
ATOM      9  H3  UNL     1      25.455  -7.230   9.139  1.00  0.00     0.168 HD
HETATM   10  C6  UNL     1      23.423  -6.734   8.750  1.00  0.00     0.189 A 
HETATM   11  S1  UNL     1      23.553  -5.197   8.207  1.00  0.00    -0.040 SA
HETATM   12  N4  UNL     1      22.289  -7.438   8.887  1.00  0.00    -0.216 N 
HETATM   13  C7  UNL     1      21.000  -7.139   8.646  1.00  0.00     0.341 A 
HETATM   14  O4  UNL     1      20.648  -6.015   8.203  1.00  0.00    -0.246 OA
ENDROOT
BRANCH   7  15
HETATM   15  C5  UNL     1      24.771  -9.904  10.042  1.00  0.00     0.262 C 
BRANCH  15  16
HETATM   16  O3  UNL     1      25.532  -9.632  11.151  1.00  0.00    -0.281 OA
BRANCH  16  17
HETATM   17  N2  UNL     1      26.853  -9.680  10.968  1.00  0.00    -0.311 N 
ATOM     18  H22 UNL     1      27.258 -10.119  10.142  1.00  0.00     0.184 HD
ATOM     19  H21 UNL     1      27.414  -9.254  11.705  1.00  0.00     0.184 HD
ENDBRANCH  16  17
ENDBRANCH  15  16
ENDBRANCH   7  15
TORSDOF 3
ENDMDL
