MODEL 1
REMARK VINA RESULT: -4.344322109      0.000      0.000
REMARK  3 active torsions:
REMARK  status: ('A' for Active; 'I' for Inactive)
REMARK       I    between atoms: N1_2  and  C2_4 
REMARK       I    between atoms: C2_4  and  N2_6 
REMARK    1  A    between atoms: C3_7  and  N3_8 
REMARK    2  A    between atoms: C4_11  and  C5_12 
REMARK    3  A    between atoms: C5_12  and  O4_13 
ROOT
HETATM    1  C1  UNL     1      25.321  -8.596  12.611  1.00  0.00     0.151 C 
HETATM    2  N1  UNL     1      24.285  -8.043  11.780  1.00  0.00    -0.346 N 
ATOM      3  H1  UNL     1      24.403  -7.101  11.405  1.00  0.00     0.163 HD
HETATM    4  C2  UNL     1      23.131  -8.748  11.470  1.00  0.00     0.342 C 
HETATM    5  O1  UNL     1      22.916  -9.836  12.062  1.00  0.00    -0.246 OA
HETATM    6  N2  UNL     1      22.151  -8.319  10.486  1.00  0.00    -0.073 N 
HETATM    7  C3  UNL     1      22.393  -7.536   9.457  1.00  0.00     0.226 A 
HETATM    8  C4  UNL     1      21.161  -7.454   8.675  1.00  0.00     0.103 A 
HETATM    9  N4  UNL     1      20.299  -8.176   9.304  1.00  0.00    -0.185 N 
HETATM   10  C6  UNL     1      18.956  -8.582   8.929  1.00  0.00     0.175 C 
HETATM   11  C7  UNL     1      20.886  -8.700  10.412  1.00  0.00     0.690 A 
HETATM   12  N5  UNL     1      20.185  -9.265  11.395  1.00  0.00    -0.234 N 
ATOM     13  H51 UNL     1      19.210  -9.559  11.338  1.00  0.00     0.174 HD
ATOM     14  H52 UNL     1      20.626  -9.658  12.227  1.00  0.00     0.174 HD
ENDROOT
BRANCH   7  15
HETATM   15  N3  UNL     1      23.547  -6.872   8.991  1.00  0.00    -0.095 N 
HETATM   16  O2  UNL     1      24.610  -7.651   8.851  1.00  0.00    -0.530 OA
HETATM   17  O3  UNL     1      23.824  -5.683   8.467  1.00  0.00    -0.530 OA
ENDBRANCH   7  15
BRANCH   8  18
HETATM   18  C5  UNL     1      21.218  -6.932   7.323  1.00  0.00     0.226 C 
BRANCH  18  19
HETATM   19  O4  UNL     1      21.408  -5.601   7.178  1.00  0.00    -0.395 OA
ATOM     20  H4  UNL     1      22.096  -5.321   6.585  1.00  0.00     0.209 HD
ENDBRANCH  18  19
ENDBRANCH   8  18
TORSDOF 3
ENDMDL
MODEL 2
REMARK VINA RESULT: -3.443833153      2.065      4.559
REMARK  3 active torsions:
REMARK  status: ('A' for Active; 'I' for Inactive)
REMARK       I    between atoms: N1_2  and  C2_4 
REMARK       I    between atoms: C2_4  and  N2_6 
REMARK    1  A    between atoms: C3_7  and  N3_8 
REMARK    2  A    between atoms: C4_11  and  C5_12 
REMARK    3  A    between atoms: C5_12  and  O4_13 
ROOT
HETATM    1  C1  UNL     1      22.150  -4.563   7.033  1.00  0.00     0.151 C 
HETATM    2  N1  UNL     1      21.850  -5.345   8.203  1.00  0.00    -0.346 N 
ATOM      3  H1  UNL     1      20.993  -5.149   8.721  1.00  0.00     0.163 HD
HETATM    4  C2  UNL     1      22.688  -6.356   8.651  1.00  0.00     0.342 C 
HETATM    5  O1  UNL     1      23.815  -6.484   8.110  1.00  0.00    -0.246 OA
HETATM    6  N2  UNL     1      22.341  -7.298   9.703  1.00  0.00    -0.073 N 
HETATM    7  C3  UNL     1      21.121  -7.653  10.039  1.00  0.00     0.226 A 
HETATM    8  C4  UNL     1      21.236  -8.693  11.059  1.00  0.00     0.103 A 
HETATM    9  N4  UNL     1      22.501  -8.857  11.248  1.00  0.00    -0.185 N 
HETATM   10  C6  UNL     1      23.216  -9.847  12.035  1.00  0.00     0.175 C 
HETATM   11  C7  UNL     1      23.183  -8.008  10.437  1.00  0.00     0.690 A 
HETATM   12  N5  UNL     1      24.482  -7.755  10.594  1.00  0.00    -0.234 N 
ATOM     13  H51 UNL     1      25.131  -8.302  11.160  1.00  0.00     0.174 HD
ATOM     14  H52 UNL     1      24.994  -7.118   9.984  1.00  0.00     0.174 HD
ENDROOT
BRANCH   7  15
HETATM   15  N3  UNL     1      19.839  -7.278   9.584  1.00  0.00    -0.095 N 
HETATM   16  O2  UNL     1      19.303  -6.254  10.232  1.00  0.00    -0.530 OA
HETATM   17  O3  UNL     1      19.074  -7.560   8.536  1.00  0.00    -0.530 OA
ENDBRANCH   7  15
BRANCH   8  18
HETATM   18  C5  UNL     1      20.074  -9.499  11.380  1.00  0.00     0.226 C 
BRANCH  18  19
HETATM   19  O4  UNL     1      19.444 -10.116  10.355  1.00  0.00    -0.395 OA
ATOM     20  H4  UNL     1      19.471 -11.066  10.334  1.00  0.00     0.209 HD
ENDBRANCH  18  19
ENDBRANCH   8  18
TORSDOF 3
ENDMDL
MODEL 3
REMARK VINA RESULT: -3.407438127      1.917      3.629
REMARK  3 active torsions:
REMARK  status: ('A' for Active; 'I' for Inactive)
REMARK       I    between atoms: N1_2  and  C2_4 
REMARK       I    between atoms: C2_4  and  N2_6 
REMARK    1  A    between atoms: C3_7  and  N3_8 
REMARK    2  A    between atoms: C4_11  and  C5_12 
REMARK    3  A    between atoms: C5_12  and  O4_13 
ROOT
HETATM    1  C1  UNL     1      19.229 -11.064  11.821  1.00  0.00     0.151 C 
HETATM    2  N1  UNL     1      19.961  -9.911  11.370  1.00  0.00    -0.346 N 
ATOM      3  H1  UNL     1      20.679  -9.513  11.977  1.00  0.00     0.163 HD
HETATM    4  C2  UNL     1      19.724  -9.321  10.136  1.00  0.00     0.342 C 
HETATM    5  O1  UNL     1      18.735  -9.711   9.466  1.00  0.00    -0.246 OA
HETATM    6  N2  UNL     1      20.561  -8.285   9.552  1.00  0.00    -0.073 N 
HETATM    7  C3  UNL     1      21.834  -8.092   9.816  1.00  0.00     0.226 A 
HETATM    8  C4  UNL     1      22.304  -7.025   8.934  1.00  0.00     0.103 A 
HETATM    9  N4  UNL     1      21.278  -6.672   8.238  1.00  0.00    -0.185 N 
HETATM   10  C6  UNL     1      21.172  -5.763   7.109  1.00  0.00     0.175 C 
HETATM   11  C7  UNL     1      20.210  -7.424   8.611  1.00  0.00     0.690 A 
HETATM   12  N5  UNL     1      18.960  -7.114   8.266  1.00  0.00    -0.234 N 
ATOM     13  H51 UNL     1      18.690  -6.450   7.541  1.00  0.00     0.174 HD
ATOM     14  H52 UNL     1      18.158  -7.679   8.547  1.00  0.00     0.174 HD
ENDROOT
BRANCH   7  15
HETATM   15  N3  UNL     1      22.754  -8.720  10.682  1.00  0.00    -0.095 N 
HETATM   16  O2  UNL     1      22.572  -8.448  11.967  1.00  0.00    -0.530 OA
HETATM   17  O3  UNL     1      23.667  -9.679  10.579  1.00  0.00    -0.530 OA
ENDBRANCH   7  15
BRANCH   8  18
HETATM   18  C5  UNL     1      23.730  -6.822   8.769  1.00  0.00     0.226 C 
BRANCH  18  19
HETATM   19  O4  UNL     1      24.141  -5.598   8.368  1.00  0.00    -0.395 OA
ATOM     20  H4  UNL     1      23.878  -4.854   8.897  1.00  0.00     0.209 HD
ENDBRANCH  18  19
ENDBRANCH   8  18
TORSDOF 3
ENDMDL
MODEL 4
REMARK VINA RESULT: -3.103802823      1.687      3.841
REMARK  3 active torsions:
REMARK  status: ('A' for Active; 'I' for Inactive)
REMARK       I    between atoms: N1_2  and  C2_4 
REMARK       I    between atoms: C2_4  and  N2_6 
REMARK    1  A    between atoms: C3_7  and  N3_8 
REMARK    2  A    between atoms: C4_11  and  C5_12 
REMARK    3  A    between atoms: C5_12  and  O4_13 
ROOT
HETATM    1  C1  UNL     1      18.126 -10.029   9.468  1.00  0.00     0.151 C 
HETATM    2  N1  UNL     1      19.510  -9.683   9.285  1.00  0.00    -0.346 N 
ATOM      3  H1  UNL     1      19.888  -9.644   8.338  1.00  0.00     0.163 HD
HETATM    4  C2  UNL     1      20.348  -9.399  10.354  1.00  0.00     0.342 C 
HETATM    5  O1  UNL     1      19.924  -9.606  11.520  1.00  0.00    -0.246 OA
HETATM    6  N2  UNL     1      21.690  -8.857  10.218  1.00  0.00    -0.073 N 
HETATM    7  C3  UNL     1      22.126  -8.139   9.207  1.00  0.00     0.226 A 
HETATM    8  C4  UNL     1      23.487  -7.715   9.529  1.00  0.00     0.103 A 
HETATM    9  N4  UNL     1      23.744  -8.220  10.687  1.00  0.00    -0.185 N 
HETATM   10  C6  UNL     1      24.880  -8.022  11.571  1.00  0.00     0.175 C 
HETATM   11  C7  UNL     1      22.663  -8.925  11.112  1.00  0.00     0.690 A 
HETATM   12  N5  UNL     1      22.720  -9.774  12.138  1.00  0.00    -0.234 N 
ATOM     13  H51 UNL     1      23.471  -9.826  12.827  1.00  0.00     0.174 HD
ATOM     14  H52 UNL     1      21.909 -10.303  12.457  1.00  0.00     0.174 HD
ENDROOT
BRANCH   7  15
HETATM   15  N3  UNL     1      21.539  -7.701   8.001  1.00  0.00    -0.095 N 
HETATM   16  O2  UNL     1      21.110  -8.677   7.212  1.00  0.00    -0.530 OA
HETATM   17  O3  UNL     1      21.120  -6.543   7.504  1.00  0.00    -0.530 OA
ENDBRANCH   7  15
BRANCH   8  18
HETATM   18  C5  UNL     1      24.096  -6.650   8.756  1.00  0.00     0.226 C 
BRANCH  18  19
HETATM   19  O4  UNL     1      23.444  -5.466   8.707  1.00  0.00    -0.395 OA
ATOM     20  H4  UNL     1      22.571  -5.464   8.332  1.00  0.00     0.209 HD
ENDBRANCH  18  19
ENDBRANCH   8  18
TORSDOF 3
ENDMDL
MODEL 5
REMARK VINA RESULT: -2.967773865      2.052      3.444
REMARK  3 active torsions:
REMARK  status: ('A' for Active; 'I' for Inactive)
REMARK       I    between atoms: N1_2  and  C2_4 
REMARK       I    between atoms: C2_4  and  N2_6 
REMARK    1  A    between atoms: C3_7  and  N3_8 
REMARK    2  A    between atoms: C4_11  and  C5_12 
REMARK    3  A    between atoms: C5_12  and  O4_13 
ROOT
HETATM    1  C1  UNL     1      24.371  -9.892  12.135  1.00  0.00     0.151 C 
HETATM    2  N1  UNL     1      23.504  -9.478  11.064  1.00  0.00    -0.346 N 
ATOM      3  H1  UNL     1      22.825 -10.143  10.695  1.00  0.00     0.163 HD
HETATM    4  C2  UNL     1      23.561  -8.204  10.517  1.00  0.00     0.342 C 
HETATM    5  O1  UNL     1      24.503  -7.446  10.861  1.00  0.00    -0.246 OA
HETATM    6  N2  UNL     1      22.587  -7.674   9.577  1.00  0.00    -0.073 N 
HETATM    7  C3  UNL     1      21.336  -8.067   9.469  1.00  0.00     0.226 A 
HETATM    8  C4  UNL     1      20.692  -7.200   8.485  1.00  0.00     0.103 A 
HETATM    9  N4  UNL     1      21.607  -6.384   8.088  1.00  0.00    -0.185 N 
HETATM   10  C6  UNL     1      21.519  -5.216   7.228  1.00  0.00     0.175 C 
HETATM   11  C7  UNL     1      22.765  -6.668   8.737  1.00  0.00     0.690 A 
HETATM   12  N5  UNL     1      23.943  -6.178   8.349  1.00  0.00    -0.234 N 
ATOM     13  H51 UNL     1      24.081  -5.402   7.701  1.00  0.00     0.174 HD
ATOM     14  H52 UNL     1      24.813  -6.391   8.837  1.00  0.00     0.174 HD
ENDROOT
BRANCH   7  15
HETATM   15  N3  UNL     1      20.567  -9.052  10.124  1.00  0.00    -0.095 N 
HETATM   16  O2  UNL     1      20.400  -8.845  11.423  1.00  0.00    -0.530 OA
HETATM   17  O3  UNL     1      19.790 -10.064   9.755  1.00  0.00    -0.530 OA
ENDBRANCH   7  15
BRANCH   8  18
HETATM   18  C5  UNL     1      19.245  -7.184   8.400  1.00  0.00     0.226 C 
BRANCH  18  19
HETATM   19  O4  UNL     1      18.554  -7.111   9.561  1.00  0.00    -0.395 OA
ATOM     20  H4  UNL     1      18.930  -6.589  10.260  1.00  0.00     0.209 HD
ENDBRANCH  18  19
ENDBRANCH   8  18
TORSDOF 3
ENDMDL
