MODEL 1
REMARK VINA RESULT: -7.572875681      0.000      0.000
REMARK  2 active torsions:
REMARK  status: ('A' for Active; 'I' for Inactive)
REMARK    1  A    between atoms: C4_8  and  C5_9 
REMARK    2  A    between atoms: C6_12  and  C7_13 
REMARK       I    between atoms: C7_13  and  N3_15 
ROOT
HETATM    1  C7  UNL     1      25.143  -8.821  11.983  1.00  0.00     0.300 C 
HETATM    2  O3  UNL     1      24.816  -8.234  13.030  1.00  0.00    -0.263 OA
HETATM    3  N3  UNL     1      26.454  -9.308  11.771  1.00  0.00    -0.257 N 
ATOM      4  H3  UNL     1      26.681  -9.784  10.899  1.00  0.00     0.181 HD
HETATM    5  C8  UNL     1      27.448  -9.141  12.754  1.00  0.00     0.184 C 
HETATM    6  N4  UNL     1      28.260  -9.018  13.573  1.00  0.00    -0.172 NA
ENDROOT
BRANCH   1   7
HETATM    7  C6  UNL     1      24.141  -9.013  10.939  1.00  0.00     0.198 A 
HETATM    8  N2  UNL     1      22.959  -8.374  10.798  1.00  0.00    -0.314 N 
HETATM    9  C5  UNL     1      22.306  -8.826   9.709  1.00  0.00     0.190 A 
ATOM     10  H2  UNL     1      22.610  -7.651  11.427  1.00  0.00     0.169 HD
HETATM   11  O4  UNL     1      23.094  -9.738   9.192  1.00  0.00    -0.217 OA
HETATM   12  N5  UNL     1      24.182  -9.871   9.893  1.00  0.00    -0.238 N 
ATOM     13  H5  UNL     1      24.943 -10.519   9.687  1.00  0.00     0.197 HD
BRANCH   9  14
HETATM   14  C4  UNL     1      21.001  -8.384   9.222  1.00  0.00     0.118 A 
HETATM   15  C2  UNL     1      20.714  -7.190   8.596  1.00  0.00     0.049 A 
HETATM   16  C1  UNL     1      21.705  -6.135   8.309  1.00  0.00     0.071 C 
HETATM   17  N1  UNL     1      19.378  -7.195   8.314  1.00  0.00    -0.261 N 
HETATM   18  O1  UNL     1      18.885  -8.306   8.734  1.00  0.00    -0.195 OA
ATOM     19  H1  UNL     1      18.861  -6.448   7.850  1.00  0.00     0.194 HD
HETATM   20  C3  UNL     1      19.807  -9.067   9.290  1.00  0.00     0.321 A 
HETATM   21  O2  UNL     1      19.698 -10.209   9.807  1.00  0.00    -0.257 OA
ENDBRANCH   9  14
ENDBRANCH   1   7
TORSDOF 2
ENDMDL
MODEL 2
REMARK VINA RESULT: -7.490527853      2.091      6.613
REMARK  2 active torsions:
REMARK  status: ('A' for Active; 'I' for Inactive)
REMARK    1  A    between atoms: C4_8  and  C5_9 
REMARK    2  A    between atoms: C6_12  and  C7_13 
REMARK       I    between atoms: C7_13  and  N3_15 
ROOT
HETATM    1  C7  UNL     1      19.865  -9.317   9.385  1.00  0.00     0.300 C 
HETATM    2  O3  UNL     1      19.870  -8.962   8.192  1.00  0.00    -0.263 OA
HETATM    3  N3  UNL     1      18.756  -9.969   9.972  1.00  0.00    -0.257 N 
ATOM      4  H3  UNL     1      18.793 -10.244  10.953  1.00  0.00     0.181 HD
HETATM    5  C8  UNL     1      17.601 -10.242   9.214  1.00  0.00     0.184 C 
HETATM    6  N4  UNL     1      16.659 -10.482   8.583  1.00  0.00    -0.172 NA
ENDROOT
BRANCH   1   7
HETATM    7  C6  UNL     1      21.044  -9.051  10.203  1.00  0.00     0.198 A 
HETATM    8  N2  UNL     1      22.309  -9.476   9.998  1.00  0.00    -0.314 N 
HETATM    9  C5  UNL     1      23.122  -9.024  10.974  1.00  0.00     0.190 A 
ATOM     10  H2  UNL     1      22.608 -10.057   9.215  1.00  0.00     0.169 HD
HETATM   11  O4  UNL     1      22.348  -8.325  11.768  1.00  0.00    -0.217 OA
HETATM   12  N5  UNL     1      21.119  -8.321  11.343  1.00  0.00    -0.238 N 
ATOM     13  H5  UNL     1      20.337  -7.846  11.794  1.00  0.00     0.197 HD
BRANCH   9  14
HETATM   14  C4  UNL     1      24.557  -9.269  11.104  1.00  0.00     0.118 A 
HETATM   15  C2  UNL     1      25.393  -8.783  12.086  1.00  0.00     0.049 A 
HETATM   16  C1  UNL     1      24.962  -7.913  13.197  1.00  0.00     0.071 C 
HETATM   17  N1  UNL     1      26.645  -9.259  11.820  1.00  0.00    -0.261 N 
HETATM   18  O1  UNL     1      26.581  -9.980  10.758  1.00  0.00    -0.195 OA
ATOM     19  H1  UNL     1      27.485  -9.073  12.369  1.00  0.00     0.194 HD
HETATM   20  C3  UNL     1      25.355 -10.027  10.276  1.00  0.00     0.321 A 
HETATM   21  O2  UNL     1      24.917 -10.628   9.261  1.00  0.00    -0.257 OA
ENDBRANCH   9  14
ENDBRANCH   1   7
TORSDOF 2
ENDMDL
MODEL 3
REMARK VINA RESULT: -7.074982700      1.603      2.270
REMARK  2 active torsions:
REMARK  status: ('A' for Active; 'I' for Inactive)
REMARK    1  A    between atoms: C4_8  and  C5_9 
REMARK    2  A    between atoms: C6_12  and  C7_13 
REMARK       I    between atoms: C7_13  and  N3_15 
ROOT
HETATM    1  C7  UNL     1      25.543  -9.343  11.596  1.00  0.00     0.300 C 
HETATM    2  O3  UNL     1      26.233  -9.895  10.719  1.00  0.00    -0.263 OA
HETATM    3  N3  UNL     1      26.098  -8.891  12.816  1.00  0.00    -0.257 N 
ATOM      4  H3  UNL     1      25.498  -8.444  13.509  1.00  0.00     0.181 HD
HETATM    5  C8  UNL     1      27.471  -9.055  13.084  1.00  0.00     0.184 C 
HETATM    6  N4  UNL     1      28.604  -9.174  13.294  1.00  0.00    -0.172 NA
ENDROOT
BRANCH   1   7
HETATM    7  C6  UNL     1      24.116  -9.157  11.356  1.00  0.00     0.198 A 
HETATM    8  N2  UNL     1      23.523  -8.572  10.293  1.00  0.00    -0.314 N 
HETATM    9  C5  UNL     1      22.183  -8.587  10.433  1.00  0.00     0.190 A 
ATOM     10  H2  UNL     1      24.020  -8.174   9.496  1.00  0.00     0.169 HD
HETATM   11  O4  UNL     1      21.965  -9.182  11.581  1.00  0.00    -0.217 OA
HETATM   12  N5  UNL     1      23.083  -9.529  12.149  1.00  0.00    -0.238 N 
ATOM     13  H5  UNL     1      23.167 -10.006  13.047  1.00  0.00     0.197 HD
BRANCH   9  14
HETATM   14  C4  UNL     1      21.196  -8.053   9.496  1.00  0.00     0.118 A 
HETATM   15  C2  UNL     1      19.913  -8.514   9.294  1.00  0.00     0.049 A 
HETATM   16  C1  UNL     1      19.311  -9.655  10.010  1.00  0.00     0.071 C 
HETATM   17  N1  UNL     1      19.349  -7.725   8.333  1.00  0.00    -0.261 N 
HETATM   18  O1  UNL     1      20.219  -6.848   7.974  1.00  0.00    -0.195 OA
ATOM     19  H1  UNL     1      18.402  -7.815   7.964  1.00  0.00     0.194 HD
HETATM   20  C3  UNL     1      21.351  -6.989   8.634  1.00  0.00     0.321 A 
HETATM   21  O2  UNL     1      22.414  -6.322   8.551  1.00  0.00    -0.257 OA
ENDBRANCH   9  14
ENDBRANCH   1   7
TORSDOF 2
ENDMDL
MODEL 4
REMARK VINA RESULT: -7.072763672      1.190      1.213
REMARK  2 active torsions:
REMARK  status: ('A' for Active; 'I' for Inactive)
REMARK    1  A    between atoms: C4_8  and  C5_9 
REMARK    2  A    between atoms: C6_12  and  C7_13 
REMARK       I    between atoms: C7_13  and  N3_15 
ROOT
HETATM    1  C7  UNL     1      25.969  -8.728  12.541  1.00  0.00     0.300 C 
HETATM    2  O3  UNL     1      25.754  -8.223  13.658  1.00  0.00    -0.263 OA
HETATM    3  N3  UNL     1      27.260  -9.137  12.136  1.00  0.00    -0.257 N 
ATOM      4  H3  UNL     1      27.394  -9.547  11.212  1.00  0.00     0.181 HD
HETATM    5  C8  UNL     1      28.364  -8.984  12.997  1.00  0.00     0.184 C 
HETATM    6  N4  UNL     1      29.267  -8.872  13.715  1.00  0.00    -0.172 NA
ENDROOT
BRANCH   1   7
HETATM    7  C6  UNL     1      24.851  -8.903  11.619  1.00  0.00     0.198 A 
HETATM    8  N2  UNL     1      23.687  -8.217  11.588  1.00  0.00    -0.314 N 
HETATM    9  C5  UNL     1      22.901  -8.668  10.591  1.00  0.00     0.190 A 
ATOM     10  H2  UNL     1      23.439  -7.463  12.229  1.00  0.00     0.169 HD
HETATM   11  O4  UNL     1      23.589  -9.626  10.020  1.00  0.00    -0.217 OA
HETATM   12  N5  UNL     1      24.741  -9.789  10.601  1.00  0.00    -0.238 N 
ATOM     13  H5  UNL     1      25.448 -10.474  10.334  1.00  0.00     0.197 HD
BRANCH   9  14
HETATM   14  C4  UNL     1      21.569  -8.182  10.236  1.00  0.00     0.118 A 
HETATM   15  C2  UNL     1      21.252  -7.310   9.218  1.00  0.00     0.049 A 
HETATM   16  C1  UNL     1      22.234  -6.707   8.295  1.00  0.00     0.071 C 
HETATM   17  N1  UNL     1      19.898  -7.132   9.247  1.00  0.00    -0.261 N 
HETATM   18  O1  UNL     1      19.423  -7.841  10.208  1.00  0.00    -0.195 OA
ATOM     19  H1  UNL     1      19.358  -6.539   8.616  1.00  0.00     0.194 HD
HETATM   20  C3  UNL     1      20.373  -8.497  10.844  1.00  0.00     0.321 A 
HETATM   21  O2  UNL     1      20.287  -9.280  11.824  1.00  0.00    -0.257 OA
ENDBRANCH   9  14
ENDBRANCH   1   7
TORSDOF 2
ENDMDL
MODEL 5
REMARK VINA RESULT: -7.002631901      1.030      1.847
REMARK  2 active torsions:
REMARK  status: ('A' for Active; 'I' for Inactive)
REMARK    1  A    between atoms: C4_8  and  C5_9 
REMARK    2  A    between atoms: C6_12  and  C7_13 
REMARK       I    between atoms: C7_13  and  N3_15 
ROOT
HETATM    1  C7  UNL     1      25.273  -8.799  12.078  1.00  0.00     0.300 C 
HETATM    2  O3  UNL     1      24.973  -8.222  13.139  1.00  0.00    -0.263 OA
HETATM    3  N3  UNL     1      26.579  -9.277  11.825  1.00  0.00    -0.257 N 
ATOM      4  H3  UNL     1      26.784  -9.745  10.943  1.00  0.00     0.181 HD
HETATM    5  C8  UNL     1      27.601  -9.112  12.781  1.00  0.00     0.184 C 
HETATM    6  N4  UNL     1      28.435  -8.991  13.576  1.00  0.00    -0.172 NA
ENDROOT
BRANCH   1   7
HETATM    7  C6  UNL     1      24.242  -8.988  11.063  1.00  0.00     0.198 A 
HETATM    8  N2  UNL     1      23.027  -8.402  10.996  1.00  0.00    -0.314 N 
HETATM    9  C5  UNL     1      22.355  -8.832   9.909  1.00  0.00     0.190 A 
ATOM     10  H2  UNL     1      22.668  -7.728  11.673  1.00  0.00     0.169 HD
HETATM   11  O4  UNL     1      23.165  -9.677   9.319  1.00  0.00    -0.217 OA
HETATM   12  N5  UNL     1      24.284  -9.792   9.973  1.00  0.00    -0.238 N 
ATOM     13  H5  UNL     1      25.066 -10.390   9.708  1.00  0.00     0.197 HD
BRANCH   9  14
HETATM   14  C4  UNL     1      21.014  -8.431   9.491  1.00  0.00     0.118 A 
HETATM   15  C2  UNL     1      19.818  -8.938   9.952  1.00  0.00     0.049 A 
HETATM   16  C1  UNL     1      19.696 -10.000  10.970  1.00  0.00     0.071 C 
HETATM   17  N1  UNL     1      18.820  -8.279   9.293  1.00  0.00    -0.261 N 
HETATM   18  O1  UNL     1      19.363  -7.432   8.491  1.00  0.00    -0.195 OA
ATOM     19  H1  UNL     1      17.819  -8.431   9.416  1.00  0.00     0.194 HD
HETATM   20  C3  UNL     1      20.679  -7.472   8.561  1.00  0.00     0.321 A 
HETATM   21  O2  UNL     1      21.533  -6.797   7.932  1.00  0.00    -0.257 OA
ENDBRANCH   9  14
ENDBRANCH   1   7
TORSDOF 2
ENDMDL
