MODEL 1
REMARK VINA RESULT: -8.370934519      0.000      0.000
REMARK  18 active torsions:
REMARK  status: ('A' for Active; 'I' for Inactive)
REMARK    1  A    between atoms: C2_2  and  C3_3 
REMARK    2  A    between atoms: C3_3  and  C4_4 
REMARK    3  A    between atoms: C4_4  and  C5_5 
REMARK    4  A    between atoms: C5_5  and  C6_6 
REMARK    5  A    between atoms: C6_6  and  C7_7 
REMARK    6  A    between atoms: C7_7  and  C8_8 
REMARK    7  A    between atoms: C8_8  and  C9_9 
REMARK    8  A    between atoms: C9_9  and  C10_10 
REMARK    9  A    between atoms: C10_10  and  C11_11 
REMARK   10  A    between atoms: C11_11  and  C12_12 
REMARK   11  A    between atoms: C12_12  and  N1_13 
REMARK   12  A    between atoms: C14_15  and  C15_16 
REMARK   13  A    between atoms: C15_16  and  N2_17 
REMARK       I    between atoms: N2_17  and  C16_19 
REMARK       I    between atoms: C16_19  and  N3_21 
REMARK   14  A    between atoms: C20_27  and  O4_28 
REMARK   15  A    between atoms: C21_30  and  O5_31 
REMARK   16  A    between atoms: C22_33  and  O6_34 
REMARK   17  A    between atoms: C23_36  and  C24_37 
REMARK   18  A    between atoms: C24_37  and  O7_38 
ROOT
HETATM    1  N1  UNL     1       8.101  25.723   4.817  1.00  0.00    -0.400 N 
HETATM    2  C13 UNL     1       7.568  25.711   3.495  1.00  0.00     0.126 C 
HETATM    3  C14 UNL     1       8.614  25.615   2.399  1.00  0.00     0.052 C 
HETATM    4  C20 UNL     1       9.757  26.572   2.651  1.00  0.00     0.156 C 
HETATM    5  C21 UNL     1       9.194  27.850   3.233  1.00  0.00     0.178 C 
HETATM    6  C22 UNL     1       9.367  27.807   4.707  1.00  0.00     0.173 C 
HETATM    7  C23 UNL     1       8.283  26.972   5.422  1.00  0.00     0.134 C 
ENDROOT
BRANCH   1   8
HETATM    8  C12 UNL     1       7.640  24.615   5.595  1.00  0.00     0.144 C 
BRANCH   8   9
HETATM    9  C11 UNL     1       6.583  23.806   5.007  1.00  0.00    -0.012 C 
BRANCH   9  10
HETATM   10  C10 UNL     1       5.374  23.415   5.709  1.00  0.00    -0.029 C 
BRANCH  10  11
HETATM   11  C9  UNL     1       5.206  22.212   6.504  1.00  0.00     0.027 C 
BRANCH  11  12
HETATM   12  C8  UNL     1       3.827  21.821   6.946  1.00  0.00     0.004 C 
BRANCH  12  13
HETATM   13  C7  UNL     1       2.799  22.895   6.736  1.00  0.00     0.000 C 
BRANCH  13  14
HETATM   14  C6  UNL     1       1.427  22.528   7.247  1.00  0.00     0.000 C 
BRANCH  14  15
HETATM   15  C5  UNL     1       1.554  21.226   8.024  1.00  0.00     0.000 C 
BRANCH  15  16
HETATM   16  C4  UNL     1       0.192  20.681   8.400  1.00  0.00     0.000 C 
BRANCH  16  17
HETATM   17  C3  UNL     1      -0.897  21.696   8.159  1.00  0.00    -0.000 C 
BRANCH  17  18
HETATM   18  C2  UNL     1      -1.953  21.054   7.291  1.00  0.00    -0.005 C 
HETATM   19  C1  UNL     1      -3.158  20.673   8.083  1.00  0.00     0.005 C 
ENDBRANCH  17  18
ENDBRANCH  16  17
ENDBRANCH  15  16
ENDBRANCH  14  15
ENDBRANCH  13  14
ENDBRANCH  12  13
ENDBRANCH  11  12
ENDBRANCH  10  11
ENDBRANCH   9  10
ENDBRANCH   8   9
ENDBRANCH   1   8
BRANCH   7  20
HETATM   20  C24 UNL     1       7.068  27.864   5.445  1.00  0.00     0.191 C 
BRANCH  20  21
HETATM   21  O7  UNL     1       6.866  28.550   6.610  1.00  0.00    -0.399 OA
ATOM     22  H7  UNL     1       7.559  29.153   6.853  1.00  0.00     0.209 HD
ENDBRANCH  20  21
ENDBRANCH   7  20
BRANCH   3  23
HETATM   23  C15 UNL     1       7.956  25.977   1.088  1.00  0.00     0.133 C 
BRANCH  23  24
HETATM   24  N2  UNL     1       8.925  26.062   0.011  1.00  0.00    -0.342 N 
HETATM   25  C16 UNL     1       9.283  24.928  -0.764  1.00  0.00     0.326 C 
HETATM   26  O1  UNL     1       8.737  23.803  -0.503  1.00  0.00    -0.247 OA
HETATM   27  N3  UNL     1      10.218  24.956  -1.822  1.00  0.00    -0.243 N 
HETATM   28  C17 UNL     1      10.634  23.827  -2.668  1.00  0.00     0.166 C 
HETATM   29  C19 UNL     1      10.980  26.044  -2.332  1.00  0.00     0.371 C 
HETATM   30  C18 UNL     1      10.645  24.550  -4.023  1.00  0.00     0.201 C 
HETATM   31  O2  UNL     1      11.283  25.764  -3.682  1.00  0.00    -0.302 OA
HETATM   32  O3  UNL     1      11.319  27.070  -1.688  1.00  0.00    -0.238 OA
ATOM     33  H2  UNL     1       9.360  26.961  -0.195  1.00  0.00     0.164 HD
ENDBRANCH  23  24
ENDBRANCH   3  23
BRANCH   6  34
HETATM   34  O6  UNL     1       9.265  29.092   5.285  1.00  0.00    -0.391 OA
ATOM     35  H6  UNL     1       8.628  29.114   5.988  1.00  0.00     0.210 HD
ENDBRANCH   6  34
BRANCH   4  36
HETATM   36  O4  UNL     1      10.699  25.997   3.511  1.00  0.00    -0.392 OA
ATOM     37  H4  UNL     1      10.404  26.049   4.412  1.00  0.00     0.210 HD
ENDBRANCH   4  36
BRANCH   5  38
HETATM   38  O5  UNL     1       9.958  28.949   2.771  1.00  0.00    -0.390 OA
ATOM     39  H5  UNL     1      10.264  29.452   3.516  1.00  0.00     0.210 HD
ENDBRANCH   5  38
TORSDOF 18
ENDMDL
MODEL 2
REMARK VINA RESULT: -8.315243534      0.982      1.393
REMARK  18 active torsions:
REMARK  status: ('A' for Active; 'I' for Inactive)
REMARK    1  A    between atoms: C2_2  and  C3_3 
REMARK    2  A    between atoms: C3_3  and  C4_4 
REMARK    3  A    between atoms: C4_4  and  C5_5 
REMARK    4  A    between atoms: C5_5  and  C6_6 
REMARK    5  A    between atoms: C6_6  and  C7_7 
REMARK    6  A    between atoms: C7_7  and  C8_8 
REMARK    7  A    between atoms: C8_8  and  C9_9 
REMARK    8  A    between atoms: C9_9  and  C10_10 
REMARK    9  A    between atoms: C10_10  and  C11_11 
REMARK   10  A    between atoms: C11_11  and  C12_12 
REMARK   11  A    between atoms: C12_12  and  N1_13 
REMARK   12  A    between atoms: C14_15  and  C15_16 
REMARK   13  A    between atoms: C15_16  and  N2_17 
REMARK       I    between atoms: N2_17  and  C16_19 
REMARK       I    between atoms: C16_19  and  N3_21 
REMARK   14  A    between atoms: C20_27  and  O4_28 
REMARK   15  A    between atoms: C21_30  and  O5_31 
REMARK   16  A    between atoms: C22_33  and  O6_34 
REMARK   17  A    between atoms: C23_36  and  C24_37 
REMARK   18  A    between atoms: C24_37  and  O7_38 
ROOT
HETATM    1  N1  UNL     1       8.228  25.596   4.846  1.00  0.00    -0.400 N 
HETATM    2  C13 UNL     1       7.714  25.506   3.519  1.00  0.00     0.126 C 
HETATM    3  C14 UNL     1       8.779  25.437   2.439  1.00  0.00     0.052 C 
HETATM    4  C20 UNL     1       9.858  26.471   2.670  1.00  0.00     0.156 C 
HETATM    5  C21 UNL     1       9.210  27.731   3.201  1.00  0.00     0.178 C 
HETATM    6  C22 UNL     1       9.365  27.749   4.677  1.00  0.00     0.173 C 
HETATM    7  C23 UNL     1       8.325  26.874   5.409  1.00  0.00     0.134 C 
ENDROOT
BRANCH   1   8
HETATM    8  C12 UNL     1       7.826  24.489   5.656  1.00  0.00     0.144 C 
BRANCH   8   9
HETATM    9  C11 UNL     1       6.516  23.920   5.374  1.00  0.00    -0.012 C 
BRANCH   9  10
HETATM   10  C10 UNL     1       6.050  22.651   5.899  1.00  0.00    -0.029 C 
BRANCH  10  11
HETATM   11  C9  UNL     1       4.747  22.402   6.488  1.00  0.00     0.027 C 
BRANCH  11  12
HETATM   12  C8  UNL     1       3.536  23.032   5.867  1.00  0.00     0.004 C 
BRANCH  12  13
HETATM   13  C7  UNL     1       2.320  23.001   6.748  1.00  0.00     0.000 C 
BRANCH  13  14
HETATM   14  C6  UNL     1       2.508  22.195   8.010  1.00  0.00     0.000 C 
BRANCH  14  15
HETATM   15  C5  UNL     1       1.661  20.936   7.887  1.00  0.00     0.000 C 
BRANCH  15  16
HETATM   16  C4  UNL     1       0.366  21.073   8.656  1.00  0.00     0.000 C 
BRANCH  16  17
HETATM   17  C3  UNL     1      -0.830  20.769   7.789  1.00  0.00    -0.000 C 
BRANCH  17  18
HETATM   18  C2  UNL     1      -1.478  22.078   7.408  1.00  0.00    -0.005 C 
HETATM   19  C1  UNL     1      -1.306  23.108   8.472  1.00  0.00     0.005 C 
ENDBRANCH  17  18
ENDBRANCH  16  17
ENDBRANCH  15  16
ENDBRANCH  14  15
ENDBRANCH  13  14
ENDBRANCH  12  13
ENDBRANCH  11  12
ENDBRANCH  10  11
ENDBRANCH   9  10
ENDBRANCH   8   9
ENDBRANCH   1   8
BRANCH   7  20
HETATM   20  C24 UNL     1       7.058  27.689   5.387  1.00  0.00     0.191 C 
BRANCH  20  21
HETATM   21  O7  UNL     1       6.849  28.478   6.484  1.00  0.00    -0.399 OA
ATOM     22  H7  UNL     1       7.107  29.386   6.387  1.00  0.00     0.209 HD
ENDBRANCH  20  21
ENDBRANCH   7  20
BRANCH   3  23
HETATM   23  C15 UNL     1       8.118  25.712   1.109  1.00  0.00     0.133 C 
BRANCH  23  24
HETATM   24  N2  UNL     1       8.886  25.163   0.007  1.00  0.00    -0.342 N 
HETATM   25  C16 UNL     1       9.234  25.945  -1.125  1.00  0.00     0.326 C 
HETATM   26  O1  UNL     1       8.858  27.165  -1.173  1.00  0.00    -0.247 OA
HETATM   27  N3  UNL     1       9.979  25.461  -2.223  1.00  0.00    -0.243 N 
HETATM   28  C17 UNL     1      10.379  26.211  -3.424  1.00  0.00     0.166 C 
HETATM   29  C19 UNL     1      10.520  24.166  -2.452  1.00  0.00     0.371 C 
HETATM   30  C18 UNL     1      11.817  25.687  -3.550  1.00  0.00     0.201 C 
HETATM   31  O2  UNL     1      11.629  24.307  -3.314  1.00  0.00    -0.302 OA
HETATM   32  O3  UNL     1      10.082  23.089  -1.968  1.00  0.00    -0.238 OA
ATOM     33  H2  UNL     1       9.184  24.189   0.048  1.00  0.00     0.164 HD
ENDBRANCH  23  24
ENDBRANCH   3  23
BRANCH   6  34
HETATM   34  O6  UNL     1       9.178  29.044   5.209  1.00  0.00    -0.391 OA
ATOM     35  H6  UNL     1       9.939  29.595   5.073  1.00  0.00     0.210 HD
ENDBRANCH   6  34
BRANCH   4  36
HETATM   36  O4  UNL     1      10.822  25.985   3.561  1.00  0.00    -0.392 OA
ATOM     37  H4  UNL     1      11.623  25.767   3.099  1.00  0.00     0.210 HD
ENDBRANCH   4  36
BRANCH   5  38
HETATM   38  O5  UNL     1       9.911  28.858   2.709  1.00  0.00    -0.390 OA
ATOM     39  H5  UNL     1       9.346  29.345   2.122  1.00  0.00     0.210 HD
ENDBRANCH   5  38
TORSDOF 18
ENDMDL
MODEL 3
REMARK VINA RESULT: -8.282303804      0.689      1.002
REMARK  18 active torsions:
REMARK  status: ('A' for Active; 'I' for Inactive)
REMARK    1  A    between atoms: C2_2  and  C3_3 
REMARK    2  A    between atoms: C3_3  and  C4_4 
REMARK    3  A    between atoms: C4_4  and  C5_5 
REMARK    4  A    between atoms: C5_5  and  C6_6 
REMARK    5  A    between atoms: C6_6  and  C7_7 
REMARK    6  A    between atoms: C7_7  and  C8_8 
REMARK    7  A    between atoms: C8_8  and  C9_9 
REMARK    8  A    between atoms: C9_9  and  C10_10 
REMARK    9  A    between atoms: C10_10  and  C11_11 
REMARK   10  A    between atoms: C11_11  and  C12_12 
REMARK   11  A    between atoms: C12_12  and  N1_13 
REMARK   12  A    between atoms: C14_15  and  C15_16 
REMARK   13  A    between atoms: C15_16  and  N2_17 
REMARK       I    between atoms: N2_17  and  C16_19 
REMARK       I    between atoms: C16_19  and  N3_21 
REMARK   14  A    between atoms: C20_27  and  O4_28 
REMARK   15  A    between atoms: C21_30  and  O5_31 
REMARK   16  A    between atoms: C22_33  and  O6_34 
REMARK   17  A    between atoms: C23_36  and  C24_37 
REMARK   18  A    between atoms: C24_37  and  O7_38 
ROOT
HETATM    1  N1  UNL     1       8.272  26.009   4.756  1.00  0.00    -0.400 N 
HETATM    2  C13 UNL     1       7.674  25.901   3.466  1.00  0.00     0.126 C 
HETATM    3  C14 UNL     1       8.667  25.751   2.327  1.00  0.00     0.052 C 
HETATM    4  C20 UNL     1       9.802  26.742   2.458  1.00  0.00     0.156 C 
HETATM    5  C21 UNL     1       9.243  28.045   2.984  1.00  0.00     0.178 C 
HETATM    6  C22 UNL     1       9.489  28.102   4.447  1.00  0.00     0.173 C 
HETATM    7  C23 UNL     1       8.459  27.298   5.268  1.00  0.00     0.134 C 
ENDROOT
BRANCH   1   8
HETATM    8  C12 UNL     1       7.873  24.946   5.626  1.00  0.00     0.144 C 
BRANCH   8   9
HETATM    9  C11 UNL     1       7.836  23.613   5.045  1.00  0.00    -0.012 C 
BRANCH   9  10
HETATM   10  C10 UNL     1       6.848  22.606   5.383  1.00  0.00    -0.029 C 
BRANCH  10  11
HETATM   11  C9  UNL     1       5.628  22.831   6.138  1.00  0.00     0.027 C 
BRANCH  11  12
HETATM   12  C8  UNL     1       4.490  23.554   5.481  1.00  0.00     0.004 C 
BRANCH  12  13
HETATM   13  C7  UNL     1       3.137  23.098   5.946  1.00  0.00     0.000 C 
BRANCH  13  14
HETATM   14  C6  UNL     1       3.132  21.700   6.514  1.00  0.00     0.000 C 
BRANCH  14  15
HETATM   15  C5  UNL     1       2.695  21.791   7.969  1.00  0.00     0.000 C 
BRANCH  15  16
HETATM   16  C4  UNL     1       1.197  21.981   8.077  1.00  0.00     0.000 C 
BRANCH  16  17
HETATM   17  C3  UNL     1       0.477  20.662   8.196  1.00  0.00    -0.000 C 
BRANCH  17  18
HETATM   18  C2  UNL     1      -1.003  20.920   8.041  1.00  0.00    -0.005 C 
HETATM   19  C1  UNL     1      -1.269  22.057   7.114  1.00  0.00     0.005 C 
ENDBRANCH  17  18
ENDBRANCH  16  17
ENDBRANCH  15  16
ENDBRANCH  14  15
ENDBRANCH  13  14
ENDBRANCH  12  13
ENDBRANCH  11  12
ENDBRANCH  10  11
ENDBRANCH   9  10
ENDBRANCH   8   9
ENDBRANCH   1   8
BRANCH   7  20
HETATM   20  C24 UNL     1       7.229  28.168   5.295  1.00  0.00     0.191 C 
BRANCH  20  21
HETATM   21  O7  UNL     1       6.871  28.639   6.528  1.00  0.00    -0.399 OA
ATOM     22  H7  UNL     1       6.099  29.193   6.544  1.00  0.00     0.209 HD
ENDBRANCH  20  21
ENDBRANCH   7  20
BRANCH   3  23
HETATM   23  C15 UNL     1       7.938  26.015   1.030  1.00  0.00     0.133 C 
BRANCH  23  24
HETATM   24  N2  UNL     1       8.841  25.984  -0.105  1.00  0.00    -0.342 N 
HETATM   25  C16 UNL     1       9.195  24.767  -0.746  1.00  0.00     0.326 C 
HETATM   26  O1  UNL     1       8.704  23.672  -0.308  1.00  0.00    -0.247 OA
HETATM   27  N3  UNL     1      10.068  24.682  -1.854  1.00  0.00    -0.243 N 
HETATM   28  C17 UNL     1      10.475  23.462  -2.569  1.00  0.00     0.166 C 
HETATM   29  C19 UNL     1      10.761  25.713  -2.545  1.00  0.00     0.371 C 
HETATM   30  C18 UNL     1      10.384  24.001  -4.005  1.00  0.00     0.201 C 
HETATM   31  O2  UNL     1      10.997  25.266  -3.863  1.00  0.00    -0.302 OA
HETATM   32  O3  UNL     1      11.099  26.824  -2.062  1.00  0.00    -0.238 OA
ATOM     33  H2  UNL     1       9.232  26.860  -0.452  1.00  0.00     0.164 HD
ENDBRANCH  23  24
ENDBRANCH   3  23
BRANCH   6  34
HETATM   34  O6  UNL     1       9.390  29.420   4.945  1.00  0.00    -0.391 OA
ATOM     35  H6  UNL     1       9.259  29.434   5.885  1.00  0.00     0.210 HD
ENDBRANCH   6  34
BRANCH   4  36
HETATM   36  O4  UNL     1      10.796  26.240   3.305  1.00  0.00    -0.392 OA
ATOM     37  H4  UNL     1      11.421  26.920   3.527  1.00  0.00     0.210 HD
ENDBRANCH   4  36
BRANCH   5  38
HETATM   38  O5  UNL     1       9.960  29.124   2.414  1.00  0.00    -0.390 OA
ATOM     39  H5  UNL     1      10.875  29.055   2.659  1.00  0.00     0.210 HD
ENDBRANCH   5  38
TORSDOF 18
ENDMDL
MODEL 4
REMARK VINA RESULT: -7.785423041      1.283      1.782
REMARK  18 active torsions:
REMARK  status: ('A' for Active; 'I' for Inactive)
REMARK    1  A    between atoms: C2_2  and  C3_3 
REMARK    2  A    between atoms: C3_3  and  C4_4 
REMARK    3  A    between atoms: C4_4  and  C5_5 
REMARK    4  A    between atoms: C5_5  and  C6_6 
REMARK    5  A    between atoms: C6_6  and  C7_7 
REMARK    6  A    between atoms: C7_7  and  C8_8 
REMARK    7  A    between atoms: C8_8  and  C9_9 
REMARK    8  A    between atoms: C9_9  and  C10_10 
REMARK    9  A    between atoms: C10_10  and  C11_11 
REMARK   10  A    between atoms: C11_11  and  C12_12 
REMARK   11  A    between atoms: C12_12  and  N1_13 
REMARK   12  A    between atoms: C14_15  and  C15_16 
REMARK   13  A    between atoms: C15_16  and  N2_17 
REMARK       I    between atoms: N2_17  and  C16_19 
REMARK       I    between atoms: C16_19  and  N3_21 
REMARK   14  A    between atoms: C20_27  and  O4_28 
REMARK   15  A    between atoms: C21_30  and  O5_31 
REMARK   16  A    between atoms: C22_33  and  O6_34 
REMARK   17  A    between atoms: C23_36  and  C24_37 
REMARK   18  A    between atoms: C24_37  and  O7_38 
ROOT
HETATM    1  N1  UNL     1       8.362  25.575   4.641  1.00  0.00    -0.400 N 
HETATM    2  C13 UNL     1       7.785  25.558   3.337  1.00  0.00     0.126 C 
HETATM    3  C14 UNL     1       8.795  25.616   2.205  1.00  0.00     0.052 C 
HETATM    4  C20 UNL     1       9.840  26.678   2.460  1.00  0.00     0.156 C 
HETATM    5  C21 UNL     1       9.168  27.866   3.114  1.00  0.00     0.178 C 
HETATM    6  C22 UNL     1       9.398  27.784   4.578  1.00  0.00     0.173 C 
HETATM    7  C23 UNL     1       8.435  26.812   5.292  1.00  0.00     0.134 C 
ENDROOT
BRANCH   1   8
HETATM    8  C12 UNL     1       8.049  24.394   5.385  1.00  0.00     0.144 C 
BRANCH   8   9
HETATM    9  C11 UNL     1       6.675  23.923   5.304  1.00  0.00    -0.012 C 
BRANCH   9  10
HETATM   10  C10 UNL     1       6.207  22.678   5.884  1.00  0.00    -0.029 C 
BRANCH  10  11
HETATM   11  C9  UNL     1       4.958  22.491   6.600  1.00  0.00     0.027 C 
BRANCH  11  12
HETATM   12  C8  UNL     1       3.684  22.981   5.979  1.00  0.00     0.004 C 
BRANCH  12  13
HETATM   13  C7  UNL     1       2.507  22.947   6.911  1.00  0.00     0.000 C 
BRANCH  13  14
HETATM   14  C6  UNL     1       2.684  22.004   8.076  1.00  0.00     0.000 C 
BRANCH  14  15
HETATM   15  C5  UNL     1       1.549  20.990   8.030  1.00  0.00     0.000 C 
BRANCH  15  16
HETATM   16  C4  UNL     1       0.273  21.624   7.518  1.00  0.00     0.000 C 
BRANCH  16  17
HETATM   17  C3  UNL     1      -0.809  21.620   8.568  1.00  0.00    -0.000 C 
BRANCH  17  18
HETATM   18  C2  UNL     1      -1.545  22.936   8.488  1.00  0.00    -0.005 C 
HETATM   19  C1  UNL     1      -1.090  23.751   7.324  1.00  0.00     0.005 C 
ENDBRANCH  17  18
ENDBRANCH  16  17
ENDBRANCH  15  16
ENDBRANCH  14  15
ENDBRANCH  13  14
ENDBRANCH  12  13
ENDBRANCH  11  12
ENDBRANCH  10  11
ENDBRANCH   9  10
ENDBRANCH   8   9
ENDBRANCH   1   8
BRANCH   7  20
HETATM   20  C24 UNL     1       7.135  27.567   5.392  1.00  0.00     0.191 C 
BRANCH  20  21
HETATM   21  O7  UNL     1       6.932  28.232   6.570  1.00  0.00    -0.399 OA
ATOM     22  H7  UNL     1       6.264  28.907   6.547  1.00  0.00     0.209 HD
ENDBRANCH  20  21
ENDBRANCH   7  20
BRANCH   3  23
HETATM   23  C15 UNL     1       8.055  25.956   0.933  1.00  0.00     0.133 C 
BRANCH  23  24
HETATM   24  N2  UNL     1       8.955  26.037  -0.203  1.00  0.00    -0.342 N 
HETATM   25  C16 UNL     1       9.095  27.228  -0.963  1.00  0.00     0.326 C 
HETATM   26  O1  UNL     1       8.408  28.254  -0.636  1.00  0.00    -0.247 OA
HETATM   27  N3  UNL     1       9.956  27.360  -2.075  1.00  0.00    -0.243 N 
HETATM   28  C17 UNL     1      10.156  28.559  -2.904  1.00  0.00     0.166 C 
HETATM   29  C19 UNL     1      10.826  26.405  -2.669  1.00  0.00     0.371 C 
HETATM   30  C18 UNL     1      11.683  28.484  -3.047  1.00  0.00     0.201 C 
HETATM   31  O2  UNL     1      11.867  27.108  -3.311  1.00  0.00    -0.302 OA
HETATM   32  O3  UNL     1      10.685  25.155  -2.624  1.00  0.00    -0.238 OA
ATOM     33  H2  UNL     1       9.502  25.216  -0.462  1.00  0.00     0.164 HD
ENDBRANCH  23  24
ENDBRANCH   3  23
BRANCH   6  34
HETATM   34  O6  UNL     1       9.184  29.027   5.214  1.00  0.00    -0.391 OA
ATOM     35  H6  UNL     1       9.565  29.050   6.083  1.00  0.00     0.210 HD
ENDBRANCH   6  34
BRANCH   4  36
HETATM   36  O4  UNL     1      10.868  26.173   3.264  1.00  0.00    -0.392 OA
ATOM     37  H4  UNL     1      10.731  26.416   4.172  1.00  0.00     0.210 HD
ENDBRANCH   4  36
BRANCH   5  38
HETATM   38  O5  UNL     1       9.795  29.056   2.675  1.00  0.00    -0.390 OA
ATOM     39  H5  UNL     1       9.253  29.800   2.909  1.00  0.00     0.210 HD
ENDBRANCH   5  38
TORSDOF 18
ENDMDL
MODEL 5
REMARK VINA RESULT: -7.744068672      2.921      6.297
REMARK  18 active torsions:
REMARK  status: ('A' for Active; 'I' for Inactive)
REMARK    1  A    between atoms: C2_2  and  C3_3 
REMARK    2  A    between atoms: C3_3  and  C4_4 
REMARK    3  A    between atoms: C4_4  and  C5_5 
REMARK    4  A    between atoms: C5_5  and  C6_6 
REMARK    5  A    between atoms: C6_6  and  C7_7 
REMARK    6  A    between atoms: C7_7  and  C8_8 
REMARK    7  A    between atoms: C8_8  and  C9_9 
REMARK    8  A    between atoms: C9_9  and  C10_10 
REMARK    9  A    between atoms: C10_10  and  C11_11 
REMARK   10  A    between atoms: C11_11  and  C12_12 
REMARK   11  A    between atoms: C12_12  and  N1_13 
REMARK   12  A    between atoms: C14_15  and  C15_16 
REMARK   13  A    between atoms: C15_16  and  N2_17 
REMARK       I    between atoms: N2_17  and  C16_19 
REMARK       I    between atoms: C16_19  and  N3_21 
REMARK   14  A    between atoms: C20_27  and  O4_28 
REMARK   15  A    between atoms: C21_30  and  O5_31 
REMARK   16  A    between atoms: C22_33  and  O6_34 
REMARK   17  A    between atoms: C23_36  and  C24_37 
REMARK   18  A    between atoms: C24_37  and  O7_38 
ROOT
HETATM    1  N1  UNL     1       7.662  26.034   4.036  1.00  0.00    -0.400 N 
HETATM    2  C13 UNL     1       8.481  27.149   4.381  1.00  0.00     0.126 C 
HETATM    3  C14 UNL     1       8.391  28.315   3.413  1.00  0.00     0.052 C 
HETATM    4  C20 UNL     1       8.476  27.841   1.980  1.00  0.00     0.156 C 
HETATM    5  C21 UNL     1       9.467  26.700   1.909  1.00  0.00     0.178 C 
HETATM    6  C22 UNL     1       8.711  25.423   1.918  1.00  0.00     0.173 C 
HETATM    7  C23 UNL     1       8.270  24.988   3.332  1.00  0.00     0.134 C 
ENDROOT
BRANCH   1   8
HETATM    8  C12 UNL     1       6.691  25.745   5.045  1.00  0.00     0.144 C 
BRANCH   8   9
HETATM    9  C11 UNL     1       5.924  24.520   4.874  1.00  0.00    -0.012 C 
BRANCH   9  10
HETATM   10  C10 UNL     1       5.929  23.419   5.819  1.00  0.00    -0.029 C 
BRANCH  10  11
HETATM   11  C9  UNL     1       4.761  22.694   6.285  1.00  0.00     0.027 C 
BRANCH  11  12
HETATM   12  C8  UNL     1       3.399  23.172   5.877  1.00  0.00     0.004 C 
BRANCH  12  13
HETATM   13  C7  UNL     1       2.370  23.060   6.966  1.00  0.00     0.000 C 
BRANCH  13  14
HETATM   14  C6  UNL     1       2.682  21.993   7.986  1.00  0.00     0.000 C 
BRANCH  14  15
HETATM   15  C5  UNL     1       1.686  20.858   7.793  1.00  0.00     0.000 C 
BRANCH  15  16
HETATM   16  C4  UNL     1       0.464  21.052   8.665  1.00  0.00     0.000 C 
BRANCH  16  17
HETATM   17  C3  UNL     1      -0.809  20.777   7.905  1.00  0.00    -0.000 C 
BRANCH  17  18
HETATM   18  C2  UNL     1      -1.281  22.074   7.294  1.00  0.00    -0.005 C 
HETATM   19  C1  UNL     1      -1.216  23.198   8.272  1.00  0.00     0.005 C 
ENDBRANCH  17  18
ENDBRANCH  16  17
ENDBRANCH  15  16
ENDBRANCH  14  15
ENDBRANCH  13  14
ENDBRANCH  12  13
ENDBRANCH  11  12
ENDBRANCH  10  11
ENDBRANCH   9  10
ENDBRANCH   8   9
ENDBRANCH   1   8
BRANCH   7  20
HETATM   20  C24 UNL     1       9.516  24.422   3.963  1.00  0.00     0.191 C 
BRANCH  20  21
HETATM   21  O7  UNL     1       9.325  23.330   4.763  1.00  0.00    -0.399 OA
ATOM     22  H7  UNL     1      10.110  22.973   5.160  1.00  0.00     0.209 HD
ENDBRANCH  20  21
ENDBRANCH   7  20
BRANCH   3  23
HETATM   23  C15 UNL     1       9.550  29.244   3.687  1.00  0.00     0.133 C 
BRANCH  23  24
HETATM   24  N2  UNL     1       9.292  30.095   4.834  1.00  0.00    -0.342 N 
HETATM   25  C16 UNL     1       9.539  31.493   4.799  1.00  0.00     0.326 C 
HETATM   26  O1  UNL     1      10.002  32.012   3.727  1.00  0.00    -0.247 OA
HETATM   27  N3  UNL     1       9.305  32.365   5.885  1.00  0.00    -0.243 N 
HETATM   28  C17 UNL     1       9.533  33.819   5.919  1.00  0.00     0.166 C 
HETATM   29  C19 UNL     1       8.808  32.082   7.186  1.00  0.00     0.371 C 
HETATM   30  C18 UNL     1       8.252  34.231   6.660  1.00  0.00     0.201 C 
HETATM   31  O2  UNL     1       8.200  33.255   7.681  1.00  0.00    -0.302 OA
HETATM   32  O3  UNL     1       8.898  30.978   7.784  1.00  0.00    -0.238 OA
ATOM     33  H2  UNL     1       8.923  29.678   5.688  1.00  0.00     0.164 HD
ENDBRANCH  23  24
ENDBRANCH   3  23
BRANCH   6  34
HETATM   34  O6  UNL     1       9.491  24.347   1.441  1.00  0.00    -0.391 OA
ATOM     35  H6  UNL     1       9.179  23.512   1.768  1.00  0.00     0.210 HD
ENDBRANCH   6  34
BRANCH   4  36
HETATM   36  O4  UNL     1       7.216  27.445   1.518  1.00  0.00    -0.392 OA
ATOM     37  H4  UNL     1       7.277  27.099   0.635  1.00  0.00     0.210 HD
ENDBRANCH   4  36
BRANCH   5  38
HETATM   38  O5  UNL     1      10.151  26.753   0.670  1.00  0.00    -0.390 OA
ATOM     39  H5  UNL     1      10.715  25.993   0.592  1.00  0.00     0.210 HD
ENDBRANCH   5  38
TORSDOF 18
ENDMDL
