MODEL 1
REMARK VINA RESULT: -7.180960117      0.000      0.000
REMARK  16 active torsions:
REMARK  status: ('A' for Active; 'I' for Inactive)
REMARK    1  A    between atoms: C2_2  and  C3_3 
REMARK    2  A    between atoms: C3_3  and  N1_4 
REMARK    3  A    between atoms: N1_4  and  C4_5 
REMARK    4  A    between atoms: N1_4  and  C14_15 
REMARK    5  A    between atoms: C4_5  and  C5_6 
REMARK    6  A    between atoms: C5_6  and  C6_7 
REMARK    7  A    between atoms: C6_7  and  C7_8 
REMARK    8  A    between atoms: C7_8  and  C8_9 
REMARK    9  A    between atoms: C14_15  and  C15_16 
REMARK   10  A    between atoms: C14_15  and  C16_19 
REMARK   11  A    between atoms: C15_16  and  O1_17 
REMARK       I    between atoms: C16_19  and  N2_21 
REMARK   12  A    between atoms: C18_24  and  C19_25 
REMARK   13  A    between atoms: C19_25  and  O4_26 
REMARK   14  A    between atoms: C21_32  and  C22_33 
REMARK   15  A    between atoms: C22_33  and  C23_35 
REMARK   16  A    between atoms: C23_35  and  C24_36 
ROOT
HETATM    1  C16 UNL     1       8.328  26.559   1.284  1.00  0.00     0.253 C 
HETATM    2  O2  UNL     1       7.155  26.368   0.881  1.00  0.00    -0.270 OA
HETATM    3  N2  UNL     1       9.037  27.607   0.668  1.00  0.00    -0.264 N 
HETATM    4  C17 UNL     1      10.362  28.018   0.980  1.00  0.00     0.252 C 
HETATM    5  O3  UNL     1      10.720  28.083   2.179  1.00  0.00    -0.270 OA
HETATM    6  C18 UNL     1      11.350  28.379  -0.049  1.00  0.00     0.200 C 
HETATM    7  N3  UNL     1      10.745  28.556  -1.355  1.00  0.00    -0.344 N 
ATOM      8  H3  UNL     1      11.339  28.580  -2.184  1.00  0.00     0.163 HD
HETATM    9  C20 UNL     1       9.346  28.697  -1.501  1.00  0.00     0.249 C 
HETATM   10  O5  UNL     1       8.893  29.076  -2.589  1.00  0.00    -0.271 OA
HETATM   11  C21 UNL     1       8.410  28.409  -0.403  1.00  0.00     0.257 C 
ENDROOT
BRANCH   1  12
HETATM   12  C14 UNL     1       8.850  25.673   2.354  1.00  0.00     0.204 C 
BRANCH  12  13
HETATM   13  N1  UNL     1       8.202  25.769   3.583  1.00  0.00    -0.355 N 
BRANCH  13  14
HETATM   14  C3  UNL     1       7.947  27.006   4.157  1.00  0.00     0.064 C 
BRANCH  14  15
HETATM   15  C2  UNL     1       8.870  27.632   5.147  1.00  0.00     0.040 C 
HETATM   16  C1  UNL     1       7.963  28.356   6.173  1.00  0.00     0.010 C 
ENDBRANCH  14  15
ENDBRANCH  13  14
BRANCH  13  17
HETATM   17  C4  UNL     1       7.287  24.755   3.938  1.00  0.00     0.087 C 
BRANCH  17  18
HETATM   18  C5  UNL     1       6.894  24.457   5.316  1.00  0.00    -0.009 C 
BRANCH  18  19
HETATM   19  C6  UNL     1       5.916  23.410   5.661  1.00  0.00     0.029 C 
BRANCH  19  20
HETATM   20  C7  UNL     1       4.470  23.747   5.344  1.00  0.00     0.008 C 
BRANCH  20  21
HETATM   21  C8  UNL     1       3.511  22.671   5.813  1.00  0.00    -0.014 C 
HETATM   22  C9  UNL     1       4.026  21.945   7.028  1.00  0.00     0.004 C 
HETATM   23  C10 UNL     1       2.991  21.871   8.130  1.00  0.00     0.000 C 
HETATM   24  C11 UNL     1       1.687  21.391   7.594  1.00  0.00     0.000 C 
HETATM   25  C12 UNL     1       1.150  22.371   6.614  1.00  0.00     0.000 C 
HETATM   26  C13 UNL     1       2.172  23.320   6.049  1.00  0.00     0.004 C 
ENDBRANCH  20  21
ENDBRANCH  19  20
ENDBRANCH  18  19
ENDBRANCH  17  18
ENDBRANCH  13  17
ENDBRANCH  12  13
BRANCH  12  27
HETATM   27  C15 UNL     1       8.741  24.281   1.700  1.00  0.00     0.199 C 
BRANCH  27  28
HETATM   28  O1  UNL     1       9.481  24.191   0.546  1.00  0.00    -0.398 OA
ATOM     29  H1  UNL     1      10.399  24.022   0.722  1.00  0.00     0.209 HD
ENDBRANCH  27  28
ENDBRANCH  12  27
ENDBRANCH   1  12
BRANCH  11  30
HETATM   30  C22 UNL     1       7.902  29.694   0.148  1.00  0.00     0.164 C 
HETATM   31  O6  UNL     1       8.515  30.714  -0.135  1.00  0.00    -0.295 OA
BRANCH  30  32
HETATM   32  C23 UNL     1       6.688  29.742   1.017  1.00  0.00     0.125 C 
BRANCH  32  33
HETATM   33  C24 UNL     1       7.051  30.419   2.281  1.00  0.00     0.060 C 
HETATM   34  N4  UNL     1       8.257  30.282   2.731  1.00  0.00    -0.411 N 
ATOM     35  H42 UNL     1       8.930  29.716   2.214  1.00  0.00     0.155 HD
ATOM     36  H41 UNL     1       8.508  30.749   3.602  1.00  0.00     0.155 HD
ENDBRANCH  32  33
ENDBRANCH  30  32
ENDBRANCH  11  30
BRANCH   6  37
HETATM   37  C19 UNL     1      12.389  27.289  -0.139  1.00  0.00     0.199 C 
BRANCH  37  38
HETATM   38  O4  UNL     1      11.897  26.078   0.349  1.00  0.00    -0.398 OA
ATOM     39  H4  UNL     1      12.538  25.382   0.259  1.00  0.00     0.209 HD
ENDBRANCH  37  38
ENDBRANCH   6  37
TORSDOF 16
ENDMDL
MODEL 2
REMARK VINA RESULT: -6.720685083      2.099      4.030
REMARK  16 active torsions:
REMARK  status: ('A' for Active; 'I' for Inactive)
REMARK    1  A    between atoms: C2_2  and  C3_3 
REMARK    2  A    between atoms: C3_3  and  N1_4 
REMARK    3  A    between atoms: N1_4  and  C4_5 
REMARK    4  A    between atoms: N1_4  and  C14_15 
REMARK    5  A    between atoms: C4_5  and  C5_6 
REMARK    6  A    between atoms: C5_6  and  C6_7 
REMARK    7  A    between atoms: C6_7  and  C7_8 
REMARK    8  A    between atoms: C7_8  and  C8_9 
REMARK    9  A    between atoms: C14_15  and  C15_16 
REMARK   10  A    between atoms: C14_15  and  C16_19 
REMARK   11  A    between atoms: C15_16  and  O1_17 
REMARK       I    between atoms: C16_19  and  N2_21 
REMARK   12  A    between atoms: C18_24  and  C19_25 
REMARK   13  A    between atoms: C19_25  and  O4_26 
REMARK   14  A    between atoms: C21_32  and  C22_33 
REMARK   15  A    between atoms: C22_33  and  C23_35 
REMARK   16  A    between atoms: C23_35  and  C24_36 
ROOT
HETATM    1  C16 UNL     1       9.743  27.864   0.483  1.00  0.00     0.253 C 
HETATM    2  O2  UNL     1       9.827  29.104   0.658  1.00  0.00    -0.270 OA
HETATM    3  N2  UNL     1      10.378  27.351  -0.663  1.00  0.00    -0.264 N 
HETATM    4  C17 UNL     1      10.435  25.983  -1.048  1.00  0.00     0.252 C 
HETATM    5  O3  UNL     1      10.646  25.107  -0.176  1.00  0.00    -0.270 OA
HETATM    6  C18 UNL     1      10.258  25.535  -2.438  1.00  0.00     0.200 C 
HETATM    7  N3  UNL     1      10.323  26.634  -3.383  1.00  0.00    -0.344 N 
ATOM      8  H3  UNL     1       9.992  26.494  -4.337  1.00  0.00     0.163 HD
HETATM    9  C20 UNL     1      10.837  27.896  -3.005  1.00  0.00     0.249 C 
HETATM   10  O5  UNL     1      11.092  28.727  -3.887  1.00  0.00    -0.271 OA
HETATM   11  C21 UNL     1      11.081  28.254  -1.599  1.00  0.00     0.257 C 
ENDROOT
BRANCH   1  12
HETATM   12  C14 UNL     1       8.993  27.068   1.485  1.00  0.00     0.204 C 
BRANCH  12  13
HETATM   13  N1  UNL     1       9.181  27.442   2.814  1.00  0.00    -0.355 N 
BRANCH  13  14
HETATM   14  C3  UNL     1       8.317  28.334   3.430  1.00  0.00     0.064 C 
BRANCH  14  15
HETATM   15  C2  UNL     1       8.531  28.820   4.823  1.00  0.00     0.040 C 
HETATM   16  C1  UNL     1       7.323  28.303   5.643  1.00  0.00     0.010 C 
ENDBRANCH  14  15
ENDBRANCH  13  14
BRANCH  13  17
HETATM   17  C4  UNL     1       9.797  26.521   3.687  1.00  0.00     0.087 C 
BRANCH  17  18
HETATM   18  C5  UNL     1       9.370  25.129   3.840  1.00  0.00    -0.009 C 
BRANCH  18  19
HETATM   19  C6  UNL     1       7.975  24.746   4.120  1.00  0.00     0.029 C 
BRANCH  19  20
HETATM   20  C7  UNL     1       7.806  23.551   5.042  1.00  0.00     0.008 C 
BRANCH  20  21
HETATM   21  C8  UNL     1       6.513  23.609   5.831  1.00  0.00    -0.014 C 
HETATM   22  C9  UNL     1       5.471  24.453   5.145  1.00  0.00     0.004 C 
HETATM   23  C10 UNL     1       4.141  23.739   5.032  1.00  0.00     0.000 C 
HETATM   24  C11 UNL     1       3.743  23.159   6.346  1.00  0.00     0.000 C 
HETATM   25  C12 UNL     1       4.719  22.115   6.755  1.00  0.00     0.000 C 
HETATM   26  C13 UNL     1       6.052  22.193   6.062  1.00  0.00     0.004 C 
ENDBRANCH  20  21
ENDBRANCH  19  20
ENDBRANCH  18  19
ENDBRANCH  17  18
ENDBRANCH  13  17
ENDBRANCH  12  13
BRANCH  12  27
HETATM   27  C15 UNL     1       7.539  27.222   0.996  1.00  0.00     0.199 C 
BRANCH  27  28
HETATM   28  O1  UNL     1       6.860  26.028   1.004  1.00  0.00    -0.398 OA
ATOM     29  H1  UNL     1       6.581  25.768   0.134  1.00  0.00     0.209 HD
ENDBRANCH  27  28
ENDBRANCH  12  27
ENDBRANCH   1  12
BRANCH  11  30
HETATM   30  C22 UNL     1      12.545  28.222  -1.339  1.00  0.00     0.164 C 
HETATM   31  O6  UNL     1      13.033  29.166  -0.732  1.00  0.00    -0.295 OA
BRANCH  30  32
HETATM   32  C23 UNL     1      13.393  27.083  -1.800  1.00  0.00     0.125 C 
BRANCH  32  33
HETATM   33  C24 UNL     1      14.648  27.635  -2.353  1.00  0.00     0.060 C 
HETATM   34  N4  UNL     1      15.695  27.671  -1.593  1.00  0.00    -0.411 N 
ATOM     35  H42 UNL     1      15.639  27.322  -0.636  1.00  0.00     0.155 HD
ATOM     36  H41 UNL     1      16.561  28.051  -1.973  1.00  0.00     0.155 HD
ENDBRANCH  32  33
ENDBRANCH  30  32
ENDBRANCH  11  30
BRANCH   6  37
HETATM   37  C19 UNL     1       8.917  24.858  -2.572  1.00  0.00     0.199 C 
BRANCH  37  38
HETATM   38  O4  UNL     1       8.233  24.843  -1.355  1.00  0.00    -0.398 OA
ATOM     39  H4  UNL     1       8.661  24.275  -0.725  1.00  0.00     0.209 HD
ENDBRANCH  37  38
ENDBRANCH   6  37
TORSDOF 16
ENDMDL
MODEL 3
REMARK VINA RESULT: -6.647978861      1.581      3.880
REMARK  16 active torsions:
REMARK  status: ('A' for Active; 'I' for Inactive)
REMARK    1  A    between atoms: C2_2  and  C3_3 
REMARK    2  A    between atoms: C3_3  and  N1_4 
REMARK    3  A    between atoms: N1_4  and  C4_5 
REMARK    4  A    between atoms: N1_4  and  C14_15 
REMARK    5  A    between atoms: C4_5  and  C5_6 
REMARK    6  A    between atoms: C5_6  and  C6_7 
REMARK    7  A    between atoms: C6_7  and  C7_8 
REMARK    8  A    between atoms: C7_8  and  C8_9 
REMARK    9  A    between atoms: C14_15  and  C15_16 
REMARK   10  A    between atoms: C14_15  and  C16_19 
REMARK   11  A    between atoms: C15_16  and  O1_17 
REMARK       I    between atoms: C16_19  and  N2_21 
REMARK   12  A    between atoms: C18_24  and  C19_25 
REMARK   13  A    between atoms: C19_25  and  O4_26 
REMARK   14  A    between atoms: C21_32  and  C22_33 
REMARK   15  A    between atoms: C22_33  and  C23_35 
REMARK   16  A    between atoms: C23_35  and  C24_36 
ROOT
HETATM    1  C16 UNL     1       9.563  27.473   2.904  1.00  0.00     0.253 C 
HETATM    2  O2  UNL     1      10.693  27.030   3.223  1.00  0.00    -0.270 OA
HETATM    3  N2  UNL     1       9.531  28.385   1.832  1.00  0.00    -0.264 N 
HETATM    4  C17 UNL     1       8.367  28.993   1.285  1.00  0.00     0.252 C 
HETATM    5  O3  UNL     1       7.334  28.305   1.119  1.00  0.00    -0.270 OA
HETATM    6  C18 UNL     1       8.314  30.411   0.895  1.00  0.00     0.200 C 
HETATM    7  N3  UNL     1       9.631  31.019   0.849  1.00  0.00    -0.344 N 
ATOM      8  H3  UNL     1       9.713  32.035   0.819  1.00  0.00     0.163 HD
HETATM    9  C20 UNL     1      10.803  30.228   0.845  1.00  0.00     0.249 C 
HETATM   10  O5  UNL     1      11.885  30.764   0.571  1.00  0.00    -0.271 OA
HETATM   11  C21 UNL     1      10.780  28.789   1.153  1.00  0.00     0.257 C 
ENDROOT
BRANCH   1  12
HETATM   12  C14 UNL     1       8.387  27.004   3.675  1.00  0.00     0.204 C 
BRANCH  12  13
HETATM   13  N1  UNL     1       8.116  25.640   3.589  1.00  0.00    -0.355 N 
BRANCH  13  14
HETATM   14  C3  UNL     1       8.617  24.881   2.542  1.00  0.00     0.064 C 
BRANCH  14  15
HETATM   15  C2  UNL     1       8.223  25.120   1.124  1.00  0.00     0.040 C 
HETATM   16  C1  UNL     1       9.282  24.390   0.261  1.00  0.00     0.010 C 
ENDBRANCH  14  15
ENDBRANCH  13  14
BRANCH  13  17
HETATM   17  C4  UNL     1       7.904  24.923   4.786  1.00  0.00     0.087 C 
BRANCH  17  18
HETATM   18  C5  UNL     1       7.138  23.679   4.868  1.00  0.00    -0.009 C 
BRANCH  18  19
HETATM   19  C6  UNL     1       6.070  23.458   5.858  1.00  0.00     0.029 C 
BRANCH  19  20
HETATM   20  C7  UNL     1       4.666  23.776   5.376  1.00  0.00     0.008 C 
BRANCH  20  21
HETATM   21  C8  UNL     1       3.661  22.716   5.786  1.00  0.00    -0.014 C 
HETATM   22  C9  UNL     1       4.135  21.919   6.972  1.00  0.00     0.004 C 
HETATM   23  C10 UNL     1       3.086  21.834   8.059  1.00  0.00     0.000 C 
HETATM   24  C11 UNL     1       1.770  21.428   7.489  1.00  0.00     0.000 C 
HETATM   25  C12 UNL     1       1.282  22.471   6.549  1.00  0.00     0.000 C 
HETATM   26  C13 UNL     1       2.345  23.405   6.038  1.00  0.00     0.004 C 
ENDBRANCH  20  21
ENDBRANCH  19  20
ENDBRANCH  18  19
ENDBRANCH  17  18
ENDBRANCH  13  17
ENDBRANCH  12  13
BRANCH  12  27
HETATM   27  C15 UNL     1       8.725  27.482   5.102  1.00  0.00     0.199 C 
BRANCH  27  28
HETATM   28  O1  UNL     1       9.079  28.809   5.133  1.00  0.00    -0.398 OA
ATOM     29  H1  UNL     1       8.549  29.307   5.744  1.00  0.00     0.209 HD
ENDBRANCH  27  28
ENDBRANCH  12  27
ENDBRANCH   1  12
BRANCH  11  30
HETATM   30  C22 UNL     1      10.949  28.021  -0.109  1.00  0.00     0.164 C 
HETATM   31  O6  UNL     1      10.271  28.356  -1.071  1.00  0.00    -0.295 OA
BRANCH  30  32
HETATM   32  C23 UNL     1      11.910  26.883  -0.204  1.00  0.00     0.125 C 
BRANCH  32  33
HETATM   33  C24 UNL     1      13.249  27.431  -0.511  1.00  0.00     0.060 C 
HETATM   34  N4  UNL     1      13.326  28.507  -1.228  1.00  0.00    -0.411 N 
ATOM     35  H42 UNL     1      12.473  28.954  -1.565  1.00  0.00     0.155 HD
ATOM     36  H41 UNL     1      14.248  28.886  -1.440  1.00  0.00     0.155 HD
ENDBRANCH  32  33
ENDBRANCH  30  32
ENDBRANCH  11  30
BRANCH   6  37
HETATM   37  C19 UNL     1       7.466  31.165   1.889  1.00  0.00     0.199 C 
BRANCH  37  38
HETATM   38  O4  UNL     1       7.485  30.549   3.142  1.00  0.00    -0.398 OA
ATOM     39  H4  UNL     1       7.375  29.608   3.066  1.00  0.00     0.209 HD
ENDBRANCH  37  38
ENDBRANCH   6  37
TORSDOF 16
ENDMDL
MODEL 4
REMARK VINA RESULT: -6.603065676      1.658      3.730
REMARK  16 active torsions:
REMARK  status: ('A' for Active; 'I' for Inactive)
REMARK    1  A    between atoms: C2_2  and  C3_3 
REMARK    2  A    between atoms: C3_3  and  N1_4 
REMARK    3  A    between atoms: N1_4  and  C4_5 
REMARK    4  A    between atoms: N1_4  and  C14_15 
REMARK    5  A    between atoms: C4_5  and  C5_6 
REMARK    6  A    between atoms: C5_6  and  C6_7 
REMARK    7  A    between atoms: C6_7  and  C7_8 
REMARK    8  A    between atoms: C7_8  and  C8_9 
REMARK    9  A    between atoms: C14_15  and  C15_16 
REMARK   10  A    between atoms: C14_15  and  C16_19 
REMARK   11  A    between atoms: C15_16  and  O1_17 
REMARK       I    between atoms: C16_19  and  N2_21 
REMARK   12  A    between atoms: C18_24  and  C19_25 
REMARK   13  A    between atoms: C19_25  and  O4_26 
REMARK   14  A    between atoms: C21_32  and  C22_33 
REMARK   15  A    between atoms: C22_33  and  C23_35 
REMARK   16  A    between atoms: C23_35  and  C24_36 
ROOT
HETATM    1  C16 UNL     1       9.511  26.942   2.886  1.00  0.00     0.253 C 
HETATM    2  O2  UNL     1      10.674  26.875   3.351  1.00  0.00    -0.270 OA
HETATM    3  N2  UNL     1       9.397  27.362   1.548  1.00  0.00    -0.264 N 
HETATM    4  C17 UNL     1       8.188  27.488   0.810  1.00  0.00     0.252 C 
HETATM    5  O3  UNL     1       7.306  26.604   0.919  1.00  0.00    -0.270 OA
HETATM    6  C18 UNL     1       7.915  28.619  -0.092  1.00  0.00     0.200 C 
HETATM    7  N3  UNL     1       9.104  29.403  -0.366  1.00  0.00    -0.344 N 
ATOM      8  H3  UNL     1       9.008  30.329  -0.781  1.00  0.00     0.163 HD
HETATM    9  C20 UNL     1      10.394  28.906  -0.068  1.00  0.00     0.249 C 
HETATM   10  O5  UNL     1      11.382  29.496  -0.525  1.00  0.00    -0.271 OA
HETATM   11  C21 UNL     1      10.601  27.712   0.767  1.00  0.00     0.257 C 
ENDROOT
BRANCH   1  12
HETATM   12  C14 UNL     1       8.382  26.581   3.779  1.00  0.00     0.204 C 
BRANCH  12  13
HETATM   13  N1  UNL     1       8.064  25.226   3.829  1.00  0.00    -0.355 N 
BRANCH  13  14
HETATM   14  C3  UNL     1       8.857  24.336   4.538  1.00  0.00     0.064 C 
BRANCH  14  15
HETATM   15  C2  UNL     1       8.312  23.472   5.624  1.00  0.00     0.040 C 
HETATM   16  C1  UNL     1       7.897  22.145   4.941  1.00  0.00     0.010 C 
ENDBRANCH  14  15
ENDBRANCH  13  14
BRANCH  13  17
HETATM   17  C4  UNL     1       6.707  24.853   3.726  1.00  0.00     0.087 C 
BRANCH  17  18
HETATM   18  C5  UNL     1       5.751  24.938   4.830  1.00  0.00    -0.009 C 
BRANCH  18  19
HETATM   19  C6  UNL     1       4.583  24.049   4.950  1.00  0.00     0.029 C 
BRANCH  19  20
HETATM   20  C7  UNL     1       4.663  23.024   6.068  1.00  0.00     0.008 C 
BRANCH  20  21
HETATM   21  C8  UNL     1       3.347  22.303   6.285  1.00  0.00    -0.014 C 
HETATM   22  C9  UNL     1       3.309  21.585   7.609  1.00  0.00     0.004 C 
HETATM   23  C10 UNL     1       2.056  21.903   8.395  1.00  0.00     0.000 C 
HETATM   24  C11 UNL     1       0.846  21.751   7.540  1.00  0.00     0.000 C 
HETATM   25  C12 UNL     1       0.880  22.742   6.432  1.00  0.00     0.000 C 
HETATM   26  C13 UNL     1       2.240  23.315   6.142  1.00  0.00     0.004 C 
ENDBRANCH  20  21
ENDBRANCH  19  20
ENDBRANCH  18  19
ENDBRANCH  17  18
ENDBRANCH  13  17
ENDBRANCH  12  13
BRANCH  12  27
HETATM   27  C15 UNL     1       8.842  27.163   5.131  1.00  0.00     0.199 C 
BRANCH  27  28
HETATM   28  O1  UNL     1       9.021  28.524   5.076  1.00  0.00    -0.398 OA
ATOM     29  H1  UNL     1       9.937  28.761   4.993  1.00  0.00     0.209 HD
ENDBRANCH  27  28
ENDBRANCH  12  27
ENDBRANCH   1  12
BRANCH  11  30
HETATM   30  C22 UNL     1      10.994  26.575  -0.107  1.00  0.00     0.164 C 
HETATM   31  O6  UNL     1      12.144  26.166  -0.021  1.00  0.00    -0.295 OA
BRANCH  30  32
HETATM   32  C23 UNL     1      10.025  25.952  -1.057  1.00  0.00     0.125 C 
BRANCH  32  33
HETATM   33  C24 UNL     1       9.911  24.515  -0.725  1.00  0.00     0.060 C 
HETATM   34  N4  UNL     1       9.584  24.184   0.483  1.00  0.00    -0.411 N 
ATOM     35  H42 UNL     1       9.413  24.910   1.179  1.00  0.00     0.155 HD
ATOM     36  H41 UNL     1       9.505  23.194   0.713  1.00  0.00     0.155 HD
ENDBRANCH  32  33
ENDBRANCH  30  32
ENDBRANCH  11  30
BRANCH   6  37
HETATM   37  C19 UNL     1       6.877  29.514   0.540  1.00  0.00     0.199 C 
BRANCH  37  38
HETATM   38  O4  UNL     1       6.870  29.380   1.929  1.00  0.00    -0.398 OA
ATOM     39  H4  UNL     1       7.240  28.547   2.198  1.00  0.00     0.209 HD
ENDBRANCH  37  38
ENDBRANCH   6  37
TORSDOF 16
ENDMDL
MODEL 5
REMARK VINA RESULT: -6.509445871      1.493      1.802
REMARK  16 active torsions:
REMARK  status: ('A' for Active; 'I' for Inactive)
REMARK    1  A    between atoms: C2_2  and  C3_3 
REMARK    2  A    between atoms: C3_3  and  N1_4 
REMARK    3  A    between atoms: N1_4  and  C4_5 
REMARK    4  A    between atoms: N1_4  and  C14_15 
REMARK    5  A    between atoms: C4_5  and  C5_6 
REMARK    6  A    between atoms: C5_6  and  C6_7 
REMARK    7  A    between atoms: C6_7  and  C7_8 
REMARK    8  A    between atoms: C7_8  and  C8_9 
REMARK    9  A    between atoms: C14_15  and  C15_16 
REMARK   10  A    between atoms: C14_15  and  C16_19 
REMARK   11  A    between atoms: C15_16  and  O1_17 
REMARK       I    between atoms: C16_19  and  N2_21 
REMARK   12  A    between atoms: C18_24  and  C19_25 
REMARK   13  A    between atoms: C19_25  and  O4_26 
REMARK   14  A    between atoms: C21_32  and  C22_33 
REMARK   15  A    between atoms: C22_33  and  C23_35 
REMARK   16  A    between atoms: C23_35  and  C24_36 
ROOT
HETATM    1  C16 UNL     1       8.588  27.301   1.934  1.00  0.00     0.253 C 
HETATM    2  O2  UNL     1       7.781  28.148   2.387  1.00  0.00    -0.270 OA
HETATM    3  N2  UNL     1       9.185  27.607   0.697  1.00  0.00    -0.264 N 
HETATM    4  C17 UNL     1      10.142  26.812   0.009  1.00  0.00     0.252 C 
HETATM    5  O3  UNL     1      11.066  26.265   0.656  1.00  0.00    -0.270 OA
HETATM    6  C18 UNL     1      10.106  26.596  -1.446  1.00  0.00     0.200 C 
HETATM    7  N3  UNL     1       9.193  27.504  -2.114  1.00  0.00    -0.344 N 
ATOM      8  H3  UNL     1       8.906  27.310  -3.073  1.00  0.00     0.163 HD
HETATM    9  C20 UNL     1       8.695  28.654  -1.460  1.00  0.00     0.249 C 
HETATM   10  O5  UNL     1       8.113  29.519  -2.130  1.00  0.00    -0.271 OA
HETATM   11  C21 UNL     1       8.844  28.859  -0.011  1.00  0.00     0.257 C 
ENDROOT
BRANCH   1  12
HETATM   12  C14 UNL     1       8.832  26.074   2.732  1.00  0.00     0.204 C 
BRANCH  12  13
HETATM   13  N1  UNL     1       8.496  26.157   4.081  1.00  0.00    -0.355 N 
BRANCH  13  14
HETATM   14  C3  UNL     1       8.771  27.303   4.813  1.00  0.00     0.064 C 
BRANCH  14  15
HETATM   15  C2  UNL     1       7.816  27.861   5.812  1.00  0.00     0.040 C 
HETATM   16  C1  UNL     1       7.991  29.399   5.754  1.00  0.00     0.010 C 
ENDBRANCH  14  15
ENDBRANCH  13  14
BRANCH  13  17
HETATM   17  C4  UNL     1       7.386  25.418   4.540  1.00  0.00     0.087 C 
BRANCH  17  18
HETATM   18  C5  UNL     1       7.471  24.357   5.545  1.00  0.00    -0.009 C 
BRANCH  18  19
HETATM   19  C6  UNL     1       6.417  23.345   5.733  1.00  0.00     0.029 C 
BRANCH  19  20
HETATM   20  C7  UNL     1       5.011  23.806   5.391  1.00  0.00     0.008 C 
BRANCH  20  21
HETATM   21  C8  UNL     1       3.962  22.768   5.742  1.00  0.00    -0.014 C 
HETATM   22  C9  UNL     1       4.375  21.925   6.920  1.00  0.00     0.004 C 
HETATM   23  C10 UNL     1       3.291  21.846   7.973  1.00  0.00     0.000 C 
HETATM   24  C11 UNL     1       1.981  21.497   7.353  1.00  0.00     0.000 C 
HETATM   25  C12 UNL     1       1.554  22.579   6.428  1.00  0.00     0.000 C 
HETATM   26  C13 UNL     1       2.661  23.492   5.974  1.00  0.00     0.004 C 
ENDBRANCH  20  21
ENDBRANCH  19  20
ENDBRANCH  18  19
ENDBRANCH  17  18
ENDBRANCH  13  17
ENDBRANCH  12  13
BRANCH  12  27
HETATM   27  C15 UNL     1       8.023  25.018   1.953  1.00  0.00     0.199 C 
BRANCH  27  28
HETATM   28  O1  UNL     1       6.965  25.572   1.274  1.00  0.00    -0.398 OA
ATOM     29  H1  UNL     1       6.279  24.939   1.101  1.00  0.00     0.209 HD
ENDBRANCH  27  28
ENDBRANCH  12  27
ENDBRANCH   1  12
BRANCH  11  30
HETATM   30  C22 UNL     1       9.895  29.885   0.226  1.00  0.00     0.164 C 
HETATM   31  O6  UNL     1      11.030  29.631  -0.153  1.00  0.00    -0.295 OA
BRANCH  30  32
HETATM   32  C23 UNL     1       9.580  31.178   0.903  1.00  0.00     0.125 C 
BRANCH  32  33
HETATM   33  C24 UNL     1       9.563  30.944   2.363  1.00  0.00     0.060 C 
HETATM   34  N4  UNL     1      10.444  30.142   2.871  1.00  0.00    -0.411 N 
ATOM     35  H42 UNL     1      11.127  29.690   2.264  1.00  0.00     0.155 HD
ATOM     36  H41 UNL     1      10.432  29.980   3.877  1.00  0.00     0.155 HD
ENDBRANCH  32  33
ENDBRANCH  30  32
ENDBRANCH  11  30
BRANCH   6  37
HETATM   37  C19 UNL     1       9.670  25.178  -1.723  1.00  0.00     0.199 C 
BRANCH  37  38
HETATM   38  O4  UNL     1       8.313  25.002  -1.447  1.00  0.00    -0.398 OA
ATOM     39  H4  UNL     1       7.825  24.785  -2.234  1.00  0.00     0.209 HD
ENDBRANCH  37  38
ENDBRANCH   6  37
TORSDOF 16
ENDMDL
