MODEL 1
REMARK VINA RESULT: -7.898523743      0.000      0.000
REMARK  14 active torsions:
REMARK  status: ('A' for Active; 'I' for Inactive)
REMARK    1  A    between atoms: C2_2  and  C3_3 
REMARK    2  A    between atoms: C3_3  and  N1_4 
REMARK    3  A    between atoms: C5_9  and  N3_10 
REMARK    4  A    between atoms: C6_12  and  C7_13 
REMARK       I    between atoms: C7_13  and  N4_15 
REMARK    5  A    between atoms: N4_15  and  C8_16 
REMARK    6  A    between atoms: N7_25  and  C13_26 
REMARK    7  A    between atoms: C15_28  and  N8_29 
REMARK    8  A    between atoms: N8_29  and  C16_31 
REMARK    9  A    between atoms: C16_31  and  C17_32 
REMARK   10  A    between atoms: C17_32  and  C18_33 
REMARK   11  A    between atoms: C18_33  and  C19_34 
REMARK   12  A    between atoms: C19_34  and  N9_35 
REMARK   13  A    between atoms: N9_35  and  C20_38 
REMARK   14  A    between atoms: C23_41  and  C24_42 
ROOT
HETATM    1  N1  UNL     1      10.129  28.304   2.406  1.00  0.00    -0.350 N 
ATOM      2  H1  UNL     1      10.752  28.425   1.608  1.00  0.00     0.166 HD
HETATM    3  C4  UNL     1       9.619  27.141   2.580  1.00  0.00     0.151 A 
HETATM    4  N2  UNL     1       9.943  26.188   1.670  1.00  0.00    -0.174 N 
ATOM      5  H2  UNL     1      10.601  26.434   0.930  1.00  0.00     0.186 HD
HETATM    6  C5  UNL     1       9.451  24.945   1.686  1.00  0.00     0.685 A 
HETATM    7  N5  UNL     1       8.604  24.609   2.631  1.00  0.00    -0.174 N 
ATOM      8  H5  UNL     1       8.247  23.654   2.663  1.00  0.00     0.186 HD
HETATM    9  C10 UNL     1       8.196  25.492   3.554  1.00  0.00     0.155 A 
HETATM   10  C11 UNL     1       8.724  26.809   3.529  1.00  0.00     0.123 A 
HETATM   11  N6  UNL     1       8.106  27.469   4.503  1.00  0.00    -0.346 N 
ATOM     12  H6  UNL     1       8.277  28.445   4.746  1.00  0.00     0.167 HD
HETATM   13  C12 UNL     1       7.230  26.672   5.116  1.00  0.00     0.185 A 
HETATM   14  N7  UNL     1       7.292  25.451   4.524  1.00  0.00    -0.321 N 
ENDROOT
BRANCH  14  15
HETATM   15  C13 UNL     1       6.212  24.523   4.676  1.00  0.00     0.102 C 
HETATM   16  C14 UNL     1       4.784  24.873   4.740  1.00  0.00     0.051 C 
HETATM   17  C15 UNL     1       4.245  23.469   5.097  1.00  0.00     0.079 C 
HETATM   18  C22 UNL     1       5.158  23.019   6.195  1.00  0.00     0.035 C 
HETATM   19  C23 UNL     1       6.417  23.779   5.984  1.00  0.00     0.033 C 
BRANCH  17  20
HETATM   20  N8  UNL     1       2.927  23.238   5.189  1.00  0.00    -0.417 N 
ATOM     21  H8  UNL     1       2.295  23.672   4.516  1.00  0.00     0.153 HD
BRANCH  20  22
HETATM   22  C16 UNL     1       2.395  22.403   6.203  1.00  0.00     0.114 C 
BRANCH  22  23
HETATM   23  C17 UNL     1       1.363  23.249   7.007  1.00  0.00     0.021 C 
BRANCH  23  24
HETATM   24  C18 UNL     1       0.332  23.835   6.087  1.00  0.00     0.029 C 
BRANCH  24  25
HETATM   25  C19 UNL     1      -0.788  24.436   6.857  1.00  0.00     0.232 C 
BRANCH  25  26
HETATM   26  N9  UNL     1      -2.090  23.937   6.424  1.00  0.00    -0.075 N 
ATOM     27  H92 UNL     1      -2.766  24.668   6.204  1.00  0.00     0.277 HD
ATOM     28  H91 UNL     1      -2.087  23.507   5.499  1.00  0.00     0.277 HD
BRANCH  26  29
HETATM   29  C20 UNL     1      -2.506  23.036   7.509  1.00  0.00     0.228 C 
HETATM   30  C21 UNL     1      -2.411  21.619   7.088  1.00  0.00     0.034 C 
ENDBRANCH  26  29
ENDBRANCH  25  26
ENDBRANCH  24  25
ENDBRANCH  23  24
ENDBRANCH  22  23
ENDBRANCH  20  22
ENDBRANCH  17  20
BRANCH  19  31
HETATM   31  C24 UNL     1       7.653  23.102   6.209  1.00  0.00    -0.030 C 
HETATM   32  C25 UNL     1       8.218  22.317   5.327  1.00  0.00     0.007 C 
ENDBRANCH  19  31
ENDBRANCH  14  15
BRANCH   6  33
HETATM   33  N3  UNL     1       9.574  24.283   0.636  1.00  0.00    -0.195 N 
HETATM   34  C6  UNL     1       9.400  24.020  -0.654  1.00  0.00     0.196 C 
ATOM     35  H3  UNL     1      10.126  23.484   0.948  1.00  0.00     0.183 HD
BRANCH  34  36
HETATM   36  C7  UNL     1       8.900  25.128  -1.628  1.00  0.00     0.331 C 
HETATM   37  O1  UNL     1       8.109  24.710  -2.500  1.00  0.00    -0.250 OA
HETATM   38  N4  UNL     1       9.340  26.406  -1.534  1.00  0.00    -0.383 NA
BRANCH  38  39
HETATM   39  C8  UNL     1       9.775  27.738  -1.472  1.00  0.00     0.155 C 
HETATM   40  C9  UNL     1       8.697  28.656  -0.902  1.00  0.00     0.070 C 
ENDBRANCH  38  39
ENDBRANCH  34  36
ENDBRANCH   6  33
BRANCH   1  41
HETATM   41  C3  UNL     1       9.905  29.414   3.214  1.00  0.00     0.089 C 
BRANCH  41  42
HETATM   42  C2  UNL     1       9.108  30.505   2.512  1.00  0.00     0.007 C 
HETATM   43  C1  UNL     1       7.812  30.442   2.480  1.00  0.00     0.012 C 
ENDBRANCH  41  42
ENDBRANCH   1  41
TORSDOF 14
ENDMDL
MODEL 2
REMARK VINA RESULT: -7.668586699      1.162      1.542
REMARK  14 active torsions:
REMARK  status: ('A' for Active; 'I' for Inactive)
REMARK    1  A    between atoms: C2_2  and  C3_3 
REMARK    2  A    between atoms: C3_3  and  N1_4 
REMARK    3  A    between atoms: C5_9  and  N3_10 
REMARK    4  A    between atoms: C6_12  and  C7_13 
REMARK       I    between atoms: C7_13  and  N4_15 
REMARK    5  A    between atoms: N4_15  and  C8_16 
REMARK    6  A    between atoms: N7_25  and  C13_26 
REMARK    7  A    between atoms: C15_28  and  N8_29 
REMARK    8  A    between atoms: N8_29  and  C16_31 
REMARK    9  A    between atoms: C16_31  and  C17_32 
REMARK   10  A    between atoms: C17_32  and  C18_33 
REMARK   11  A    between atoms: C18_33  and  C19_34 
REMARK   12  A    between atoms: C19_34  and  N9_35 
REMARK   13  A    between atoms: N9_35  and  C20_38 
REMARK   14  A    between atoms: C23_41  and  C24_42 
ROOT
HETATM    1  N1  UNL     1       9.500  28.519   1.953  1.00  0.00    -0.350 N 
ATOM      2  H1  UNL     1      10.048  28.668   1.106  1.00  0.00     0.166 HD
HETATM    3  C4  UNL     1       9.210  27.308   2.259  1.00  0.00     0.151 A 
HETATM    4  N2  UNL     1       9.647  26.342   1.411  1.00  0.00    -0.174 N 
ATOM      5  H2  UNL     1      10.211  26.625   0.610  1.00  0.00     0.186 HD
HETATM    6  C5  UNL     1       9.382  25.041   1.566  1.00  0.00     0.685 A 
HETATM    7  N5  UNL     1       8.658  24.658   2.591  1.00  0.00    -0.174 N 
ATOM      8  H5  UNL     1       8.477  23.663   2.728  1.00  0.00     0.186 HD
HETATM    9  C10 UNL     1       8.153  25.542   3.464  1.00  0.00     0.155 A 
HETATM   10  C11 UNL     1       8.440  26.920   3.292  1.00  0.00     0.123 A 
HETATM   11  N6  UNL     1       7.769  27.555   4.247  1.00  0.00    -0.346 N 
ATOM     12  H6  UNL     1       7.779  28.565   4.395  1.00  0.00     0.167 HD
HETATM   13  C12 UNL     1       7.080  26.683   4.984  1.00  0.00     0.185 A 
HETATM   14  N7  UNL     1       7.322  25.440   4.494  1.00  0.00    -0.321 N 
ENDROOT
BRANCH  14  15
HETATM   15  C13 UNL     1       6.431  24.361   4.797  1.00  0.00     0.102 C 
HETATM   16  C14 UNL     1       4.970  24.470   4.939  1.00  0.00     0.051 C 
HETATM   17  C15 UNL     1       4.706  23.033   5.443  1.00  0.00     0.079 C 
HETATM   18  C22 UNL     1       5.747  22.844   6.503  1.00  0.00     0.035 C 
HETATM   19  C23 UNL     1       6.840  23.783   6.140  1.00  0.00     0.033 C 
BRANCH  17  20
HETATM   20  N8  UNL     1       3.456  22.593   5.650  1.00  0.00    -0.417 N 
ATOM     21  H8  UNL     1       3.291  21.594   5.768  1.00  0.00     0.153 HD
BRANCH  20  22
HETATM   22  C16 UNL     1       2.360  23.489   5.709  1.00  0.00     0.114 C 
BRANCH  22  23
HETATM   23  C17 UNL     1       1.663  23.281   7.088  1.00  0.00     0.021 C 
BRANCH  23  24
HETATM   24  C18 UNL     1       2.321  22.166   7.846  1.00  0.00     0.029 C 
BRANCH  24  25
HETATM   25  C19 UNL     1       1.343  21.098   8.177  1.00  0.00     0.232 C 
BRANCH  25  26
HETATM   26  N9  UNL     1       0.051  21.637   8.591  1.00  0.00    -0.075 N 
ATOM     27  H92 UNL     1      -0.082  21.675   9.602  1.00  0.00     0.277 HD
ATOM     28  H91 UNL     1      -0.057  22.637   8.428  1.00  0.00     0.277 HD
BRANCH  26  29
HETATM   29  C20 UNL     1      -0.929  20.799   7.884  1.00  0.00     0.228 C 
HETATM   30  C21 UNL     1      -1.951  21.632   7.209  1.00  0.00     0.034 C 
ENDBRANCH  26  29
ENDBRANCH  25  26
ENDBRANCH  24  25
ENDBRANCH  23  24
ENDBRANCH  22  23
ENDBRANCH  20  22
ENDBRANCH  17  20
BRANCH  19  31
HETATM   31  C24 UNL     1       8.186  23.346   6.326  1.00  0.00    -0.030 C 
HETATM   32  C25 UNL     1       8.863  22.686   5.421  1.00  0.00     0.007 C 
ENDBRANCH  19  31
ENDBRANCH  14  15
BRANCH   6  33
HETATM   33  N3  UNL     1       9.562  24.313   0.569  1.00  0.00    -0.195 N 
HETATM   34  C6  UNL     1       9.478  23.977  -0.713  1.00  0.00     0.196 C 
ATOM     35  H3  UNL     1      10.063  23.519   0.969  1.00  0.00     0.183 HD
BRANCH  34  36
HETATM   36  C7  UNL     1       9.089  25.037  -1.786  1.00  0.00     0.331 C 
HETATM   37  O1  UNL     1       8.074  24.734  -2.447  1.00  0.00    -0.250 OA
HETATM   38  N4  UNL     1       9.833  26.151  -1.985  1.00  0.00    -0.383 NA
BRANCH  38  39
HETATM   39  C8  UNL     1      10.582  27.315  -2.223  1.00  0.00     0.155 C 
HETATM   40  C9  UNL     1      11.728  27.459  -1.226  1.00  0.00     0.070 C 
ENDBRANCH  38  39
ENDBRANCH  34  36
ENDBRANCH   6  33
BRANCH   1  41
HETATM   41  C3  UNL     1       9.129  29.647   2.678  1.00  0.00     0.089 C 
BRANCH  41  42
HETATM   42  C2  UNL     1      10.288  30.261   3.452  1.00  0.00     0.007 C 
HETATM   43  C1  UNL     1      11.038  31.158   2.891  1.00  0.00     0.012 C 
ENDBRANCH  41  42
ENDBRANCH   1  41
TORSDOF 14
ENDMDL
MODEL 3
REMARK VINA RESULT: -7.250272980      2.789      5.106
REMARK  14 active torsions:
REMARK  status: ('A' for Active; 'I' for Inactive)
REMARK    1  A    between atoms: C2_2  and  C3_3 
REMARK    2  A    between atoms: C3_3  and  N1_4 
REMARK    3  A    between atoms: C5_9  and  N3_10 
REMARK    4  A    between atoms: C6_12  and  C7_13 
REMARK       I    between atoms: C7_13  and  N4_15 
REMARK    5  A    between atoms: N4_15  and  C8_16 
REMARK    6  A    between atoms: N7_25  and  C13_26 
REMARK    7  A    between atoms: C15_28  and  N8_29 
REMARK    8  A    between atoms: N8_29  and  C16_31 
REMARK    9  A    between atoms: C16_31  and  C17_32 
REMARK   10  A    between atoms: C17_32  and  C18_33 
REMARK   11  A    between atoms: C18_33  and  C19_34 
REMARK   12  A    between atoms: C19_34  and  N9_35 
REMARK   13  A    between atoms: N9_35  and  C20_38 
REMARK   14  A    between atoms: C23_41  and  C24_42 
ROOT
HETATM    1  N1  UNL     1      10.962  28.156   1.290  1.00  0.00    -0.350 N 
ATOM      2  H1  UNL     1      11.446  29.041   1.442  1.00  0.00     0.166 HD
HETATM    3  C4  UNL     1       9.970  27.889   2.057  1.00  0.00     0.151 A 
HETATM    4  N2  UNL     1       9.673  28.806   3.013  1.00  0.00    -0.174 N 
ATOM      5  H2  UNL     1      10.222  29.665   3.042  1.00  0.00     0.186 HD
HETATM    6  C5  UNL     1       8.704  28.647   3.920  1.00  0.00     0.685 A 
HETATM    7  N5  UNL     1       7.987  27.549   3.898  1.00  0.00    -0.174 N 
ATOM      8  H5  UNL     1       7.228  27.436   4.571  1.00  0.00     0.186 HD
HETATM    9  C10 UNL     1       8.228  26.570   3.013  1.00  0.00     0.155 A 
HETATM   10  C11 UNL     1       9.259  26.747   2.055  1.00  0.00     0.123 A 
HETATM   11  N6  UNL     1       9.313  25.614   1.364  1.00  0.00    -0.346 N 
ATOM     12  H6  UNL     1       9.954  25.433   0.590  1.00  0.00     0.167 HD
HETATM   13  C12 UNL     1       8.411  24.747   1.827  1.00  0.00     0.185 A 
HETATM   14  N7  UNL     1       7.744  25.346   2.847  1.00  0.00    -0.321 N 
ENDROOT
BRANCH  14  15
HETATM   15  C13 UNL     1       7.019  24.555   3.794  1.00  0.00     0.102 C 
HETATM   16  C14 UNL     1       5.650  24.822   4.266  1.00  0.00     0.051 C 
HETATM   17  C15 UNL     1       5.597  23.739   5.367  1.00  0.00     0.079 C 
HETATM   18  C22 UNL     1       6.898  23.917   6.088  1.00  0.00     0.035 C 
HETATM   19  C23 UNL     1       7.807  24.542   5.092  1.00  0.00     0.033 C 
BRANCH  17  20
HETATM   20  N8  UNL     1       4.474  23.517   6.064  1.00  0.00    -0.417 N 
ATOM     21  H8  UNL     1       3.841  24.294   6.253  1.00  0.00     0.153 HD
BRANCH  20  22
HETATM   22  C16 UNL     1       4.148  22.223   6.544  1.00  0.00     0.114 C 
BRANCH  22  23
HETATM   23  C17 UNL     1       2.870  22.363   7.425  1.00  0.00     0.021 C 
BRANCH  23  24
HETATM   24  C18 UNL     1       1.879  23.282   6.772  1.00  0.00     0.029 C 
BRANCH  24  25
HETATM   25  C19 UNL     1       0.546  23.172   7.419  1.00  0.00     0.232 C 
BRANCH  25  26
HETATM   26  N9  UNL     1      -0.511  22.855   6.463  1.00  0.00    -0.075 N 
ATOM     27  H92 UNL     1      -0.965  23.673   6.055  1.00  0.00     0.277 HD
ATOM     28  H91 UNL     1      -0.176  22.465   5.583  1.00  0.00     0.277 HD
BRANCH  26  29
HETATM   29  C20 UNL     1      -1.417  21.971   7.212  1.00  0.00     0.228 C 
HETATM   30  C21 UNL     1      -0.656  20.952   7.971  1.00  0.00     0.034 C 
ENDBRANCH  26  29
ENDBRANCH  25  26
ENDBRANCH  24  25
ENDBRANCH  23  24
ENDBRANCH  22  23
ENDBRANCH  20  22
ENDBRANCH  17  20
BRANCH  19  31
HETATM   31  C24 UNL     1       9.170  24.118   5.071  1.00  0.00    -0.030 C 
HETATM   32  C25 UNL     1       9.546  22.886   5.300  1.00  0.00     0.007 C 
ENDBRANCH  19  31
ENDBRANCH  14  15
BRANCH   6  33
HETATM   33  N3  UNL     1       8.745  29.396   4.917  1.00  0.00    -0.195 N 
HETATM   34  C6  UNL     1       8.417  29.801   6.139  1.00  0.00     0.196 C 
ATOM     35  H3  UNL     1       9.419  30.105   4.627  1.00  0.00     0.183 HD
BRANCH  34  36
HETATM   36  C7  UNL     1       7.666  28.846   7.114  1.00  0.00     0.331 C 
HETATM   37  O1  UNL     1       6.918  28.028   6.540  1.00  0.00    -0.250 OA
HETATM   38  N4  UNL     1       7.805  28.953   8.458  1.00  0.00    -0.383 NA
BRANCH  38  39
HETATM   39  C8  UNL     1       7.919  29.036   9.854  1.00  0.00     0.155 C 
HETATM   40  C9  UNL     1       6.556  28.946  10.535  1.00  0.00     0.070 C 
ENDBRANCH  38  39
ENDBRANCH  34  36
ENDBRANCH   6  33
BRANCH   1  41
HETATM   41  C3  UNL     1      11.435  27.340   0.267  1.00  0.00     0.089 C 
BRANCH  41  42
HETATM   42  C2  UNL     1      12.686  27.893  -0.401  1.00  0.00     0.007 C 
HETATM   43  C1  UNL     1      13.698  27.114  -0.631  1.00  0.00     0.012 C 
ENDBRANCH  41  42
ENDBRANCH   1  41
TORSDOF 14
ENDMDL
MODEL 4
REMARK VINA RESULT: -7.173912534      2.920      4.937
REMARK  14 active torsions:
REMARK  status: ('A' for Active; 'I' for Inactive)
REMARK    1  A    between atoms: C2_2  and  C3_3 
REMARK    2  A    between atoms: C3_3  and  N1_4 
REMARK    3  A    between atoms: C5_9  and  N3_10 
REMARK    4  A    between atoms: C6_12  and  C7_13 
REMARK       I    between atoms: C7_13  and  N4_15 
REMARK    5  A    between atoms: N4_15  and  C8_16 
REMARK    6  A    between atoms: N7_25  and  C13_26 
REMARK    7  A    between atoms: C15_28  and  N8_29 
REMARK    8  A    between atoms: N8_29  and  C16_31 
REMARK    9  A    between atoms: C16_31  and  C17_32 
REMARK   10  A    between atoms: C17_32  and  C18_33 
REMARK   11  A    between atoms: C18_33  and  C19_34 
REMARK   12  A    between atoms: C19_34  and  N9_35 
REMARK   13  A    between atoms: N9_35  and  C20_38 
REMARK   14  A    between atoms: C23_41  and  C24_42 
ROOT
HETATM    1  N1  UNL     1      10.494  28.496   2.710  1.00  0.00    -0.350 N 
ATOM      2  H1  UNL     1      11.016  29.288   3.086  1.00  0.00     0.166 HD
HETATM    3  C4  UNL     1       9.517  28.051   3.410  1.00  0.00     0.151 A 
HETATM    4  N2  UNL     1       9.284  28.668   4.597  1.00  0.00    -0.174 N 
ATOM      5  H2  UNL     1       9.865  29.469   4.844  1.00  0.00     0.186 HD
HETATM    6  C5  UNL     1       8.338  28.287   5.460  1.00  0.00     0.685 A 
HETATM    7  N5  UNL     1       7.580  27.259   5.159  1.00  0.00    -0.174 N 
ATOM      8  H5  UNL     1       6.838  26.982   5.803  1.00  0.00     0.186 HD
HETATM    9  C10 UNL     1       7.757  26.564   4.026  1.00  0.00     0.155 A 
HETATM   10  C11 UNL     1       8.764  26.975   3.116  1.00  0.00     0.123 A 
HETATM   11  N6  UNL     1       8.754  26.083   2.132  1.00  0.00    -0.346 N 
ATOM     12  H6  UNL     1       9.363  26.109   1.314  1.00  0.00     0.167 HD
HETATM   13  C12 UNL     1       7.834  25.146   2.369  1.00  0.00     0.185 A 
HETATM   14  N7  UNL     1       7.222  25.451   3.542  1.00  0.00    -0.321 N 
ENDROOT
BRANCH  14  15
HETATM   15  C13 UNL     1       6.497  24.444   4.257  1.00  0.00     0.102 C 
HETATM   16  C14 UNL     1       5.101  24.553   4.711  1.00  0.00     0.051 C 
HETATM   17  C15 UNL     1       5.054  23.251   5.543  1.00  0.00     0.079 C 
HETATM   18  C22 UNL     1       6.317  23.310   6.345  1.00  0.00     0.035 C 
HETATM   19  C23 UNL     1       7.235  24.171   5.555  1.00  0.00     0.033 C 
BRANCH  17  20
HETATM   20  N8  UNL     1       3.915  22.841   6.121  1.00  0.00    -0.417 N 
ATOM     21  H8  UNL     1       3.027  23.227   5.803  1.00  0.00     0.153 HD
BRANCH  20  22
HETATM   22  C16 UNL     1       3.923  21.882   7.165  1.00  0.00     0.114 C 
BRANCH  22  23
HETATM   23  C17 UNL     1       2.614  22.080   7.987  1.00  0.00     0.021 C 
BRANCH  23  24
HETATM   24  C18 UNL     1       1.653  22.959   7.241  1.00  0.00     0.029 C 
BRANCH  24  25
HETATM   25  C19 UNL     1       0.433  22.204   6.853  1.00  0.00     0.232 C 
BRANCH  25  26
HETATM   26  N9  UNL     1      -0.668  23.085   6.473  1.00  0.00    -0.075 N 
ATOM     27  H92 UNL     1      -0.470  24.078   6.593  1.00  0.00     0.277 HD
ATOM     28  H91 UNL     1      -0.843  23.128   5.469  1.00  0.00     0.277 HD
BRANCH  26  29
HETATM   29  C20 UNL     1      -1.806  22.595   7.265  1.00  0.00     0.228 C 
HETATM   30  C21 UNL     1      -1.811  21.116   7.330  1.00  0.00     0.034 C 
ENDBRANCH  26  29
ENDBRANCH  25  26
ENDBRANCH  24  25
ENDBRANCH  23  24
ENDBRANCH  22  23
ENDBRANCH  20  22
ENDBRANCH  17  20
BRANCH  19  31
HETATM   31  C24 UNL     1       8.615  23.809   5.505  1.00  0.00    -0.030 C 
HETATM   32  C25 UNL     1       9.055  22.717   4.934  1.00  0.00     0.007 C 
ENDBRANCH  19  31
ENDBRANCH  14  15
BRANCH   6  33
HETATM   33  N3  UNL     1       8.438  28.722   6.625  1.00  0.00    -0.195 N 
HETATM   34  C6  UNL     1       8.077  29.443   7.681  1.00  0.00     0.196 C 
ATOM     35  H3  UNL     1       9.283  28.259   6.958  1.00  0.00     0.183 HD
BRANCH  34  36
HETATM   36  C7  UNL     1       6.650  30.063   7.767  1.00  0.00     0.331 C 
HETATM   37  O1  UNL     1       5.775  29.258   8.149  1.00  0.00    -0.250 OA
HETATM   38  N4  UNL     1       6.413  31.348   7.409  1.00  0.00    -0.383 NA
BRANCH  38  39
HETATM   39  C8  UNL     1       6.127  32.672   7.044  1.00  0.00     0.155 C 
HETATM   40  C9  UNL     1       6.814  33.055   5.736  1.00  0.00     0.070 C 
ENDBRANCH  38  39
ENDBRANCH  34  36
ENDBRANCH   6  33
BRANCH   1  41
HETATM   41  C3  UNL     1      10.905  27.989   1.481  1.00  0.00     0.089 C 
BRANCH  41  42
HETATM   42  C2  UNL     1      10.520  28.887   0.313  1.00  0.00     0.007 C 
HETATM   43  C1  UNL     1      10.616  28.446  -0.904  1.00  0.00     0.012 C 
ENDBRANCH  41  42
ENDBRANCH   1  41
TORSDOF 14
ENDMDL
MODEL 5
REMARK VINA RESULT: -7.083445272      3.261      7.928
REMARK  14 active torsions:
REMARK  status: ('A' for Active; 'I' for Inactive)
REMARK    1  A    between atoms: C2_2  and  C3_3 
REMARK    2  A    between atoms: C3_3  and  N1_4 
REMARK    3  A    between atoms: C5_9  and  N3_10 
REMARK    4  A    between atoms: C6_12  and  C7_13 
REMARK       I    between atoms: C7_13  and  N4_15 
REMARK    5  A    between atoms: N4_15  and  C8_16 
REMARK    6  A    between atoms: N7_25  and  C13_26 
REMARK    7  A    between atoms: C15_28  and  N8_29 
REMARK    8  A    between atoms: N8_29  and  C16_31 
REMARK    9  A    between atoms: C16_31  and  C17_32 
REMARK   10  A    between atoms: C17_32  and  C18_33 
REMARK   11  A    between atoms: C18_33  and  C19_34 
REMARK   12  A    between atoms: C19_34  and  N9_35 
REMARK   13  A    between atoms: N9_35  and  C20_38 
REMARK   14  A    between atoms: C23_41  and  C24_42 
ROOT
HETATM    1  N1  UNL     1       8.850  24.417   1.147  1.00  0.00    -0.350 N 
ATOM      2  H1  UNL     1       8.584  23.433   1.147  1.00  0.00     0.166 HD
HETATM    3  C4  UNL     1       8.874  25.019   2.279  1.00  0.00     0.151 A 
HETATM    4  N2  UNL     1       8.521  24.288   3.367  1.00  0.00    -0.174 N 
ATOM      5  H2  UNL     1       8.300  23.301   3.232  1.00  0.00     0.186 HD
HETATM    6  C5  UNL     1       8.446  24.786   4.605  1.00  0.00     0.685 A 
HETATM    7  N5  UNL     1       8.728  26.053   4.799  1.00  0.00    -0.174 N 
ATOM      8  H5  UNL     1       8.700  26.431   5.746  1.00  0.00     0.186 HD
HETATM    9  C10 UNL     1       9.053  26.863   3.780  1.00  0.00     0.155 A 
HETATM   10  C11 UNL     1       9.130  26.326   2.470  1.00  0.00     0.123 A 
HETATM   11  N6  UNL     1       9.404  27.351   1.670  1.00  0.00    -0.346 N 
ATOM     12  H6  UNL     1       9.532  27.285   0.660  1.00  0.00     0.167 HD
HETATM   13  C12 UNL     1       9.488  28.478   2.378  1.00  0.00     0.185 A 
HETATM   14  N7  UNL     1       9.270  28.169   3.682  1.00  0.00    -0.321 N 
ENDROOT
BRANCH  14  15
HETATM   15  C13 UNL     1       8.894  29.191   4.611  1.00  0.00     0.102 C 
HETATM   16  C14 UNL     1       7.538  29.409   5.143  1.00  0.00     0.051 C 
HETATM   17  C15 UNL     1       7.821  30.736   5.884  1.00  0.00     0.079 C 
HETATM   18  C22 UNL     1       8.580  31.539   4.875  1.00  0.00     0.035 C 
HETATM   19  C23 UNL     1       9.207  30.535   3.976  1.00  0.00     0.033 C 
BRANCH  17  20
HETATM   20  N8  UNL     1       6.874  31.325   6.630  1.00  0.00    -0.417 N 
ATOM     21  H8  UNL     1       6.125  31.841   6.169  1.00  0.00     0.153 HD
BRANCH  20  22
HETATM   22  C16 UNL     1       6.896  31.246   8.045  1.00  0.00     0.114 C 
BRANCH  22  23
HETATM   23  C17 UNL     1       6.103  29.967   8.450  1.00  0.00     0.021 C 
BRANCH  23  24
HETATM   24  C18 UNL     1       7.012  28.971   9.108  1.00  0.00     0.029 C 
BRANCH  24  25
HETATM   25  C19 UNL     1       8.374  29.536   9.294  1.00  0.00     0.232 C 
BRANCH  25  26
HETATM   26  N9  UNL     1       8.979  29.124  10.557  1.00  0.00    -0.075 N 
ATOM     27  H92 UNL     1       9.925  28.754  10.468  1.00  0.00     0.277 HD
ATOM     28  H91 UNL     1       9.221  29.897  11.177  1.00  0.00     0.277 HD
BRANCH  26  29
HETATM   29  C20 UNL     1       8.008  28.175  11.124  1.00  0.00     0.228 C 
HETATM   30  C21 UNL     1       8.688  27.152  11.951  1.00  0.00     0.034 C 
ENDBRANCH  26  29
ENDBRANCH  25  26
ENDBRANCH  24  25
ENDBRANCH  23  24
ENDBRANCH  22  23
ENDBRANCH  20  22
ENDBRANCH  17  20
BRANCH  19  31
HETATM   31  C24 UNL     1      10.532  30.789   3.511  1.00  0.00    -0.030 C 
HETATM   32  C25 UNL     1      11.109  31.962   3.576  1.00  0.00     0.007 C 
ENDBRANCH  19  31
ENDBRANCH  14  15
BRANCH   6  33
HETATM   33  N3  UNL     1       7.814  24.110   5.441  1.00  0.00    -0.195 N 
HETATM   34  C6  UNL     1       6.727  23.607   6.016  1.00  0.00     0.196 C 
ATOM     35  H3  UNL     1       8.563  23.715   6.011  1.00  0.00     0.183 HD
BRANCH  34  36
HETATM   36  C7  UNL     1       5.351  23.658   5.288  1.00  0.00     0.331 C 
HETATM   37  O1  UNL     1       5.340  24.404   4.286  1.00  0.00    -0.250 OA
HETATM   38  N4  UNL     1       4.277  22.976   5.754  1.00  0.00    -0.383 NA
BRANCH  38  39
HETATM   39  C8  UNL     1       3.141  22.288   6.208  1.00  0.00     0.155 C 
HETATM   40  C9  UNL     1       3.335  21.757   7.625  1.00  0.00     0.070 C 
ENDBRANCH  38  39
ENDBRANCH  34  36
ENDBRANCH   6  33
BRANCH   1  41
HETATM   41  C3  UNL     1       9.158  24.994  -0.081  1.00  0.00     0.089 C 
BRANCH  41  42
HETATM   42  C2  UNL     1       9.773  24.005  -1.062  1.00  0.00     0.007 C 
HETATM   43  C1  UNL     1       9.584  24.153  -2.337  1.00  0.00     0.012 C 
ENDBRANCH  41  42
ENDBRANCH   1  41
TORSDOF 14
ENDMDL
