MODEL 1
REMARK VINA RESULT: -8.211172691      0.000      0.000
REMARK  16 active torsions:
REMARK  status: ('A' for Active; 'I' for Inactive)
REMARK    1  A    between atoms: C2_2  and  N1_3 
REMARK    2  A    between atoms: N1_3  and  C3_4 
REMARK    3  A    between atoms: N1_3  and  C5_6 
REMARK    4  A    between atoms: C5_6  and  C6_7 
REMARK    5  A    between atoms: C6_7  and  C7_8 
REMARK    6  A    between atoms: C7_8  and  N2_9 
REMARK    7  A    between atoms: N2_9  and  C8_12 
REMARK    8  A    between atoms: C8_12  and  C9_13 
REMARK    9  A    between atoms: C9_13  and  C10_14 
REMARK   10  A    between atoms: C10_14  and  N3_15 
REMARK   11  A    between atoms: C12_20  and  N5_21 
REMARK   12  A    between atoms: N5_21  and  C13_23 
REMARK   13  A    between atoms: C13_23  and  C14_24 
REMARK   14  A    between atoms: C14_24  and  C15_25 
REMARK   15  A    between atoms: C16_30  and  N8_31 
REMARK   16  A    between atoms: N8_31  and  C17_33 
ROOT
HETATM    1  C17 UNL     1       7.937  29.593   5.633  1.00  0.00     0.136 C 
HETATM    2  C18 UNL     1       7.017  29.396   6.763  1.00  0.00     0.091 C 
HETATM    3  N9  UNL     1       6.269  29.265   7.656  1.00  0.00    -0.195 NA
HETATM    4  C19 UNL     1       7.121  29.902   4.377  1.00  0.00     0.047 C 
HETATM    5  C20 UNL     1       7.615  31.109   3.641  1.00  0.00     0.004 C 
HETATM    6  C21 UNL     1       7.568  32.360   4.497  1.00  0.00     0.000 C 
HETATM    7  C22 UNL     1       7.704  32.004   5.968  1.00  0.00     0.004 C 
HETATM    8  C23 UNL     1       8.713  30.880   6.026  1.00  0.00     0.047 C 
ENDROOT
BRANCH   1   9
HETATM    9  N8  UNL     1       8.869  28.623   5.370  1.00  0.00    -0.203 N 
ATOM     10  H8  UNL     1       9.569  28.664   6.110  1.00  0.00     0.179 HD
BRANCH   9  11
HETATM   11  C16 UNL     1       9.201  27.720   4.595  1.00  0.00     0.708 A 
HETATM   12  N7  UNL     1       9.862  27.805   3.441  1.00  0.00    -0.021 N 
HETATM   13  C12 UNL     1      10.181  26.761   2.649  1.00  0.00     0.707 A 
ATOM     14  H7  UNL     1      10.150  28.733   3.134  1.00  0.00     0.203 HD
HETATM   15  N4  UNL     1       9.801  25.548   3.054  1.00  0.00    -0.022 N 
HETATM   16  C11 UNL     1       9.116  25.366   4.230  1.00  0.00     0.707 A 
ATOM     17  H4  UNL     1      10.025  24.737   2.478  1.00  0.00     0.203 HD
HETATM   18  N3  UNL     1       8.779  24.200   4.575  1.00  0.00    -0.225 N 
HETATM   19  N10 UNL     1       8.837  26.440   4.961  1.00  0.00    -0.021 N 
ATOM     20  H3  UNL     1       9.063  23.478   3.913  1.00  0.00     0.177 HD
ATOM     21  H10 UNL     1       8.328  26.311   5.836  1.00  0.00     0.203 HD
BRANCH  13  22
HETATM   22  N5  UNL     1      10.815  26.837   1.539  1.00  0.00    -0.225 N 
ATOM     23  H5  UNL     1      11.833  26.765   1.536  1.00  0.00     0.177 HD
BRANCH  22  24
HETATM   24  C13 UNL     1      10.112  27.023   0.292  1.00  0.00     0.147 C 
BRANCH  24  25
HETATM   25  C14 UNL     1      10.327  25.845  -0.639  1.00  0.00     0.119 C 
BRANCH  25  26
HETATM   26  C15 UNL     1       9.125  24.988  -0.584  1.00  0.00     0.232 C 
HETATM   27  N6  UNL     1       8.425  24.807  -1.816  1.00  0.00    -0.062 NA
HETATM   28  O1  UNL     1       8.746  24.452   0.485  1.00  0.00    -0.277 OA
ENDBRANCH  25  26
ENDBRANCH  24  25
ENDBRANCH  22  24
ENDBRANCH  13  22
BRANCH  18  29
HETATM   29  C10 UNL     1       8.083  23.699   5.698  1.00  0.00     0.139 C 
BRANCH  29  30
HETATM   30  C9  UNL     1       6.741  23.101   5.246  1.00  0.00     0.048 C 
BRANCH  30  31
HETATM   31  C8  UNL     1       5.900  24.294   4.789  1.00  0.00     0.234 C 
BRANCH  31  32
HETATM   32  N2  UNL     1       4.515  24.035   5.009  1.00  0.00    -0.075 N 
ATOM     33  H22 UNL     1       4.017  23.858   4.136  1.00  0.00     0.277 HD
ATOM     34  H21 UNL     1       4.012  24.873   5.301  1.00  0.00     0.277 HD
BRANCH  32  35
HETATM   35  C7  UNL     1       4.354  22.962   5.943  1.00  0.00     0.234 C 
BRANCH  35  36
HETATM   36  C6  UNL     1       2.901  22.617   6.106  1.00  0.00     0.057 C 
BRANCH  36  37
HETATM   37  C5  UNL     1       2.526  22.577   7.568  1.00  0.00     0.274 C 
BRANCH  37  38
HETATM   38  N1  UNL     1       1.115  22.437   7.784  1.00  0.00     0.087 N 
BRANCH  38  39
HETATM   39  C2  UNL     1       0.847  21.096   8.185  1.00  0.00     0.268 C 
HETATM   40  C1  UNL     1      -0.625  20.737   8.194  1.00  0.00     0.037 C 
ENDBRANCH  38  39
BRANCH  38  41
HETATM   41  C3  UNL     1       0.372  22.949   6.691  1.00  0.00     0.268 C 
HETATM   42  C4  UNL     1      -0.316  24.256   7.023  1.00  0.00     0.037 C 
ENDBRANCH  38  41
ENDBRANCH  37  38
ENDBRANCH  36  37
ENDBRANCH  35  36
ENDBRANCH  32  35
ENDBRANCH  31  32
ENDBRANCH  30  31
ENDBRANCH  29  30
ENDBRANCH  18  29
ENDBRANCH   9  11
ENDBRANCH   1   9
TORSDOF 16
ENDMDL
MODEL 2
REMARK VINA RESULT: -8.082888543      1.828      2.443
REMARK  16 active torsions:
REMARK  status: ('A' for Active; 'I' for Inactive)
REMARK    1  A    between atoms: C2_2  and  N1_3 
REMARK    2  A    between atoms: N1_3  and  C3_4 
REMARK    3  A    between atoms: N1_3  and  C5_6 
REMARK    4  A    between atoms: C5_6  and  C6_7 
REMARK    5  A    between atoms: C6_7  and  C7_8 
REMARK    6  A    between atoms: C7_8  and  N2_9 
REMARK    7  A    between atoms: N2_9  and  C8_12 
REMARK    8  A    between atoms: C8_12  and  C9_13 
REMARK    9  A    between atoms: C9_13  and  C10_14 
REMARK   10  A    between atoms: C10_14  and  N3_15 
REMARK   11  A    between atoms: C12_20  and  N5_21 
REMARK   12  A    between atoms: N5_21  and  C13_23 
REMARK   13  A    between atoms: C13_23  and  C14_24 
REMARK   14  A    between atoms: C14_24  and  C15_25 
REMARK   15  A    between atoms: C16_30  and  N8_31 
REMARK   16  A    between atoms: N8_31  and  C17_33 
ROOT
HETATM    1  C17 UNL     1       8.493  29.668   3.171  1.00  0.00     0.136 C 
HETATM    2  C18 UNL     1       7.932  30.462   4.275  1.00  0.00     0.091 C 
HETATM    3  N9  UNL     1       7.502  31.118   5.146  1.00  0.00    -0.195 NA
HETATM    4  C19 UNL     1       8.369  30.467   1.874  1.00  0.00     0.047 C 
HETATM    5  C20 UNL     1       9.649  30.529   1.099  1.00  0.00     0.004 C 
HETATM    6  C21 UNL     1      10.766  31.177   1.892  1.00  0.00     0.000 C 
HETATM    7  C22 UNL     1      10.548  30.977   3.383  1.00  0.00     0.004 C 
HETATM    8  C23 UNL     1      10.002  29.575   3.531  1.00  0.00     0.047 C 
ENDROOT
BRANCH   1   9
HETATM    9  N8  UNL     1       8.041  28.388   2.989  1.00  0.00    -0.203 N 
ATOM     10  H8  UNL     1       7.050  28.376   3.234  1.00  0.00     0.179 HD
BRANCH   9  11
HETATM   11  C16 UNL     1       8.351  27.242   2.648  1.00  0.00     0.708 A 
HETATM   12  N7  UNL     1       9.103  26.848   1.621  1.00  0.00    -0.021 N 
HETATM   13  C12 UNL     1       9.389  25.566   1.313  1.00  0.00     0.707 A 
ATOM     14  H7  UNL     1       9.494  27.573   1.020  1.00  0.00     0.203 HD
HETATM   15  N4  UNL     1       8.875  24.619   2.101  1.00  0.00    -0.022 N 
HETATM   16  C11 UNL     1       8.089  24.933   3.182  1.00  0.00     0.707 A 
ATOM     17  H4  UNL     1       9.071  23.639   1.897  1.00  0.00     0.203 HD
HETATM   18  N3  UNL     1       7.626  24.006   3.901  1.00  0.00    -0.225 N 
HETATM   19  N10 UNL     1       7.849  26.218   3.426  1.00  0.00    -0.021 N 
ATOM     20  H3  UNL     1       7.897  23.072   3.590  1.00  0.00     0.177 HD
ATOM     21  H10 UNL     1       7.266  26.458   4.227  1.00  0.00     0.203 HD
BRANCH  13  22
HETATM   22  N5  UNL     1      10.111  25.181   0.327  1.00  0.00    -0.225 N 
ATOM     23  H5  UNL     1      10.314  24.188   0.212  1.00  0.00     0.177 HD
BRANCH  22  24
HETATM   24  C13 UNL     1      10.641  26.131  -0.621  1.00  0.00     0.147 C 
BRANCH  24  25
HETATM   25  C14 UNL     1      10.544  25.599  -2.039  1.00  0.00     0.119 C 
BRANCH  25  26
HETATM   26  C15 UNL     1       9.583  24.478  -2.047  1.00  0.00     0.232 C 
HETATM   27  N6  UNL     1      10.145  23.170  -2.169  1.00  0.00    -0.062 NA
HETATM   28  O1  UNL     1       8.347  24.669  -1.951  1.00  0.00    -0.277 OA
ENDBRANCH  25  26
ENDBRANCH  24  25
ENDBRANCH  22  24
ENDBRANCH  13  22
BRANCH  18  29
HETATM   29  C10 UNL     1       6.806  24.006   5.051  1.00  0.00     0.139 C 
BRANCH  29  30
HETATM   30  C9  UNL     1       5.395  24.485   4.676  1.00  0.00     0.048 C 
BRANCH  30  31
HETATM   31  C8  UNL     1       4.439  23.561   5.432  1.00  0.00     0.234 C 
BRANCH  31  32
HETATM   32  N2  UNL     1       5.174  22.639   6.234  1.00  0.00    -0.075 N 
ATOM     33  H22 UNL     1       5.871  23.107   6.813  1.00  0.00     0.277 HD
ATOM     34  H21 UNL     1       5.805  22.065   5.674  1.00  0.00     0.277 HD
BRANCH  32  35
HETATM   35  C7  UNL     1       4.278  21.841   7.016  1.00  0.00     0.234 C 
BRANCH  35  36
HETATM   36  C6  UNL     1       3.007  22.592   7.293  1.00  0.00     0.057 C 
BRANCH  36  37
HETATM   37  C5  UNL     1       1.822  21.656   7.268  1.00  0.00     0.274 C 
BRANCH  37  38
HETATM   38  N1  UNL     1       0.631  22.270   6.757  1.00  0.00     0.087 N 
BRANCH  38  39
HETATM   39  C2  UNL     1       0.773  23.685   6.852  1.00  0.00     0.268 C 
HETATM   40  C1  UNL     1      -0.542  24.432   6.948  1.00  0.00     0.037 C 
ENDBRANCH  38  39
BRANCH  38  41
HETATM   41  C3  UNL     1      -0.532  21.694   7.327  1.00  0.00     0.268 C 
HETATM   42  C4  UNL     1      -0.204  20.658   8.382  1.00  0.00     0.037 C 
ENDBRANCH  38  41
ENDBRANCH  37  38
ENDBRANCH  36  37
ENDBRANCH  35  36
ENDBRANCH  32  35
ENDBRANCH  31  32
ENDBRANCH  30  31
ENDBRANCH  29  30
ENDBRANCH  18  29
ENDBRANCH   9  11
ENDBRANCH   1   9
TORSDOF 16
ENDMDL
MODEL 3
REMARK VINA RESULT: -8.029680139      1.938      5.272
REMARK  16 active torsions:
REMARK  status: ('A' for Active; 'I' for Inactive)
REMARK    1  A    between atoms: C2_2  and  N1_3 
REMARK    2  A    between atoms: N1_3  and  C3_4 
REMARK    3  A    between atoms: N1_3  and  C5_6 
REMARK    4  A    between atoms: C5_6  and  C6_7 
REMARK    5  A    between atoms: C6_7  and  C7_8 
REMARK    6  A    between atoms: C7_8  and  N2_9 
REMARK    7  A    between atoms: N2_9  and  C8_12 
REMARK    8  A    between atoms: C8_12  and  C9_13 
REMARK    9  A    between atoms: C9_13  and  C10_14 
REMARK   10  A    between atoms: C10_14  and  N3_15 
REMARK   11  A    between atoms: C12_20  and  N5_21 
REMARK   12  A    between atoms: N5_21  and  C13_23 
REMARK   13  A    between atoms: C13_23  and  C14_24 
REMARK   14  A    between atoms: C14_24  and  C15_25 
REMARK   15  A    between atoms: C16_30  and  N8_31 
REMARK   16  A    between atoms: N8_31  and  C17_33 
ROOT
HETATM    1  C17 UNL     1       9.599  25.938  -0.061  1.00  0.00     0.136 C 
HETATM    2  C18 UNL     1       8.938  25.246  -1.177  1.00  0.00     0.091 C 
HETATM    3  N9  UNL     1       8.427  24.712  -2.086  1.00  0.00    -0.195 NA
HETATM    4  C19 UNL     1      11.105  25.980  -0.325  1.00  0.00     0.047 C 
HETATM    5  C20 UNL     1      11.691  27.347  -0.156  1.00  0.00     0.004 C 
HETATM    6  C21 UNL     1      11.067  28.358  -1.096  1.00  0.00     0.000 C 
HETATM    7  C22 UNL     1       9.643  27.955  -1.444  1.00  0.00     0.004 C 
HETATM    8  C23 UNL     1       9.055  27.389  -0.170  1.00  0.00     0.047 C 
ENDROOT
BRANCH   1   9
HETATM    9  N8  UNL     1       9.350  25.508   1.216  1.00  0.00    -0.203 N 
ATOM     10  H8  UNL     1       9.279  24.491   1.187  1.00  0.00     0.179 HD
BRANCH   9  11
HETATM   11  C16 UNL     1       9.178  25.858   2.388  1.00  0.00     0.708 A 
HETATM   12  N7  UNL     1       9.461  27.025   2.965  1.00  0.00    -0.021 N 
HETATM   13  C12 UNL     1       9.245  27.324   4.262  1.00  0.00     0.707 A 
ATOM     14  H7  UNL     1       9.875  27.750   2.379  1.00  0.00     0.203 HD
HETATM   15  N4  UNL     1       8.704  26.373   5.027  1.00  0.00    -0.022 N 
HETATM   16  C11 UNL     1       8.379  25.141   4.517  1.00  0.00     0.707 A 
ATOM     17  H4  UNL     1       8.528  26.566   6.013  1.00  0.00     0.203 HD
HETATM   18  N3  UNL     1       7.868  24.273   5.276  1.00  0.00    -0.225 N 
HETATM   19  N10 UNL     1       8.620  24.916   3.229  1.00  0.00    -0.021 N 
ATOM     20  H3  UNL     1       7.743  24.591   6.237  1.00  0.00     0.177 HD
ATOM     21  H10 UNL     1       8.381  24.003   2.844  1.00  0.00     0.203 HD
BRANCH  13  22
HETATM   22  N5  UNL     1       9.516  28.444   4.823  1.00  0.00    -0.225 N 
ATOM     23  H5  UNL     1      10.105  28.459   5.656  1.00  0.00     0.177 HD
BRANCH  22  24
HETATM   24  C13 UNL     1       9.000  29.684   4.293  1.00  0.00     0.147 C 
BRANCH  24  25
HETATM   25  C14 UNL     1       7.640  30.007   4.882  1.00  0.00     0.119 C 
BRANCH  25  26
HETATM   26  C15 UNL     1       7.675  29.691   6.325  1.00  0.00     0.232 C 
HETATM   27  N6  UNL     1       6.928  28.545   6.736  1.00  0.00    -0.062 NA
HETATM   28  O1  UNL     1       8.326  30.392   7.137  1.00  0.00    -0.277 OA
ENDBRANCH  25  26
ENDBRANCH  24  25
ENDBRANCH  22  24
ENDBRANCH  13  22
BRANCH  18  29
HETATM   29  C10 UNL     1       7.436  22.945   5.056  1.00  0.00     0.139 C 
BRANCH  29  30
HETATM   30  C9  UNL     1       6.177  22.670   5.893  1.00  0.00     0.048 C 
BRANCH  30  31
HETATM   31  C8  UNL     1       5.121  23.644   5.369  1.00  0.00     0.234 C 
BRANCH  31  32
HETATM   32  N2  UNL     1       3.815  23.201   5.734  1.00  0.00    -0.075 N 
ATOM     33  H22 UNL     1       3.308  22.813   4.938  1.00  0.00     0.277 HD
ATOM     34  H21 UNL     1       3.193  23.982   5.942  1.00  0.00     0.277 HD
BRANCH  32  35
HETATM   35  C7  UNL     1       3.893  22.275   6.822  1.00  0.00     0.234 C 
BRANCH  35  36
HETATM   36  C6  UNL     1       2.670  22.374   7.688  1.00  0.00     0.057 C 
BRANCH  36  37
HETATM   37  C5  UNL     1       1.436  21.985   6.909  1.00  0.00     0.274 C 
BRANCH  37  38
HETATM   38  N1  UNL     1       0.324  22.861   7.142  1.00  0.00     0.087 N 
BRANCH  38  39
HETATM   39  C2  UNL     1      -0.853  22.071   7.291  1.00  0.00     0.268 C 
HETATM   40  C1  UNL     1      -0.641  20.788   8.070  1.00  0.00     0.037 C 
ENDBRANCH  38  39
BRANCH  38  41
HETATM   41  C3  UNL     1       0.285  23.909   6.189  1.00  0.00     0.268 C 
HETATM   42  C4  UNL     1      -0.806  24.917   6.486  1.00  0.00     0.037 C 
ENDBRANCH  38  41
ENDBRANCH  37  38
ENDBRANCH  36  37
ENDBRANCH  35  36
ENDBRANCH  32  35
ENDBRANCH  31  32
ENDBRANCH  30  31
ENDBRANCH  29  30
ENDBRANCH  18  29
ENDBRANCH   9  11
ENDBRANCH   1   9
TORSDOF 16
ENDMDL
MODEL 4
REMARK VINA RESULT: -7.959788666      1.916      2.417
REMARK  16 active torsions:
REMARK  status: ('A' for Active; 'I' for Inactive)
REMARK    1  A    between atoms: C2_2  and  N1_3 
REMARK    2  A    between atoms: N1_3  and  C3_4 
REMARK    3  A    between atoms: N1_3  and  C5_6 
REMARK    4  A    between atoms: C5_6  and  C6_7 
REMARK    5  A    between atoms: C6_7  and  C7_8 
REMARK    6  A    between atoms: C7_8  and  N2_9 
REMARK    7  A    between atoms: N2_9  and  C8_12 
REMARK    8  A    between atoms: C8_12  and  C9_13 
REMARK    9  A    between atoms: C9_13  and  C10_14 
REMARK   10  A    between atoms: C10_14  and  N3_15 
REMARK   11  A    between atoms: C12_20  and  N5_21 
REMARK   12  A    between atoms: N5_21  and  C13_23 
REMARK   13  A    between atoms: C13_23  and  C14_24 
REMARK   14  A    between atoms: C14_24  and  C15_25 
REMARK   15  A    between atoms: C16_30  and  N8_31 
REMARK   16  A    between atoms: N8_31  and  C17_33 
ROOT
HETATM    1  C17 UNL     1       8.360  29.592   3.035  1.00  0.00     0.136 C 
HETATM    2  C18 UNL     1       7.809  30.052   4.319  1.00  0.00     0.091 C 
HETATM    3  N9  UNL     1       7.385  30.445   5.338  1.00  0.00    -0.195 NA
HETATM    4  C19 UNL     1       8.180  30.696   1.994  1.00  0.00     0.047 C 
HETATM    5  C20 UNL     1       9.436  30.999   1.237  1.00  0.00     0.004 C 
HETATM    6  C21 UNL     1      10.557  31.455   2.150  1.00  0.00     0.000 C 
HETATM    7  C22 UNL     1      10.385  30.866   3.541  1.00  0.00     0.004 C 
HETATM    8  C23 UNL     1       9.880  29.456   3.329  1.00  0.00     0.047 C 
ENDROOT
BRANCH   1   9
HETATM    9  N8  UNL     1       7.937  28.389   2.534  1.00  0.00    -0.203 N 
ATOM     10  H8  UNL     1       6.970  28.508   2.230  1.00  0.00     0.179 HD
BRANCH   9  11
HETATM   11  C16 UNL     1       8.256  27.218   2.302  1.00  0.00     0.708 A 
HETATM   12  N7  UNL     1       8.995  26.732   1.307  1.00  0.00    -0.021 N 
HETATM   13  C12 UNL     1       9.292  25.429   1.123  1.00  0.00     0.707 A 
ATOM     14  H7  UNL     1       9.367  27.397   0.630  1.00  0.00     0.203 HD
HETATM   15  N4  UNL     1       8.804  24.560   2.011  1.00  0.00    -0.022 N 
HETATM   16  C11 UNL     1       8.033  24.972   3.069  1.00  0.00     0.707 A 
ATOM     17  H4  UNL     1       9.009  23.567   1.901  1.00  0.00     0.203 HD
HETATM   18  N3  UNL     1       7.594  24.115   3.884  1.00  0.00    -0.225 N 
HETATM   19  N10 UNL     1       7.781  26.271   3.188  1.00  0.00    -0.021 N 
ATOM     20  H3  UNL     1       7.871  23.159   3.664  1.00  0.00     0.177 HD
ATOM     21  H10 UNL     1       7.208  26.583   3.972  1.00  0.00     0.203 HD
BRANCH  13  22
HETATM   22  N5  UNL     1      10.002  24.955   0.168  1.00  0.00    -0.225 N 
ATOM     23  H5  UNL     1      10.013  23.949   0.001  1.00  0.00     0.177 HD
BRANCH  22  24
HETATM   24  C13 UNL     1      10.787  25.825  -0.677  1.00  0.00     0.147 C 
BRANCH  24  25
HETATM   25  C14 UNL     1      10.781  25.341  -2.115  1.00  0.00     0.119 C 
BRANCH  25  26
HETATM   26  C15 UNL     1       9.818  24.227  -2.223  1.00  0.00     0.232 C 
HETATM   27  N6  UNL     1       8.442  24.595  -2.335  1.00  0.00    -0.062 NA
HETATM   28  O1  UNL     1      10.191  23.029  -2.216  1.00  0.00    -0.277 OA
ENDBRANCH  25  26
ENDBRANCH  24  25
ENDBRANCH  22  24
ENDBRANCH  13  22
BRANCH  18  29
HETATM   29  C10 UNL     1       6.793  24.221   5.044  1.00  0.00     0.139 C 
BRANCH  29  30
HETATM   30  C9  UNL     1       5.334  24.482   4.638  1.00  0.00     0.048 C 
BRANCH  30  31
HETATM   31  C8  UNL     1       4.499  23.527   5.492  1.00  0.00     0.234 C 
BRANCH  31  32
HETATM   32  N2  UNL     1       3.108  23.768   5.288  1.00  0.00    -0.075 N 
ATOM     33  H22 UNL     1       2.801  23.468   4.363  1.00  0.00     0.277 HD
ATOM     34  H21 UNL     1       2.903  24.764   5.199  1.00  0.00     0.277 HD
BRANCH  32  35
HETATM   35  C7  UNL     1       2.342  23.156   6.330  1.00  0.00     0.234 C 
BRANCH  35  36
HETATM   36  C6  UNL     1       0.874  23.397   6.118  1.00  0.00     0.057 C 
BRANCH  36  37
HETATM   37  C5  UNL     1       0.203  23.762   7.422  1.00  0.00     0.274 C 
BRANCH  37  38
HETATM   38  N1  UNL     1      -0.898  22.903   7.747  1.00  0.00     0.087 N 
BRANCH  38  39
HETATM   39  C2  UNL     1      -0.553  21.566   7.392  1.00  0.00     0.268 C 
HETATM   40  C1  UNL     1       0.184  20.810   8.478  1.00  0.00     0.037 C 
ENDBRANCH  38  39
BRANCH  38  41
HETATM   41  C3  UNL     1      -2.119  23.414   7.239  1.00  0.00     0.268 C 
HETATM   42  C4  UNL     1      -3.327  22.758   7.876  1.00  0.00     0.037 C 
ENDBRANCH  38  41
ENDBRANCH  37  38
ENDBRANCH  36  37
ENDBRANCH  35  36
ENDBRANCH  32  35
ENDBRANCH  31  32
ENDBRANCH  30  31
ENDBRANCH  29  30
ENDBRANCH  18  29
ENDBRANCH   9  11
ENDBRANCH   1   9
TORSDOF 16
ENDMDL
MODEL 5
REMARK VINA RESULT: -7.943913631      1.686      2.514
REMARK  16 active torsions:
REMARK  status: ('A' for Active; 'I' for Inactive)
REMARK    1  A    between atoms: C2_2  and  N1_3 
REMARK    2  A    between atoms: N1_3  and  C3_4 
REMARK    3  A    between atoms: N1_3  and  C5_6 
REMARK    4  A    between atoms: C5_6  and  C6_7 
REMARK    5  A    between atoms: C6_7  and  C7_8 
REMARK    6  A    between atoms: C7_8  and  N2_9 
REMARK    7  A    between atoms: N2_9  and  C8_12 
REMARK    8  A    between atoms: C8_12  and  C9_13 
REMARK    9  A    between atoms: C9_13  and  C10_14 
REMARK   10  A    between atoms: C10_14  and  N3_15 
REMARK   11  A    between atoms: C12_20  and  N5_21 
REMARK   12  A    between atoms: N5_21  and  C13_23 
REMARK   13  A    between atoms: C13_23  and  C14_24 
REMARK   14  A    between atoms: C14_24  and  C15_25 
REMARK   15  A    between atoms: C16_30  and  N8_31 
REMARK   16  A    between atoms: N8_31  and  C17_33 
ROOT
HETATM    1  C17 UNL     1       8.591  29.409   4.032  1.00  0.00     0.136 C 
HETATM    2  C18 UNL     1       9.798  30.208   3.773  1.00  0.00     0.091 C 
HETATM    3  N9  UNL     1      10.757  30.858   3.593  1.00  0.00    -0.195 NA
HETATM    4  C19 UNL     1       8.697  28.790   5.426  1.00  0.00     0.047 C 
HETATM    5  C20 UNL     1       7.470  29.006   6.258  1.00  0.00     0.004 C 
HETATM    6  C21 UNL     1       7.174  30.477   6.468  1.00  0.00     0.000 C 
HETATM    7  C22 UNL     1       7.712  31.301   5.309  1.00  0.00     0.004 C 
HETATM    8  C23 UNL     1       7.461  30.474   4.068  1.00  0.00     0.047 C 
ENDROOT
BRANCH   1   9
HETATM    9  N8  UNL     1       8.224  28.460   3.115  1.00  0.00    -0.203 N 
ATOM     10  H8  UNL     1       7.581  28.902   2.458  1.00  0.00     0.179 HD
BRANCH   9  11
HETATM   11  C16 UNL     1       8.359  27.283   2.764  1.00  0.00     0.708 A 
HETATM   12  N7  UNL     1       9.068  26.786   1.752  1.00  0.00    -0.021 N 
HETATM   13  C12 UNL     1       9.157  25.478   1.433  1.00  0.00     0.707 A 
ATOM     14  H7  UNL     1       9.585  27.446   1.172  1.00  0.00     0.203 HD
HETATM   15  N4  UNL     1       8.479  24.616   2.193  1.00  0.00    -0.022 N 
HETATM   16  C11 UNL     1       7.722  25.039   3.257  1.00  0.00     0.707 A 
ATOM     17  H4  UNL     1       8.524  23.620   1.978  1.00  0.00     0.203 HD
HETATM   18  N3  UNL     1       7.099  24.189   3.949  1.00  0.00    -0.225 N 
HETATM   19  N10 UNL     1       7.681  26.342   3.514  1.00  0.00    -0.021 N 
ATOM     20  H3  UNL     1       7.227  23.228   3.633  1.00  0.00     0.177 HD
ATOM     21  H10 UNL     1       7.121  26.663   4.303  1.00  0.00     0.203 HD
BRANCH  13  22
HETATM   22  N5  UNL     1       9.836  24.995   0.460  1.00  0.00    -0.225 N 
ATOM     23  H5  UNL     1       9.747  24.005   0.228  1.00  0.00     0.177 HD
BRANCH  22  24
HETATM   24  C13 UNL     1      10.727  25.829  -0.312  1.00  0.00     0.147 C 
BRANCH  24  25
HETATM   25  C14 UNL     1      10.666  25.476  -1.786  1.00  0.00     0.119 C 
BRANCH  25  26
HETATM   26  C15 UNL     1       9.753  24.327  -1.948  1.00  0.00     0.232 C 
HETATM   27  N6  UNL     1       8.363  24.639  -2.063  1.00  0.00    -0.062 NA
HETATM   28  O1  UNL     1      10.178  23.147  -1.982  1.00  0.00    -0.277 OA
ENDBRANCH  25  26
ENDBRANCH  24  25
ENDBRANCH  22  24
ENDBRANCH  13  22
BRANCH  18  29
HETATM   29  C10 UNL     1       6.257  24.306   5.078  1.00  0.00     0.139 C 
BRANCH  29  30
HETATM   30  C9  UNL     1       6.775  23.395   6.202  1.00  0.00     0.048 C 
BRANCH  30  31
HETATM   31  C8  UNL     1       5.756  22.261   6.307  1.00  0.00     0.234 C 
BRANCH  31  32
HETATM   32  N2  UNL     1       4.430  22.774   6.190  1.00  0.00    -0.075 N 
ATOM     33  H22 UNL     1       4.037  22.607   5.263  1.00  0.00     0.277 HD
ATOM     34  H21 UNL     1       4.417  23.795   6.176  1.00  0.00     0.277 HD
BRANCH  32  35
HETATM   35  C7  UNL     1       3.600  22.242   7.227  1.00  0.00     0.234 C 
BRANCH  35  36
HETATM   36  C6  UNL     1       2.342  21.658   6.649  1.00  0.00     0.057 C 
BRANCH  36  37
HETATM   37  C5  UNL     1       1.133  22.135   7.419  1.00  0.00     0.274 C 
BRANCH  37  38
HETATM   38  N1  UNL     1       0.047  22.532   6.571  1.00  0.00     0.087 N 
BRANCH  38  39
HETATM   39  C2  UNL     1       0.293  23.857   6.107  1.00  0.00     0.268 C 
HETATM   40  C1  UNL     1      -0.752  24.866   6.537  1.00  0.00     0.037 C 
ENDBRANCH  38  39
BRANCH  38  41
HETATM   41  C3  UNL     1      -1.206  22.283   7.185  1.00  0.00     0.268 C 
HETATM   42  C4  UNL     1      -1.301  20.880   7.750  1.00  0.00     0.037 C 
ENDBRANCH  38  41
ENDBRANCH  37  38
ENDBRANCH  36  37
ENDBRANCH  35  36
ENDBRANCH  32  35
ENDBRANCH  31  32
ENDBRANCH  30  31
ENDBRANCH  29  30
ENDBRANCH  18  29
ENDBRANCH   9  11
ENDBRANCH   1   9
TORSDOF 16
ENDMDL
