MODEL 1
REMARK VINA RESULT: -8.045906712      0.000      0.000
REMARK  9 active torsions:
REMARK  status: ('A' for Active; 'I' for Inactive)
REMARK    1  A    between atoms: C4_6  and  C5_7 
REMARK    2  A    between atoms: C5_7  and  O1_8 
REMARK    3  A    between atoms: N4_20  and  C12_21 
REMARK    4  A    between atoms: C12_21  and  C13_22 
REMARK    5  A    between atoms: C13_22  and  C14_23 
REMARK    6  A    between atoms: C14_23  and  N5_24 
REMARK       I    between atoms: N5_24  and  C15_26 
REMARK    7  A    between atoms: C15_26  and  C16_28 
REMARK    8  A    between atoms: C17_29  and  C18_30 
REMARK    9  A    between atoms: N6_34  and  C22_35 
ROOT
HETATM    1  C1  UNL     1      16.578  26.130  24.111  1.00  0.00     0.040 C 
HETATM    2  C2  UNL     1      17.783  26.929  24.516  1.00  0.00     0.018 C 
HETATM    3  C3  UNL     1      18.763  27.100  23.636  1.00  0.00     0.103 A 
HETATM    4  N1  UNL     1      18.674  26.535  22.325  1.00  0.00    -0.342 N 
ATOM      5  H1  UNL     1      17.850  25.993  22.067  1.00  0.00     0.167 HD
HETATM    6  C4  UNL     1      19.716  26.718  21.380  1.00  0.00     0.064 A 
HETATM    7  C6  UNL     1      20.757  27.433  21.780  1.00  0.00     0.087 A 
HETATM    8  N2  UNL     1      21.905  27.792  21.138  1.00  0.00    -0.350 N 
ATOM      9  H2  UNL     1      22.137  27.536  20.178  1.00  0.00     0.166 HD
HETATM   10  C7  UNL     1      22.687  28.526  21.940  1.00  0.00     0.076 A 
HETATM   11  C8  UNL     1      22.068  28.677  23.161  1.00  0.00     0.090 A 
HETATM   12  N3  UNL     1      22.866  29.413  23.948  1.00  0.00    -0.352 N 
ATOM     13  H3  UNL     1      22.652  29.678  24.910  1.00  0.00     0.166 HD
HETATM   14  C9  UNL     1      24.009  29.760  23.280  1.00  0.00     0.048 A 
HETATM   15  C10 UNL     1      25.133  30.480  23.586  1.00  0.00     0.047 A 
HETATM   16  C11 UNL     1      26.134  30.648  22.656  1.00  0.00     0.092 A 
HETATM   17  N4  UNL     1      26.027  30.111  21.440  1.00  0.00    -0.365 N 
HETATM   18  C25 UNL     1      24.934  29.409  21.138  1.00  0.00     0.106 A 
HETATM   19  C26 UNL     1      23.890  29.194  22.007  1.00  0.00     0.035 A 
HETATM   20  C27 UNL     1      20.871  27.993  23.045  1.00  0.00     0.094 A 
HETATM   21  N7  UNL     1      19.924  27.844  23.951  1.00  0.00    -0.334 N 
HETATM   22  C28 UNL     1      20.134  28.461  25.251  1.00  0.00     0.158 C 
ENDROOT
BRANCH  17  23
HETATM   23  C12 UNL     1      27.067  30.272  20.461  1.00  0.00     0.129 C 
BRANCH  23  24
HETATM   24  C13 UNL     1      26.677  30.963  19.208  1.00  0.00     0.040 C 
BRANCH  24  25
HETATM   25  C14 UNL     1      26.422  32.424  19.277  1.00  0.00     0.124 C 
BRANCH  25  26
HETATM   26  N5  UNL     1      25.143  32.771  19.778  1.00  0.00    -0.358 N 
HETATM   27  C15 UNL     1      24.960  33.610  20.961  1.00  0.00     0.241 C 
HETATM   28  O2  UNL     1      26.001  33.993  21.499  1.00  0.00    -0.269 OA
ATOM     29  H5  UNL     1      24.315  32.422  19.292  1.00  0.00     0.162 HD
BRANCH  27  30
HETATM   30  C16 UNL     1      23.649  33.926  21.410  1.00  0.00     0.075 C 
HETATM   31  C17 UNL     1      22.435  33.667  21.201  1.00  0.00     0.018 C 
BRANCH  31  32
HETATM   32  C18 UNL     1      21.633  32.855  20.340  1.00  0.00    -0.021 A 
HETATM   33  C19 UNL     1      21.724  31.502  20.194  1.00  0.00     0.014 A 
HETATM   34  C20 UNL     1      20.852  30.826  19.331  1.00  0.00     0.018 A 
HETATM   35  C21 UNL     1      19.902  31.515  18.627  1.00  0.00     0.090 A 
HETATM   36  N6  UNL     1      19.789  32.850  18.751  1.00  0.00    -0.366 N 
HETATM   37  C24 UNL     1      20.624  33.478  19.574  1.00  0.00     0.101 A 
BRANCH  36  38
HETATM   38  C22 UNL     1      18.757  33.576  17.993  1.00  0.00     0.123 C 
HETATM   39  C23 UNL     1      18.781  35.008  18.487  1.00  0.00     0.027 C 
ENDBRANCH  36  38
ENDBRANCH  31  32
ENDBRANCH  27  30
ENDBRANCH  25  26
ENDBRANCH  24  25
ENDBRANCH  23  24
ENDBRANCH  17  23
BRANCH   6  40
HETATM   40  C5  UNL     1      19.652  26.143  20.032  1.00  0.00     0.223 C 
BRANCH  40  41
HETATM   41  O1  UNL     1      19.984  24.777  20.067  1.00  0.00    -0.395 OA
ATOM     42  H1  UNL     1      20.910  24.658  19.889  1.00  0.00     0.209 HD
ENDBRANCH  40  41
ENDBRANCH   6  40
TORSDOF 9
ENDMDL
MODEL 2
REMARK VINA RESULT: -7.952560506      4.050      6.487
REMARK  9 active torsions:
REMARK  status: ('A' for Active; 'I' for Inactive)
REMARK    1  A    between atoms: C4_6  and  C5_7 
REMARK    2  A    between atoms: C5_7  and  O1_8 
REMARK    3  A    between atoms: N4_20  and  C12_21 
REMARK    4  A    between atoms: C12_21  and  C13_22 
REMARK    5  A    between atoms: C13_22  and  C14_23 
REMARK    6  A    between atoms: C14_23  and  N5_24 
REMARK       I    between atoms: N5_24  and  C15_26 
REMARK    7  A    between atoms: C15_26  and  C16_28 
REMARK    8  A    between atoms: C17_29  and  C18_30 
REMARK    9  A    between atoms: N6_34  and  C22_35 
ROOT
HETATM    1  C1  UNL     1      25.520  25.622  24.040  1.00  0.00     0.040 C 
HETATM    2  C2  UNL     1      25.693  26.781  23.103  1.00  0.00     0.018 C 
HETATM    3  C3  UNL     1      24.644  27.551  22.837  1.00  0.00     0.103 A 
HETATM    4  N1  UNL     1      23.372  27.283  23.431  1.00  0.00    -0.342 N 
ATOM      5  H1  UNL     1      23.271  26.490  24.064  1.00  0.00     0.167 HD
HETATM    6  C4  UNL     1      22.249  28.104  23.153  1.00  0.00     0.064 A 
HETATM    7  C6  UNL     1      22.449  29.117  22.324  1.00  0.00     0.087 A 
HETATM    8  N2  UNL     1      21.605  30.079  21.854  1.00  0.00    -0.350 N 
ATOM      9  H2  UNL     1      20.618  30.154  22.100  1.00  0.00     0.166 HD
HETATM   10  C7  UNL     1      22.249  30.911  21.025  1.00  0.00     0.076 A 
HETATM   11  C8  UNL     1      23.564  30.516  20.919  1.00  0.00     0.090 A 
HETATM   12  N3  UNL     1      24.190  31.361  20.086  1.00  0.00    -0.352 N 
ATOM     13  H3  UNL     1      25.175  31.301  19.828  1.00  0.00     0.166 HD
HETATM   14  C9  UNL     1      23.322  32.315  19.630  1.00  0.00     0.048 A 
HETATM   15  C10 UNL     1      23.414  33.389  18.786  1.00  0.00     0.047 A 
HETATM   16  C11 UNL     1      22.313  34.175  18.527  1.00  0.00     0.092 A 
HETATM   17  N4  UNL     1      21.138  33.904  19.095  1.00  0.00    -0.365 N 
HETATM   18  C25 UNL     1      21.044  32.858  19.918  1.00  0.00     0.106 A 
HETATM   19  C26 UNL     1      22.092  32.024  20.228  1.00  0.00     0.035 A 
HETATM   20  C27 UNL     1      23.672  29.402  21.732  1.00  0.00     0.094 A 
HETATM   21  N7  UNL     1      24.738  28.661  21.965  1.00  0.00    -0.334 N 
HETATM   22  C28 UNL     1      25.975  29.032  21.294  1.00  0.00     0.158 C 
ENDROOT
BRANCH  17  23
HETATM   23  C12 UNL     1      19.979  34.713  18.830  1.00  0.00     0.129 C 
BRANCH  23  24
HETATM   24  C13 UNL     1      19.385  34.572  17.479  1.00  0.00     0.040 C 
BRANCH  24  25
HETATM   25  C14 UNL     1      19.218  33.199  16.939  1.00  0.00     0.124 C 
BRANCH  25  26
HETATM   26  N5  UNL     1      20.098  32.878  15.875  1.00  0.00    -0.358 N 
HETATM   27  C15 UNL     1      21.042  31.763  15.942  1.00  0.00     0.241 C 
HETATM   28  O2  UNL     1      21.022  31.121  16.993  1.00  0.00    -0.269 OA
ATOM     29  H5  UNL     1      20.072  33.448  15.029  1.00  0.00     0.162 HD
BRANCH  27  30
HETATM   30  C16 UNL     1      21.895  31.490  14.838  1.00  0.00     0.075 C 
HETATM   31  C17 UNL     1      22.423  30.544  14.197  1.00  0.00     0.018 C 
BRANCH  31  32
HETATM   32  C18 UNL     1      22.468  29.116  14.215  1.00  0.00    -0.021 A 
HETATM   33  C19 UNL     1      23.133  28.341  15.121  1.00  0.00     0.014 A 
HETATM   34  C20 UNL     1      23.067  26.945  15.037  1.00  0.00     0.018 A 
HETATM   35  C21 UNL     1      22.338  26.344  14.047  1.00  0.00     0.090 A 
HETATM   36  N6  UNL     1      21.672  27.082  13.141  1.00  0.00    -0.366 N 
HETATM   37  C24 UNL     1      21.743  28.406  13.233  1.00  0.00     0.101 A 
BRANCH  36  38
HETATM   38  C22 UNL     1      20.884  26.421  12.087  1.00  0.00     0.123 C 
HETATM   39  C23 UNL     1      19.529  27.096  12.069  1.00  0.00     0.027 C 
ENDBRANCH  36  38
ENDBRANCH  31  32
ENDBRANCH  27  30
ENDBRANCH  25  26
ENDBRANCH  24  25
ENDBRANCH  23  24
ENDBRANCH  17  23
BRANCH   6  40
HETATM   40  C5  UNL     1      20.932  27.845  23.745  1.00  0.00     0.223 C 
BRANCH  40  41
HETATM   41  O1  UNL     1      20.496  28.964  24.476  1.00  0.00    -0.395 OA
ATOM     42  H1  UNL     1      19.698  28.760  24.948  1.00  0.00     0.209 HD
ENDBRANCH  40  41
ENDBRANCH   6  40
TORSDOF 9
ENDMDL
MODEL 3
REMARK VINA RESULT: -7.847325467      2.232      7.393
REMARK  9 active torsions:
REMARK  status: ('A' for Active; 'I' for Inactive)
REMARK    1  A    between atoms: C4_6  and  C5_7 
REMARK    2  A    between atoms: C5_7  and  O1_8 
REMARK    3  A    between atoms: N4_20  and  C12_21 
REMARK    4  A    between atoms: C12_21  and  C13_22 
REMARK    5  A    between atoms: C13_22  and  C14_23 
REMARK    6  A    between atoms: C14_23  and  N5_24 
REMARK       I    between atoms: N5_24  and  C15_26 
REMARK    7  A    between atoms: C15_26  and  C16_28 
REMARK    8  A    between atoms: C17_29  and  C18_30 
REMARK    9  A    between atoms: N6_34  and  C22_35 
ROOT
HETATM    1  C1  UNL     1      23.412  34.839  16.062  1.00  0.00     0.040 C 
HETATM    2  C2  UNL     1      23.105  33.373  16.164  1.00  0.00     0.018 C 
HETATM    3  C3  UNL     1      22.596  32.904  17.298  1.00  0.00     0.103 A 
HETATM    4  N1  UNL     1      22.344  33.776  18.402  1.00  0.00    -0.342 N 
ATOM      5  H1  UNL     1      22.561  34.769  18.317  1.00  0.00     0.167 HD
HETATM    6  C4  UNL     1      21.797  33.280  19.613  1.00  0.00     0.064 A 
HETATM    7  C6  UNL     1      21.539  31.982  19.657  1.00  0.00     0.087 A 
HETATM    8  N2  UNL     1      21.023  31.198  20.645  1.00  0.00    -0.350 N 
ATOM      9  H2  UNL     1      20.740  31.535  21.565  1.00  0.00     0.166 HD
HETATM   10  C7  UNL     1      20.936  29.923  20.243  1.00  0.00     0.076 A 
HETATM   11  C8  UNL     1      21.404  29.824  18.951  1.00  0.00     0.090 A 
HETATM   12  N3  UNL     1      21.310  28.542  18.567  1.00  0.00    -0.352 N 
ATOM     13  H3  UNL     1      21.588  28.186  17.652  1.00  0.00     0.166 HD
HETATM   14  C9  UNL     1      20.789  27.778  19.576  1.00  0.00     0.048 A 
HETATM   15  C10 UNL     1      20.485  26.452  19.732  1.00  0.00     0.047 A 
HETATM   16  C11 UNL     1      19.954  25.989  20.916  1.00  0.00     0.092 A 
HETATM   17  N4  UNL     1      19.728  26.823  21.930  1.00  0.00    -0.365 N 
HETATM   18  C25 UNL     1      20.023  28.116  21.782  1.00  0.00     0.106 A 
HETATM   19  C26 UNL     1      20.555  28.659  20.636  1.00  0.00     0.035 A 
HETATM   20  C27 UNL     1      21.774  31.111  18.602  1.00  0.00     0.094 A 
HETATM   21  N7  UNL     1      22.281  31.534  17.461  1.00  0.00    -0.334 N 
HETATM   22  C28 UNL     1      22.499  30.547  16.414  1.00  0.00     0.158 C 
ENDROOT
BRANCH  17  23
HETATM   23  C12 UNL     1      19.180  26.353  23.174  1.00  0.00     0.129 C 
BRANCH  23  24
HETATM   24  C13 UNL     1      18.787  27.400  24.147  1.00  0.00     0.040 C 
BRANCH  24  25
HETATM   25  C14 UNL     1      19.725  27.694  25.260  1.00  0.00     0.124 C 
BRANCH  25  26
HETATM   26  N5  UNL     1      20.776  28.582  24.919  1.00  0.00    -0.358 N 
HETATM   27  C15 UNL     1      22.115  28.118  24.557  1.00  0.00     0.241 C 
HETATM   28  O2  UNL     1      22.268  26.895  24.573  1.00  0.00    -0.269 OA
ATOM     29  H5  UNL     1      20.591  29.586  24.925  1.00  0.00     0.162 HD
BRANCH  27  30
HETATM   30  C16 UNL     1      23.124  29.059  24.220  1.00  0.00     0.075 C 
HETATM   31  C17 UNL     1      23.897  29.401  23.287  1.00  0.00     0.018 C 
BRANCH  31  32
HETATM   32  C18 UNL     1      24.218  29.012  21.949  1.00  0.00    -0.021 A 
HETATM   33  C19 UNL     1      24.098  27.758  21.424  1.00  0.00     0.014 A 
HETATM   34  C20 UNL     1      24.423  27.522  20.083  1.00  0.00     0.018 A 
HETATM   35  C21 UNL     1      24.864  28.544  19.286  1.00  0.00     0.090 A 
HETATM   36  N6  UNL     1      24.992  29.790  19.777  1.00  0.00    -0.366 N 
HETATM   37  C24 UNL     1      24.680  29.999  21.052  1.00  0.00     0.101 A 
BRANCH  36  38
HETATM   38  C22 UNL     1      25.460  30.881  18.906  1.00  0.00     0.123 C 
HETATM   39  C23 UNL     1      25.344  32.159  19.709  1.00  0.00     0.027 C 
ENDBRANCH  36  38
ENDBRANCH  31  32
ENDBRANCH  27  30
ENDBRANCH  25  26
ENDBRANCH  24  25
ENDBRANCH  23  24
ENDBRANCH  17  23
BRANCH   6  40
HETATM   40  C5  UNL     1      21.536  34.154  20.763  1.00  0.00     0.223 C 
BRANCH  40  41
HETATM   41  O1  UNL     1      22.120  33.620  21.925  1.00  0.00    -0.395 OA
ATOM     42  H1  UNL     1      22.089  34.255  22.631  1.00  0.00     0.209 HD
ENDBRANCH  40  41
ENDBRANCH   6  40
TORSDOF 9
ENDMDL
MODEL 4
REMARK VINA RESULT: -7.832439442      2.798      6.540
REMARK  9 active torsions:
REMARK  status: ('A' for Active; 'I' for Inactive)
REMARK    1  A    between atoms: C4_6  and  C5_7 
REMARK    2  A    between atoms: C5_7  and  O1_8 
REMARK    3  A    between atoms: N4_20  and  C12_21 
REMARK    4  A    between atoms: C12_21  and  C13_22 
REMARK    5  A    between atoms: C13_22  and  C14_23 
REMARK    6  A    between atoms: C14_23  and  N5_24 
REMARK       I    between atoms: N5_24  and  C15_26 
REMARK    7  A    between atoms: C15_26  and  C16_28 
REMARK    8  A    between atoms: C17_29  and  C18_30 
REMARK    9  A    between atoms: N6_34  and  C22_35 
ROOT
HETATM    1  C1  UNL     1      18.676  35.333  17.765  1.00  0.00     0.040 C 
HETATM    2  C2  UNL     1      19.515  34.921  18.938  1.00  0.00     0.018 C 
HETATM    3  C3  UNL     1      20.384  33.927  18.787  1.00  0.00     0.103 A 
HETATM    4  N1  UNL     1      20.518  33.260  17.530  1.00  0.00    -0.342 N 
ATOM      5  H1  UNL     1      19.939  33.551  16.743  1.00  0.00     0.167 HD
HETATM    6  C4  UNL     1      21.447  32.200  17.362  1.00  0.00     0.064 A 
HETATM    7  C6  UNL     1      22.168  31.874  18.423  1.00  0.00     0.087 A 
HETATM    8  N2  UNL     1      23.129  30.924  18.603  1.00  0.00    -0.350 N 
ATOM      9  H2  UNL     1      23.451  30.280  17.879  1.00  0.00     0.166 HD
HETATM   10  C7  UNL     1      23.594  30.951  19.859  1.00  0.00     0.076 A 
HETATM   11  C8  UNL     1      22.939  31.939  20.562  1.00  0.00     0.090 A 
HETATM   12  N3  UNL     1      23.418  31.949  21.815  1.00  0.00    -0.352 N 
ATOM     13  H3  UNL     1      23.109  32.584  22.551  1.00  0.00     0.166 HD
HETATM   14  C9  UNL     1      24.380  30.988  21.968  1.00  0.00     0.048 A 
HETATM   15  C10 UNL     1      25.177  30.566  22.998  1.00  0.00     0.047 A 
HETATM   16  C11 UNL     1      26.073  29.536  22.817  1.00  0.00     0.092 A 
HETATM   17  N4  UNL     1      26.180  28.931  21.634  1.00  0.00    -0.365 N 
HETATM   18  C25 UNL     1      25.405  29.338  20.627  1.00  0.00     0.106 A 
HETATM   19  C26 UNL     1      24.487  30.358  20.724  1.00  0.00     0.035 A 
HETATM   20  C27 UNL     1      22.059  32.502  19.656  1.00  0.00     0.094 A 
HETATM   21  N7  UNL     1      21.207  33.490  19.851  1.00  0.00    -0.334 N 
HETATM   22  C28 UNL     1      21.158  34.084  21.179  1.00  0.00     0.158 C 
ENDROOT
BRANCH  17  23
HETATM   23  C12 UNL     1      27.106  27.850  21.431  1.00  0.00     0.129 C 
BRANCH  23  24
HETATM   24  C13 UNL     1      26.516  26.566  20.981  1.00  0.00     0.040 C 
BRANCH  24  25
HETATM   25  C14 UNL     1      26.178  25.561  22.019  1.00  0.00     0.124 C 
BRANCH  25  26
HETATM   26  N5  UNL     1      25.141  25.958  22.902  1.00  0.00    -0.358 N 
HETATM   27  C15 UNL     1      25.391  26.335  24.292  1.00  0.00     0.241 C 
HETATM   28  O2  UNL     1      26.570  26.281  24.647  1.00  0.00    -0.269 OA
ATOM     29  H5  UNL     1      24.183  25.981  22.552  1.00  0.00     0.162 HD
BRANCH  27  30
HETATM   30  C16 UNL     1      24.309  26.729  25.124  1.00  0.00     0.075 C 
HETATM   31  C17 UNL     1      23.125  27.156  25.084  1.00  0.00     0.018 C 
BRANCH  31  32
HETATM   32  C18 UNL     1      22.133  27.509  24.117  1.00  0.00    -0.021 A 
HETATM   33  C19 UNL     1      22.344  28.208  22.965  1.00  0.00     0.014 A 
HETATM   34  C20 UNL     1      21.281  28.461  22.088  1.00  0.00     0.018 A 
HETATM   35  C21 UNL     1      20.022  28.010  22.379  1.00  0.00     0.090 A 
HETATM   36  N6  UNL     1      19.784  27.318  23.508  1.00  0.00    -0.366 N 
HETATM   37  C24 UNL     1      20.803  27.085  24.330  1.00  0.00     0.101 A 
BRANCH  36  38
HETATM   38  C22 UNL     1      18.426  26.831  23.802  1.00  0.00     0.123 C 
HETATM   39  C23 UNL     1      18.015  27.458  25.118  1.00  0.00     0.027 C 
ENDBRANCH  36  38
ENDBRANCH  31  32
ENDBRANCH  27  30
ENDBRANCH  25  26
ENDBRANCH  24  25
ENDBRANCH  23  24
ENDBRANCH  17  23
BRANCH   6  40
HETATM   40  C5  UNL     1      21.598  31.496  16.083  1.00  0.00     0.223 C 
BRANCH  40  41
HETATM   41  O1  UNL     1      21.016  32.242  15.043  1.00  0.00    -0.395 OA
ATOM     42  H1  UNL     1      20.115  31.974  14.910  1.00  0.00     0.209 HD
ENDBRANCH  40  41
ENDBRANCH   6  40
TORSDOF 9
ENDMDL
MODEL 5
REMARK VINA RESULT: -7.714010836      0.880      1.606
REMARK  9 active torsions:
REMARK  status: ('A' for Active; 'I' for Inactive)
REMARK    1  A    between atoms: C4_6  and  C5_7 
REMARK    2  A    between atoms: C5_7  and  O1_8 
REMARK    3  A    between atoms: N4_20  and  C12_21 
REMARK    4  A    between atoms: C12_21  and  C13_22 
REMARK    5  A    between atoms: C13_22  and  C14_23 
REMARK    6  A    between atoms: C14_23  and  N5_24 
REMARK       I    between atoms: N5_24  and  C15_26 
REMARK    7  A    between atoms: C15_26  and  C16_28 
REMARK    8  A    between atoms: C17_29  and  C18_30 
REMARK    9  A    between atoms: N6_34  and  C22_35 
ROOT
HETATM    1  C1  UNL     1      16.895  25.953  24.155  1.00  0.00     0.040 C 
HETATM    2  C2  UNL     1      18.048  26.850  24.498  1.00  0.00     0.018 C 
HETATM    3  C3  UNL     1      18.977  27.079  23.577  1.00  0.00     0.103 A 
HETATM    4  N1  UNL     1      18.884  26.483  22.282  1.00  0.00    -0.342 N 
ATOM      5  H1  UNL     1      18.095  25.874  22.065  1.00  0.00     0.167 HD
HETATM    6  C4  UNL     1      19.872  26.726  21.293  1.00  0.00     0.064 A 
HETATM    7  C6  UNL     1      20.869  27.527  21.639  1.00  0.00     0.087 A 
HETATM    8  N2  UNL     1      21.959  27.960  20.946  1.00  0.00    -0.350 N 
ATOM      9  H2  UNL     1      22.174  27.704  19.982  1.00  0.00     0.166 HD
HETATM   10  C7  UNL     1      22.712  28.769  21.704  1.00  0.00     0.076 A 
HETATM   11  C8  UNL     1      22.130  28.896  22.946  1.00  0.00     0.090 A 
HETATM   12  N3  UNL     1      22.897  29.708  23.689  1.00  0.00    -0.352 N 
ATOM     13  H3  UNL     1      22.700  29.974  24.653  1.00  0.00     0.166 HD
HETATM   14  C9  UNL     1      23.984  30.128  22.970  1.00  0.00     0.048 A 
HETATM   15  C10 UNL     1      25.059  30.938  23.220  1.00  0.00     0.047 A 
HETATM   16  C11 UNL     1      26.008  31.164  22.248  1.00  0.00     0.092 A 
HETATM   17  N4  UNL     1      25.898  30.596  21.047  1.00  0.00    -0.365 N 
HETATM   18  C25 UNL     1      24.852  29.805  20.800  1.00  0.00     0.106 A 
HETATM   19  C26 UNL     1      23.861  29.529  21.713  1.00  0.00     0.035 A 
HETATM   20  C27 UNL     1      20.986  28.119  22.889  1.00  0.00     0.094 A 
HETATM   21  N7  UNL     1      20.089  27.916  23.834  1.00  0.00    -0.334 N 
HETATM   22  C28 UNL     1      20.299  28.574  25.114  1.00  0.00     0.158 C 
ENDROOT
BRANCH  17  23
HETATM   23  C12 UNL     1      26.884  30.817  20.024  1.00  0.00     0.129 C 
BRANCH  23  24
HETATM   24  C13 UNL     1      26.405  31.495  18.796  1.00  0.00     0.040 C 
BRANCH  24  25
HETATM   25  C14 UNL     1      25.868  32.873  18.934  1.00  0.00     0.124 C 
BRANCH  25  26
HETATM   26  N5  UNL     1      24.561  32.940  19.479  1.00  0.00    -0.358 N 
HETATM   27  C15 UNL     1      24.220  33.805  20.607  1.00  0.00     0.241 C 
HETATM   28  O2  UNL     1      25.153  34.473  21.057  1.00  0.00    -0.269 OA
ATOM     29  H5  UNL     1      23.829  32.361  19.067  1.00  0.00     0.162 HD
BRANCH  27  30
HETATM   30  C16 UNL     1      22.889  33.830  21.104  1.00  0.00     0.075 C 
HETATM   31  C17 UNL     1      21.686  33.826  20.731  1.00  0.00     0.018 C 
BRANCH  31  32
HETATM   32  C18 UNL     1      20.927  33.792  19.520  1.00  0.00    -0.021 A 
HETATM   33  C19 UNL     1      19.910  34.635  19.182  1.00  0.00     0.014 A 
HETATM   34  C20 UNL     1      19.268  34.506  17.944  1.00  0.00     0.018 A 
HETATM   35  C21 UNL     1      19.655  33.533  17.062  1.00  0.00     0.090 A 
HETATM   36  N6  UNL     1      20.655  32.687  17.368  1.00  0.00    -0.366 N 
HETATM   37  C24 UNL     1      21.255  32.822  18.547  1.00  0.00     0.101 A 
BRANCH  36  38
HETATM   38  C22 UNL     1      21.066  31.652  16.405  1.00  0.00     0.123 C 
HETATM   39  C23 UNL     1      21.675  30.524  17.212  1.00  0.00     0.027 C 
ENDBRANCH  36  38
ENDBRANCH  31  32
ENDBRANCH  27  30
ENDBRANCH  25  26
ENDBRANCH  24  25
ENDBRANCH  23  24
ENDBRANCH  17  23
BRANCH   6  40
HETATM   40  C5  UNL     1      19.801  26.120  19.959  1.00  0.00     0.223 C 
BRANCH  40  41
HETATM   41  O1  UNL     1      19.883  24.720  20.053  1.00  0.00    -0.395 OA
ATOM     42  H1  UNL     1      19.116  24.318  19.663  1.00  0.00     0.209 HD
ENDBRANCH  40  41
ENDBRANCH   6  40
TORSDOF 9
ENDMDL
