MODEL 1
REMARK VINA RESULT: -7.761392293      0.000      0.000
REMARK  8 active torsions:
REMARK  status: ('A' for Active; 'I' for Inactive)
REMARK    1  A    between atoms: C2_2  and  C3_3 
REMARK    2  A    between atoms: C3_3  and  C4_4 
REMARK    3  A    between atoms: C4_4  and  C5_5 
REMARK    4  A    between atoms: C5_5  and  C6_6 
REMARK    5  A    between atoms: C7_7  and  C8_8 
REMARK       I    between atoms: N1_11  and  C11_13 
REMARK    6  A    between atoms: C22_33  and  C23_34 
REMARK    7  A    between atoms: C23_34  and  C24_35 
REMARK    8  A    between atoms: C24_35  and  C25_36 
ROOT
HETATM    1  C8  UNL     1      20.537  29.600  20.917  1.00  0.00     0.114 C 
HETATM    2  C9  UNL     1      21.636  29.497  21.896  1.00  0.00     0.105 C 
HETATM    3  C10 UNL     1      22.099  28.116  22.143  1.00  0.00     0.083 C 
HETATM    4  N1  UNL     1      21.311  27.294  22.721  1.00  0.00    -0.301 N 
ATOM      5  H1  UNL     1      21.669  26.351  22.873  1.00  0.00     0.171 HD
HETATM    6  C11 UNL     1      20.016  27.548  23.164  1.00  0.00     0.334 C 
HETATM    7  N2  UNL     1      18.880  26.866  22.611  1.00  0.00    -0.040 NA
HETATM    8  O1  UNL     1      19.742  28.392  24.084  1.00  0.00    -0.251 OA
HETATM    9  N3  UNL     1      23.396  27.649  21.787  1.00  0.00    -0.366 N 
ATOM     10  H3  UNL     1      23.436  26.790  21.239  1.00  0.00     0.162 HD
HETATM   11  C12 UNL     1      24.658  28.260  22.116  1.00  0.00     0.064 A 
HETATM   12  C13 UNL     1      25.592  27.021  22.403  1.00  0.00     0.044 C 
HETATM   13  C14 UNL     1      24.708  29.014  23.384  1.00  0.00     0.065 A 
HETATM   14  C15 UNL     1      25.492  30.240  23.424  1.00  0.00     0.006 A 
HETATM   15  C16 UNL     1      26.033  30.745  22.352  1.00  0.00     0.039 A 
HETATM   16  N4  UNL     1      26.775  31.873  22.251  1.00  0.00    -0.365 N 
ATOM     17  H4  UNL     1      27.007  32.527  22.999  1.00  0.00     0.165 HD
HETATM   18  C17 UNL     1      27.138  31.951  20.969  1.00  0.00     0.089 A 
HETATM   19  C18 UNL     1      26.636  30.885  20.252  1.00  0.00     0.031 A 
HETATM   20  C19 UNL     1      25.927  30.110  21.149  1.00  0.00     0.006 A 
HETATM   21  C20 UNL     1      25.295  28.950  20.949  1.00  0.00     0.050 A 
HETATM   22  C21 UNL     1      25.229  28.427  19.590  1.00  0.00     0.251 C 
HETATM   23  O2  UNL     1      26.334  28.393  18.939  1.00  0.00    -0.268 OA
HETATM   24  N5  UNL     1      24.022  27.957  18.950  1.00  0.00    -0.344 N 
ATOM     25  H5  UNL     1      24.007  27.006  18.583  1.00  0.00     0.163 HD
HETATM   26  C22 UNL     1      22.835  28.771  18.805  1.00  0.00     0.177 C 
HETATM   27  C27 UNL     1      21.577  28.063  19.155  1.00  0.00     0.241 C 
HETATM   28  O3  UNL     1      21.509  26.857  18.798  1.00  0.00    -0.271 OA
HETATM   29  N6  UNL     1      20.500  28.662  19.842  1.00  0.00    -0.351 N 
ATOM     30  H6  UNL     1      19.569  28.387  19.529  1.00  0.00     0.163 HD
ENDROOT
BRANCH   1  31
HETATM   31  C7  UNL     1      20.614  30.979  20.262  1.00  0.00    -0.006 C 
HETATM   32  C6  UNL     1      21.662  31.713  20.550  1.00  0.00    -0.029 C 
BRANCH  32  33
HETATM   33  C5  UNL     1      22.039  33.054  20.107  1.00  0.00     0.027 C 
BRANCH  33  34
HETATM   34  C4  UNL     1      20.899  34.010  20.070  1.00  0.00     0.004 C 
BRANCH  34  35
HETATM   35  C3  UNL     1      20.640  34.609  18.736  1.00  0.00    -0.000 C 
BRANCH  35  36
HETATM   36  C2  UNL     1      19.129  34.714  18.454  1.00  0.00    -0.005 C 
HETATM   37  C1  UNL     1      18.665  33.335  18.059  1.00  0.00     0.005 C 
ENDBRANCH  35  36
ENDBRANCH  34  35
ENDBRANCH  33  34
ENDBRANCH  32  33
ENDBRANCH   1  31
BRANCH  26  38
HETATM   38  C23 UNL     1      22.763  29.208  17.354  1.00  0.00     0.035 C 
BRANCH  38  39
HETATM   39  C24 UNL     1      22.830  30.684  17.151  1.00  0.00     0.002 C 
BRANCH  39  40
HETATM   40  C25 UNL     1      21.399  31.125  16.817  1.00  0.00    -0.004 C 
HETATM   41  C26 UNL     1      21.405  32.211  15.771  1.00  0.00     0.005 C 
ENDBRANCH  39  40
ENDBRANCH  38  39
ENDBRANCH  26  38
TORSDOF 8
ENDMDL
MODEL 2
REMARK VINA RESULT: -7.496769679      0.774      1.377
REMARK  8 active torsions:
REMARK  status: ('A' for Active; 'I' for Inactive)
REMARK    1  A    between atoms: C2_2  and  C3_3 
REMARK    2  A    between atoms: C3_3  and  C4_4 
REMARK    3  A    between atoms: C4_4  and  C5_5 
REMARK    4  A    between atoms: C5_5  and  C6_6 
REMARK    5  A    between atoms: C7_7  and  C8_8 
REMARK       I    between atoms: N1_11  and  C11_13 
REMARK    6  A    between atoms: C22_33  and  C23_34 
REMARK    7  A    between atoms: C23_34  and  C24_35 
REMARK    8  A    between atoms: C24_35  and  C25_36 
ROOT
HETATM    1  C8  UNL     1      20.782  29.342  20.625  1.00  0.00     0.114 C 
HETATM    2  C9  UNL     1      21.767  29.345  21.723  1.00  0.00     0.105 C 
HETATM    3  C10 UNL     1      22.194  27.999  22.158  1.00  0.00     0.083 C 
HETATM    4  N1  UNL     1      21.344  27.234  22.725  1.00  0.00    -0.301 N 
ATOM      5  H1  UNL     1      21.678  26.313  23.010  1.00  0.00     0.171 HD
HETATM    6  C11 UNL     1      20.009  27.522  22.996  1.00  0.00     0.334 C 
HETATM    7  N2  UNL     1      18.937  26.781  22.393  1.00  0.00    -0.040 NA
HETATM    8  O1  UNL     1      19.639  28.453  23.791  1.00  0.00    -0.251 OA
HETATM    9  N3  UNL     1      23.520  27.507  21.995  1.00  0.00    -0.366 N 
ATOM     10  H3  UNL     1      23.616  26.598  21.544  1.00  0.00     0.162 HD
HETATM   11  C12 UNL     1      24.740  28.157  22.397  1.00  0.00     0.064 A 
HETATM   12  C13 UNL     1      25.632  26.958  22.909  1.00  0.00     0.044 C 
HETATM   13  C14 UNL     1      24.654  29.034  23.581  1.00  0.00     0.065 A 
HETATM   14  C15 UNL     1      25.435  30.264  23.583  1.00  0.00     0.006 A 
HETATM   15  C16 UNL     1      26.093  30.662  22.532  1.00  0.00     0.039 A 
HETATM   16  N4  UNL     1      26.846  31.779  22.399  1.00  0.00    -0.365 N 
ATOM     17  H4  UNL     1      26.998  32.506  23.099  1.00  0.00     0.165 HD
HETATM   18  C17 UNL     1      27.348  31.730  21.164  1.00  0.00     0.089 A 
HETATM   19  C18 UNL     1      26.923  30.594  20.507  1.00  0.00     0.031 A 
HETATM   20  C19 UNL     1      26.117  29.908  21.394  1.00  0.00     0.006 A 
HETATM   21  C20 UNL     1      25.505  28.730  21.244  1.00  0.00     0.050 A 
HETATM   22  C21 UNL     1      25.586  28.072  19.946  1.00  0.00     0.251 C 
HETATM   23  O2  UNL     1      26.756  27.981  19.426  1.00  0.00    -0.268 OA
HETATM   24  N5  UNL     1      24.455  27.533  19.228  1.00  0.00    -0.344 N 
ATOM     25  H5  UNL     1      24.476  26.549  18.958  1.00  0.00     0.163 HD
HETATM   26  C22 UNL     1      23.294  28.320  18.872  1.00  0.00     0.177 C 
HETATM   27  C27 UNL     1      22.003  27.642  19.151  1.00  0.00     0.241 C 
HETATM   28  O3  UNL     1      21.969  26.406  18.912  1.00  0.00    -0.271 OA
HETATM   29  N6  UNL     1      20.860  28.300  19.653  1.00  0.00    -0.351 N 
ATOM     30  H6  UNL     1      19.968  27.989  19.268  1.00  0.00     0.163 HD
ENDROOT
BRANCH   1  31
HETATM   31  C7  UNL     1      20.937  30.649  19.847  1.00  0.00    -0.006 C 
HETATM   32  C6  UNL     1      20.173  30.805  18.793  1.00  0.00    -0.029 C 
BRANCH  32  33
HETATM   33  C5  UNL     1      20.070  31.912  17.845  1.00  0.00     0.027 C 
BRANCH  33  34
HETATM   34  C4  UNL     1      18.901  32.800  18.091  1.00  0.00     0.004 C 
BRANCH  34  35
HETATM   35  C3  UNL     1      19.253  34.190  18.479  1.00  0.00    -0.000 C 
BRANCH  35  36
HETATM   36  C2  UNL     1      20.767  34.337  18.720  1.00  0.00    -0.005 C 
HETATM   37  C1  UNL     1      20.979  34.264  20.211  1.00  0.00     0.005 C 
ENDBRANCH  35  36
ENDBRANCH  34  35
ENDBRANCH  33  34
ENDBRANCH  32  33
ENDBRANCH   1  31
BRANCH  26  38
HETATM   38  C23 UNL     1      23.385  28.609  17.385  1.00  0.00     0.035 C 
BRANCH  38  39
HETATM   39  C24 UNL     1      23.254  30.051  17.028  1.00  0.00     0.002 C 
BRANCH  39  40
HETATM   40  C25 UNL     1      24.174  30.806  17.998  1.00  0.00    -0.004 C 
HETATM   41  C26 UNL     1      23.805  32.266  18.055  1.00  0.00     0.005 C 
ENDBRANCH  39  40
ENDBRANCH  38  39
ENDBRANCH  26  38
TORSDOF 8
ENDMDL
MODEL 3
REMARK VINA RESULT: -7.476365522      2.565      5.018
REMARK  8 active torsions:
REMARK  status: ('A' for Active; 'I' for Inactive)
REMARK    1  A    between atoms: C2_2  and  C3_3 
REMARK    2  A    between atoms: C3_3  and  C4_4 
REMARK    3  A    between atoms: C4_4  and  C5_5 
REMARK    4  A    between atoms: C5_5  and  C6_6 
REMARK    5  A    between atoms: C7_7  and  C8_8 
REMARK       I    between atoms: N1_11  and  C11_13 
REMARK    6  A    between atoms: C22_33  and  C23_34 
REMARK    7  A    between atoms: C23_34  and  C24_35 
REMARK    8  A    between atoms: C24_35  and  C25_36 
ROOT
HETATM    1  C8  UNL     1      24.235  33.518  20.148  1.00  0.00     0.114 C 
HETATM    2  C9  UNL     1      24.745  32.284  20.775  1.00  0.00     0.105 C 
HETATM    3  C10 UNL     1      24.347  32.112  22.187  1.00  0.00     0.083 C 
HETATM    4  N1  UNL     1      24.806  32.920  23.062  1.00  0.00    -0.301 N 
ATOM      5  H1  UNL     1      24.507  32.768  24.024  1.00  0.00     0.171 HD
HETATM    6  C11 UNL     1      25.672  33.988  22.840  1.00  0.00     0.334 C 
HETATM    7  N2  UNL     1      25.278  35.346  23.091  1.00  0.00    -0.040 NA
HETATM    8  O1  UNL     1      26.865  33.846  22.405  1.00  0.00    -0.251 OA
HETATM    9  N3  UNL     1      23.483  31.072  22.636  1.00  0.00    -0.366 N 
ATOM     10  H3  UNL     1      22.685  31.357  23.203  1.00  0.00     0.162 HD
HETATM   11  C12 UNL     1      23.617  29.663  22.376  1.00  0.00     0.064 A 
HETATM   12  C13 UNL     1      23.164  29.003  23.738  1.00  0.00     0.044 C 
HETATM   13  C14 UNL     1      24.993  29.157  22.205  1.00  0.00     0.065 A 
HETATM   14  C15 UNL     1      25.225  28.119  21.209  1.00  0.00     0.006 A 
HETATM   15  C16 UNL     1      24.288  27.728  20.393  1.00  0.00     0.039 A 
HETATM   16  N4  UNL     1      24.372  26.786  19.425  1.00  0.00    -0.365 N 
ATOM     17  H4  UNL     1      25.196  26.247  19.160  1.00  0.00     0.165 HD
HETATM   18  C17 UNL     1      23.152  26.711  18.889  1.00  0.00     0.089 A 
HETATM   19  C18 UNL     1      22.291  27.594  19.507  1.00  0.00     0.031 A 
HETATM   20  C19 UNL     1      23.027  28.245  20.476  1.00  0.00     0.006 A 
HETATM   21  C20 UNL     1      22.631  29.159  21.367  1.00  0.00     0.050 A 
HETATM   22  C21 UNL     1      21.260  29.646  21.291  1.00  0.00     0.251 C 
HETATM   23  O2  UNL     1      20.343  28.754  21.205  1.00  0.00    -0.268 OA
HETATM   24  N5  UNL     1      20.884  31.040  21.306  1.00  0.00    -0.344 N 
ATOM     25  H5  UNL     1      20.229  31.359  22.021  1.00  0.00     0.163 HD
HETATM   26  C22 UNL     1      21.389  32.008  20.355  1.00  0.00     0.177 C 
HETATM   27  C27 UNL     1      21.825  33.285  20.974  1.00  0.00     0.241 C 
HETATM   28  O3  UNL     1      21.107  33.710  21.918  1.00  0.00    -0.271 OA
HETATM   29  N6  UNL     1      22.963  34.011  20.566  1.00  0.00    -0.351 N 
ATOM     30  H6  UNL     1      22.864  35.026  20.570  1.00  0.00     0.163 HD
ENDROOT
BRANCH   1  31
HETATM   31  C7  UNL     1      24.112  33.269  18.645  1.00  0.00    -0.006 C 
HETATM   32  C6  UNL     1      23.450  34.162  17.949  1.00  0.00    -0.029 C 
BRANCH  32  33
HETATM   33  C5  UNL     1      23.149  34.227  16.520  1.00  0.00     0.027 C 
BRANCH  33  34
HETATM   34  C4  UNL     1      21.798  34.773  16.221  1.00  0.00     0.004 C 
BRANCH  34  35
HETATM   35  C3  UNL     1      20.901  34.881  17.400  1.00  0.00    -0.000 C 
BRANCH  35  36
HETATM   36  C2  UNL     1      19.462  35.233  16.977  1.00  0.00    -0.005 C 
HETATM   37  C1  UNL     1      18.628  35.231  18.233  1.00  0.00     0.005 C 
ENDBRANCH  35  36
ENDBRANCH  34  35
ENDBRANCH  33  34
ENDBRANCH  32  33
ENDBRANCH   1  31
BRANCH  26  38
HETATM   38  C23 UNL     1      20.273  32.297  19.370  1.00  0.00     0.035 C 
BRANCH  38  39
HETATM   39  C24 UNL     1      20.155  31.305  18.262  1.00  0.00     0.002 C 
BRANCH  39  40
HETATM   40  C25 UNL     1      21.595  30.924  17.889  1.00  0.00    -0.004 C 
HETATM   41  C26 UNL     1      21.749  30.823  16.393  1.00  0.00     0.005 C 
ENDBRANCH  39  40
ENDBRANCH  38  39
ENDBRANCH  26  38
TORSDOF 8
ENDMDL
MODEL 4
REMARK VINA RESULT: -7.408786106      2.728      5.644
REMARK  8 active torsions:
REMARK  status: ('A' for Active; 'I' for Inactive)
REMARK    1  A    between atoms: C2_2  and  C3_3 
REMARK    2  A    between atoms: C3_3  and  C4_4 
REMARK    3  A    between atoms: C4_4  and  C5_5 
REMARK    4  A    between atoms: C5_5  and  C6_6 
REMARK    5  A    between atoms: C7_7  and  C8_8 
REMARK       I    between atoms: N1_11  and  C11_13 
REMARK    6  A    between atoms: C22_33  and  C23_34 
REMARK    7  A    between atoms: C23_34  and  C24_35 
REMARK    8  A    between atoms: C24_35  and  C25_36 
ROOT
HETATM    1  C8  UNL     1      21.993  31.420  15.505  1.00  0.00     0.114 C 
HETATM    2  C9  UNL     1      22.166  30.063  16.057  1.00  0.00     0.105 C 
HETATM    3  C10 UNL     1      23.498  29.474  15.812  1.00  0.00     0.083 C 
HETATM    4  N1  UNL     1      23.837  29.189  14.615  1.00  0.00    -0.301 N 
ATOM      5  H1  UNL     1      24.765  28.784  14.488  1.00  0.00     0.171 HD
HETATM    6  C11 UNL     1      23.075  29.371  13.464  1.00  0.00     0.334 C 
HETATM    7  N2  UNL     1      23.487  30.266  12.418  1.00  0.00    -0.040 NA
HETATM    8  O1  UNL     1      21.970  28.767  13.250  1.00  0.00    -0.251 OA
HETATM    9  N3  UNL     1      24.431  29.186  16.849  1.00  0.00    -0.366 N 
ATOM     10  H3  UNL     1      25.373  29.555  16.729  1.00  0.00     0.162 HD
HETATM   11  C12 UNL     1      24.185  28.431  18.050  1.00  0.00     0.064 A 
HETATM   12  C13 UNL     1      25.527  27.624  18.247  1.00  0.00     0.044 C 
HETATM   13  C14 UNL     1      23.168  27.364  17.955  1.00  0.00     0.065 A 
HETATM   14  C15 UNL     1      22.292  27.147  19.097  1.00  0.00     0.006 A 
HETATM   15  C16 UNL     1      22.298  27.941  20.130  1.00  0.00     0.039 A 
HETATM   16  N4  UNL     1      21.536  27.856  21.245  1.00  0.00    -0.365 N 
ATOM     17  H4  UNL     1      20.811  27.167  21.446  1.00  0.00     0.165 HD
HETATM   18  C17 UNL     1      21.932  28.862  22.029  1.00  0.00     0.089 A 
HETATM   19  C18 UNL     1      22.938  29.587  21.424  1.00  0.00     0.031 A 
HETATM   20  C19 UNL     1      23.171  28.988  20.202  1.00  0.00     0.006 A 
HETATM   21  C20 UNL     1      24.080  29.293  19.271  1.00  0.00     0.050 A 
HETATM   22  C21 UNL     1      24.907  30.475  19.476  1.00  0.00     0.251 C 
HETATM   23  O2  UNL     1      25.465  30.587  20.625  1.00  0.00    -0.268 OA
HETATM   24  N5  UNL     1      25.127  31.503  18.486  1.00  0.00    -0.344 N 
ATOM     25  H5  UNL     1      26.086  31.722  18.219  1.00  0.00     0.163 HD
HETATM   26  C22 UNL     1      24.052  32.238  17.854  1.00  0.00     0.177 C 
HETATM   27  C27 UNL     1      24.201  32.370  16.383  1.00  0.00     0.241 C 
HETATM   28  O3  UNL     1      25.372  32.571  15.965  1.00  0.00    -0.271 OA
HETATM   29  N6  UNL     1      23.127  32.284  15.470  1.00  0.00    -0.351 N 
ATOM     30  H6  UNL     1      23.168  32.926  14.679  1.00  0.00     0.163 HD
ENDROOT
BRANCH   1  31
HETATM   31  C7  UNL     1      20.944  32.143  16.349  1.00  0.00    -0.006 C 
HETATM   32  C6  UNL     1      20.558  31.549  17.453  1.00  0.00    -0.029 C 
BRANCH  32  33
HETATM   33  C5  UNL     1      19.590  31.956  18.468  1.00  0.00     0.027 C 
BRANCH  33  34
HETATM   34  C4  UNL     1      18.704  33.070  18.032  1.00  0.00     0.004 C 
BRANCH  34  35
HETATM   35  C3  UNL     1      19.046  34.393  18.612  1.00  0.00    -0.000 C 
BRANCH  35  36
HETATM   36  C2  UNL     1      18.729  35.535  17.627  1.00  0.00    -0.005 C 
HETATM   37  C1  UNL     1      19.910  35.646  16.696  1.00  0.00     0.005 C 
ENDBRANCH  35  36
ENDBRANCH  34  35
ENDBRANCH  33  34
ENDBRANCH  32  33
ENDBRANCH   1  31
BRANCH  26  38
HETATM   38  C23 UNL     1      24.029  33.623  18.471  1.00  0.00     0.035 C 
BRANCH  38  39
HETATM   39  C24 UNL     1      22.716  34.016  19.059  1.00  0.00     0.002 C 
BRANCH  39  40
HETATM   40  C25 UNL     1      22.575  33.197  20.349  1.00  0.00    -0.004 C 
HETATM   41  C26 UNL     1      21.496  33.773  21.230  1.00  0.00     0.005 C 
ENDBRANCH  39  40
ENDBRANCH  38  39
ENDBRANCH  26  38
TORSDOF 8
ENDMDL
MODEL 5
REMARK VINA RESULT: -7.402290007      2.293      5.388
REMARK  8 active torsions:
REMARK  status: ('A' for Active; 'I' for Inactive)
REMARK    1  A    between atoms: C2_2  and  C3_3 
REMARK    2  A    between atoms: C3_3  and  C4_4 
REMARK    3  A    between atoms: C4_4  and  C5_5 
REMARK    4  A    between atoms: C5_5  and  C6_6 
REMARK    5  A    between atoms: C7_7  and  C8_8 
REMARK       I    between atoms: N1_11  and  C11_13 
REMARK    6  A    between atoms: C22_33  and  C23_34 
REMARK    7  A    between atoms: C23_34  and  C24_35 
REMARK    8  A    between atoms: C24_35  and  C25_36 
ROOT
HETATM    1  C8  UNL     1      22.406  30.769  16.245  1.00  0.00     0.114 C 
HETATM    2  C9  UNL     1      22.107  29.432  16.794  1.00  0.00     0.105 C 
HETATM    3  C10 UNL     1      23.255  28.502  16.782  1.00  0.00     0.083 C 
HETATM    4  N1  UNL     1      23.712  28.100  15.659  1.00  0.00    -0.301 N 
ATOM      5  H1  UNL     1      24.504  27.458  15.694  1.00  0.00     0.171 HD
HETATM    6  C11 UNL     1      23.245  28.444  14.394  1.00  0.00     0.334 C 
HETATM    7  N2  UNL     1      24.060  29.163  13.456  1.00  0.00    -0.040 NA
HETATM    8  O1  UNL     1      22.073  28.150  13.974  1.00  0.00    -0.251 OA
HETATM    9  N3  UNL     1      23.875  28.008  17.964  1.00  0.00    -0.366 N 
ATOM     10  H3  UNL     1      24.888  28.107  18.021  1.00  0.00     0.162 HD
HETATM   11  C12 UNL     1      23.226  27.383  19.087  1.00  0.00     0.064 A 
HETATM   12  C13 UNL     1      24.246  26.253  19.507  1.00  0.00     0.044 C 
HETATM   13  C14 UNL     1      21.994  26.624  18.791  1.00  0.00     0.065 A 
HETATM   14  C15 UNL     1      20.903  26.684  19.753  1.00  0.00     0.006 A 
HETATM   15  C16 UNL     1      20.939  27.479  20.785  1.00  0.00     0.039 A 
HETATM   16  N4  UNL     1      19.996  27.636  21.743  1.00  0.00    -0.365 N 
ATOM     17  H4  UNL     1      19.089  27.172  21.797  1.00  0.00     0.165 HD
HETATM   18  C17 UNL     1      20.501  28.523  22.603  1.00  0.00     0.089 A 
HETATM   19  C18 UNL     1      21.756  28.933  22.203  1.00  0.00     0.031 A 
HETATM   20  C19 UNL     1      22.034  28.256  21.032  1.00  0.00     0.006 A 
HETATM   21  C20 UNL     1      23.141  28.278  20.284  1.00  0.00     0.050 A 
HETATM   22  C21 UNL     1      24.205  29.202  20.656  1.00  0.00     0.251 C 
HETATM   23  O2  UNL     1      24.559  29.196  21.889  1.00  0.00    -0.268 OA
HETATM   24  N5  UNL     1      24.865  30.103  19.741  1.00  0.00    -0.344 N 
ATOM     25  H5  UNL     1      25.880  30.050  19.655  1.00  0.00     0.163 HD
HETATM   26  C22 UNL     1      24.157  31.079  18.940  1.00  0.00     0.177 C 
HETATM   27  C27 UNL     1      24.595  31.121  17.522  1.00  0.00     0.241 C 
HETATM   28  O3  UNL     1      25.832  30.988  17.326  1.00  0.00    -0.271 OA
HETATM   29  N6  UNL     1      23.718  31.296  16.430  1.00  0.00    -0.351 N 
ATOM     30  H6  UNL     1      24.070  31.879  15.671  1.00  0.00     0.163 HD
ENDROOT
BRANCH   1  31
HETATM   31  C7  UNL     1      21.457  31.772  16.900  1.00  0.00    -0.006 C 
HETATM   32  C6  UNL     1      20.641  31.306  17.814  1.00  0.00    -0.029 C 
BRANCH  32  33
HETATM   33  C5  UNL     1      19.625  31.979  18.619  1.00  0.00     0.027 C 
BRANCH  33  34
HETATM   34  C4  UNL     1      18.781  32.926  17.841  1.00  0.00     0.004 C 
BRANCH  34  35
HETATM   35  C3  UNL     1      18.768  34.315  18.364  1.00  0.00    -0.000 C 
BRANCH  35  36
HETATM   36  C2  UNL     1      20.167  34.956  18.286  1.00  0.00    -0.005 C 
HETATM   37  C1  UNL     1      20.422  35.265  16.833  1.00  0.00     0.005 C 
ENDBRANCH  35  36
ENDBRANCH  34  35
ENDBRANCH  33  34
ENDBRANCH  32  33
ENDBRANCH   1  31
BRANCH  26  38
HETATM   38  C23 UNL     1      24.398  32.438  19.568  1.00  0.00     0.035 C 
BRANCH  38  39
HETATM   39  C24 UNL     1      23.179  33.289  19.684  1.00  0.00     0.002 C 
BRANCH  39  40
HETATM   40  C25 UNL     1      22.428  32.776  20.921  1.00  0.00    -0.004 C 
HETATM   41  C26 UNL     1      21.480  33.826  21.443  1.00  0.00     0.005 C 
ENDBRANCH  39  40
ENDBRANCH  38  39
ENDBRANCH  26  38
TORSDOF 8
ENDMDL
