MODEL 1
REMARK VINA RESULT: -8.104836285      0.000      0.000
REMARK  16 active torsions:
REMARK  status: ('A' for Active; 'I' for Inactive)
REMARK    1  A    between atoms: C2_2  and  C3_3 
REMARK    2  A    between atoms: C3_3  and  C4_4 
REMARK    3  A    between atoms: C4_4  and  N1_5 
REMARK    4  A    between atoms: C4_4  and  N2_8 
REMARK    5  A    between atoms: N1_5  and  C5_6 
REMARK    6  A    between atoms: N2_8  and  C7_10 
REMARK    7  A    between atoms: C8_13  and  C9_14 
REMARK    8  A    between atoms: C9_14  and  O1_15 
REMARK    9  A    between atoms: C10_17  and  C11_18 
REMARK   10  A    between atoms: C11_18  and  C12_19 
REMARK   11  A    between atoms: C12_19  and  C13_20 
REMARK   12  A    between atoms: N4_23  and  C16_24 
REMARK   13  A    between atoms: C16_24  and  C17_25 
REMARK   14  A    between atoms: C18_26  and  C19_27 
REMARK   15  A    between atoms: C20_28  and  C21_29 
REMARK   16  A    between atoms: C21_29  and  N5_32 
REMARK       I    between atoms: N5_32  and  C24_34 
ROOT
HETATM    1  C12 UNL     1      21.594  30.432  20.065  1.00  0.00     0.045 C 
ENDROOT
BRANCH   1   2
HETATM    2  C11 UNL     1      20.859  29.233  19.572  1.00  0.00     0.064 C 
BRANCH   2   3
HETATM    3  C10 UNL     1      20.431  28.210  20.527  1.00  0.00     0.052 A 
HETATM    4  C8  UNL     1      20.345  26.820  20.290  1.00  0.00     0.073 A 
HETATM    5  N3  UNL     1      19.834  26.252  21.389  1.00  0.00    -0.191 N 
HETATM    6  C7  UNL     1      19.592  27.184  22.317  1.00  0.00     0.685 A 
ATOM      7  H3  UNL     1      19.655  25.254  21.502  1.00  0.00     0.184 HD
HETATM    8  N6  UNL     1      19.965  28.370  21.778  1.00  0.00    -0.193 N 
ATOM      9  H6  UNL     1      19.899  29.268  22.258  1.00  0.00     0.184 HD
BRANCH   4  10
HETATM   10  C9  UNL     1      20.767  26.112  19.054  1.00  0.00     0.223 C 
BRANCH  10  11
HETATM   11  O1  UNL     1      20.496  24.740  19.235  1.00  0.00    -0.395 OA
ATOM     12  H1  UNL     1      20.077  24.423  18.444  1.00  0.00     0.209 HD
ENDBRANCH  10  11
ENDBRANCH   4  10
BRANCH   6  13
HETATM   13  N2  UNL     1      18.993  27.076  23.467  1.00  0.00    -0.168 N 
ATOM     14  H2  UNL     1      18.052  26.689  23.537  1.00  0.00     0.186 HD
BRANCH  13  15
HETATM   15  C4  UNL     1      19.710  27.524  24.651  1.00  0.00     0.163 C 
BRANCH  15  16
HETATM   16  C3  UNL     1      19.013  28.116  25.845  1.00  0.00     0.092 C 
BRANCH  16  17
HETATM   17  C2  UNL     1      17.554  27.647  25.751  1.00  0.00     0.004 C 
HETATM   18  C1  UNL     1      16.621  28.433  26.633  1.00  0.00     0.005 C 
ENDBRANCH  16  17
ENDBRANCH  15  16
BRANCH  15  19
HETATM   19  N1  UNL     1      20.915  27.405  24.683  1.00  0.00    -0.435 NA
BRANCH  19  20
HETATM   20  C5  UNL     1      22.231  27.257  24.742  1.00  0.00     0.215 C 
HETATM   21  C6  UNL     1      22.928  28.490  24.130  1.00  0.00     0.041 C 
ENDBRANCH  19  20
ENDBRANCH  15  19
ENDBRANCH  13  15
ENDBRANCH   6  13
ENDBRANCH   2   3
ENDBRANCH   1   2
BRANCH   1  22
HETATM   22  C13 UNL     1      20.853  31.673  19.560  1.00  0.00    -0.049 A 
HETATM   23  C14 UNL     1      19.859  31.531  18.610  1.00  0.00     0.025 A 
HETATM   24  C15 UNL     1      19.105  32.603  18.187  1.00  0.00     0.092 A 
HETATM   25  N4  UNL     1      19.309  33.839  18.685  1.00  0.00    -0.355 N 
HETATM   26  C26 UNL     1      20.286  33.991  19.615  1.00  0.00     0.098 A 
HETATM   27  C27 UNL     1      21.072  32.926  20.069  1.00  0.00    -0.040 A 
HETATM   28  C28 UNL     1      22.114  33.192  21.068  1.00  0.00     0.050 C 
BRANCH  25  29
HETATM   29  C16 UNL     1      18.458  34.914  18.247  1.00  0.00     0.222 C 
BRANCH  29  30
HETATM   30  C17 UNL     1      19.043  35.727  17.191  1.00  0.00    -0.072 C 
HETATM   31  C18 UNL     1      19.491  36.437  16.304  1.00  0.00    -0.013 C 
BRANCH  31  32
HETATM   32  C19 UNL     1      19.963  37.296  15.284  1.00  0.00    -0.012 C 
HETATM   33  C20 UNL     1      20.376  38.005  14.388  1.00  0.00    -0.061 C 
BRANCH  33  34
HETATM   34  C21 UNL     1      20.877  38.836  13.265  1.00  0.00     0.090 C 
HETATM   35  C22 UNL     1      20.423  40.264  13.481  1.00  0.00     0.053 C 
HETATM   36  C23 UNL     1      20.282  38.377  11.953  1.00  0.00     0.053 C 
BRANCH  34  37
HETATM   37  N5  UNL     1      22.312  38.740  13.155  1.00  0.00    -0.342 N 
HETATM   38  C24 UNL     1      22.899  37.505  12.805  1.00  0.00     0.214 C 
HETATM   39  C25 UNL     1      24.377  37.335  12.671  1.00  0.00     0.117 C 
HETATM   40  O2  UNL     1      22.199  36.491  12.590  1.00  0.00    -0.274 OA
ATOM     41  H5  UNL     1      22.897  39.556  13.330  1.00  0.00     0.164 HD
ENDBRANCH  34  37
ENDBRANCH  33  34
ENDBRANCH  31  32
ENDBRANCH  29  30
ENDBRANCH  25  29
ENDBRANCH   1  22
TORSDOF 16
ENDMDL
MODEL 2
REMARK VINA RESULT: -7.703529994      4.451      7.537
REMARK  16 active torsions:
REMARK  status: ('A' for Active; 'I' for Inactive)
REMARK    1  A    between atoms: C2_2  and  C3_3 
REMARK    2  A    between atoms: C3_3  and  C4_4 
REMARK    3  A    between atoms: C4_4  and  N1_5 
REMARK    4  A    between atoms: C4_4  and  N2_8 
REMARK    5  A    between atoms: N1_5  and  C5_6 
REMARK    6  A    between atoms: N2_8  and  C7_10 
REMARK    7  A    between atoms: C8_13  and  C9_14 
REMARK    8  A    between atoms: C9_14  and  O1_15 
REMARK    9  A    between atoms: C10_17  and  C11_18 
REMARK   10  A    between atoms: C11_18  and  C12_19 
REMARK   11  A    between atoms: C12_19  and  C13_20 
REMARK   12  A    between atoms: N4_23  and  C16_24 
REMARK   13  A    between atoms: C16_24  and  C17_25 
REMARK   14  A    between atoms: C18_26  and  C19_27 
REMARK   15  A    between atoms: C20_28  and  C21_29 
REMARK   16  A    between atoms: C21_29  and  N5_32 
REMARK       I    between atoms: N5_32  and  C24_34 
ROOT
HETATM    1  C12 UNL     1      21.506  34.027  20.925  1.00  0.00     0.045 C 
ENDROOT
BRANCH   1   2
HETATM    2  C11 UNL     1      22.833  33.896  21.591  1.00  0.00     0.064 C 
BRANCH   2   3
HETATM    3  C10 UNL     1      23.329  32.566  21.947  1.00  0.00     0.052 A 
HETATM    4  C8  UNL     1      24.502  32.273  22.677  1.00  0.00     0.073 A 
HETATM    5  N3  UNL     1      24.636  30.941  22.712  1.00  0.00    -0.191 N 
HETATM    6  C7  UNL     1      23.625  30.361  22.057  1.00  0.00     0.685 A 
ATOM      7  H3  UNL     1      25.399  30.442  23.171  1.00  0.00     0.184 HD
HETATM    8  N6  UNL     1      22.836  31.364  21.600  1.00  0.00    -0.193 N 
ATOM      9  H6  UNL     1      21.980  31.225  21.064  1.00  0.00     0.184 HD
BRANCH   4  10
HETATM   10  C9  UNL     1      25.410  33.261  23.313  1.00  0.00     0.223 C 
BRANCH  10  11
HETATM   11  O1  UNL     1      25.892  32.689  24.510  1.00  0.00    -0.395 OA
ATOM     12  H1  UNL     1      26.787  32.983  24.629  1.00  0.00     0.209 HD
ENDBRANCH  10  11
ENDBRANCH   4  10
BRANCH   6  13
HETATM   13  N2  UNL     1      23.441  29.109  21.754  1.00  0.00    -0.168 N 
ATOM     14  H2  UNL     1      24.194  28.428  21.850  1.00  0.00     0.186 HD
BRANCH  13  15
HETATM   15  C4  UNL     1      22.126  28.713  21.275  1.00  0.00     0.163 C 
BRANCH  15  16
HETATM   16  C3  UNL     1      21.826  28.497  19.816  1.00  0.00     0.092 C 
BRANCH  16  17
HETATM   17  C2  UNL     1      20.743  29.526  19.457  1.00  0.00     0.004 C 
HETATM   18  C1  UNL     1      21.128  30.412  18.304  1.00  0.00     0.005 C 
ENDBRANCH  16  17
ENDBRANCH  15  16
BRANCH  15  19
HETATM   19  N1  UNL     1      21.240  28.535  22.081  1.00  0.00    -0.435 NA
BRANCH  19  20
HETATM   20  C5  UNL     1      20.267  28.315  22.953  1.00  0.00     0.215 C 
HETATM   21  C6  UNL     1      19.399  27.127  22.488  1.00  0.00     0.041 C 
ENDBRANCH  19  20
ENDBRANCH  15  19
ENDBRANCH  13  15
ENDBRANCH   6  13
ENDBRANCH   2   3
ENDBRANCH   1   2
BRANCH   1  22
HETATM   22  C13 UNL     1      21.737  33.987  19.412  1.00  0.00    -0.049 A 
HETATM   23  C14 UNL     1      22.966  33.584  18.923  1.00  0.00     0.025 A 
HETATM   24  C15 UNL     1      23.198  33.449  17.572  1.00  0.00     0.092 A 
HETATM   25  N4  UNL     1      22.230  33.706  16.670  1.00  0.00    -0.355 N 
HETATM   26  C26 UNL     1      21.020  34.108  17.138  1.00  0.00     0.098 A 
HETATM   27  C27 UNL     1      20.748  34.256  18.503  1.00  0.00    -0.040 A 
HETATM   28  C28 UNL     1      19.413  34.708  18.913  1.00  0.00     0.050 C 
BRANCH  25  29
HETATM   29  C16 UNL     1      22.509  33.498  15.273  1.00  0.00     0.222 C 
BRANCH  29  30
HETATM   30  C17 UNL     1      22.509  32.097  14.881  1.00  0.00    -0.072 C 
HETATM   31  C18 UNL     1      22.501  30.907  14.602  1.00  0.00    -0.013 C 
BRANCH  31  32
HETATM   32  C19 UNL     1      22.474  29.519  14.334  1.00  0.00    -0.012 C 
HETATM   33  C20 UNL     1      22.467  28.320  14.134  1.00  0.00    -0.061 C 
BRANCH  33  34
HETATM   34  C21 UNL     1      22.466  26.850  13.935  1.00  0.00     0.090 C 
HETATM   35  C22 UNL     1      23.018  26.193  15.181  1.00  0.00     0.053 C 
HETATM   36  C23 UNL     1      23.377  26.464  12.791  1.00  0.00     0.053 C 
BRANCH  34  37
HETATM   37  N5  UNL     1      21.140  26.376  13.621  1.00  0.00    -0.342 N 
HETATM   38  C24 UNL     1      20.475  26.878  12.483  1.00  0.00     0.214 C 
HETATM   39  C25 UNL     1      19.104  26.429  12.098  1.00  0.00     0.117 C 
HETATM   40  O2  UNL     1      21.012  27.731  11.741  1.00  0.00    -0.274 OA
ATOM     41  H5  UNL     1      20.687  25.683  14.217  1.00  0.00     0.164 HD
ENDBRANCH  34  37
ENDBRANCH  33  34
ENDBRANCH  31  32
ENDBRANCH  29  30
ENDBRANCH  25  29
ENDBRANCH   1  22
TORSDOF 16
ENDMDL
MODEL 3
REMARK VINA RESULT: -7.694868581      1.324      2.041
REMARK  16 active torsions:
REMARK  status: ('A' for Active; 'I' for Inactive)
REMARK    1  A    between atoms: C2_2  and  C3_3 
REMARK    2  A    between atoms: C3_3  and  C4_4 
REMARK    3  A    between atoms: C4_4  and  N1_5 
REMARK    4  A    between atoms: C4_4  and  N2_8 
REMARK    5  A    between atoms: N1_5  and  C5_6 
REMARK    6  A    between atoms: N2_8  and  C7_10 
REMARK    7  A    between atoms: C8_13  and  C9_14 
REMARK    8  A    between atoms: C9_14  and  O1_15 
REMARK    9  A    between atoms: C10_17  and  C11_18 
REMARK   10  A    between atoms: C11_18  and  C12_19 
REMARK   11  A    between atoms: C12_19  and  C13_20 
REMARK   12  A    between atoms: N4_23  and  C16_24 
REMARK   13  A    between atoms: C16_24  and  C17_25 
REMARK   14  A    between atoms: C18_26  and  C19_27 
REMARK   15  A    between atoms: C20_28  and  C21_29 
REMARK   16  A    between atoms: C21_29  and  N5_32 
REMARK       I    between atoms: N5_32  and  C24_34 
ROOT
HETATM    1  C12 UNL     1      21.413  30.448  20.038  1.00  0.00     0.045 C 
ENDROOT
BRANCH   1   2
HETATM    2  C11 UNL     1      20.755  29.285  19.377  1.00  0.00     0.064 C 
BRANCH   2   3
HETATM    3  C10 UNL     1      20.398  28.112  20.177  1.00  0.00     0.052 A 
HETATM    4  C8  UNL     1      20.796  26.778  19.939  1.00  0.00     0.073 A 
HETATM    5  N3  UNL     1      20.189  26.005  20.848  1.00  0.00    -0.191 N 
HETATM    6  C7  UNL     1      19.432  26.755  21.655  1.00  0.00     0.685 A 
ATOM      7  H3  UNL     1      20.288  24.992  20.914  1.00  0.00     0.184 HD
HETATM    8  N6  UNL     1      19.573  28.036  21.236  1.00  0.00    -0.193 N 
ATOM      9  H6  UNL     1      19.114  28.838  21.667  1.00  0.00     0.184 HD
BRANCH   4  10
HETATM   10  C9  UNL     1      21.738  26.317  18.886  1.00  0.00     0.223 C 
BRANCH  10  11
HETATM   11  O1  UNL     1      21.576  24.922  18.751  1.00  0.00    -0.395 OA
ATOM     12  H1  UNL     1      21.645  24.713  17.827  1.00  0.00     0.209 HD
ENDBRANCH  10  11
ENDBRANCH   4  10
BRANCH   6  13
HETATM   13  N2  UNL     1      18.594  26.393  22.583  1.00  0.00    -0.168 N 
ATOM     14  H2  UNL     1      17.975  25.593  22.450  1.00  0.00     0.186 HD
BRANCH  13  15
HETATM   15  C4  UNL     1      18.570  27.165  23.815  1.00  0.00     0.163 C 
BRANCH  15  16
HETATM   16  C3  UNL     1      17.325  27.329  24.644  1.00  0.00     0.092 C 
BRANCH  16  17
HETATM   17  C2  UNL     1      17.791  27.924  25.982  1.00  0.00     0.004 C 
HETATM   18  C1  UNL     1      16.671  28.537  26.779  1.00  0.00     0.005 C 
ENDBRANCH  16  17
ENDBRANCH  15  16
BRANCH  15  19
HETATM   19  N1  UNL     1      19.594  27.686  24.198  1.00  0.00    -0.435 NA
BRANCH  19  20
HETATM   20  C5  UNL     1      20.699  28.274  24.633  1.00  0.00     0.215 C 
HETATM   21  C6  UNL     1      21.937  27.612  23.994  1.00  0.00     0.041 C 
ENDBRANCH  19  20
ENDBRANCH  15  19
ENDBRANCH  13  15
ENDBRANCH   6  13
ENDBRANCH   2   3
ENDBRANCH   1   2
BRANCH   1  22
HETATM   22  C13 UNL     1      20.744  31.721  19.513  1.00  0.00    -0.049 A 
HETATM   23  C14 UNL     1      19.754  31.623  18.553  1.00  0.00     0.025 A 
HETATM   24  C15 UNL     1      19.063  32.729  18.111  1.00  0.00     0.092 A 
HETATM   25  N4  UNL     1      19.327  33.957  18.600  1.00  0.00    -0.355 N 
HETATM   26  C26 UNL     1      20.301  34.067  19.539  1.00  0.00     0.098 A 
HETATM   27  C27 UNL     1      21.024  32.966  20.013  1.00  0.00    -0.040 A 
HETATM   28  C28 UNL     1      22.068  33.186  21.020  1.00  0.00     0.050 C 
BRANCH  25  29
HETATM   29  C16 UNL     1      18.539  35.071  18.142  1.00  0.00     0.222 C 
BRANCH  29  30
HETATM   30  C17 UNL     1      19.185  35.851  17.097  1.00  0.00    -0.072 C 
HETATM   31  C18 UNL     1      19.681  36.518  16.201  1.00  0.00    -0.013 C 
BRANCH  31  32
HETATM   32  C19 UNL     1      20.200  37.309  15.150  1.00  0.00    -0.012 C 
HETATM   33  C20 UNL     1      20.618  38.008  14.248  1.00  0.00    -0.061 C 
BRANCH  33  34
HETATM   34  C21 UNL     1      21.097  38.894  13.158  1.00  0.00     0.090 C 
HETATM   35  C22 UNL     1      22.117  38.138  12.335  1.00  0.00     0.053 C 
HETATM   36  C23 UNL     1      21.797  40.108  13.724  1.00  0.00     0.053 C 
BRANCH  34  37
HETATM   37  N5  UNL     1      19.994  39.356  12.352  1.00  0.00    -0.342 N 
HETATM   38  C24 UNL     1      19.131  40.350  12.861  1.00  0.00     0.214 C 
HETATM   39  C25 UNL     1      17.972  40.877  12.080  1.00  0.00     0.117 C 
HETATM   40  O2  UNL     1      19.302  40.835  14.003  1.00  0.00    -0.274 OA
ATOM     41  H5  UNL     1      19.839  38.969  11.421  1.00  0.00     0.164 HD
ENDBRANCH  34  37
ENDBRANCH  33  34
ENDBRANCH  31  32
ENDBRANCH  29  30
ENDBRANCH  25  29
ENDBRANCH   1  22
TORSDOF 16
ENDMDL
MODEL 4
REMARK VINA RESULT: -7.546541053      2.142      2.873
REMARK  16 active torsions:
REMARK  status: ('A' for Active; 'I' for Inactive)
REMARK    1  A    between atoms: C2_2  and  C3_3 
REMARK    2  A    between atoms: C3_3  and  C4_4 
REMARK    3  A    between atoms: C4_4  and  N1_5 
REMARK    4  A    between atoms: C4_4  and  N2_8 
REMARK    5  A    between atoms: N1_5  and  C5_6 
REMARK    6  A    between atoms: N2_8  and  C7_10 
REMARK    7  A    between atoms: C8_13  and  C9_14 
REMARK    8  A    between atoms: C9_14  and  O1_15 
REMARK    9  A    between atoms: C10_17  and  C11_18 
REMARK   10  A    between atoms: C11_18  and  C12_19 
REMARK   11  A    between atoms: C12_19  and  C13_20 
REMARK   12  A    between atoms: N4_23  and  C16_24 
REMARK   13  A    between atoms: C16_24  and  C17_25 
REMARK   14  A    between atoms: C18_26  and  C19_27 
REMARK   15  A    between atoms: C20_28  and  C21_29 
REMARK   16  A    between atoms: C21_29  and  N5_32 
REMARK       I    between atoms: N5_32  and  C24_34 
ROOT
HETATM    1  C12 UNL     1      20.257  30.231  19.410  1.00  0.00     0.045 C 
ENDROOT
BRANCH   1   2
HETATM    2  C11 UNL     1      20.942  28.911  19.523  1.00  0.00     0.064 C 
BRANCH   2   3
HETATM    3  C10 UNL     1      20.460  27.933  20.498  1.00  0.00     0.052 A 
HETATM    4  C8  UNL     1      20.322  26.542  20.297  1.00  0.00     0.073 A 
HETATM    5  N3  UNL     1      19.773  26.024  21.404  1.00  0.00    -0.191 N 
HETATM    6  C7  UNL     1      19.556  26.990  22.303  1.00  0.00     0.685 A 
ATOM      7  H3  UNL     1      19.553  25.037  21.541  1.00  0.00     0.184 HD
HETATM    8  N6  UNL     1      19.983  28.146  21.738  1.00  0.00    -0.193 N 
ATOM      9  H6  UNL     1      19.947  29.058  22.192  1.00  0.00     0.184 HD
BRANCH   4  10
HETATM   10  C9  UNL     1      20.733  25.784  19.087  1.00  0.00     0.223 C 
BRANCH  10  11
HETATM   11  O1  UNL     1      20.381  24.433  19.290  1.00  0.00    -0.395 OA
ATOM     12  H1  UNL     1      20.812  24.140  20.084  1.00  0.00     0.209 HD
ENDBRANCH  10  11
ENDBRANCH   4  10
BRANCH   6  13
HETATM   13  N2  UNL     1      18.937  26.937  23.446  1.00  0.00    -0.168 N 
ATOM     14  H2  UNL     1      17.993  26.558  23.517  1.00  0.00     0.186 HD
BRANCH  13  15
HETATM   15  C4  UNL     1      19.637  27.435  24.620  1.00  0.00     0.163 C 
BRANCH  15  16
HETATM   16  C3  UNL     1      18.918  28.023  25.804  1.00  0.00     0.092 C 
BRANCH  16  17
HETATM   17  C2  UNL     1      17.443  27.628  25.634  1.00  0.00     0.004 C 
HETATM   18  C1  UNL     1      16.521  28.366  26.566  1.00  0.00     0.005 C 
ENDBRANCH  16  17
ENDBRANCH  15  16
BRANCH  15  19
HETATM   19  N1  UNL     1      20.845  27.363  24.654  1.00  0.00    -0.435 NA
BRANCH  19  20
HETATM   20  C5  UNL     1      22.167  27.288  24.719  1.00  0.00     0.215 C 
HETATM   21  C6  UNL     1      22.799  28.536  24.069  1.00  0.00     0.041 C 
ENDBRANCH  19  20
ENDBRANCH  15  19
ENDBRANCH  13  15
ENDBRANCH   6  13
ENDBRANCH   2   3
ENDBRANCH   1   2
BRANCH   1  22
HETATM   22  C13 UNL     1      20.930  31.010  18.278  1.00  0.00    -0.049 A 
HETATM   23  C14 UNL     1      22.136  30.566  17.770  1.00  0.00     0.025 A 
HETATM   24  C15 UNL     1      22.739  31.181  16.695  1.00  0.00     0.092 A 
HETATM   25  N4  UNL     1      22.172  32.247  16.094  1.00  0.00    -0.355 N 
HETATM   26  C26 UNL     1      20.990  32.695  16.588  1.00  0.00     0.098 A 
HETATM   27  C27 UNL     1      20.347  32.096  17.677  1.00  0.00    -0.040 A 
HETATM   28  C28 UNL     1      19.077  32.660  18.147  1.00  0.00     0.050 C 
BRANCH  25  29
HETATM   29  C16 UNL     1      22.819  32.819  14.942  1.00  0.00     0.222 C 
BRANCH  29  30
HETATM   30  C17 UNL     1      22.888  34.272  14.976  1.00  0.00    -0.072 C 
HETATM   31  C18 UNL     1      22.896  35.494  14.991  1.00  0.00    -0.013 C 
BRANCH  31  32
HETATM   32  C19 UNL     1      22.847  36.907  15.005  1.00  0.00    -0.012 C 
HETATM   33  C20 UNL     1      22.807  38.121  14.983  1.00  0.00    -0.061 C 
BRANCH  33  34
HETATM   34  C21 UNL     1      22.748  39.602  14.911  1.00  0.00     0.090 C 
HETATM   35  C22 UNL     1      22.698  40.014  13.455  1.00  0.00     0.053 C 
HETATM   36  C23 UNL     1      23.997  40.217  15.501  1.00  0.00     0.053 C 
BRANCH  34  37
HETATM   37  N5  UNL     1      21.617  40.107  15.650  1.00  0.00    -0.342 N 
HETATM   38  C24 UNL     1      20.311  39.771  15.235  1.00  0.00     0.214 C 
HETATM   39  C25 UNL     1      19.096  40.256  15.955  1.00  0.00     0.117 C 
HETATM   40  O2  UNL     1      20.115  39.045  14.235  1.00  0.00    -0.274 OA
ATOM     41  H5  UNL     1      21.760  40.703  16.466  1.00  0.00     0.164 HD
ENDBRANCH  34  37
ENDBRANCH  33  34
ENDBRANCH  31  32
ENDBRANCH  29  30
ENDBRANCH  25  29
ENDBRANCH   1  22
TORSDOF 16
ENDMDL
MODEL 5
REMARK VINA RESULT: -7.535289177      4.437      7.400
REMARK  16 active torsions:
REMARK  status: ('A' for Active; 'I' for Inactive)
REMARK    1  A    between atoms: C2_2  and  C3_3 
REMARK    2  A    between atoms: C3_3  and  C4_4 
REMARK    3  A    between atoms: C4_4  and  N1_5 
REMARK    4  A    between atoms: C4_4  and  N2_8 
REMARK    5  A    between atoms: N1_5  and  C5_6 
REMARK    6  A    between atoms: N2_8  and  C7_10 
REMARK    7  A    between atoms: C8_13  and  C9_14 
REMARK    8  A    between atoms: C9_14  and  O1_15 
REMARK    9  A    between atoms: C10_17  and  C11_18 
REMARK   10  A    between atoms: C11_18  and  C12_19 
REMARK   11  A    between atoms: C12_19  and  C13_20 
REMARK   12  A    between atoms: N4_23  and  C16_24 
REMARK   13  A    between atoms: C16_24  and  C17_25 
REMARK   14  A    between atoms: C18_26  and  C19_27 
REMARK   15  A    between atoms: C20_28  and  C21_29 
REMARK   16  A    between atoms: C21_29  and  N5_32 
REMARK       I    between atoms: N5_32  and  C24_34 
ROOT
HETATM    1  C12 UNL     1      21.577  34.070  20.933  1.00  0.00     0.045 C 
ENDROOT
BRANCH   1   2
HETATM    2  C11 UNL     1      22.890  33.795  21.584  1.00  0.00     0.064 C 
BRANCH   2   3
HETATM    3  C10 UNL     1      23.248  32.418  21.924  1.00  0.00     0.052 A 
HETATM    4  C8  UNL     1      24.475  31.977  22.468  1.00  0.00     0.073 A 
HETATM    5  N3  UNL     1      24.425  30.641  22.551  1.00  0.00    -0.191 N 
HETATM    6  C7  UNL     1      23.247  30.197  22.101  1.00  0.00     0.685 A 
ATOM      7  H3  UNL     1      25.177  30.049  22.905  1.00  0.00     0.184 HD
HETATM    8  N6  UNL     1      22.540  31.291  21.727  1.00  0.00    -0.193 N 
ATOM      9  H6  UNL     1      21.595  31.264  21.345  1.00  0.00     0.184 HD
BRANCH   4  10
HETATM   10  C9  UNL     1      25.607  32.839  22.894  1.00  0.00     0.223 C 
BRANCH  10  11
HETATM   11  O1  UNL     1      25.432  33.126  24.265  1.00  0.00    -0.395 OA
ATOM     12  H1  UNL     1      25.731  32.371  24.757  1.00  0.00     0.209 HD
ENDBRANCH  10  11
ENDBRANCH   4  10
BRANCH   6  13
HETATM   13  N2  UNL     1      22.841  28.977  21.899  1.00  0.00    -0.168 N 
ATOM     14  H2  UNL     1      23.220  28.200  22.440  1.00  0.00     0.186 HD
BRANCH  13  15
HETATM   15  C4  UNL     1      21.829  28.759  20.877  1.00  0.00     0.163 C 
BRANCH  15  16
HETATM   16  C3  UNL     1      20.541  28.033  21.154  1.00  0.00     0.092 C 
BRANCH  16  17
HETATM   17  C2  UNL     1      20.291  28.186  22.662  1.00  0.00     0.004 C 
HETATM   18  C1  UNL     1      19.923  26.892  23.335  1.00  0.00     0.005 C 
ENDBRANCH  16  17
ENDBRANCH  15  16
BRANCH  15  19
HETATM   19  N1  UNL     1      22.024  29.190  19.762  1.00  0.00    -0.435 NA
BRANCH  19  20
HETATM   20  C5  UNL     1      22.212  29.648  18.533  1.00  0.00     0.215 C 
HETATM   21  C6  UNL     1      21.031  30.549  18.118  1.00  0.00     0.041 C 
ENDBRANCH  19  20
ENDBRANCH  15  19
ENDBRANCH  13  15
ENDBRANCH   6  13
ENDBRANCH   2   3
ENDBRANCH   1   2
BRANCH   1  22
HETATM   22  C13 UNL     1      21.789  34.024  19.418  1.00  0.00    -0.049 A 
HETATM   23  C14 UNL     1      23.011  33.618  18.914  1.00  0.00     0.025 A 
HETATM   24  C15 UNL     1      23.225  33.477  17.561  1.00  0.00     0.092 A 
HETATM   25  N4  UNL     1      22.246  33.732  16.671  1.00  0.00    -0.355 N 
HETATM   26  C26 UNL     1      21.044  34.137  17.153  1.00  0.00     0.098 A 
HETATM   27  C27 UNL     1      20.789  34.291  18.521  1.00  0.00    -0.040 A 
HETATM   28  C28 UNL     1      19.460  34.746  18.945  1.00  0.00     0.050 C 
BRANCH  25  29
HETATM   29  C16 UNL     1      22.508  33.519  15.271  1.00  0.00     0.222 C 
BRANCH  29  30
HETATM   30  C17 UNL     1      22.486  32.117  14.882  1.00  0.00    -0.072 C 
HETATM   31  C18 UNL     1      22.481  30.927  14.604  1.00  0.00    -0.013 C 
BRANCH  31  32
HETATM   32  C19 UNL     1      22.479  29.538  14.339  1.00  0.00    -0.012 C 
HETATM   33  C20 UNL     1      22.482  28.338  14.147  1.00  0.00    -0.061 C 
BRANCH  33  34
HETATM   34  C21 UNL     1      22.478  26.866  13.955  1.00  0.00     0.090 C 
HETATM   35  C22 UNL     1      23.028  26.215  15.206  1.00  0.00     0.053 C 
HETATM   36  C23 UNL     1      23.389  26.472  12.815  1.00  0.00     0.053 C 
BRANCH  34  37
HETATM   37  N5  UNL     1      21.151  26.393  13.644  1.00  0.00    -0.342 N 
HETATM   38  C24 UNL     1      20.492  26.882  12.495  1.00  0.00     0.214 C 
HETATM   39  C25 UNL     1      19.121  26.434  12.112  1.00  0.00     0.117 C 
HETATM   40  O2  UNL     1      21.036  27.722  11.744  1.00  0.00    -0.274 OA
ATOM     41  H5  UNL     1      20.693  25.711  14.248  1.00  0.00     0.164 HD
ENDBRANCH  34  37
ENDBRANCH  33  34
ENDBRANCH  31  32
ENDBRANCH  29  30
ENDBRANCH  25  29
ENDBRANCH   1  22
TORSDOF 16
ENDMDL
