MODEL 1
REMARK VINA RESULT: -8.863971524      0.000      0.000
REMARK  13 active torsions:
REMARK  status: ('A' for Active; 'I' for Inactive)
REMARK    1  A    between atoms: C2_2  and  C3_3 
REMARK    2  A    between atoms: C3_3  and  C4_4 
REMARK    3  A    between atoms: C7_7  and  C8_8 
REMARK    4  A    between atoms: C8_8  and  C9_9 
REMARK    5  A    between atoms: C9_9  and  C10_10 
REMARK    6  A    between atoms: C10_10  and  C11_11 
REMARK    7  A    between atoms: C19_19  and  C20_20 
REMARK    8  A    between atoms: C21_21  and  C23_23 
REMARK    9  A    between atoms: C23_23  and  O1_24 
REMARK   10  A    between atoms: C24_26  and  C25_27 
REMARK   11  A    between atoms: C25_27  and  C26_28 
REMARK   12  A    between atoms: C26_28  and  C27_29 
REMARK       I    between atoms: C27_29  and  N1_31 
REMARK   13  A    between atoms: C29_37  and  O3_38 
ROOT
HETATM    1  C4  UNL     1      24.515  30.265  22.809  1.00  0.00     0.047 A 
HETATM    2  C5  UNL     1      23.933  30.812  21.681  1.00  0.00    -0.028 A 
HETATM    3  C6  UNL     1      24.621  31.835  20.895  1.00  0.00     0.051 C 
HETATM    4  C7  UNL     1      22.708  30.322  21.207  1.00  0.00    -0.037 A 
HETATM    5  C19 UNL     1      22.126  29.301  21.891  1.00  0.00    -0.002 A 
HETATM    6  C24 UNL     1      22.722  28.731  23.046  1.00  0.00     0.052 A 
HETATM    7  N4  UNL     1      23.901  29.205  23.490  1.00  0.00    -0.301 N 
HETATM    8  C29 UNL     1      24.570  28.573  24.348  1.00  0.00     0.231 C 
ENDROOT
BRANCH   4   9
HETATM    9  C8  UNL     1      22.098  30.885  19.991  1.00  0.00     0.040 C 
BRANCH   9  10
HETATM   10  C9  UNL     1      20.989  31.833  20.304  1.00  0.00     0.009 C 
BRANCH  10  11
HETATM   11  C10 UNL     1      21.417  33.279  20.398  1.00  0.00     0.039 C 
BRANCH  11  12
HETATM   12  C11 UNL     1      20.973  33.996  19.194  1.00  0.00    -0.057 A 
HETATM   13  C12 UNL     1      21.863  34.154  18.155  1.00  0.00     0.013 A 
HETATM   14  C13 UNL     1      21.447  34.823  17.034  1.00  0.00    -0.061 A 
HETATM   15  C14 UNL     1      22.390  35.000  15.912  1.00  0.00     0.048 C 
HETATM   16  C15 UNL     1      20.158  35.318  16.973  1.00  0.00     0.013 A 
HETATM   17  C16 UNL     1      19.276  35.155  18.017  1.00  0.00    -0.061 A 
HETATM   18  C17 UNL     1      17.886  35.706  17.915  1.00  0.00     0.048 C 
HETATM   19  C18 UNL     1      19.682  34.482  19.155  1.00  0.00     0.013 A 
ENDBRANCH  11  12
ENDBRANCH  10  11
ENDBRANCH   9  10
ENDBRANCH   4   9
BRANCH   5  20
HETATM   20  C20 UNL     1      20.915  28.731  21.371  1.00  0.00     0.019 C 
HETATM   21  C21 UNL     1      20.665  27.834  20.478  1.00  0.00    -0.060 C 
HETATM   22  C22 UNL     1      21.683  27.103  19.705  1.00  0.00     0.045 C 
BRANCH  21  23
HETATM   23  C23 UNL     1      19.238  27.436  20.131  1.00  0.00     0.198 C 
BRANCH  23  24
HETATM   24  O1  UNL     1      18.839  26.349  20.890  1.00  0.00    -0.397 OA
ATOM     25  H1  UNL     1      19.217  25.547  20.549  1.00  0.00     0.209 HD
ENDBRANCH  23  24
ENDBRANCH  21  23
ENDBRANCH   5  20
BRANCH   1  26
HETATM   26  C3  UNL     1      25.570  30.766  23.389  1.00  0.00     0.030 C 
BRANCH  26  27
HETATM   27  C2  UNL     1      25.896  32.031  23.925  1.00  0.00    -0.008 C 
HETATM   28  C1  UNL     1      27.175  32.492  23.734  1.00  0.00     0.011 C 
ENDBRANCH  26  27
ENDBRANCH   1  26
BRANCH   6  29
HETATM   29  C25 UNL     1      22.023  27.622  23.636  1.00  0.00     0.036 C 
BRANCH  29  30
HETATM   30  C26 UNL     1      21.285  27.458  24.674  1.00  0.00     0.077 C 
BRANCH  30  31
HETATM   31  C27 UNL     1      19.841  27.832  24.613  1.00  0.00     0.247 C 
HETATM   32  O2  UNL     1      19.104  27.376  23.702  1.00  0.00    -0.268 OA
HETATM   33  N1  UNL     1      19.279  28.694  25.565  1.00  0.00    -0.300 N 
HETATM   34  C28 UNL     1      18.206  28.429  26.220  1.00  0.00     0.203 C 
ATOM     35  H1  UNL     1      19.749  29.582  25.747  1.00  0.00     0.171 HD
HETATM   36  N2  UNL     1      17.706  29.352  27.163  1.00  0.00    -0.066 NA
HETATM   37  N3  UNL     1      17.543  27.199  25.976  1.00  0.00    -0.066 NA
ENDBRANCH  30  31
ENDBRANCH  29  30
ENDBRANCH   6  29
BRANCH   8  38
HETATM   38  O3  UNL     1      25.849  28.637  24.851  1.00  0.00    -0.356 OA
ATOM     39  H3  UNL     1      26.725  28.694  24.489  1.00  0.00     0.218 HD
ENDBRANCH   8  38
TORSDOF 13
ENDMDL
MODEL 2
REMARK VINA RESULT: -8.653647476      1.931      2.862
REMARK  13 active torsions:
REMARK  status: ('A' for Active; 'I' for Inactive)
REMARK    1  A    between atoms: C2_2  and  C3_3 
REMARK    2  A    between atoms: C3_3  and  C4_4 
REMARK    3  A    between atoms: C7_7  and  C8_8 
REMARK    4  A    between atoms: C8_8  and  C9_9 
REMARK    5  A    between atoms: C9_9  and  C10_10 
REMARK    6  A    between atoms: C10_10  and  C11_11 
REMARK    7  A    between atoms: C19_19  and  C20_20 
REMARK    8  A    between atoms: C21_21  and  C23_23 
REMARK    9  A    between atoms: C23_23  and  O1_24 
REMARK   10  A    between atoms: C24_26  and  C25_27 
REMARK   11  A    between atoms: C25_27  and  C26_28 
REMARK   12  A    between atoms: C26_28  and  C27_29 
REMARK       I    between atoms: C27_29  and  N1_31 
REMARK   13  A    between atoms: C29_37  and  O3_38 
ROOT
HETATM    1  C4  UNL     1      24.554  31.474  20.482  1.00  0.00     0.047 A 
HETATM    2  C5  UNL     1      24.140  31.185  19.195  1.00  0.00    -0.028 A 
HETATM    3  C6  UNL     1      24.568  32.002  18.062  1.00  0.00     0.051 C 
HETATM    4  C7  UNL     1      23.380  30.035  18.937  1.00  0.00    -0.037 A 
HETATM    5  C19 UNL     1      23.074  29.227  19.987  1.00  0.00    -0.002 A 
HETATM    6  C24 UNL     1      23.501  29.517  21.309  1.00  0.00     0.052 A 
HETATM    7  N4  UNL     1      24.234  30.619  21.547  1.00  0.00    -0.301 N 
HETATM    8  C29 UNL     1      24.831  30.775  22.643  1.00  0.00     0.231 C 
ENDROOT
BRANCH   4   9
HETATM    9  C8  UNL     1      22.961  29.710  17.563  1.00  0.00     0.040 C 
BRANCH   9  10
HETATM   10  C9  UNL     1      22.029  30.732  17.002  1.00  0.00     0.009 C 
BRANCH  10  11
HETATM   11  C10 UNL     1      20.691  30.801  17.701  1.00  0.00     0.039 C 
BRANCH  11  12
HETATM   12  C11 UNL     1      20.512  32.142  18.276  1.00  0.00    -0.057 A 
HETATM   13  C12 UNL     1      20.990  32.385  19.544  1.00  0.00     0.013 A 
HETATM   14  C13 UNL     1      20.822  33.636  20.077  1.00  0.00    -0.061 A 
HETATM   15  C14 UNL     1      21.329  33.911  21.437  1.00  0.00     0.048 C 
HETATM   16  C15 UNL     1      20.184  34.614  19.338  1.00  0.00     0.013 A 
HETATM   17  C16 UNL     1      19.710  34.361  18.070  1.00  0.00    -0.061 A 
HETATM   18  C17 UNL     1      19.024  35.447  17.298  1.00  0.00     0.048 C 
HETATM   19  C18 UNL     1      19.873  33.104  17.519  1.00  0.00     0.013 A 
ENDBRANCH  11  12
ENDBRANCH  10  11
ENDBRANCH   9  10
ENDBRANCH   4   9
BRANCH   5  20
HETATM   20  C20 UNL     1      22.370  28.004  19.727  1.00  0.00     0.019 C 
HETATM   21  C21 UNL     1      21.128  27.658  19.801  1.00  0.00    -0.060 C 
HETATM   22  C22 UNL     1      20.026  28.545  20.210  1.00  0.00     0.045 C 
BRANCH  21  23
HETATM   23  C23 UNL     1      20.676  26.246  19.458  1.00  0.00     0.198 C 
BRANCH  23  24
HETATM   24  O1  UNL     1      19.960  25.697  20.507  1.00  0.00    -0.397 OA
ATOM     25  H1  UNL     1      19.190  26.221  20.696  1.00  0.00     0.209 HD
ENDBRANCH  23  24
ENDBRANCH  21  23
ENDBRANCH   5  20
BRANCH   1  26
HETATM   26  C3  UNL     1      25.129  32.594  20.818  1.00  0.00     0.030 C 
BRANCH  26  27
HETATM   27  C2  UNL     1      24.786  33.958  20.696  1.00  0.00    -0.008 C 
HETATM   28  C1  UNL     1      24.919  34.751  21.808  1.00  0.00     0.011 C 
ENDBRANCH  26  27
ENDBRANCH   1  26
BRANCH   6  29
HETATM   29  C25 UNL     1      23.151  28.547  22.312  1.00  0.00     0.036 C 
BRANCH  29  30
HETATM   30  C26 UNL     1      22.624  28.596  23.481  1.00  0.00     0.077 C 
BRANCH  30  31
HETATM   31  C27 UNL     1      21.772  27.462  23.950  1.00  0.00     0.247 C 
HETATM   32  O2  UNL     1      22.046  26.861  25.020  1.00  0.00    -0.268 OA
HETATM   33  N1  UNL     1      20.656  27.046  23.210  1.00  0.00    -0.300 N 
HETATM   34  C28 UNL     1      19.486  26.889  23.716  1.00  0.00     0.203 C 
ATOM     35  H1  UNL     1      20.781  26.857  22.215  1.00  0.00     0.171 HD
HETATM   36  N2  UNL     1      18.413  26.467  22.901  1.00  0.00    -0.066 NA
HETATM   37  N3  UNL     1      19.298  27.148  25.098  1.00  0.00    -0.066 NA
ENDBRANCH  30  31
ENDBRANCH  29  30
ENDBRANCH   6  29
BRANCH   8  38
HETATM   38  O3  UNL     1      25.794  31.626  23.135  1.00  0.00    -0.356 OA
ATOM     39  H3  UNL     1      26.742  31.621  23.203  1.00  0.00     0.218 HD
ENDBRANCH   8  38
TORSDOF 13
ENDMDL
MODEL 3
REMARK VINA RESULT: -8.444942897      3.434      5.862
REMARK  13 active torsions:
REMARK  status: ('A' for Active; 'I' for Inactive)
REMARK    1  A    between atoms: C2_2  and  C3_3 
REMARK    2  A    between atoms: C3_3  and  C4_4 
REMARK    3  A    between atoms: C7_7  and  C8_8 
REMARK    4  A    between atoms: C8_8  and  C9_9 
REMARK    5  A    between atoms: C9_9  and  C10_10 
REMARK    6  A    between atoms: C10_10  and  C11_11 
REMARK    7  A    between atoms: C19_19  and  C20_20 
REMARK    8  A    between atoms: C21_21  and  C23_23 
REMARK    9  A    between atoms: C23_23  and  O1_24 
REMARK   10  A    between atoms: C24_26  and  C25_27 
REMARK   11  A    between atoms: C25_27  and  C26_28 
REMARK   12  A    between atoms: C26_28  and  C27_29 
REMARK       I    between atoms: C27_29  and  N1_31 
REMARK   13  A    between atoms: C29_37  and  O3_38 
ROOT
HETATM    1  C4  UNL     1      22.191  30.533  15.967  1.00  0.00     0.047 A 
HETATM    2  C5  UNL     1      21.218  31.244  16.646  1.00  0.00    -0.028 A 
HETATM    3  C6  UNL     1      20.464  32.311  15.991  1.00  0.00     0.051 C 
HETATM    4  C7  UNL     1      20.863  30.885  17.954  1.00  0.00    -0.037 A 
HETATM    5  C19 UNL     1      21.502  29.825  18.518  1.00  0.00    -0.002 A 
HETATM    6  C24 UNL     1      22.497  29.089  17.823  1.00  0.00     0.052 A 
HETATM    7  N4  UNL     1      22.828  29.437  16.566  1.00  0.00    -0.301 N 
HETATM    8  C29 UNL     1      23.513  28.670  15.841  1.00  0.00     0.231 C 
ENDROOT
BRANCH   4   9
HETATM    9  C8  UNL     1      19.810  31.623  18.671  1.00  0.00     0.040 C 
BRANCH   9  10
HETATM   10  C9  UNL     1      20.370  32.560  19.689  1.00  0.00     0.009 C 
BRANCH  10  11
HETATM   11  C10 UNL     1      20.422  34.002  19.242  1.00  0.00     0.039 C 
BRANCH  11  12
HETATM   12  C11 UNL     1      21.702  34.255  18.564  1.00  0.00    -0.057 A 
HETATM   13  C12 UNL     1      22.866  33.865  19.187  1.00  0.00     0.013 A 
HETATM   14  C13 UNL     1      24.058  34.101  18.553  1.00  0.00    -0.061 A 
HETATM   15  C14 UNL     1      25.315  33.689  19.209  1.00  0.00     0.048 C 
HETATM   16  C15 UNL     1      24.062  34.718  17.316  1.00  0.00     0.013 A 
HETATM   17  C16 UNL     1      22.893  35.104  16.702  1.00  0.00    -0.061 A 
HETATM   18  C17 UNL     1      22.938  35.771  15.360  1.00  0.00     0.048 C 
HETATM   19  C18 UNL     1      21.684  34.872  17.329  1.00  0.00     0.013 A 
ENDBRANCH  11  12
ENDBRANCH  10  11
ENDBRANCH   9  10
ENDBRANCH   4   9
BRANCH   5  20
HETATM   20  C20 UNL     1      21.091  29.393  19.824  1.00  0.00     0.019 C 
HETATM   21  C21 UNL     1      21.580  29.549  21.008  1.00  0.00    -0.060 C 
HETATM   22  C22 UNL     1      22.809  30.297  21.324  1.00  0.00     0.045 C 
BRANCH  21  23
HETATM   23  C23 UNL     1      20.902  28.949  22.231  1.00  0.00     0.198 C 
BRANCH  23  24
HETATM   24  O1  UNL     1      21.180  27.596  22.326  1.00  0.00    -0.397 OA
ATOM     25  H1  UNL     1      20.593  27.178  22.945  1.00  0.00     0.209 HD
ENDBRANCH  23  24
ENDBRANCH  21  23
ENDBRANCH   5  20
BRANCH   1  26
HETATM   26  C3  UNL     1      22.675  30.900  14.814  1.00  0.00     0.030 C 
BRANCH  26  27
HETATM   27  C2  UNL     1      23.429  32.006  14.364  1.00  0.00    -0.008 C 
HETATM   28  C1  UNL     1      22.966  32.688  13.265  1.00  0.00     0.011 C 
ENDBRANCH  26  27
ENDBRANCH   1  26
BRANCH   6  29
HETATM   29  C25 UNL     1      23.049  27.960  18.520  1.00  0.00     0.036 C 
BRANCH  29  30
HETATM   30  C26 UNL     1      22.913  26.686  18.444  1.00  0.00     0.077 C 
BRANCH  30  31
HETATM   31  C27 UNL     1      21.540  26.098  18.393  1.00  0.00     0.247 C 
HETATM   32  O2  UNL     1      21.239  25.263  17.503  1.00  0.00    -0.268 OA
HETATM   33  N1  UNL     1      20.566  26.463  19.333  1.00  0.00    -0.300 N 
HETATM   34  C28 UNL     1      19.876  25.615  20.008  1.00  0.00     0.203 C 
ATOM     35  H1  UNL     1      20.395  27.456  19.489  1.00  0.00     0.171 HD
HETATM   36  N2  UNL     1      18.913  26.064  20.936  1.00  0.00    -0.066 NA
HETATM   37  N3  UNL     1      20.103  24.230  19.801  1.00  0.00    -0.066 NA
ENDBRANCH  30  31
ENDBRANCH  29  30
ENDBRANCH   6  29
BRANCH   8  38
HETATM   38  O3  UNL     1      23.843  28.600  14.507  1.00  0.00    -0.356 OA
ATOM     39  H3  UNL     1      23.781  27.946  13.820  1.00  0.00     0.218 HD
ENDBRANCH   8  38
TORSDOF 13
ENDMDL
MODEL 4
REMARK VINA RESULT: -8.415638357      0.738      1.665
REMARK  13 active torsions:
REMARK  status: ('A' for Active; 'I' for Inactive)
REMARK    1  A    between atoms: C2_2  and  C3_3 
REMARK    2  A    between atoms: C3_3  and  C4_4 
REMARK    3  A    between atoms: C7_7  and  C8_8 
REMARK    4  A    between atoms: C8_8  and  C9_9 
REMARK    5  A    between atoms: C9_9  and  C10_10 
REMARK    6  A    between atoms: C10_10  and  C11_11 
REMARK    7  A    between atoms: C19_19  and  C20_20 
REMARK    8  A    between atoms: C21_21  and  C23_23 
REMARK    9  A    between atoms: C23_23  and  O1_24 
REMARK   10  A    between atoms: C24_26  and  C25_27 
REMARK   11  A    between atoms: C25_27  and  C26_28 
REMARK   12  A    between atoms: C26_28  and  C27_29 
REMARK       I    between atoms: C27_29  and  N1_31 
REMARK   13  A    between atoms: C29_37  and  O3_38 
ROOT
HETATM    1  C4  UNL     1      24.393  30.000  23.073  1.00  0.00     0.047 A 
HETATM    2  C5  UNL     1      23.949  30.491  21.860  1.00  0.00    -0.028 A 
HETATM    3  C6  UNL     1      24.750  31.437  21.087  1.00  0.00     0.051 C 
HETATM    4  C7  UNL     1      22.759  30.010  21.295  1.00  0.00    -0.037 A 
HETATM    5  C19 UNL     1      22.073  29.054  21.977  1.00  0.00    -0.002 A 
HETATM    6  C24 UNL     1      22.528  28.543  23.220  1.00  0.00     0.052 A 
HETATM    7  N4  UNL     1      23.673  29.007  23.752  1.00  0.00    -0.301 N 
HETATM    8  C29 UNL     1      24.228  28.412  24.712  1.00  0.00     0.231 C 
ENDROOT
BRANCH   4   9
HETATM    9  C8  UNL     1      22.296  30.511  19.989  1.00  0.00     0.040 C 
BRANCH   9  10
HETATM   10  C9  UNL     1      21.138  31.443  20.122  1.00  0.00     0.009 C 
BRANCH  10  11
HETATM   11  C10 UNL     1      20.199  31.436  18.939  1.00  0.00     0.039 C 
BRANCH  11  12
HETATM   12  C11 UNL     1      20.192  32.768  18.317  1.00  0.00    -0.057 A 
HETATM   13  C12 UNL     1      19.078  33.563  18.473  1.00  0.00     0.013 A 
HETATM   14  C13 UNL     1      19.074  34.804  17.892  1.00  0.00    -0.061 A 
HETATM   15  C14 UNL     1      17.887  35.667  18.051  1.00  0.00     0.048 C 
HETATM   16  C15 UNL     1      20.176  35.224  17.172  1.00  0.00     0.013 A 
HETATM   17  C16 UNL     1      21.284  34.422  17.021  1.00  0.00    -0.061 A 
HETATM   18  C17 UNL     1      22.461  34.912  16.232  1.00  0.00     0.048 C 
HETATM   19  C18 UNL     1      21.303  33.168  17.602  1.00  0.00     0.013 A 
ENDBRANCH  11  12
ENDBRANCH  10  11
ENDBRANCH   9  10
ENDBRANCH   4   9
BRANCH   5  20
HETATM   20  C20 UNL     1      20.899  28.491  21.372  1.00  0.00     0.019 C 
HETATM   21  C21 UNL     1      20.710  27.621  20.438  1.00  0.00    -0.060 C 
HETATM   22  C22 UNL     1      21.778  26.924  19.700  1.00  0.00     0.045 C 
BRANCH  21  23
HETATM   23  C23 UNL     1      19.309  27.221  19.998  1.00  0.00     0.198 C 
BRANCH  23  24
HETATM   24  O1  UNL     1      18.700  26.441  20.967  1.00  0.00    -0.397 OA
ATOM     25  H1  UNL     1      17.764  26.604  20.987  1.00  0.00     0.209 HD
ENDBRANCH  23  24
ENDBRANCH  21  23
ENDBRANCH   5  20
BRANCH   1  26
HETATM   26  C3  UNL     1      25.402  30.505  23.727  1.00  0.00     0.030 C 
BRANCH  26  27
HETATM   27  C2  UNL     1      26.705  30.916  23.371  1.00  0.00    -0.008 C 
HETATM   28  C1  UNL     1      27.621  29.938  23.070  1.00  0.00     0.011 C 
ENDBRANCH  26  27
ENDBRANCH   1  26
BRANCH   6  29
HETATM   29  C25 UNL     1      21.731  27.498  23.802  1.00  0.00     0.036 C 
BRANCH  29  30
HETATM   30  C26 UNL     1      20.968  27.399  24.830  1.00  0.00     0.077 C 
BRANCH  30  31
HETATM   31  C27 UNL     1      19.512  27.705  24.693  1.00  0.00     0.247 C 
HETATM   32  O2  UNL     1      18.846  27.215  23.745  1.00  0.00    -0.268 OA
HETATM   33  N1  UNL     1      18.861  28.539  25.613  1.00  0.00    -0.300 N 
HETATM   34  C28 UNL     1      17.770  28.222  26.212  1.00  0.00     0.203 C 
ATOM     35  H1  UNL     1      19.278  29.447  25.819  1.00  0.00     0.171 HD
HETATM   36  N2  UNL     1      17.178  29.120  27.126  1.00  0.00    -0.066 NA
HETATM   37  N3  UNL     1      17.179  26.963  25.935  1.00  0.00    -0.066 NA
ENDBRANCH  30  31
ENDBRANCH  29  30
ENDBRANCH   6  29
BRANCH   8  38
HETATM   38  O3  UNL     1      25.452  28.468  25.339  1.00  0.00    -0.356 OA
ATOM     39  H3  UNL     1      25.779  28.310  26.217  1.00  0.00     0.218 HD
ENDBRANCH   8  38
TORSDOF 13
ENDMDL
MODEL 5
REMARK VINA RESULT: -8.353088201      2.545      3.475
REMARK  13 active torsions:
REMARK  status: ('A' for Active; 'I' for Inactive)
REMARK    1  A    between atoms: C2_2  and  C3_3 
REMARK    2  A    between atoms: C3_3  and  C4_4 
REMARK    3  A    between atoms: C7_7  and  C8_8 
REMARK    4  A    between atoms: C8_8  and  C9_9 
REMARK    5  A    between atoms: C9_9  and  C10_10 
REMARK    6  A    between atoms: C10_10  and  C11_11 
REMARK    7  A    between atoms: C19_19  and  C20_20 
REMARK    8  A    between atoms: C21_21  and  C23_23 
REMARK    9  A    between atoms: C23_23  and  O1_24 
REMARK   10  A    between atoms: C24_26  and  C25_27 
REMARK   11  A    between atoms: C25_27  and  C26_28 
REMARK   12  A    between atoms: C26_28  and  C27_29 
REMARK       I    between atoms: C27_29  and  N1_31 
REMARK   13  A    between atoms: C29_37  and  O3_38 
ROOT
HETATM    1  C4  UNL     1      24.408  29.001  23.162  1.00  0.00     0.047 A 
HETATM    2  C5  UNL     1      24.749  29.954  22.220  1.00  0.00    -0.028 A 
HETATM    3  C6  UNL     1      26.144  30.325  21.989  1.00  0.00     0.051 C 
HETATM    4  C7  UNL     1      23.766  30.514  21.392  1.00  0.00    -0.037 A 
HETATM    5  C19 UNL     1      22.484  30.087  21.549  1.00  0.00    -0.002 A 
HETATM    6  C24 UNL     1      22.130  29.105  22.510  1.00  0.00     0.052 A 
HETATM    7  N4  UNL     1      23.081  28.569  23.297  1.00  0.00    -0.301 N 
HETATM    8  C29 UNL     1      22.852  27.535  23.977  1.00  0.00     0.231 C 
ENDROOT
BRANCH   4   9
HETATM    9  C8  UNL     1      24.130  31.510  20.370  1.00  0.00     0.040 C 
BRANCH   9  10
HETATM   10  C9  UNL     1      24.197  32.892  20.929  1.00  0.00     0.009 C 
BRANCH  10  11
HETATM   11  C10 UNL     1      22.849  33.516  21.205  1.00  0.00     0.039 C 
BRANCH  11  12
HETATM   12  C11 UNL     1      22.236  33.928  19.933  1.00  0.00    -0.057 A 
HETATM   13  C12 UNL     1      23.031  34.002  18.811  1.00  0.00     0.013 A 
HETATM   14  C13 UNL     1      22.457  34.386  17.627  1.00  0.00    -0.061 A 
HETATM   15  C14 UNL     1      23.297  34.470  16.416  1.00  0.00     0.048 C 
HETATM   16  C15 UNL     1      21.109  34.687  17.589  1.00  0.00     0.013 A 
HETATM   17  C16 UNL     1      20.323  34.611  18.716  1.00  0.00    -0.061 A 
HETATM   18  C17 UNL     1      18.864  34.945  18.635  1.00  0.00     0.048 C 
HETATM   19  C18 UNL     1      20.888  34.224  19.917  1.00  0.00     0.013 A 
ENDBRANCH  11  12
ENDBRANCH  10  11
ENDBRANCH   9  10
ENDBRANCH   4   9
BRANCH   5  20
HETATM   20  C20 UNL     1      21.481  30.587  20.653  1.00  0.00     0.019 C 
HETATM   21  C21 UNL     1      21.185  30.340  19.421  1.00  0.00    -0.060 C 
HETATM   22  C22 UNL     1      21.886  29.374  18.559  1.00  0.00     0.045 C 
BRANCH  21  23
HETATM   23  C23 UNL     1      20.038  31.056  18.722  1.00  0.00     0.198 C 
BRANCH  23  24
HETATM   24  O1  UNL     1      20.387  31.379  17.422  1.00  0.00    -0.397 OA
ATOM     25  H1  UNL     1      20.956  32.139  17.408  1.00  0.00     0.209 HD
ENDBRANCH  23  24
ENDBRANCH  21  23
ENDBRANCH   5  20
BRANCH   1  26
HETATM   26  C3  UNL     1      25.237  28.551  24.062  1.00  0.00     0.030 C 
BRANCH  26  27
HETATM   27  C2  UNL     1      25.958  29.138  25.125  1.00  0.00    -0.008 C 
HETATM   28  C1  UNL     1      27.255  28.731  25.316  1.00  0.00     0.011 C 
ENDBRANCH  26  27
ENDBRANCH   1  26
BRANCH   6  29
HETATM   29  C25 UNL     1      20.749  28.709  22.529  1.00  0.00     0.036 C 
BRANCH  29  30
HETATM   30  C26 UNL     1      20.122  27.588  22.517  1.00  0.00     0.077 C 
BRANCH  30  31
HETATM   31  C27 UNL     1      19.602  27.053  21.223  1.00  0.00     0.247 C 
HETATM   32  O2  UNL     1      19.239  27.838  20.311  1.00  0.00    -0.268 OA
HETATM   33  N1  UNL     1      19.509  25.672  21.001  1.00  0.00    -0.300 N 
HETATM   34  C28 UNL     1      19.985  25.084  19.962  1.00  0.00     0.203 C 
ATOM     35  H1  UNL     1      19.036  25.102  21.703  1.00  0.00     0.171 HD
HETATM   36  N2  UNL     1      19.849  23.688  19.814  1.00  0.00    -0.066 NA
HETATM   37  N3  UNL     1      20.644  25.865  18.978  1.00  0.00    -0.066 NA
ENDBRANCH  30  31
ENDBRANCH  29  30
ENDBRANCH   6  29
BRANCH   8  38
HETATM   38  O3  UNL     1      23.604  26.630  24.690  1.00  0.00    -0.356 OA
ATOM     39  H3  UNL     1      24.161  25.889  24.482  1.00  0.00     0.218 HD
ENDBRANCH   8  38
TORSDOF 13
ENDMDL
