MODEL 1
REMARK VINA RESULT: -8.650077247      0.000      0.000
REMARK  16 active torsions:
REMARK  status: ('A' for Active; 'I' for Inactive)
REMARK    1  A    between atoms: C2_2  and  C3_3 
REMARK    2  A    between atoms: C5_8  and  C6_9 
REMARK    3  A    between atoms: C6_9  and  C7_10 
REMARK    4  A    between atoms: C7_10  and  C8_11 
REMARK    5  A    between atoms: C8_11  and  N2_12 
REMARK       I    between atoms: N4_20  and  C10_21 
REMARK       I    between atoms: C10_21  and  N5_23 
REMARK    6  A    between atoms: N5_23  and  C11_25 
REMARK    7  A    between atoms: C11_25  and  C12_26 
REMARK    8  A    between atoms: C12_26  and  C13_27 
REMARK    9  A    between atoms: C13_27  and  C14_28 
REMARK   10  A    between atoms: C14_28  and  C15_29 
REMARK   11  A    between atoms: C15_29  and  C16_30 
REMARK   12  A    between atoms: C16_30  and  N6_31 
REMARK       I    between atoms: N6_31  and  C17_33 
REMARK   13  A    between atoms: C17_33  and  C18_35 
REMARK   14  A    between atoms: C18_35  and  C19_36 
REMARK   15  A    between atoms: C19_36  and  C20_37 
REMARK   16  A    between atoms: C20_37  and  C21_38 
ROOT
HETATM    1  C3  UNL     1       2.883  22.565   7.482  1.00  0.00     0.204 C 
HETATM    2  C4  UNL     1       1.893  22.684   8.547  1.00  0.00     0.243 C 
HETATM    3  O1  UNL     1       2.360  22.315   9.688  1.00  0.00    -0.271 OA
HETATM    4  N1  UNL     1       0.568  23.119   8.537  1.00  0.00    -0.346 N 
ATOM      5  H1  UNL     1       0.182  23.416   9.433  1.00  0.00     0.163 HD
HETATM    6  C5  UNL     1      -0.328  23.196   7.387  1.00  0.00     0.178 C 
HETATM    7  C9  UNL     1       0.281  24.076   6.357  1.00  0.00     0.259 C 
HETATM    8  O2  UNL     1      -0.297  25.110   5.984  1.00  0.00    -0.269 OA
HETATM    9  N3  UNL     1       1.536  23.852   5.706  1.00  0.00    -0.261 N 
ATOM     10  H3  UNL     1       1.596  24.097   4.717  1.00  0.00     0.190 HD
HETATM   11  N4  UNL     1       2.693  23.325   6.302  1.00  0.00    -0.226 N 
HETATM   12  C10 UNL     1       3.892  23.630   5.579  1.00  0.00     0.337 C 
HETATM   13  O3  UNL     1       3.741  24.298   4.490  1.00  0.00    -0.245 OA
HETATM   14  N5  UNL     1       5.194  23.268   5.951  1.00  0.00    -0.342 N 
ATOM     15  H5  UNL     1       5.358  22.739   6.807  1.00  0.00     0.164 HD
ENDROOT
BRANCH  14  16
HETATM   16  C11 UNL     1       6.306  23.653   5.104  1.00  0.00     0.124 C 
BRANCH  16  17
HETATM   17  C12 UNL     1       7.452  22.669   5.211  1.00  0.00     0.020 C 
BRANCH  17  18
HETATM   18  C13 UNL     1       8.710  23.407   4.856  1.00  0.00     0.002 C 
BRANCH  18  19
HETATM   19  C14 UNL     1       8.522  24.899   4.772  1.00  0.00     0.002 C 
BRANCH  19  20
HETATM   20  C15 UNL     1       9.309  25.511   3.639  1.00  0.00     0.020 C 
BRANCH  20  21
HETATM   21  C16 UNL     1       8.935  24.938   2.306  1.00  0.00     0.122 C 
BRANCH  21  22
HETATM   22  N6  UNL     1       9.625  25.591   1.216  1.00  0.00    -0.361 N 
HETATM   23  C17 UNL     1       9.911  24.868   0.033  1.00  0.00     0.217 C 
HETATM   24  O4  UNL     1       9.578  23.657  -0.099  1.00  0.00    -0.274 OA
ATOM     25  H6  UNL     1       9.905  26.568   1.300  1.00  0.00     0.162 HD
BRANCH  23  26
HETATM   26  C18 UNL     1      10.617  25.543  -1.080  1.00  0.00     0.103 C 
BRANCH  26  27
HETATM   27  C19 UNL     1      11.433  26.717  -0.562  1.00  0.00     0.010 C 
BRANCH  27  28
HETATM   28  C20 UNL     1      12.825  26.229  -0.215  1.00  0.00     0.009 C 
BRANCH  28  29
HETATM   29  C21 UNL     1      13.868  26.779  -1.131  1.00  0.00    -0.051 C 
HETATM   30  C22 UNL     1      13.712  28.280  -1.310  1.00  0.00     0.014 C 
HETATM   31  C23 UNL     1      13.644  26.132  -2.498  1.00  0.00     0.014 C 
HETATM   32  C24 UNL     1      15.239  26.468  -0.589  1.00  0.00     0.014 C 
ENDBRANCH  28  29
ENDBRANCH  27  28
ENDBRANCH  26  27
ENDBRANCH  23  26
ENDBRANCH  21  22
ENDBRANCH  20  21
ENDBRANCH  19  20
ENDBRANCH  18  19
ENDBRANCH  17  18
ENDBRANCH  16  17
ENDBRANCH  14  16
BRANCH   1  33
HETATM   33  C2  UNL     1       3.176  21.127   7.106  1.00  0.00     0.032 C 
HETATM   34  C1  UNL     1       1.979  20.220   7.273  1.00  0.00     0.007 C 
ENDBRANCH   1  33
BRANCH   6  35
HETATM   35  C6  UNL     1      -1.621  23.799   7.857  1.00  0.00     0.036 C 
BRANCH  35  36
HETATM   36  C7  UNL     1      -2.861  23.062   7.528  1.00  0.00     0.030 C 
BRANCH  36  37
HETATM   37  C8  UNL     1      -2.565  21.568   7.788  1.00  0.00     0.230 C 
BRANCH  37  38
HETATM   38  N2  UNL     1      -2.897  20.797   6.629  1.00  0.00    -0.079 N 
ATOM     39  H23 UNL     1      -3.533  20.030   6.849  1.00  0.00     0.274 HD
ATOM     40  H22 UNL     1      -3.501  21.310   5.987  1.00  0.00     0.274 HD
ATOM     41  H21 UNL     1      -2.045  20.470   6.174  1.00  0.00     0.274 HD
ENDBRANCH  37  38
ENDBRANCH  36  37
ENDBRANCH  35  36
ENDBRANCH   6  35
TORSDOF 16
ENDMDL
MODEL 2
REMARK VINA RESULT: -8.614669642      3.462      6.032
REMARK  16 active torsions:
REMARK  status: ('A' for Active; 'I' for Inactive)
REMARK    1  A    between atoms: C2_2  and  C3_3 
REMARK    2  A    between atoms: C5_8  and  C6_9 
REMARK    3  A    between atoms: C6_9  and  C7_10 
REMARK    4  A    between atoms: C7_10  and  C8_11 
REMARK    5  A    between atoms: C8_11  and  N2_12 
REMARK       I    between atoms: N4_20  and  C10_21 
REMARK       I    between atoms: C10_21  and  N5_23 
REMARK    6  A    between atoms: N5_23  and  C11_25 
REMARK    7  A    between atoms: C11_25  and  C12_26 
REMARK    8  A    between atoms: C12_26  and  C13_27 
REMARK    9  A    between atoms: C13_27  and  C14_28 
REMARK   10  A    between atoms: C14_28  and  C15_29 
REMARK   11  A    between atoms: C15_29  and  C16_30 
REMARK   12  A    between atoms: C16_30  and  N6_31 
REMARK       I    between atoms: N6_31  and  C17_33 
REMARK   13  A    between atoms: C17_33  and  C18_35 
REMARK   14  A    between atoms: C18_35  and  C19_36 
REMARK   15  A    between atoms: C19_36  and  C20_37 
REMARK   16  A    between atoms: C20_37  and  C21_38 
ROOT
HETATM    1  C3  UNL     1       2.832  22.520   7.498  1.00  0.00     0.204 C 
HETATM    2  C4  UNL     1       1.866  22.624   8.585  1.00  0.00     0.243 C 
HETATM    3  O1  UNL     1       2.364  22.253   9.713  1.00  0.00    -0.271 OA
HETATM    4  N1  UNL     1       0.536  23.044   8.609  1.00  0.00    -0.346 N 
ATOM      5  H1  UNL     1       0.168  23.332   9.515  1.00  0.00     0.163 HD
HETATM    6  C5  UNL     1      -0.386  23.117   7.480  1.00  0.00     0.178 C 
HETATM    7  C9  UNL     1       0.189  24.009   6.441  1.00  0.00     0.259 C 
HETATM    8  O2  UNL     1      -0.409  25.039   6.088  1.00  0.00    -0.269 OA
HETATM    9  N3  UNL     1       1.431  23.802   5.760  1.00  0.00    -0.261 N 
ATOM     10  H3  UNL     1       1.465  24.054   4.772  1.00  0.00     0.190 HD
HETATM   11  N4  UNL     1       2.607  23.285   6.326  1.00  0.00    -0.226 N 
HETATM   12  C10 UNL     1       3.785  23.607   5.577  1.00  0.00     0.337 C 
HETATM   13  O3  UNL     1       3.602  24.279   4.496  1.00  0.00    -0.245 OA
HETATM   14  N5  UNL     1       5.100  23.257   5.917  1.00  0.00    -0.342 N 
ATOM     15  H5  UNL     1       5.289  22.725   6.767  1.00  0.00     0.164 HD
ENDROOT
BRANCH  14  16
HETATM   16  C11 UNL     1       6.188  23.658   5.048  1.00  0.00     0.124 C 
BRANCH  16  17
HETATM   17  C12 UNL     1       7.489  22.995   5.444  1.00  0.00     0.020 C 
BRANCH  17  18
HETATM   18  C13 UNL     1       8.604  23.799   4.839  1.00  0.00     0.002 C 
BRANCH  18  19
HETATM   19  C14 UNL     1       8.310  25.275   4.781  1.00  0.00     0.002 C 
BRANCH  19  20
HETATM   20  C15 UNL     1       9.390  26.045   4.061  1.00  0.00     0.020 C 
BRANCH  20  21
HETATM   21  C16 UNL     1       9.382  27.502   4.408  1.00  0.00     0.122 C 
BRANCH  21  22
HETATM   22  N6  UNL     1       8.801  27.753   5.707  1.00  0.00    -0.361 N 
HETATM   23  C17 UNL     1       7.855  28.794   5.865  1.00  0.00     0.217 C 
HETATM   24  O4  UNL     1       7.499  29.518   4.892  1.00  0.00    -0.274 OA
ATOM     25  H6  UNL     1       9.073  27.183   6.508  1.00  0.00     0.162 HD
BRANCH  23  26
HETATM   26  C18 UNL     1       7.263  29.045   7.199  1.00  0.00     0.103 C 
BRANCH  26  27
HETATM   27  C19 UNL     1       8.316  28.903   8.286  1.00  0.00     0.010 C 
BRANCH  27  28
HETATM   28  C20 UNL     1       7.635  28.492   9.576  1.00  0.00     0.009 C 
BRANCH  28  29
HETATM   29  C21 UNL     1       8.510  28.683  10.770  1.00  0.00    -0.051 C 
HETATM   30  C22 UNL     1       8.718  27.376  11.518  1.00  0.00     0.014 C 
HETATM   31  C23 UNL     1       7.773  29.635  11.713  1.00  0.00     0.014 C 
HETATM   32  C24 UNL     1       9.841  29.246  10.343  1.00  0.00     0.014 C 
ENDBRANCH  28  29
ENDBRANCH  27  28
ENDBRANCH  26  27
ENDBRANCH  23  26
ENDBRANCH  21  22
ENDBRANCH  20  21
ENDBRANCH  19  20
ENDBRANCH  18  19
ENDBRANCH  17  18
ENDBRANCH  16  17
ENDBRANCH  14  16
BRANCH   1  33
HETATM   33  C2  UNL     1       3.132  21.089   7.107  1.00  0.00     0.032 C 
HETATM   34  C1  UNL     1       1.955  20.164   7.313  1.00  0.00     0.007 C 
ENDBRANCH   1  33
BRANCH   6  35
HETATM   35  C6  UNL     1      -1.675  23.703   7.983  1.00  0.00     0.036 C 
BRANCH  35  36
HETATM   36  C7  UNL     1      -2.921  22.995   7.615  1.00  0.00     0.030 C 
BRANCH  36  37
HETATM   37  C8  UNL     1      -2.659  21.492   7.859  1.00  0.00     0.230 C 
BRANCH  37  38
HETATM   38  N2  UNL     1      -2.932  20.750   6.666  1.00  0.00    -0.079 N 
ATOM     39  H23 UNL     1      -3.241  19.799   6.869  1.00  0.00     0.274 HD
ATOM     40  H22 UNL     1      -3.773  21.081   6.194  1.00  0.00     0.274 HD
ATOM     41  H21 UNL     1      -2.117  20.766   6.053  1.00  0.00     0.274 HD
ENDBRANCH  37  38
ENDBRANCH  36  37
ENDBRANCH  35  36
ENDBRANCH   6  35
TORSDOF 16
ENDMDL
MODEL 3
REMARK VINA RESULT: -8.507338268      1.180      1.733
REMARK  16 active torsions:
REMARK  status: ('A' for Active; 'I' for Inactive)
REMARK    1  A    between atoms: C2_2  and  C3_3 
REMARK    2  A    between atoms: C5_8  and  C6_9 
REMARK    3  A    between atoms: C6_9  and  C7_10 
REMARK    4  A    between atoms: C7_10  and  C8_11 
REMARK    5  A    between atoms: C8_11  and  N2_12 
REMARK       I    between atoms: N4_20  and  C10_21 
REMARK       I    between atoms: C10_21  and  N5_23 
REMARK    6  A    between atoms: N5_23  and  C11_25 
REMARK    7  A    between atoms: C11_25  and  C12_26 
REMARK    8  A    between atoms: C12_26  and  C13_27 
REMARK    9  A    between atoms: C13_27  and  C14_28 
REMARK   10  A    between atoms: C14_28  and  C15_29 
REMARK   11  A    between atoms: C15_29  and  C16_30 
REMARK   12  A    between atoms: C16_30  and  N6_31 
REMARK       I    between atoms: N6_31  and  C17_33 
REMARK   13  A    between atoms: C17_33  and  C18_35 
REMARK   14  A    between atoms: C18_35  and  C19_36 
REMARK   15  A    between atoms: C19_36  and  C20_37 
REMARK   16  A    between atoms: C20_37  and  C21_38 
ROOT
HETATM    1  C3  UNL     1       2.610  22.473   7.528  1.00  0.00     0.204 C 
HETATM    2  C4  UNL     1       1.626  22.644   8.591  1.00  0.00     0.243 C 
HETATM    3  O1  UNL     1       2.067  22.240   9.730  1.00  0.00    -0.271 OA
HETATM    4  N1  UNL     1       0.328  23.155   8.580  1.00  0.00    -0.346 N 
ATOM      5  H1  UNL     1      -0.043  23.468   9.477  1.00  0.00     0.163 HD
HETATM    6  C5  UNL     1      -0.558  23.291   7.428  1.00  0.00     0.178 C 
HETATM    7  C9  UNL     1       0.104  24.140   6.406  1.00  0.00     0.259 C 
HETATM    8  O2  UNL     1      -0.412  25.208   6.038  1.00  0.00    -0.269 OA
HETATM    9  N3  UNL     1       1.346  23.847   5.756  1.00  0.00    -0.261 N 
ATOM     10  H3  UNL     1       1.423  24.095   4.769  1.00  0.00     0.190 HD
HETATM   11  N4  UNL     1       2.468  23.251   6.352  1.00  0.00    -0.226 N 
HETATM   12  C10 UNL     1       3.685  23.490   5.634  1.00  0.00     0.337 C 
HETATM   13  O3  UNL     1       3.577  24.172   4.549  1.00  0.00    -0.245 OA
HETATM   14  N5  UNL     1       4.963  23.050   6.007  1.00  0.00    -0.342 N 
ATOM     15  H5  UNL     1       5.093  22.507   6.861  1.00  0.00     0.164 HD
ENDROOT
BRANCH  14  16
HETATM   16  C11 UNL     1       6.098  23.375   5.166  1.00  0.00     0.124 C 
BRANCH  16  17
HETATM   17  C12 UNL     1       7.408  23.058   5.855  1.00  0.00     0.020 C 
BRANCH  17  18
HETATM   18  C13 UNL     1       8.490  23.800   5.125  1.00  0.00     0.002 C 
BRANCH  18  19
HETATM   19  C14 UNL     1       8.026  25.112   4.547  1.00  0.00     0.002 C 
BRANCH  19  20
HETATM   20  C15 UNL     1       9.172  26.054   4.275  1.00  0.00     0.020 C 
BRANCH  20  21
HETATM   21  C16 UNL     1       8.905  26.962   3.114  1.00  0.00     0.122 C 
BRANCH  21  22
HETATM   22  N6  UNL     1       9.822  26.737   2.020  1.00  0.00    -0.361 N 
HETATM   23  C17 UNL     1       9.467  25.847   0.977  1.00  0.00     0.217 C 
HETATM   24  O4  UNL     1       8.360  25.238   0.975  1.00  0.00    -0.274 OA
ATOM     25  H6  UNL     1      10.722  27.216   1.999  1.00  0.00     0.162 HD
BRANCH  23  26
HETATM   26  C18 UNL     1      10.411  25.622  -0.141  1.00  0.00     0.103 C 
BRANCH  26  27
HETATM   27  C19 UNL     1      11.314  26.830  -0.331  1.00  0.00     0.010 C 
BRANCH  27  28
HETATM   28  C20 UNL     1      12.749  26.413  -0.076  1.00  0.00     0.009 C 
BRANCH  28  29
HETATM   29  C21 UNL     1      13.670  26.841  -1.170  1.00  0.00    -0.051 C 
HETATM   30  C22 UNL     1      13.374  26.101  -2.464  1.00  0.00     0.014 C 
HETATM   31  C23 UNL     1      15.084  26.452  -0.737  1.00  0.00     0.014 C 
HETATM   32  C24 UNL     1      13.547  28.327  -1.390  1.00  0.00     0.014 C 
ENDBRANCH  28  29
ENDBRANCH  27  28
ENDBRANCH  26  27
ENDBRANCH  23  26
ENDBRANCH  21  22
ENDBRANCH  20  21
ENDBRANCH  19  20
ENDBRANCH  18  19
ENDBRANCH  17  18
ENDBRANCH  16  17
ENDBRANCH  14  16
BRANCH   1  33
HETATM   33  C2  UNL     1       2.820  21.024   7.144  1.00  0.00     0.032 C 
HETATM   34  C1  UNL     1       1.628  20.152   7.462  1.00  0.00     0.007 C 
ENDBRANCH   1  33
BRANCH   6  35
HETATM   35  C6  UNL     1      -1.815  23.965   7.898  1.00  0.00     0.036 C 
BRANCH  35  36
HETATM   36  C7  UNL     1      -1.699  24.851   9.078  1.00  0.00     0.030 C 
BRANCH  36  37
HETATM   37  C8  UNL     1      -2.630  26.055   8.813  1.00  0.00     0.230 C 
BRANCH  37  38
HETATM   38  N2  UNL     1      -2.177  26.776   7.662  1.00  0.00    -0.079 N 
ATOM     39  H23 UNL     1      -1.375  26.328   7.220  1.00  0.00     0.274 HD
ATOM     40  H22 UNL     1      -2.833  26.706   6.884  1.00  0.00     0.274 HD
ATOM     41  H21 UNL     1      -1.984  27.746   7.913  1.00  0.00     0.274 HD
ENDBRANCH  37  38
ENDBRANCH  36  37
ENDBRANCH  35  36
ENDBRANCH   6  35
TORSDOF 16
ENDMDL
MODEL 4
REMARK VINA RESULT: -8.491985600      3.563      6.072
REMARK  16 active torsions:
REMARK  status: ('A' for Active; 'I' for Inactive)
REMARK    1  A    between atoms: C2_2  and  C3_3 
REMARK    2  A    between atoms: C5_8  and  C6_9 
REMARK    3  A    between atoms: C6_9  and  C7_10 
REMARK    4  A    between atoms: C7_10  and  C8_11 
REMARK    5  A    between atoms: C8_11  and  N2_12 
REMARK       I    between atoms: N4_20  and  C10_21 
REMARK       I    between atoms: C10_21  and  N5_23 
REMARK    6  A    between atoms: N5_23  and  C11_25 
REMARK    7  A    between atoms: C11_25  and  C12_26 
REMARK    8  A    between atoms: C12_26  and  C13_27 
REMARK    9  A    between atoms: C13_27  and  C14_28 
REMARK   10  A    between atoms: C14_28  and  C15_29 
REMARK   11  A    between atoms: C15_29  and  C16_30 
REMARK   12  A    between atoms: C16_30  and  N6_31 
REMARK       I    between atoms: N6_31  and  C17_33 
REMARK   13  A    between atoms: C17_33  and  C18_35 
REMARK   14  A    between atoms: C18_35  and  C19_36 
REMARK   15  A    between atoms: C19_36  and  C20_37 
REMARK   16  A    between atoms: C20_37  and  C21_38 
ROOT
HETATM    1  C3  UNL     1       2.800  22.523   7.497  1.00  0.00     0.204 C 
HETATM    2  C4  UNL     1       1.826  22.624   8.578  1.00  0.00     0.243 C 
HETATM    3  O1  UNL     1       2.317  22.255   9.709  1.00  0.00    -0.271 OA
HETATM    4  N1  UNL     1       0.495  23.042   8.592  1.00  0.00    -0.346 N 
ATOM      5  H1  UNL     1       0.120  23.329   9.495  1.00  0.00     0.163 HD
HETATM    6  C5  UNL     1      -0.419  23.113   7.457  1.00  0.00     0.178 C 
HETATM    7  C9  UNL     1       0.161  24.005   6.422  1.00  0.00     0.259 C 
HETATM    8  O2  UNL     1      -0.436  25.034   6.064  1.00  0.00    -0.269 OA
HETATM    9  N3  UNL     1       1.408  23.801   5.749  1.00  0.00    -0.261 N 
ATOM     10  H3  UNL     1       1.448  24.052   4.761  1.00  0.00     0.190 HD
HETATM   11  N4  UNL     1       2.581  23.287   6.324  1.00  0.00    -0.226 N 
HETATM   12  C10 UNL     1       3.764  23.611   5.583  1.00  0.00     0.337 C 
HETATM   13  O3  UNL     1       3.587  24.282   4.500  1.00  0.00    -0.245 OA
HETATM   14  N5  UNL     1       5.077  23.264   5.932  1.00  0.00    -0.342 N 
ATOM     15  H5  UNL     1       5.261  22.733   6.783  1.00  0.00     0.164 HD
ENDROOT
BRANCH  14  16
HETATM   16  C11 UNL     1       6.170  23.667   5.069  1.00  0.00     0.124 C 
BRANCH  16  17
HETATM   17  C12 UNL     1       7.463  22.982   5.454  1.00  0.00     0.020 C 
BRANCH  17  18
HETATM   18  C13 UNL     1       8.588  23.785   4.868  1.00  0.00     0.002 C 
BRANCH  18  19
HETATM   19  C14 UNL     1       8.288  25.258   4.784  1.00  0.00     0.002 C 
BRANCH  19  20
HETATM   20  C15 UNL     1       9.375  26.025   4.073  1.00  0.00     0.020 C 
BRANCH  20  21
HETATM   21  C16 UNL     1       9.365  27.484   4.414  1.00  0.00     0.122 C 
BRANCH  21  22
HETATM   22  N6  UNL     1       8.786  27.738   5.714  1.00  0.00    -0.361 N 
HETATM   23  C17 UNL     1       7.847  28.785   5.871  1.00  0.00     0.217 C 
HETATM   24  O4  UNL     1       7.497  29.512   4.899  1.00  0.00    -0.274 OA
ATOM     25  H6  UNL     1       9.054  27.166   6.514  1.00  0.00     0.162 HD
BRANCH  23  26
HETATM   26  C18 UNL     1       7.257  29.040   7.205  1.00  0.00     0.103 C 
BRANCH  26  27
HETATM   27  C19 UNL     1       8.315  28.919   8.290  1.00  0.00     0.010 C 
BRANCH  27  28
HETATM   28  C20 UNL     1       7.648  28.477   9.577  1.00  0.00     0.009 C 
BRANCH  28  29
HETATM   29  C21 UNL     1       8.513  28.696  10.773  1.00  0.00    -0.051 C 
HETATM   30  C22 UNL     1       7.905  29.723  11.715  1.00  0.00     0.014 C 
HETATM   31  C23 UNL     1       9.836  29.270  10.266  1.00  0.00     0.014 C 
HETATM   32  C24 UNL     1       8.717  27.392  11.501  1.00  0.00     0.014 C 
ENDBRANCH  28  29
ENDBRANCH  27  28
ENDBRANCH  26  27
ENDBRANCH  23  26
ENDBRANCH  21  22
ENDBRANCH  20  21
ENDBRANCH  19  20
ENDBRANCH  18  19
ENDBRANCH  17  18
ENDBRANCH  16  17
ENDBRANCH  14  16
BRANCH   1  33
HETATM   33  C2  UNL     1       3.106  21.092   7.109  1.00  0.00     0.032 C 
HETATM   34  C1  UNL     1       1.930  20.164   7.309  1.00  0.00     0.007 C 
ENDBRANCH   1  33
BRANCH   6  35
HETATM   35  C6  UNL     1      -1.712  23.696   7.950  1.00  0.00     0.036 C 
BRANCH  35  36
HETATM   36  C7  UNL     1      -2.918  22.844   7.837  1.00  0.00     0.030 C 
BRANCH  36  37
HETATM   37  C8  UNL     1      -4.126  23.751   8.161  1.00  0.00     0.230 C 
BRANCH  37  38
HETATM   38  N2  UNL     1      -3.717  25.123   8.166  1.00  0.00    -0.079 N 
ATOM     39  H23 UNL     1      -2.764  25.237   8.511  1.00  0.00     0.274 HD
ATOM     40  H22 UNL     1      -3.578  25.484   7.223  1.00  0.00     0.274 HD
ATOM     41  H21 UNL     1      -4.386  25.682   8.696  1.00  0.00     0.274 HD
ENDBRANCH  37  38
ENDBRANCH  36  37
ENDBRANCH  35  36
ENDBRANCH   6  35
TORSDOF 16
ENDMDL
MODEL 5
REMARK VINA RESULT: -8.456983572      3.386      6.519
REMARK  16 active torsions:
REMARK  status: ('A' for Active; 'I' for Inactive)
REMARK    1  A    between atoms: C2_2  and  C3_3 
REMARK    2  A    between atoms: C5_8  and  C6_9 
REMARK    3  A    between atoms: C6_9  and  C7_10 
REMARK    4  A    between atoms: C7_10  and  C8_11 
REMARK    5  A    between atoms: C8_11  and  N2_12 
REMARK       I    between atoms: N4_20  and  C10_21 
REMARK       I    between atoms: C10_21  and  N5_23 
REMARK    6  A    between atoms: N5_23  and  C11_25 
REMARK    7  A    between atoms: C11_25  and  C12_26 
REMARK    8  A    between atoms: C12_26  and  C13_27 
REMARK    9  A    between atoms: C13_27  and  C14_28 
REMARK   10  A    between atoms: C14_28  and  C15_29 
REMARK   11  A    between atoms: C15_29  and  C16_30 
REMARK   12  A    between atoms: C16_30  and  N6_31 
REMARK       I    between atoms: N6_31  and  C17_33 
REMARK   13  A    between atoms: C17_33  and  C18_35 
REMARK   14  A    between atoms: C18_35  and  C19_36 
REMARK   15  A    between atoms: C19_36  and  C20_37 
REMARK   16  A    between atoms: C20_37  and  C21_38 
ROOT
HETATM    1  C3  UNL     1      -2.349  24.853   8.486  1.00  0.00     0.204 C 
HETATM    2  C4  UNL     1      -3.245  25.944   8.852  1.00  0.00     0.243 C 
HETATM    3  O1  UNL     1      -4.223  25.542   9.587  1.00  0.00    -0.271 OA
HETATM    4  N1  UNL     1      -3.221  27.306   8.552  1.00  0.00    -0.346 N 
ATOM      5  H1  UNL     1      -3.757  27.915   9.170  1.00  0.00     0.163 HD
HETATM    6  C5  UNL     1      -2.516  27.955   7.452  1.00  0.00     0.178 C 
HETATM    7  C9  UNL     1      -1.066  27.648   7.558  1.00  0.00     0.259 C 
HETATM    8  O2  UNL     1      -0.234  28.560   7.697  1.00  0.00    -0.269 OA
HETATM    9  N3  UNL     1      -0.485  26.341   7.516  1.00  0.00    -0.261 N 
ATOM     10  H3  UNL     1       0.407  26.246   7.030  1.00  0.00     0.190 HD
HETATM   11  N4  UNL     1      -1.030  25.177   8.081  1.00  0.00    -0.226 N 
HETATM   12  C10 UNL     1      -0.061  24.142   8.291  1.00  0.00     0.337 C 
HETATM   13  O3  UNL     1       1.139  24.405   7.908  1.00  0.00    -0.245 OA
HETATM   14  N5  UNL     1      -0.305  22.888   8.868  1.00  0.00    -0.342 N 
ATOM     15  H5  UNL     1      -1.242  22.641   9.186  1.00  0.00     0.164 HD
ENDROOT
BRANCH  14  16
HETATM   16  C11 UNL     1       0.788  21.947   9.008  1.00  0.00     0.124 C 
BRANCH  16  17
HETATM   17  C12 UNL     1       0.597  20.738   8.117  1.00  0.00     0.020 C 
BRANCH  17  18
HETATM   18  C13 UNL     1       1.917  20.451   7.462  1.00  0.00     0.002 C 
BRANCH  18  19
HETATM   19  C14 UNL     1       2.450  21.611   6.663  1.00  0.00     0.002 C 
BRANCH  19  20
HETATM   20  C15 UNL     1       3.921  21.845   6.904  1.00  0.00     0.020 C 
BRANCH  20  21
HETATM   21  C16 UNL     1       4.474  22.943   6.048  1.00  0.00     0.122 C 
BRANCH  21  22
HETATM   22  N6  UNL     1       5.901  22.819   5.853  1.00  0.00    -0.361 N 
HETATM   23  C17 UNL     1       6.651  23.939   5.423  1.00  0.00     0.217 C 
HETATM   24  O4  UNL     1       6.105  25.057   5.202  1.00  0.00    -0.274 OA
ATOM     25  H6  UNL     1       6.365  21.927   6.024  1.00  0.00     0.162 HD
BRANCH  23  26
HETATM   26  C18 UNL     1       8.113  23.806   5.227  1.00  0.00     0.103 C 
BRANCH  26  27
HETATM   27  C19 UNL     1       8.497  24.176   3.803  1.00  0.00     0.010 C 
BRANCH  27  28
HETATM   28  C20 UNL     1       9.615  25.198   3.849  1.00  0.00     0.009 C 
BRANCH  28  29
HETATM   29  C21 UNL     1       9.310  26.415   3.040  1.00  0.00    -0.051 C 
HETATM   30  C22 UNL     1       8.256  26.128   1.983  1.00  0.00     0.014 C 
HETATM   31  C23 UNL     1      10.597  26.796   2.308  1.00  0.00     0.014 C 
HETATM   32  C24 UNL     1       8.838  27.524   3.945  1.00  0.00     0.014 C 
ENDBRANCH  28  29
ENDBRANCH  27  28
ENDBRANCH  26  27
ENDBRANCH  23  26
ENDBRANCH  21  22
ENDBRANCH  20  21
ENDBRANCH  19  20
ENDBRANCH  18  19
ENDBRANCH  17  18
ENDBRANCH  16  17
ENDBRANCH  14  16
BRANCH   1  33
HETATM   33  C2  UNL     1      -2.958  23.900   7.479  1.00  0.00     0.032 C 
HETATM   34  C1  UNL     1      -3.681  22.743   8.128  1.00  0.00     0.007 C 
ENDBRANCH   1  33
BRANCH   6  35
HETATM   35  C6  UNL     1      -2.724  29.436   7.588  1.00  0.00     0.036 C 
BRANCH  35  36
HETATM   36  C7  UNL     1      -3.187  30.160   6.383  1.00  0.00     0.030 C 
BRANCH  36  37
HETATM   37  C8  UNL     1      -2.523  31.554   6.430  1.00  0.00     0.230 C 
BRANCH  37  38
HETATM   38  N2  UNL     1      -1.302  31.488   7.175  1.00  0.00    -0.079 N 
ATOM     39  H23 UNL     1      -1.347  30.795   7.922  1.00  0.00     0.274 HD
ATOM     40  H22 UNL     1      -0.545  31.072   6.632  1.00  0.00     0.274 HD
ATOM     41  H21 UNL     1      -1.059  32.414   7.525  1.00  0.00     0.274 HD
ENDBRANCH  37  38
ENDBRANCH  36  37
ENDBRANCH  35  36
ENDBRANCH   6  35
TORSDOF 16
ENDMDL
