MODEL 1
REMARK VINA RESULT: -8.968965089      0.000      0.000
REMARK  15 active torsions:
REMARK  status: ('A' for Active; 'I' for Inactive)
REMARK    1  A    between atoms: N1_1  and  C1_5 
REMARK    2  A    between atoms: C1_5  and  C2_6 
REMARK    3  A    between atoms: C2_6  and  C3_7 
REMARK    4  A    between atoms: C3_7  and  C4_8 
REMARK    5  A    between atoms: C4_8  and  N2_9 
REMARK       I    between atoms: N2_9  and  C5_11 
REMARK    6  A    between atoms: C5_11  and  C6_13 
REMARK    7  A    between atoms: C6_13  and  C7_14 
REMARK    8  A    between atoms: C7_14  and  C8_15 
REMARK    9  A    between atoms: C8_15  and  C9_16 
REMARK   10  A    between atoms: C9_16  and  C10_17 
REMARK   11  A    between atoms: C10_17  and  N3_18 
REMARK   12  A    between atoms: N3_18  and  S1_20 
REMARK   13  A    between atoms: S1_20  and  N4_23 
REMARK   14  A    between atoms: C13_26  and  N5_27 
REMARK       I    between atoms: N5_27  and  C14_29 
REMARK       I    between atoms: C14_29  and  N6_31 
REMARK   15  A    between atoms: N6_31  and  C15_33 
ROOT
HETATM    1  S1  UNL     1       3.800  22.912   5.906  1.00  0.00     0.298 S 
HETATM    2  O2  UNL     1       2.979  23.691   4.904  1.00  0.00    -0.188 OA
HETATM    3  O3  UNL     1       3.695  21.461   5.519  1.00  0.00    -0.188 OA
ENDROOT
BRANCH   1   4
HETATM    4  N3  UNL     1       3.143  23.036   7.493  1.00  0.00    -0.307 N 
ATOM      5  H3  UNL     1       3.054  23.914   8.006  1.00  0.00     0.173 HD
BRANCH   4   6
HETATM    6  C10 UNL     1       2.733  21.751   8.013  1.00  0.00     0.133 C 
BRANCH   6   7
HETATM    7  C9  UNL     1       1.518  21.901   8.918  1.00  0.00     0.020 C 
BRANCH   7   8
HETATM    8  C8  UNL     1       0.415  20.975   8.534  1.00  0.00     0.002 C 
BRANCH   8   9
HETATM    9  C7  UNL     1      -0.128  21.310   7.176  1.00  0.00     0.009 C 
BRANCH   9  10
HETATM   10  C6  UNL     1      -1.606  21.545   7.253  1.00  0.00     0.103 C 
BRANCH  10  11
HETATM   11  C5  UNL     1      -1.870  23.001   7.065  1.00  0.00     0.217 C 
HETATM   12  N2  UNL     1      -0.818  23.821   6.580  1.00  0.00    -0.361 N 
ATOM     13  H2  UNL     1       0.098  23.426   6.367  1.00  0.00     0.162 HD
HETATM   14  O1  UNL     1      -3.006  23.450   7.343  1.00  0.00    -0.274 OA
BRANCH  12  15
HETATM   15  C4  UNL     1      -1.080  25.242   6.393  1.00  0.00     0.122 C 
BRANCH  15  16
HETATM   16  C3  UNL     1      -0.703  26.025   7.644  1.00  0.00     0.021 C 
BRANCH  16  17
HETATM   17  C2  UNL     1      -1.693  27.163   7.855  1.00  0.00     0.029 C 
BRANCH  17  18
HETATM   18  C1  UNL     1      -1.041  28.500   7.550  1.00  0.00     0.229 C 
BRANCH  18  19
HETATM   19  N1  UNL     1       0.378  28.408   7.767  1.00  0.00    -0.079 N 
ATOM     20  H13 UNL     1       0.734  29.188   8.319  1.00  0.00     0.274 HD
ATOM     21  H12 UNL     1       0.621  27.652   8.407  1.00  0.00     0.274 HD
ATOM     22  H11 UNL     1       0.858  28.321   6.870  1.00  0.00     0.274 HD
ENDBRANCH  18  19
ENDBRANCH  17  18
ENDBRANCH  16  17
ENDBRANCH  15  16
ENDBRANCH  12  15
ENDBRANCH  10  11
ENDBRANCH   9  10
ENDBRANCH   8   9
ENDBRANCH   7   8
ENDBRANCH   6   7
ENDBRANCH   4   6
ENDBRANCH   1   4
BRANCH   1  23
HETATM   23  N4  UNL     1       5.398  23.490   5.851  1.00  0.00    -0.193 NA
HETATM   24  C11 UNL     1       6.418  22.505   5.741  1.00  0.00     0.111 C 
HETATM   25  C12 UNL     1       7.811  22.992   5.598  1.00  0.00     0.041 C 
HETATM   26  C13 UNL     1       8.004  24.353   5.038  1.00  0.00     0.088 C 
HETATM   27  C21 UNL     1       6.821  25.284   5.271  1.00  0.00     0.041 C 
HETATM   28  C22 UNL     1       5.578  24.538   4.860  1.00  0.00     0.111 C 
BRANCH  26  29
HETATM   29  N5  UNL     1       8.238  24.368   3.614  1.00  0.00    -0.338 N 
HETATM   30  C14 UNL     1       9.225  25.248   3.089  1.00  0.00     0.316 C 
HETATM   31  O4  UNL     1       9.881  25.995   3.862  1.00  0.00    -0.247 OA
HETATM   32  N6  UNL     1       9.437  25.255   1.684  1.00  0.00    -0.339 N 
ATOM     33  H6  UNL     1       8.904  24.642   1.069  1.00  0.00     0.164 HD
ATOM     34  H5  UNL     1       7.704  23.758   2.995  1.00  0.00     0.164 HD
BRANCH  32  35
HETATM   35  C15 UNL     1      10.436  26.162   1.151  1.00  0.00     0.086 C 
HETATM   36  C16 UNL     1       9.775  27.510   0.809  1.00  0.00     0.025 C 
HETATM   37  C17 UNL     1      10.894  28.481   0.584  1.00  0.00     0.002 C 
HETATM   38  C18 UNL     1      11.837  28.054  -0.505  1.00  0.00     0.000 C 
HETATM   39  C19 UNL     1      12.167  26.604  -0.513  1.00  0.00     0.002 C 
HETATM   40  C20 UNL     1      11.055  25.680  -0.138  1.00  0.00     0.025 C 
ENDBRANCH  32  35
ENDBRANCH  26  29
ENDBRANCH   1  23
TORSDOF 15
ENDMDL
MODEL 2
REMARK VINA RESULT: -8.948090385      0.892      1.000
REMARK  15 active torsions:
REMARK  status: ('A' for Active; 'I' for Inactive)
REMARK    1  A    between atoms: N1_1  and  C1_5 
REMARK    2  A    between atoms: C1_5  and  C2_6 
REMARK    3  A    between atoms: C2_6  and  C3_7 
REMARK    4  A    between atoms: C3_7  and  C4_8 
REMARK    5  A    between atoms: C4_8  and  N2_9 
REMARK       I    between atoms: N2_9  and  C5_11 
REMARK    6  A    between atoms: C5_11  and  C6_13 
REMARK    7  A    between atoms: C6_13  and  C7_14 
REMARK    8  A    between atoms: C7_14  and  C8_15 
REMARK    9  A    between atoms: C8_15  and  C9_16 
REMARK   10  A    between atoms: C9_16  and  C10_17 
REMARK   11  A    between atoms: C10_17  and  N3_18 
REMARK   12  A    between atoms: N3_18  and  S1_20 
REMARK   13  A    between atoms: S1_20  and  N4_23 
REMARK   14  A    between atoms: C13_26  and  N5_27 
REMARK       I    between atoms: N5_27  and  C14_29 
REMARK       I    between atoms: C14_29  and  N6_31 
REMARK   15  A    between atoms: N6_31  and  C15_33 
ROOT
HETATM    1  S1  UNL     1       3.785  22.919   5.899  1.00  0.00     0.298 S 
HETATM    2  O2  UNL     1       2.971  23.698   4.892  1.00  0.00    -0.188 OA
HETATM    3  O3  UNL     1       3.678  21.467   5.515  1.00  0.00    -0.188 OA
ENDROOT
BRANCH   1   4
HETATM    4  N3  UNL     1       3.120  23.049   7.483  1.00  0.00    -0.307 N 
ATOM      5  H3  UNL     1       2.994  23.932   7.977  1.00  0.00     0.173 HD
BRANCH   4   6
HETATM    6  C10 UNL     1       2.764  21.759   8.029  1.00  0.00     0.133 C 
BRANCH   6   7
HETATM    7  C9  UNL     1       1.537  21.875   8.923  1.00  0.00     0.020 C 
BRANCH   7   8
HETATM    8  C8  UNL     1       0.451  20.944   8.507  1.00  0.00     0.002 C 
BRANCH   8   9
HETATM    9  C7  UNL     1      -0.107  21.323   7.168  1.00  0.00     0.009 C 
BRANCH   9  10
HETATM   10  C6  UNL     1      -1.581  21.574   7.271  1.00  0.00     0.103 C 
BRANCH  10  11
HETATM   11  C5  UNL     1      -1.836  23.028   7.060  1.00  0.00     0.217 C 
HETATM   12  N2  UNL     1      -0.761  23.845   6.620  1.00  0.00    -0.361 N 
ATOM     13  H2  UNL     1       0.164  23.449   6.455  1.00  0.00     0.162 HD
HETATM   14  O1  UNL     1      -2.984  23.479   7.279  1.00  0.00    -0.274 OA
BRANCH  12  15
HETATM   15  C4  UNL     1      -1.014  25.264   6.409  1.00  0.00     0.122 C 
BRANCH  15  16
HETATM   16  C3  UNL     1      -0.679  26.059   7.665  1.00  0.00     0.021 C 
BRANCH  16  17
HETATM   17  C2  UNL     1      -1.782  27.074   7.938  1.00  0.00     0.029 C 
BRANCH  17  18
HETATM   18  C1  UNL     1      -2.668  26.604   9.078  1.00  0.00     0.229 C 
BRANCH  18  19
HETATM   19  N1  UNL     1      -3.876  26.030   8.549  1.00  0.00    -0.079 N 
ATOM     20  H13 UNL     1      -4.704  26.558   8.822  1.00  0.00     0.274 HD
ATOM     21  H12 UNL     1      -3.949  26.153   7.539  1.00  0.00     0.274 HD
ATOM     22  H11 UNL     1      -3.938  25.049   8.822  1.00  0.00     0.274 HD
ENDBRANCH  18  19
ENDBRANCH  17  18
ENDBRANCH  16  17
ENDBRANCH  15  16
ENDBRANCH  12  15
ENDBRANCH  10  11
ENDBRANCH   9  10
ENDBRANCH   8   9
ENDBRANCH   7   8
ENDBRANCH   6   7
ENDBRANCH   4   6
ENDBRANCH   1   4
BRANCH   1  23
HETATM   23  N4  UNL     1       5.384  23.493   5.850  1.00  0.00    -0.193 NA
HETATM   24  C11 UNL     1       6.402  22.505   5.744  1.00  0.00     0.111 C 
HETATM   25  C12 UNL     1       7.797  22.989   5.608  1.00  0.00     0.041 C 
HETATM   26  C13 UNL     1       7.996  24.349   5.048  1.00  0.00     0.088 C 
HETATM   27  C21 UNL     1       6.815  25.284   5.276  1.00  0.00     0.041 C 
HETATM   28  C22 UNL     1       5.571  24.540   4.860  1.00  0.00     0.111 C 
BRANCH  26  29
HETATM   29  N5  UNL     1       8.236  24.364   3.624  1.00  0.00    -0.338 N 
HETATM   30  C14 UNL     1       9.214  25.254   3.101  1.00  0.00     0.316 C 
HETATM   31  O4  UNL     1       9.858  26.011   3.875  1.00  0.00    -0.247 OA
HETATM   32  N6  UNL     1       9.432  25.261   1.697  1.00  0.00    -0.339 N 
ATOM     33  H6  UNL     1       8.909  24.639   1.082  1.00  0.00     0.164 HD
ATOM     34  H5  UNL     1       7.712  23.746   3.005  1.00  0.00     0.164 HD
BRANCH  32  35
HETATM   35  C15 UNL     1      10.421  26.178   1.166  1.00  0.00     0.086 C 
HETATM   36  C16 UNL     1       9.749  27.522   0.831  1.00  0.00     0.025 C 
HETATM   37  C17 UNL     1      10.858  28.503   0.608  1.00  0.00     0.002 C 
HETATM   38  C18 UNL     1      11.803  28.088  -0.484  1.00  0.00     0.000 C 
HETATM   39  C19 UNL     1      12.146  26.642  -0.499  1.00  0.00     0.002 C 
HETATM   40  C20 UNL     1      11.042  25.706  -0.125  1.00  0.00     0.025 C 
ENDBRANCH  32  35
ENDBRANCH  26  29
ENDBRANCH   1  23
TORSDOF 15
ENDMDL
MODEL 3
REMARK VINA RESULT: -8.854472482      1.025      1.162
REMARK  15 active torsions:
REMARK  status: ('A' for Active; 'I' for Inactive)
REMARK    1  A    between atoms: N1_1  and  C1_5 
REMARK    2  A    between atoms: C1_5  and  C2_6 
REMARK    3  A    between atoms: C2_6  and  C3_7 
REMARK    4  A    between atoms: C3_7  and  C4_8 
REMARK    5  A    between atoms: C4_8  and  N2_9 
REMARK       I    between atoms: N2_9  and  C5_11 
REMARK    6  A    between atoms: C5_11  and  C6_13 
REMARK    7  A    between atoms: C6_13  and  C7_14 
REMARK    8  A    between atoms: C7_14  and  C8_15 
REMARK    9  A    between atoms: C8_15  and  C9_16 
REMARK   10  A    between atoms: C9_16  and  C10_17 
REMARK   11  A    between atoms: C10_17  and  N3_18 
REMARK   12  A    between atoms: N3_18  and  S1_20 
REMARK   13  A    between atoms: S1_20  and  N4_23 
REMARK   14  A    between atoms: C13_26  and  N5_27 
REMARK       I    between atoms: N5_27  and  C14_29 
REMARK       I    between atoms: C14_29  and  N6_31 
REMARK   15  A    between atoms: N6_31  and  C15_33 
ROOT
HETATM    1  S1  UNL     1       3.696  22.930   5.920  1.00  0.00     0.298 S 
HETATM    2  O2  UNL     1       2.887  23.770   4.959  1.00  0.00    -0.188 OA
HETATM    3  O3  UNL     1       3.550  21.499   5.474  1.00  0.00    -0.188 OA
ENDROOT
BRANCH   1   4
HETATM    4  N3  UNL     1       3.055  23.004   7.517  1.00  0.00    -0.307 N 
ATOM      5  H3  UNL     1       2.775  23.870   7.979  1.00  0.00     0.173 HD
BRANCH   4   6
HETATM    6  C10 UNL     1       2.960  21.696   8.125  1.00  0.00     0.133 C 
BRANCH   6   7
HETATM    7  C9  UNL     1       1.608  21.514   8.800  1.00  0.00     0.020 C 
BRANCH   7   8
HETATM    8  C8  UNL     1       0.613  20.872   7.896  1.00  0.00     0.002 C 
BRANCH   8   9
HETATM    9  C7  UNL     1      -0.676  21.639   7.873  1.00  0.00     0.009 C 
BRANCH   9  10
HETATM   10  C6  UNL     1      -0.537  22.862   7.020  1.00  0.00     0.103 C 
BRANCH  10  11
HETATM   11  C5  UNL     1      -0.563  24.066   7.900  1.00  0.00     0.217 C 
HETATM   12  N2  UNL     1      -1.797  24.443   8.492  1.00  0.00    -0.361 N 
ATOM     13  H2  UNL     1      -2.647  23.906   8.318  1.00  0.00     0.162 HD
HETATM   14  O1  UNL     1       0.500  24.703   8.084  1.00  0.00    -0.274 OA
BRANCH  12  15
HETATM   15  C4  UNL     1      -1.819  25.616   9.355  1.00  0.00     0.122 C 
BRANCH  15  16
HETATM   16  C3  UNL     1      -2.659  26.724   8.732  1.00  0.00     0.021 C 
BRANCH  16  17
HETATM   17  C2  UNL     1      -1.826  27.993   8.611  1.00  0.00     0.029 C 
BRANCH  17  18
HETATM   18  C1  UNL     1      -0.862  27.888   7.442  1.00  0.00     0.229 C 
BRANCH  18  19
HETATM   19  N1  UNL     1       0.408  28.455   7.809  1.00  0.00    -0.079 N 
ATOM     20  H13 UNL     1       1.191  27.884   7.489  1.00  0.00     0.274 HD
ATOM     21  H12 UNL     1       0.618  29.301   7.279  1.00  0.00     0.274 HD
ATOM     22  H11 UNL     1       0.436  28.615   8.816  1.00  0.00     0.274 HD
ENDBRANCH  18  19
ENDBRANCH  17  18
ENDBRANCH  16  17
ENDBRANCH  15  16
ENDBRANCH  12  15
ENDBRANCH  10  11
ENDBRANCH   9  10
ENDBRANCH   8   9
ENDBRANCH   7   8
ENDBRANCH   6   7
ENDBRANCH   4   6
ENDBRANCH   1   4
BRANCH   1  23
HETATM   23  N4  UNL     1       5.307  23.468   5.875  1.00  0.00    -0.193 NA
HETATM   24  C11 UNL     1       6.305  22.458   5.793  1.00  0.00     0.111 C 
HETATM   25  C12 UNL     1       7.711  22.910   5.659  1.00  0.00     0.041 C 
HETATM   26  C13 UNL     1       7.943  24.256   5.079  1.00  0.00     0.088 C 
HETATM   27  C21 UNL     1       6.780  25.219   5.283  1.00  0.00     0.041 C 
HETATM   28  C22 UNL     1       5.524  24.495   4.869  1.00  0.00     0.111 C 
BRANCH  26  29
HETATM   29  N5  UNL     1       8.194  24.242   3.658  1.00  0.00    -0.338 N 
HETATM   30  C14 UNL     1       9.175  25.123   3.124  1.00  0.00     0.316 C 
HETATM   31  O4  UNL     1       9.812  25.896   3.888  1.00  0.00    -0.247 OA
HETATM   32  N6  UNL     1       9.404  25.102   1.722  1.00  0.00    -0.339 N 
ATOM     33  H6  UNL     1       8.886  24.467   1.115  1.00  0.00     0.164 HD
ATOM     34  H5  UNL     1       7.675  23.611   3.046  1.00  0.00     0.164 HD
BRANCH  32  35
HETATM   35  C15 UNL     1      10.397  26.009   1.180  1.00  0.00     0.086 C 
HETATM   36  C16 UNL     1       9.764  27.397   0.971  1.00  0.00     0.025 C 
HETATM   37  C17 UNL     1      10.899  28.345   0.731  1.00  0.00     0.002 C 
HETATM   38  C18 UNL     1      11.752  27.960  -0.444  1.00  0.00     0.000 C 
HETATM   39  C19 UNL     1      12.029  26.505  -0.567  1.00  0.00     0.002 C 
HETATM   40  C20 UNL     1      10.911  25.593  -0.176  1.00  0.00     0.025 C 
ENDBRANCH  32  35
ENDBRANCH  26  29
ENDBRANCH   1  23
TORSDOF 15
ENDMDL
MODEL 4
REMARK VINA RESULT: -8.810730447      1.296      1.730
REMARK  15 active torsions:
REMARK  status: ('A' for Active; 'I' for Inactive)
REMARK    1  A    between atoms: N1_1  and  C1_5 
REMARK    2  A    between atoms: C1_5  and  C2_6 
REMARK    3  A    between atoms: C2_6  and  C3_7 
REMARK    4  A    between atoms: C3_7  and  C4_8 
REMARK    5  A    between atoms: C4_8  and  N2_9 
REMARK       I    between atoms: N2_9  and  C5_11 
REMARK    6  A    between atoms: C5_11  and  C6_13 
REMARK    7  A    between atoms: C6_13  and  C7_14 
REMARK    8  A    between atoms: C7_14  and  C8_15 
REMARK    9  A    between atoms: C8_15  and  C9_16 
REMARK   10  A    between atoms: C9_16  and  C10_17 
REMARK   11  A    between atoms: C10_17  and  N3_18 
REMARK   12  A    between atoms: N3_18  and  S1_20 
REMARK   13  A    between atoms: S1_20  and  N4_23 
REMARK   14  A    between atoms: C13_26  and  N5_27 
REMARK       I    between atoms: N5_27  and  C14_29 
REMARK       I    between atoms: C14_29  and  N6_31 
REMARK   15  A    between atoms: N6_31  and  C15_33 
ROOT
HETATM    1  S1  UNL     1       3.731  22.903   6.019  1.00  0.00     0.298 S 
HETATM    2  O2  UNL     1       2.864  23.825   5.193  1.00  0.00    -0.188 OA
HETATM    3  O3  UNL     1       3.561  21.520   5.448  1.00  0.00    -0.188 OA
ENDROOT
BRANCH   1   4
HETATM    4  N3  UNL     1       3.188  22.821   7.652  1.00  0.00    -0.307 N 
ATOM      5  H3  UNL     1       3.104  23.631   8.265  1.00  0.00     0.173 HD
BRANCH   4   6
HETATM    6  C10 UNL     1       2.867  21.468   8.049  1.00  0.00     0.133 C 
BRANCH   6   7
HETATM    7  C9  UNL     1       1.554  21.432   8.818  1.00  0.00     0.020 C 
BRANCH   7   8
HETATM    8  C8  UNL     1       0.418  20.978   7.966  1.00  0.00     0.002 C 
BRANCH   8   9
HETATM    9  C7  UNL     1      -0.625  22.048   7.835  1.00  0.00     0.009 C 
BRANCH   9  10
HETATM   10  C6  UNL     1      -0.282  22.972   6.707  1.00  0.00     0.103 C 
BRANCH  10  11
HETATM   11  C5  UNL     1      -0.156  24.358   7.243  1.00  0.00     0.217 C 
HETATM   12  N2  UNL     1      -1.139  25.315   6.876  1.00  0.00    -0.361 N 
ATOM     13  H2  UNL     1      -1.911  25.063   6.259  1.00  0.00     0.162 HD
HETATM   14  O1  UNL     1       0.809  24.631   7.993  1.00  0.00    -0.274 OA
BRANCH  12  15
HETATM   15  C4  UNL     1      -1.017  26.667   7.405  1.00  0.00     0.122 C 
BRANCH  15  16
HETATM   16  C3  UNL     1      -2.185  26.988   8.328  1.00  0.00     0.021 C 
BRANCH  16  17
HETATM   17  C2  UNL     1      -2.492  25.783   9.206  1.00  0.00     0.029 C 
BRANCH  17  18
HETATM   18  C1  UNL     1      -3.976  25.464   9.176  1.00  0.00     0.229 C 
BRANCH  18  19
HETATM   19  N1  UNL     1      -4.249  24.520   8.125  1.00  0.00    -0.079 N 
ATOM     20  H13 UNL     1      -3.405  24.038   7.814  1.00  0.00     0.274 HD
ATOM     21  H12 UNL     1      -4.766  23.709   8.463  1.00  0.00     0.274 HD
ATOM     22  H11 UNL     1      -4.728  24.990   7.357  1.00  0.00     0.274 HD
ENDBRANCH  18  19
ENDBRANCH  17  18
ENDBRANCH  16  17
ENDBRANCH  15  16
ENDBRANCH  12  15
ENDBRANCH  10  11
ENDBRANCH   9  10
ENDBRANCH   8   9
ENDBRANCH   7   8
ENDBRANCH   6   7
ENDBRANCH   4   6
ENDBRANCH   1   4
BRANCH   1  23
HETATM   23  N4  UNL     1       5.336  23.455   5.928  1.00  0.00    -0.193 NA
HETATM   24  C11 UNL     1       6.341  22.453   5.845  1.00  0.00     0.111 C 
HETATM   25  C12 UNL     1       7.740  22.914   5.672  1.00  0.00     0.041 C 
HETATM   26  C13 UNL     1       7.946  24.251   5.060  1.00  0.00     0.088 C 
HETATM   27  C21 UNL     1       6.779  25.207   5.269  1.00  0.00     0.041 C 
HETATM   28  C22 UNL     1       5.521  24.463   4.897  1.00  0.00     0.111 C 
BRANCH  26  29
HETATM   29  N5  UNL     1       8.166  24.210   3.633  1.00  0.00    -0.338 N 
HETATM   30  C14 UNL     1       9.155  25.061   3.066  1.00  0.00     0.316 C 
HETATM   31  O4  UNL     1       9.825  25.832   3.804  1.00  0.00    -0.247 OA
HETATM   32  N6  UNL     1       9.354  25.013   1.660  1.00  0.00    -0.339 N 
ATOM     33  H6  UNL     1       8.809  24.381   1.074  1.00  0.00     0.164 HD
ATOM     34  H5  UNL     1       7.622  23.581   3.043  1.00  0.00     0.164 HD
BRANCH  32  35
HETATM   35  C15 UNL     1      10.354  25.891   1.083  1.00  0.00     0.086 C 
HETATM   36  C16 UNL     1       9.732  27.273   0.817  1.00  0.00     0.025 C 
HETATM   37  C17 UNL     1      10.874  28.202   0.541  1.00  0.00     0.002 C 
HETATM   38  C18 UNL     1      11.726  27.764  -0.616  1.00  0.00     0.000 C 
HETATM   39  C19 UNL     1      11.992  26.303  -0.679  1.00  0.00     0.002 C 
HETATM   40  C20 UNL     1      10.867  25.416  -0.253  1.00  0.00     0.025 C 
ENDBRANCH  32  35
ENDBRANCH  26  29
ENDBRANCH   1  23
TORSDOF 15
ENDMDL
MODEL 5
REMARK VINA RESULT: -8.735415311      1.035      1.276
REMARK  15 active torsions:
REMARK  status: ('A' for Active; 'I' for Inactive)
REMARK    1  A    between atoms: N1_1  and  C1_5 
REMARK    2  A    between atoms: C1_5  and  C2_6 
REMARK    3  A    between atoms: C2_6  and  C3_7 
REMARK    4  A    between atoms: C3_7  and  C4_8 
REMARK    5  A    between atoms: C4_8  and  N2_9 
REMARK       I    between atoms: N2_9  and  C5_11 
REMARK    6  A    between atoms: C5_11  and  C6_13 
REMARK    7  A    between atoms: C6_13  and  C7_14 
REMARK    8  A    between atoms: C7_14  and  C8_15 
REMARK    9  A    between atoms: C8_15  and  C9_16 
REMARK   10  A    between atoms: C9_16  and  C10_17 
REMARK   11  A    between atoms: C10_17  and  N3_18 
REMARK   12  A    between atoms: N3_18  and  S1_20 
REMARK   13  A    between atoms: S1_20  and  N4_23 
REMARK   14  A    between atoms: C13_26  and  N5_27 
REMARK       I    between atoms: N5_27  and  C14_29 
REMARK       I    between atoms: C14_29  and  N6_31 
REMARK   15  A    between atoms: N6_31  and  C15_33 
ROOT
HETATM    1  S1  UNL     1       3.811  22.896   5.945  1.00  0.00     0.298 S 
HETATM    2  O2  UNL     1       3.032  23.591   4.854  1.00  0.00    -0.188 OA
HETATM    3  O3  UNL     1       3.686  21.416   5.693  1.00  0.00    -0.188 OA
ENDROOT
BRANCH   1   4
HETATM    4  N3  UNL     1       3.117  23.181   7.496  1.00  0.00    -0.307 N 
ATOM      5  H3  UNL     1       3.636  23.547   8.294  1.00  0.00     0.173 HD
BRANCH   4   6
HETATM    6  C10 UNL     1       1.712  22.840   7.533  1.00  0.00     0.133 C 
BRANCH   6   7
HETATM    7  C9  UNL     1       1.441  21.796   8.607  1.00  0.00     0.020 C 
BRANCH   7   8
HETATM    8  C8  UNL     1       0.125  21.125   8.416  1.00  0.00     0.002 C 
BRANCH   8   9
HETATM    9  C7  UNL     1      -0.530  21.563   7.140  1.00  0.00     0.009 C 
BRANCH   9  10
HETATM   10  C6  UNL     1      -1.927  21.029   7.063  1.00  0.00     0.103 C 
BRANCH  10  11
HETATM   11  C5  UNL     1      -2.828  21.927   7.841  1.00  0.00     0.217 C 
HETATM   12  N2  UNL     1      -2.704  23.330   7.659  1.00  0.00    -0.361 N 
ATOM     13  H2  UNL     1      -2.013  23.715   7.015  1.00  0.00     0.162 HD
HETATM   14  O1  UNL     1      -3.660  21.417   8.627  1.00  0.00    -0.274 OA
BRANCH  12  15
HETATM   15  C4  UNL     1      -3.588  24.206   8.416  1.00  0.00     0.122 C 
BRANCH  15  16
HETATM   16  C3  UNL     1      -2.845  25.456   8.869  1.00  0.00     0.021 C 
BRANCH  16  17
HETATM   17  C2  UNL     1      -1.343  25.229   8.754  1.00  0.00     0.029 C 
BRANCH  17  18
HETATM   18  C1  UNL     1      -0.703  26.315   7.908  1.00  0.00     0.229 C 
BRANCH  18  19
HETATM   19  N1  UNL     1      -0.488  25.826   6.572  1.00  0.00    -0.079 N 
ATOM     20  H13 UNL     1       0.429  26.088   6.209  1.00  0.00     0.274 HD
ATOM     21  H12 UNL     1      -0.371  24.813   6.548  1.00  0.00     0.274 HD
ATOM     22  H11 UNL     1      -1.245  26.140   5.965  1.00  0.00     0.274 HD
ENDBRANCH  18  19
ENDBRANCH  17  18
ENDBRANCH  16  17
ENDBRANCH  15  16
ENDBRANCH  12  15
ENDBRANCH  10  11
ENDBRANCH   9  10
ENDBRANCH   8   9
ENDBRANCH   7   8
ENDBRANCH   6   7
ENDBRANCH   4   6
ENDBRANCH   1   4
BRANCH   1  23
HETATM   23  N4  UNL     1       5.421  23.437   5.880  1.00  0.00    -0.193 NA
HETATM   24  C11 UNL     1       6.417  22.430   5.746  1.00  0.00     0.111 C 
HETATM   25  C12 UNL     1       7.819  22.886   5.594  1.00  0.00     0.041 C 
HETATM   26  C13 UNL     1       8.038  24.249   5.048  1.00  0.00     0.088 C 
HETATM   27  C21 UNL     1       6.880  25.205   5.306  1.00  0.00     0.041 C 
HETATM   28  C22 UNL     1       5.615  24.492   4.900  1.00  0.00     0.111 C 
BRANCH  26  29
HETATM   29  N5  UNL     1       8.257  24.277   3.621  1.00  0.00    -0.338 N 
HETATM   30  C14 UNL     1       9.234  25.165   3.093  1.00  0.00     0.316 C 
HETATM   31  O4  UNL     1       9.896  25.909   3.865  1.00  0.00    -0.247 OA
HETATM   32  N6  UNL     1       9.431  25.184   1.686  1.00  0.00    -0.339 N 
ATOM     33  H6  UNL     1       8.894  24.573   1.072  1.00  0.00     0.164 HD
ATOM     34  H5  UNL     1       7.719  23.669   3.003  1.00  0.00     0.164 HD
BRANCH  32  35
HETATM   35  C15 UNL     1      10.420  26.099   1.149  1.00  0.00     0.086 C 
HETATM   36  C16 UNL     1       9.750  27.447   0.825  1.00  0.00     0.025 C 
HETATM   37  C17 UNL     1      10.862  28.425   0.595  1.00  0.00     0.002 C 
HETATM   38  C18 UNL     1      11.796  28.010  -0.506  1.00  0.00     0.000 C 
HETATM   39  C19 UNL     1      12.132  26.562  -0.528  1.00  0.00     0.002 C 
HETATM   40  C20 UNL     1      11.028  25.629  -0.149  1.00  0.00     0.025 C 
ENDBRANCH  32  35
ENDBRANCH  26  29
ENDBRANCH   1  23
TORSDOF 15
ENDMDL
