MODEL 1
REMARK VINA RESULT: -9.466334486      0.000      0.000
REMARK  16 active torsions:
REMARK  status: ('A' for Active; 'I' for Inactive)
REMARK    1  A    between atoms: C2_2  and  C3_3 
REMARK    2  A    between atoms: C3_3  and  C4_4 
REMARK    3  A    between atoms: C4_4  and  C5_5 
REMARK    4  A    between atoms: C5_5  and  C6_6 
REMARK    5  A    between atoms: C6_6  and  C7_7 
REMARK    6  A    between atoms: C7_7  and  C8_8 
REMARK    7  A    between atoms: C8_8  and  C9_9 
REMARK    8  A    between atoms: C9_9  and  N5_23 
REMARK    9  A    between atoms: N1_10  and  C10_12 
REMARK   10  A    between atoms: C10_12  and  C11_13 
REMARK   11  A    between atoms: C11_13  and  C12_14 
REMARK   12  A    between atoms: C12_14  and  C13_15 
REMARK   13  A    between atoms: C13_15  and  N2_16 
REMARK       I    between atoms: N2_16  and  C14_18 
REMARK       I    between atoms: N6_26  and  C17_27 
REMARK   14  A    between atoms: C17_27  and  C18_29 
REMARK   15  A    between atoms: C18_29  and  N7_30 
REMARK   16  A    between atoms: C18_29  and  C19_34 
ROOT
HETATM    1  C9  UNL     1       3.484  23.077   5.794  1.00  0.00     0.075 C 
HETATM    2  N1  UNL     1       2.510  23.889   5.502  1.00  0.00    -0.380 N 
ATOM      3  H1  UNL     1       2.724  24.805   5.107  1.00  0.00     0.160 HD
ENDROOT
BRANCH   1   4
HETATM    4  C8  UNL     1       3.129  21.773   6.354  1.00  0.00     0.076 C 
BRANCH   4   5
HETATM    5  C7  UNL     1       3.379  21.577   7.805  1.00  0.00     0.007 C 
BRANCH   5   6
HETATM    6  C6  UNL     1       2.117  21.631   8.651  1.00  0.00     0.000 C 
BRANCH   6   7
HETATM    7  C5  UNL     1       1.056  20.773   8.045  1.00  0.00     0.000 C 
BRANCH   7   8
HETATM    8  C4  UNL     1      -0.325  21.198   8.521  1.00  0.00     0.000 C 
BRANCH   8   9
HETATM    9  C3  UNL     1      -1.262  21.076   7.331  1.00  0.00    -0.000 C 
BRANCH   9  10
HETATM   10  C2  UNL     1      -2.625  21.680   7.666  1.00  0.00    -0.005 C 
HETATM   11  C1  UNL     1      -3.535  20.562   8.164  1.00  0.00     0.005 C 
ENDBRANCH   9  10
ENDBRANCH   8   9
ENDBRANCH   7   8
ENDBRANCH   6   7
ENDBRANCH   5   6
ENDBRANCH   4   5
ENDBRANCH   1   4
BRANCH   1  12
HETATM   12  N5  UNL     1       4.792  23.544   5.536  1.00  0.00    -0.368 N 
HETATM   13  C15 UNL     1       5.947  22.944   6.221  1.00  0.00     0.144 C 
HETATM   14  C16 UNL     1       6.994  22.783   5.129  1.00  0.00     0.145 C 
HETATM   15  N6  UNL     1       7.446  24.105   4.687  1.00  0.00    -0.347 N 
HETATM   16  C17 UNL     1       8.835  24.296   4.548  1.00  0.00     0.251 C 
HETATM   17  C24 UNL     1       6.412  25.069   4.443  1.00  0.00     0.145 C 
HETATM   18  O1  UNL     1       9.564  23.272   4.814  1.00  0.00    -0.271 OA
HETATM   19  C25 UNL     1       5.012  24.602   4.598  1.00  0.00     0.144 C 
BRANCH  16  20
HETATM   20  C18 UNL     1       9.535  25.514   4.139  1.00  0.00     0.278 C 
BRANCH  20  21
HETATM   21  N7  UNL     1      10.218  25.445   2.879  1.00  0.00    -0.066 N 
ATOM     22  H73 UNL     1      11.103  24.950   2.990  1.00  0.00     0.275 HD
ATOM     23  H72 UNL     1       9.730  24.804   2.253  1.00  0.00     0.275 HD
ATOM     24  H71 UNL     1      10.374  26.338   2.412  1.00  0.00     0.275 HD
ENDBRANCH  20  21
BRANCH  20  25
HETATM   25  C19 UNL     1       8.750  26.781   4.166  1.00  0.00     0.028 C 
HETATM   26  C20 UNL     1       8.965  27.747   3.066  1.00  0.00     0.034 C 
HETATM   27  C21 UNL     1       9.435  29.094   3.591  1.00  0.00     0.232 C 
HETATM   28  N8  UNL     1       8.474  29.676   4.503  1.00  0.00    -0.075 N 
HETATM   29  C22 UNL     1       7.883  28.690   5.383  1.00  0.00     0.232 C 
ATOM     30  H82 UNL     1       8.888  30.442   5.034  1.00  0.00     0.277 HD
ATOM     31  H81 UNL     1       7.756  30.197   3.999  1.00  0.00     0.277 HD
HETATM   32  C23 UNL     1       8.861  27.519   5.483  1.00  0.00     0.034 C 
ENDBRANCH  20  25
ENDBRANCH  16  20
ENDBRANCH   1  12
BRANCH   2  33
HETATM   33  C10 UNL     1       1.131  23.516   5.725  1.00  0.00     0.121 C 
BRANCH  33  34
HETATM   34  C11 UNL     1       0.559  24.349   6.831  1.00  0.00     0.021 C 
BRANCH  34  35
HETATM   35  C12 UNL     1      -0.885  24.654   6.517  1.00  0.00     0.021 C 
BRANCH  35  36
HETATM   36  C13 UNL     1      -1.152  26.154   6.567  1.00  0.00     0.122 C 
BRANCH  36  37
HETATM   37  N2  UNL     1      -0.286  26.751   7.577  1.00  0.00    -0.365 N 
HETATM   38  C14 UNL     1      -0.315  28.155   7.748  1.00  0.00     0.181 C 
HETATM   39  N3  UNL     1       0.744  28.791   8.064  1.00  0.00    -0.374 N 
HETATM   40  N4  UNL     1      -1.529  28.851   7.565  1.00  0.00    -0.064 NA
ATOM     41  H32 UNL     1       1.622  28.288   8.197  1.00  0.00     0.158 HD
ATOM     42  H31 UNL     1       0.723  29.803   8.188  1.00  0.00     0.158 HD
ATOM     43  H2  UNL     1       0.327  26.170   8.149  1.00  0.00     0.162 HD
ENDBRANCH  36  37
ENDBRANCH  35  36
ENDBRANCH  34  35
ENDBRANCH  33  34
ENDBRANCH   2  33
TORSDOF 16
ENDMDL
MODEL 2
REMARK VINA RESULT: -9.326238739      1.158      1.504
REMARK  16 active torsions:
REMARK  status: ('A' for Active; 'I' for Inactive)
REMARK    1  A    between atoms: C2_2  and  C3_3 
REMARK    2  A    between atoms: C3_3  and  C4_4 
REMARK    3  A    between atoms: C4_4  and  C5_5 
REMARK    4  A    between atoms: C5_5  and  C6_6 
REMARK    5  A    between atoms: C6_6  and  C7_7 
REMARK    6  A    between atoms: C7_7  and  C8_8 
REMARK    7  A    between atoms: C8_8  and  C9_9 
REMARK    8  A    between atoms: C9_9  and  N5_23 
REMARK    9  A    between atoms: N1_10  and  C10_12 
REMARK   10  A    between atoms: C10_12  and  C11_13 
REMARK   11  A    between atoms: C11_13  and  C12_14 
REMARK   12  A    between atoms: C12_14  and  C13_15 
REMARK   13  A    between atoms: C13_15  and  N2_16 
REMARK       I    between atoms: N2_16  and  C14_18 
REMARK       I    between atoms: N6_26  and  C17_27 
REMARK   14  A    between atoms: C17_27  and  C18_29 
REMARK   15  A    between atoms: C18_29  and  N7_30 
REMARK   16  A    between atoms: C18_29  and  C19_34 
ROOT
HETATM    1  C9  UNL     1       3.471  23.058   5.901  1.00  0.00     0.075 C 
HETATM    2  N1  UNL     1       2.484  23.794   5.477  1.00  0.00    -0.380 N 
ATOM      3  H1  UNL     1       2.684  24.650   4.960  1.00  0.00     0.160 HD
ENDROOT
BRANCH   1   4
HETATM    4  C8  UNL     1       3.136  21.838   6.635  1.00  0.00     0.076 C 
BRANCH   4   5
HETATM    5  C7  UNL     1       3.301  21.878   8.110  1.00  0.00     0.007 C 
BRANCH   5   6
HETATM    6  C6  UNL     1       1.988  21.779   8.871  1.00  0.00     0.000 C 
BRANCH   6   7
HETATM    7  C5  UNL     1       1.075  20.810   8.195  1.00  0.00     0.000 C 
BRANCH   7   8
HETATM    8  C4  UNL     1      -0.381  21.146   8.479  1.00  0.00     0.000 C 
BRANCH   8   9
HETATM    9  C3  UNL     1      -1.117  21.086   7.151  1.00  0.00    -0.000 C 
BRANCH   9  10
HETATM   10  C2  UNL     1      -2.428  21.867   7.235  1.00  0.00    -0.005 C 
HETATM   11  C1  UNL     1      -3.313  21.208   8.289  1.00  0.00     0.005 C 
ENDBRANCH   9  10
ENDBRANCH   8   9
ENDBRANCH   7   8
ENDBRANCH   6   7
ENDBRANCH   5   6
ENDBRANCH   4   5
ENDBRANCH   1   4
BRANCH   1  12
HETATM   12  N5  UNL     1       4.772  23.520   5.604  1.00  0.00    -0.368 N 
HETATM   13  C15 UNL     1       5.939  22.968   6.309  1.00  0.00     0.144 C 
HETATM   14  C16 UNL     1       6.976  22.754   5.217  1.00  0.00     0.145 C 
HETATM   15  N6  UNL     1       7.413  24.052   4.697  1.00  0.00    -0.347 N 
HETATM   16  C17 UNL     1       8.800  24.245   4.533  1.00  0.00     0.251 C 
HETATM   17  C24 UNL     1       6.369  24.993   4.410  1.00  0.00     0.145 C 
HETATM   18  O1  UNL     1       9.539  23.243   4.849  1.00  0.00    -0.271 OA
HETATM   19  C25 UNL     1       4.974  24.525   4.605  1.00  0.00     0.144 C 
BRANCH  16  20
HETATM   20  C18 UNL     1       9.485  25.443   4.049  1.00  0.00     0.278 C 
BRANCH  20  21
HETATM   21  N7  UNL     1      10.056  25.345   2.737  1.00  0.00    -0.066 N 
ATOM     22  H73 UNL     1      10.414  24.402   2.582  1.00  0.00     0.275 HD
ATOM     23  H72 UNL     1       9.318  25.376   2.033  1.00  0.00     0.275 HD
ATOM     24  H71 UNL     1      10.777  26.031   2.516  1.00  0.00     0.275 HD
ENDBRANCH  20  21
BRANCH  20  25
HETATM   25  C19 UNL     1       8.732  26.727   4.127  1.00  0.00     0.028 C 
HETATM   26  C20 UNL     1       9.007  27.750   3.094  1.00  0.00     0.034 C 
HETATM   27  C21 UNL     1       9.491  29.051   3.713  1.00  0.00     0.232 C 
HETATM   28  N8  UNL     1       8.515  29.603   4.627  1.00  0.00    -0.075 N 
HETATM   29  C22 UNL     1       7.871  28.583   5.426  1.00  0.00     0.232 C 
ATOM     30  H82 UNL     1       8.929  30.326   5.215  1.00  0.00     0.277 HD
ATOM     31  H81 UNL     1       7.827  30.171   4.132  1.00  0.00     0.277 HD
HETATM   32  C23 UNL     1       8.815  27.383   5.488  1.00  0.00     0.034 C 
ENDBRANCH  20  25
ENDBRANCH  16  20
ENDBRANCH   1  12
BRANCH   2  33
HETATM   33  C10 UNL     1       1.110  23.419   5.725  1.00  0.00     0.121 C 
BRANCH  33  34
HETATM   34  C11 UNL     1       0.301  24.645   6.020  1.00  0.00     0.021 C 
BRANCH  34  35
HETATM   35  C12 UNL     1      -0.017  24.678   7.495  1.00  0.00     0.021 C 
BRANCH  35  36
HETATM   36  C13 UNL     1      -0.570  26.038   7.906  1.00  0.00     0.122 C 
BRANCH  36  37
HETATM   37  N2  UNL     1      -2.006  26.058   7.651  1.00  0.00    -0.365 N 
HETATM   38  C14 UNL     1      -2.877  25.573   8.654  1.00  0.00     0.181 C 
HETATM   39  N3  UNL     1      -3.955  24.970   8.338  1.00  0.00    -0.374 N 
HETATM   40  N4  UNL     1      -2.545  25.762  10.012  1.00  0.00    -0.064 NA
ATOM     41  H32 UNL     1      -4.196  24.833   7.356  1.00  0.00     0.158 HD
ATOM     42  H31 UNL     1      -4.584  24.620   9.061  1.00  0.00     0.158 HD
ATOM     43  H2  UNL     1      -2.374  26.414   6.769  1.00  0.00     0.162 HD
ENDBRANCH  36  37
ENDBRANCH  35  36
ENDBRANCH  34  35
ENDBRANCH  33  34
ENDBRANCH   2  33
TORSDOF 16
ENDMDL
MODEL 3
REMARK VINA RESULT: -8.920986923      1.262      1.647
REMARK  16 active torsions:
REMARK  status: ('A' for Active; 'I' for Inactive)
REMARK    1  A    between atoms: C2_2  and  C3_3 
REMARK    2  A    between atoms: C3_3  and  C4_4 
REMARK    3  A    between atoms: C4_4  and  C5_5 
REMARK    4  A    between atoms: C5_5  and  C6_6 
REMARK    5  A    between atoms: C6_6  and  C7_7 
REMARK    6  A    between atoms: C7_7  and  C8_8 
REMARK    7  A    between atoms: C8_8  and  C9_9 
REMARK    8  A    between atoms: C9_9  and  N5_23 
REMARK    9  A    between atoms: N1_10  and  C10_12 
REMARK   10  A    between atoms: C10_12  and  C11_13 
REMARK   11  A    between atoms: C11_13  and  C12_14 
REMARK   12  A    between atoms: C12_14  and  C13_15 
REMARK   13  A    between atoms: C13_15  and  N2_16 
REMARK       I    between atoms: N2_16  and  C14_18 
REMARK       I    between atoms: N6_26  and  C17_27 
REMARK   14  A    between atoms: C17_27  and  C18_29 
REMARK   15  A    between atoms: C18_29  and  N7_30 
REMARK   16  A    between atoms: C18_29  and  C19_34 
ROOT
HETATM    1  C9  UNL     1       3.358  23.027   5.856  1.00  0.00     0.075 C 
HETATM    2  N1  UNL     1       2.355  23.778   5.507  1.00  0.00    -0.380 N 
ATOM      3  H1  UNL     1       2.535  24.668   5.042  1.00  0.00     0.160 HD
ENDROOT
BRANCH   1   4
HETATM    4  C8  UNL     1       3.053  21.758   6.517  1.00  0.00     0.076 C 
BRANCH   4   5
HETATM    5  C7  UNL     1       3.272  21.697   7.984  1.00  0.00     0.007 C 
BRANCH   5   6
HETATM    6  C6  UNL     1       1.985  21.736   8.793  1.00  0.00     0.000 C 
BRANCH   6   7
HETATM    7  C5  UNL     1       0.960  20.847   8.170  1.00  0.00     0.000 C 
BRANCH   7   8
HETATM    8  C4  UNL     1      -0.444  21.265   8.579  1.00  0.00     0.000 C 
BRANCH   8   9
HETATM    9  C3  UNL     1      -1.315  21.170   7.338  1.00  0.00    -0.000 C 
BRANCH   9  10
HETATM   10  C2  UNL     1      -2.719  21.696   7.633  1.00  0.00    -0.005 C 
HETATM   11  C1  UNL     1      -3.517  20.583   8.305  1.00  0.00     0.005 C 
ENDBRANCH   9  10
ENDBRANCH   8   9
ENDBRANCH   7   8
ENDBRANCH   6   7
ENDBRANCH   5   6
ENDBRANCH   4   5
ENDBRANCH   1   4
BRANCH   1  12
HETATM   12  N5  UNL     1       4.648  23.520   5.558  1.00  0.00    -0.368 N 
HETATM   13  C15 UNL     1       5.838  22.933   6.194  1.00  0.00     0.144 C 
HETATM   14  C16 UNL     1       6.847  22.803   5.063  1.00  0.00     0.145 C 
HETATM   15  N6  UNL     1       7.260  24.138   4.621  1.00  0.00    -0.347 N 
HETATM   16  C17 UNL     1       8.640  24.355   4.436  1.00  0.00     0.251 C 
HETATM   17  C24 UNL     1       6.201  25.086   4.426  1.00  0.00     0.145 C 
HETATM   18  O1  UNL     1       9.395  23.342   4.663  1.00  0.00    -0.271 OA
HETATM   19  C25 UNL     1       4.816  24.593   4.626  1.00  0.00     0.144 C 
BRANCH  16  20
HETATM   20  C18 UNL     1       9.303  25.590   4.017  1.00  0.00     0.278 C 
BRANCH  20  21
HETATM   21  N7  UNL     1      10.698  25.471   3.704  1.00  0.00    -0.066 N 
ATOM     22  H73 UNL     1      11.141  24.805   4.337  1.00  0.00     0.275 HD
ATOM     23  H72 UNL     1      10.815  24.983   2.816  1.00  0.00     0.275 HD
ATOM     24  H71 UNL     1      11.225  26.344   3.694  1.00  0.00     0.275 HD
ENDBRANCH  20  21
BRANCH  20  25
HETATM   25  C19 UNL     1       8.652  26.365   2.923  1.00  0.00     0.028 C 
HETATM   26  C20 UNL     1       8.579  25.737   1.584  1.00  0.00     0.034 C 
HETATM   27  C21 UNL     1       9.276  26.584   0.532  1.00  0.00     0.232 C 
HETATM   28  N8  UNL     1       8.686  27.902   0.431  1.00  0.00    -0.075 N 
HETATM   29  C22 UNL     1       8.334  28.448   1.724  1.00  0.00     0.232 C 
ATOM     30  H82 UNL     1       9.295  28.538  -0.084  1.00  0.00     0.277 HD
ATOM     31  H81 UNL     1       7.884  27.899  -0.199  1.00  0.00     0.277 HD
HETATM   32  C23 UNL     1       9.214  27.762   2.769  1.00  0.00     0.034 C 
ENDBRANCH  20  25
ENDBRANCH  16  20
ENDBRANCH   1  12
BRANCH   2  33
HETATM   33  C10 UNL     1       0.991  23.374   5.764  1.00  0.00     0.121 C 
BRANCH  33  34
HETATM   34  C11 UNL     1       0.180  24.569   6.162  1.00  0.00     0.021 C 
BRANCH  34  35
HETATM   35  C12 UNL     1       0.158  24.666   7.668  1.00  0.00     0.021 C 
BRANCH  35  36
HETATM   36  C13 UNL     1      -1.128  25.322   8.155  1.00  0.00     0.122 C 
BRANCH  36  37
HETATM   37  N2  UNL     1      -1.672  26.146   7.081  1.00  0.00    -0.365 N 
HETATM   38  C14 UNL     1      -1.656  27.552   7.234  1.00  0.00     0.181 C 
HETATM   39  N3  UNL     1      -2.597  28.265   6.751  1.00  0.00    -0.374 N 
HETATM   40  N4  UNL     1      -0.589  28.163   7.925  1.00  0.00    -0.064 NA
ATOM     41  H32 UNL     1      -3.368  27.824   6.250  1.00  0.00     0.158 HD
ATOM     42  H31 UNL     1      -2.586  29.279   6.861  1.00  0.00     0.158 HD
ATOM     43  H2  UNL     1      -2.054  25.717   6.238  1.00  0.00     0.162 HD
ENDBRANCH  36  37
ENDBRANCH  35  36
ENDBRANCH  34  35
ENDBRANCH  33  34
ENDBRANCH   2  33
TORSDOF 16
ENDMDL
MODEL 4
REMARK VINA RESULT: -8.920725700      2.767      9.910
REMARK  16 active torsions:
REMARK  status: ('A' for Active; 'I' for Inactive)
REMARK    1  A    between atoms: C2_2  and  C3_3 
REMARK    2  A    between atoms: C3_3  and  C4_4 
REMARK    3  A    between atoms: C4_4  and  C5_5 
REMARK    4  A    between atoms: C5_5  and  C6_6 
REMARK    5  A    between atoms: C6_6  and  C7_7 
REMARK    6  A    between atoms: C7_7  and  C8_8 
REMARK    7  A    between atoms: C8_8  and  C9_9 
REMARK    8  A    between atoms: C9_9  and  N5_23 
REMARK    9  A    between atoms: N1_10  and  C10_12 
REMARK   10  A    between atoms: C10_12  and  C11_13 
REMARK   11  A    between atoms: C11_13  and  C12_14 
REMARK   12  A    between atoms: C12_14  and  C13_15 
REMARK   13  A    between atoms: C13_15  and  N2_16 
REMARK       I    between atoms: N2_16  and  C14_18 
REMARK       I    between atoms: N6_26  and  C17_27 
REMARK   14  A    between atoms: C17_27  and  C18_29 
REMARK   15  A    between atoms: C18_29  and  N7_30 
REMARK   16  A    between atoms: C18_29  and  C19_34 
ROOT
HETATM    1  C9  UNL     1       8.880  25.910   4.164  1.00  0.00     0.075 C 
HETATM    2  N1  UNL     1       9.521  25.598   3.076  1.00  0.00    -0.380 N 
ATOM      3  H1  UNL     1       9.257  24.757   2.563  1.00  0.00     0.160 HD
ENDROOT
BRANCH   1   4
HETATM    4  C8  UNL     1       9.292  27.126   4.865  1.00  0.00     0.076 C 
BRANCH   4   5
HETATM    5  C7  UNL     1       8.585  28.380   4.502  1.00  0.00     0.007 C 
BRANCH   5   6
HETATM    6  C6  UNL     1       7.610  28.859   5.566  1.00  0.00     0.000 C 
BRANCH   6   7
HETATM    7  C5  UNL     1       7.953  28.251   6.887  1.00  0.00     0.000 C 
BRANCH   7   8
HETATM    8  C4  UNL     1       7.980  29.306   7.981  1.00  0.00     0.000 C 
BRANCH   8   9
HETATM    9  C3  UNL     1       7.602  28.611   9.278  1.00  0.00    -0.000 C 
BRANCH   9  10
HETATM   10  C2  UNL     1       8.755  28.689  10.278  1.00  0.00    -0.005 C 
HETATM   11  C1  UNL     1       8.599  27.549  11.279  1.00  0.00     0.005 C 
ENDBRANCH   9  10
ENDBRANCH   8   9
ENDBRANCH   7   8
ENDBRANCH   6   7
ENDBRANCH   5   6
ENDBRANCH   4   5
ENDBRANCH   1   4
BRANCH   1  12
HETATM   12  N5  UNL     1       7.844  25.033   4.557  1.00  0.00    -0.368 N 
HETATM   13  C15 UNL     1       8.142  23.638   4.914  1.00  0.00     0.144 C 
HETATM   14  C16 UNL     1       7.314  23.380   6.164  1.00  0.00     0.145 C 
HETATM   15  N6  UNL     1       5.890  23.399   5.819  1.00  0.00    -0.347 N 
HETATM   16  C17 UNL     1       5.090  22.359   6.335  1.00  0.00     0.251 C 
HETATM   17  C24 UNL     1       5.465  24.484   4.984  1.00  0.00     0.145 C 
HETATM   18  O1  UNL     1       5.702  21.504   7.073  1.00  0.00    -0.271 OA
HETATM   19  C25 UNL     1       6.491  25.494   4.624  1.00  0.00     0.144 C 
BRANCH  16  20
HETATM   20  C18 UNL     1       3.658  22.146   6.128  1.00  0.00     0.278 C 
BRANCH  20  21
HETATM   21  N7  UNL     1       3.251  20.780   5.967  1.00  0.00    -0.066 N 
ATOM     22  H73 UNL     1       3.993  20.246   5.517  1.00  0.00     0.275 HD
ATOM     23  H72 UNL     1       3.219  20.316   6.875  1.00  0.00     0.275 HD
ATOM     24  H71 UNL     1       2.370  20.636   5.472  1.00  0.00     0.275 HD
ENDBRANCH  20  21
BRANCH  20  25
HETATM   25  C19 UNL     1       2.735  22.788   7.106  1.00  0.00     0.028 C 
HETATM   26  C20 UNL     1       2.545  22.120   8.413  1.00  0.00     0.034 C 
HETATM   27  C21 UNL     1       1.086  21.766   8.652  1.00  0.00     0.232 C 
HETATM   28  N8  UNL     1       0.241  22.941   8.634  1.00  0.00    -0.075 N 
HETATM   29  C22 UNL     1       0.629  23.881   7.603  1.00  0.00     0.232 C 
ATOM     30  H82 UNL     1      -0.742  22.686   8.548  1.00  0.00     0.277 HD
ATOM     31  H81 UNL     1       0.214  23.389   9.549  1.00  0.00     0.277 HD
HETATM   32  C23 UNL     1       1.373  23.098   6.522  1.00  0.00     0.034 C 
ENDBRANCH  20  25
ENDBRANCH  16  20
ENDBRANCH   1  12
BRANCH   2  33
HETATM   33  C10 UNL     1      10.601  26.422   2.581  1.00  0.00     0.121 C 
BRANCH  33  34
HETATM   34  C11 UNL     1      10.141  27.182   1.375  1.00  0.00     0.021 C 
BRANCH  34  35
HETATM   35  C12 UNL     1      11.315  27.391   0.450  1.00  0.00     0.021 C 
BRANCH  35  36
HETATM   36  C13 UNL     1      11.163  26.566  -0.823  1.00  0.00     0.122 C 
BRANCH  36  37
HETATM   37  N2  UNL     1      11.276  25.152  -0.482  1.00  0.00    -0.365 N 
HETATM   38  C14 UNL     1      10.125  24.337  -0.592  1.00  0.00     0.181 C 
HETATM   39  N3  UNL     1       9.934  23.374   0.222  1.00  0.00    -0.374 N 
HETATM   40  N4  UNL     1       9.187  24.596  -1.613  1.00  0.00    -0.064 NA
ATOM     41  H32 UNL     1      10.613  23.186   0.960  1.00  0.00     0.158 HD
ATOM     42  H31 UNL     1       9.105  22.786   0.143  1.00  0.00     0.158 HD
ATOM     43  H2  UNL     1      12.165  24.759  -0.171  1.00  0.00     0.162 HD
ENDBRANCH  36  37
ENDBRANCH  35  36
ENDBRANCH  34  35
ENDBRANCH  33  34
ENDBRANCH   2  33
TORSDOF 16
ENDMDL
MODEL 5
REMARK VINA RESULT: -8.799669187      1.421      2.113
REMARK  16 active torsions:
REMARK  status: ('A' for Active; 'I' for Inactive)
REMARK    1  A    between atoms: C2_2  and  C3_3 
REMARK    2  A    between atoms: C3_3  and  C4_4 
REMARK    3  A    between atoms: C4_4  and  C5_5 
REMARK    4  A    between atoms: C5_5  and  C6_6 
REMARK    5  A    between atoms: C6_6  and  C7_7 
REMARK    6  A    between atoms: C7_7  and  C8_8 
REMARK    7  A    between atoms: C8_8  and  C9_9 
REMARK    8  A    between atoms: C9_9  and  N5_23 
REMARK    9  A    between atoms: N1_10  and  C10_12 
REMARK   10  A    between atoms: C10_12  and  C11_13 
REMARK   11  A    between atoms: C11_13  and  C12_14 
REMARK   12  A    between atoms: C12_14  and  C13_15 
REMARK   13  A    between atoms: C13_15  and  N2_16 
REMARK       I    between atoms: N2_16  and  C14_18 
REMARK       I    between atoms: N6_26  and  C17_27 
REMARK   14  A    between atoms: C17_27  and  C18_29 
REMARK   15  A    between atoms: C18_29  and  N7_30 
REMARK   16  A    between atoms: C18_29  and  C19_34 
ROOT
HETATM    1  C9  UNL     1       3.252  23.009   5.925  1.00  0.00     0.075 C 
HETATM    2  N1  UNL     1       2.194  23.711   5.640  1.00  0.00    -0.380 N 
ATOM      3  H1  UNL     1       2.303  24.618   5.187  1.00  0.00     0.160 HD
ENDROOT
BRANCH   1   4
HETATM    4  C8  UNL     1       3.047  21.713   6.572  1.00  0.00     0.076 C 
BRANCH   4   5
HETATM    5  C7  UNL     1       3.279  21.652   8.037  1.00  0.00     0.007 C 
BRANCH   5   6
HETATM    6  C6  UNL     1       1.997  21.619   8.855  1.00  0.00     0.000 C 
BRANCH   6   7
HETATM    7  C5  UNL     1       0.975  20.770   8.173  1.00  0.00     0.000 C 
BRANCH   7   8
HETATM    8  C4  UNL     1      -0.420  21.068   8.701  1.00  0.00     0.000 C 
BRANCH   8   9
HETATM    9  C3  UNL     1      -1.366  21.011   7.513  1.00  0.00    -0.000 C 
BRANCH   9  10
HETATM   10  C2  UNL     1      -2.663  21.754   7.831  1.00  0.00    -0.005 C 
HETATM   11  C1  UNL     1      -3.669  20.748   8.382  1.00  0.00     0.005 C 
ENDBRANCH   9  10
ENDBRANCH   8   9
ENDBRANCH   7   8
ENDBRANCH   6   7
ENDBRANCH   5   6
ENDBRANCH   4   5
ENDBRANCH   1   4
BRANCH   1  12
HETATM   12  N5  UNL     1       4.497  23.578   5.578  1.00  0.00    -0.368 N 
HETATM   13  C15 UNL     1       5.734  23.125   6.235  1.00  0.00     0.144 C 
HETATM   14  C16 UNL     1       6.740  22.997   5.101  1.00  0.00     0.145 C 
HETATM   15  N6  UNL     1       7.046  24.327   4.567  1.00  0.00    -0.347 N 
HETATM   16  C17 UNL     1       8.404  24.635   4.349  1.00  0.00     0.251 C 
HETATM   17  C24 UNL     1       5.917  25.177   4.324  1.00  0.00     0.145 C 
HETATM   18  O1  UNL     1       9.237  23.699   4.632  1.00  0.00    -0.271 OA
HETATM   19  C25 UNL     1       4.575  24.595   4.575  1.00  0.00     0.144 C 
BRANCH  16  20
HETATM   20  C18 UNL     1       8.967  25.886   3.840  1.00  0.00     0.278 C 
BRANCH  20  21
HETATM   21  N7  UNL     1       9.715  26.661   4.788  1.00  0.00    -0.066 N 
ATOM     22  H73 UNL     1       9.867  27.602   4.426  1.00  0.00     0.275 HD
ATOM     23  H72 UNL     1       9.136  26.870   5.601  1.00  0.00     0.275 HD
ATOM     24  H71 UNL     1      10.603  26.256   5.087  1.00  0.00     0.275 HD
ENDBRANCH  20  21
BRANCH  20  25
HETATM   25  C19 UNL     1       9.765  25.802   2.584  1.00  0.00     0.028 C 
HETATM   26  C20 UNL     1      10.673  26.928   2.269  1.00  0.00     0.034 C 
HETATM   27  C21 UNL     1      10.330  27.564   0.932  1.00  0.00     0.232 C 
HETATM   28  N8  UNL     1      10.423  26.610  -0.152  1.00  0.00    -0.075 N 
HETATM   29  C22 UNL     1       9.910  25.308   0.215  1.00  0.00     0.232 C 
ATOM     30  H82 UNL     1       9.965  26.963  -0.992  1.00  0.00     0.277 HD
ATOM     31  H81 UNL     1      11.378  26.544  -0.503  1.00  0.00     0.277 HD
HETATM   32  C23 UNL     1       8.920  25.510   1.362  1.00  0.00     0.034 C 
ENDBRANCH  20  25
ENDBRANCH  16  20
ENDBRANCH   1  12
BRANCH   2  33
HETATM   33  C10 UNL     1       0.868  23.228   5.952  1.00  0.00     0.121 C 
BRANCH  33  34
HETATM   34  C11 UNL     1      -0.007  24.380   6.339  1.00  0.00     0.021 C 
BRANCH  34  35
HETATM   35  C12 UNL     1       0.098  24.597   7.829  1.00  0.00     0.021 C 
BRANCH  35  36
HETATM   36  C13 UNL     1      -1.021  25.502   8.331  1.00  0.00     0.122 C 
BRANCH  36  37
HETATM   37  N2  UNL     1      -1.609  26.198   7.191  1.00  0.00    -0.365 N 
HETATM   38  C14 UNL     1      -1.669  27.610   7.219  1.00  0.00     0.181 C 
HETATM   39  N3  UNL     1      -2.647  28.227   6.681  1.00  0.00    -0.374 N 
HETATM   40  N4  UNL     1      -0.635  28.336   7.847  1.00  0.00    -0.064 NA
ATOM     41  H32 UNL     1      -3.395  27.703   6.226  1.00  0.00     0.158 HD
ATOM     42  H31 UNL     1      -2.691  29.246   6.701  1.00  0.00     0.158 HD
ATOM     43  H2  UNL     1      -1.970  25.676   6.391  1.00  0.00     0.162 HD
ENDBRANCH  36  37
ENDBRANCH  35  36
ENDBRANCH  34  35
ENDBRANCH  33  34
ENDBRANCH   2  33
TORSDOF 16
ENDMDL
