MODEL 1
REMARK VINA RESULT: -7.373619884      0.000      0.000
REMARK  10 active torsions:
REMARK  status: ('A' for Active; 'I' for Inactive)
REMARK    1  A    between atoms: N3_6  and  C3_7 
REMARK    2  A    between atoms: C3_7  and  C4_8 
REMARK    3  A    between atoms: C6_12  and  C7_13 
REMARK    4  A    between atoms: C7_13  and  C8_14 
REMARK    5  A    between atoms: C8_14  and  C9_15 
REMARK    6  A    between atoms: C9_15  and  N5_16 
REMARK    7  A    between atoms: N8_23  and  C12_24 
REMARK    8  A    between atoms: C12_24  and  C13_25 
REMARK    9  A    between atoms: C14_26  and  C15_27 
REMARK   10  A    between atoms: C15_27  and  N9_28 
ROOT
HETATM    1  C4  UNL     1      16.697  -8.405  13.797  1.00  0.00     0.049 A 
HETATM    2  C5  UNL     1      15.588  -7.846  13.199  1.00  0.00     0.116 A 
HETATM    3  N4  UNL     1      16.062  -7.130  12.168  1.00  0.00    -0.354 N 
ATOM      4  H4  UNL     1      15.499  -6.585  11.514  1.00  0.00     0.166 HD
HETATM    5  C6  UNL     1      17.421  -7.249  12.139  1.00  0.00     0.084 A 
HETATM    6  N8  UNL     1      17.812  -8.034  13.140  1.00  0.00    -0.326 N 
ENDROOT
BRANCH   5   7
HETATM    7  C7  UNL     1      18.218  -6.583  11.087  1.00  0.00     0.078 C 
BRANCH   7   8
HETATM    8  C8  UNL     1      17.705  -5.236  10.684  1.00  0.00     0.029 C 
BRANCH   8   9
HETATM    9  C9  UNL     1      18.713  -4.268  10.181  1.00  0.00     0.150 C 
BRANCH   9  10
HETATM   10  N5  UNL     1      18.535  -4.052   8.770  1.00  0.00    -0.287 N 
HETATM   11  C10 UNL     1      17.405  -3.653   8.130  1.00  0.00     0.201 A 
HETATM   12  N6  UNL     1      17.702  -3.586   6.822  1.00  0.00    -0.346 N 
HETATM   13  C11 UNL     1      18.976  -3.934   6.661  1.00  0.00     0.198 A 
ATOM     14  H6  UNL     1      17.059  -3.315   6.078  1.00  0.00     0.167 HD
HETATM   15  N7  UNL     1      19.484  -4.220   7.864  1.00  0.00    -0.293 N 
ATOM     16  H7  UNL     1      20.441  -4.517   8.051  1.00  0.00     0.188 HD
ENDBRANCH   9  10
ENDBRANCH   8   9
ENDBRANCH   7   8
ENDBRANCH   5   7
BRANCH   6  17
HETATM   17  C12 UNL     1      19.139  -8.462  13.470  1.00  0.00     0.224 C 
BRANCH  17  18
HETATM   18  C13 UNL     1      19.491  -9.498  12.455  1.00  0.00    -0.085 C 
HETATM   19  C14 UNL     1      19.793 -10.331  11.639  1.00  0.00    -0.085 C 
BRANCH  19  20
HETATM   20  C15 UNL     1      20.185 -11.334  10.648  1.00  0.00     0.221 C 
BRANCH  20  21
HETATM   21  N9  UNL     1      19.003 -12.077  10.298  1.00  0.00    -0.356 N 
HETATM   22  C16 UNL     1      19.103 -13.230   9.607  1.00  0.00     0.091 A 
HETATM   23  C17 UNL     1      17.970 -13.968   9.255  1.00  0.00     0.017 A 
HETATM   24  C18 UNL     1      16.711 -13.529   9.610  1.00  0.00     0.003 A 
HETATM   25  C19 UNL     1      16.631 -12.348  10.315  1.00  0.00     0.017 A 
HETATM   26  C20 UNL     1      17.776 -11.646  10.645  1.00  0.00     0.091 A 
ENDBRANCH  20  21
ENDBRANCH  19  20
ENDBRANCH  17  18
ENDBRANCH   6  17
BRANCH   1  27
HETATM   27  C3  UNL     1      16.604  -9.280  14.985  1.00  0.00     0.210 C 
BRANCH  27  28
HETATM   28  N3  UNL     1      16.030 -10.579  14.674  1.00  0.00    -0.265 N 
HETATM   29  N1  UNL     1      14.878 -11.178  15.009  1.00  0.00    -0.234 N 
HETATM   30  C1  UNL     1      13.731 -10.820  15.801  1.00  0.00     0.200 C 
HETATM   31  N2  UNL     1      15.244 -12.227  14.307  1.00  0.00    -0.278 N 
HETATM   32  C2  UNL     1      16.404 -11.650  13.956  1.00  0.00     0.220 A 
ATOM     33  H2  UNL     1      14.813 -13.130  14.106  1.00  0.00     0.189 HD
ENDBRANCH  27  28
ENDBRANCH   1  27
TORSDOF 10
ENDMDL
MODEL 2
REMARK VINA RESULT: -7.224322409      4.569      7.703
REMARK  10 active torsions:
REMARK  status: ('A' for Active; 'I' for Inactive)
REMARK    1  A    between atoms: N3_6  and  C3_7 
REMARK    2  A    between atoms: C3_7  and  C4_8 
REMARK    3  A    between atoms: C6_12  and  C7_13 
REMARK    4  A    between atoms: C7_13  and  C8_14 
REMARK    5  A    between atoms: C8_14  and  C9_15 
REMARK    6  A    between atoms: C9_15  and  N5_16 
REMARK    7  A    between atoms: N8_23  and  C12_24 
REMARK    8  A    between atoms: C12_24  and  C13_25 
REMARK    9  A    between atoms: C14_26  and  C15_27 
REMARK   10  A    between atoms: C15_27  and  N9_28 
ROOT
HETATM    1  C4  UNL     1      16.131  -7.393  14.444  1.00  0.00     0.049 A 
HETATM    2  C5  UNL     1      15.622  -8.080  13.363  1.00  0.00     0.116 A 
HETATM    3  N4  UNL     1      15.699  -7.227  12.330  1.00  0.00    -0.354 N 
ATOM      4  H4  UNL     1      15.403  -7.424  11.374  1.00  0.00     0.166 HD
HETATM    5  C6  UNL     1      16.239  -6.054  12.770  1.00  0.00     0.084 A 
HETATM    6  N8  UNL     1      16.505  -6.156  14.071  1.00  0.00    -0.326 N 
ENDROOT
BRANCH   5   7
HETATM    7  C7  UNL     1      16.469  -4.929  11.838  1.00  0.00     0.078 C 
BRANCH   7   8
HETATM    8  C8  UNL     1      17.543  -5.177  10.825  1.00  0.00     0.029 C 
BRANCH   8   9
HETATM    9  C9  UNL     1      18.422  -4.026  10.499  1.00  0.00     0.150 C 
BRANCH   9  10
HETATM   10  N5  UNL     1      18.480  -3.833   9.074  1.00  0.00    -0.287 N 
HETATM   11  C10 UNL     1      17.568  -3.205   8.287  1.00  0.00     0.201 A 
HETATM   12  N6  UNL     1      18.033  -3.263   7.029  1.00  0.00    -0.346 N 
HETATM   13  C11 UNL     1      19.198  -3.908   7.040  1.00  0.00     0.198 A 
ATOM     14  H6  UNL     1      17.572  -2.879   6.204  1.00  0.00     0.167 HD
HETATM   15  N7  UNL     1      19.467  -4.257   8.302  1.00  0.00    -0.293 N 
ATOM     16  H7  UNL     1      20.294  -4.763   8.617  1.00  0.00     0.188 HD
ENDBRANCH   9  10
ENDBRANCH   8   9
ENDBRANCH   7   8
ENDBRANCH   5   7
BRANCH   6  17
HETATM   17  C12 UNL     1      17.107  -5.185  14.935  1.00  0.00     0.224 C 
BRANCH  17  18
HETATM   18  C13 UNL     1      15.973  -4.407  15.516  1.00  0.00    -0.085 C 
HETATM   19  C14 UNL     1      15.057  -3.769  15.969  1.00  0.00    -0.085 C 
BRANCH  19  20
HETATM   20  C15 UNL     1      13.947  -2.977  16.501  1.00  0.00     0.221 C 
BRANCH  20  21
HETATM   21  N9  UNL     1      14.493  -2.075  17.480  1.00  0.00    -0.356 N 
HETATM   22  C16 UNL     1      14.070  -2.120  18.759  1.00  0.00     0.091 A 
HETATM   23  C17 UNL     1      14.585  -1.254  19.727  1.00  0.00     0.017 A 
HETATM   24  C18 UNL     1      15.548  -0.323  19.392  1.00  0.00     0.003 A 
HETATM   25  C19 UNL     1      15.966  -0.294  18.079  1.00  0.00     0.017 A 
HETATM   26  C20 UNL     1      15.432  -1.168  17.150  1.00  0.00     0.091 A 
ENDBRANCH  20  21
ENDBRANCH  19  20
ENDBRANCH  17  18
ENDBRANCH   6  17
BRANCH   1  27
HETATM   27  C3  UNL     1      16.226  -7.990  15.793  1.00  0.00     0.210 C 
BRANCH  27  28
HETATM   28  N3  UNL     1      14.944  -8.022  16.479  1.00  0.00    -0.265 N 
HETATM   29  N1  UNL     1      13.931  -8.900  16.492  1.00  0.00    -0.234 N 
HETATM   30  C1  UNL     1      13.663 -10.163  15.856  1.00  0.00     0.200 C 
HETATM   31  N2  UNL     1      13.291  -8.117  17.332  1.00  0.00    -0.278 N 
HETATM   32  C2  UNL     1      14.291  -7.222  17.337  1.00  0.00     0.220 A 
ATOM     33  H2  UNL     1      12.386  -8.169  17.799  1.00  0.00     0.189 HD
ENDBRANCH  27  28
ENDBRANCH   1  27
TORSDOF 10
ENDMDL
MODEL 3
REMARK VINA RESULT: -7.185604388      4.128      7.198
REMARK  10 active torsions:
REMARK  status: ('A' for Active; 'I' for Inactive)
REMARK    1  A    between atoms: N3_6  and  C3_7 
REMARK    2  A    between atoms: C3_7  and  C4_8 
REMARK    3  A    between atoms: C6_12  and  C7_13 
REMARK    4  A    between atoms: C7_13  and  C8_14 
REMARK    5  A    between atoms: C8_14  and  C9_15 
REMARK    6  A    between atoms: C9_15  and  N5_16 
REMARK    7  A    between atoms: N8_23  and  C12_24 
REMARK    8  A    between atoms: C12_24  and  C13_25 
REMARK    9  A    between atoms: C14_26  and  C15_27 
REMARK   10  A    between atoms: C15_27  and  N9_28 
ROOT
HETATM    1  C4  UNL     1      16.115  -7.435  14.385  1.00  0.00     0.049 A 
HETATM    2  C5  UNL     1      15.433  -8.000  13.330  1.00  0.00     0.116 A 
HETATM    3  N4  UNL     1      15.564  -7.132  12.315  1.00  0.00    -0.354 N 
ATOM      4  H4  UNL     1      15.174  -7.249  11.379  1.00  0.00     0.166 HD
HETATM    5  C6  UNL     1      16.305  -6.069  12.741  1.00  0.00     0.084 A 
HETATM    6  N8  UNL     1      16.645  -6.255  14.014  1.00  0.00    -0.326 N 
ENDROOT
BRANCH   5   7
HETATM    7  C7  UNL     1      16.635  -4.959  11.822  1.00  0.00     0.078 C 
BRANCH   7   8
HETATM    8  C8  UNL     1      17.755  -5.256  10.873  1.00  0.00     0.029 C 
BRANCH   8   9
HETATM    9  C9  UNL     1      18.544  -4.092  10.396  1.00  0.00     0.150 C 
BRANCH   9  10
HETATM   10  N5  UNL     1      18.419  -3.957   8.969  1.00  0.00    -0.287 N 
HETATM   11  C10 UNL     1      17.305  -3.628   8.264  1.00  0.00     0.201 A 
HETATM   12  N6  UNL     1      17.654  -3.622   6.967  1.00  0.00    -0.346 N 
HETATM   13  C11 UNL     1      18.944  -3.937   6.876  1.00  0.00     0.198 A 
ATOM     14  H6  UNL     1      17.034  -3.411   6.185  1.00  0.00     0.167 HD
HETATM   15  N7  UNL     1      19.409  -4.142   8.112  1.00  0.00    -0.293 N 
ATOM     16  H7  UNL     1      20.366  -4.398   8.353  1.00  0.00     0.188 HD
ENDBRANCH   9  10
ENDBRANCH   8   9
ENDBRANCH   7   8
ENDBRANCH   5   7
BRANCH   6  17
HETATM   17  C12 UNL     1      17.447  -5.416  14.853  1.00  0.00     0.224 C 
BRANCH  17  18
HETATM   18  C13 UNL     1      16.566  -4.274  15.238  1.00  0.00    -0.085 C 
HETATM   19  C14 UNL     1      15.870  -3.340  15.549  1.00  0.00    -0.085 C 
BRANCH  19  20
HETATM   20  C15 UNL     1      15.047  -2.193  15.933  1.00  0.00     0.221 C 
BRANCH  20  21
HETATM   21  N9  UNL     1      14.258  -2.592  17.069  1.00  0.00    -0.356 N 
HETATM   22  C16 UNL     1      14.459  -2.018  18.273  1.00  0.00     0.091 A 
HETATM   23  C17 UNL     1      13.706  -2.389  19.390  1.00  0.00     0.017 A 
HETATM   24  C18 UNL     1      12.731  -3.361  19.286  1.00  0.00     0.003 A 
HETATM   25  C19 UNL     1      12.542  -3.934  18.047  1.00  0.00     0.017 A 
HETATM   26  C20 UNL     1      13.308  -3.540  16.965  1.00  0.00     0.091 A 
ENDBRANCH  20  21
ENDBRANCH  19  20
ENDBRANCH  17  18
ENDBRANCH   6  17
BRANCH   1  27
HETATM   27  C3  UNL     1      16.215  -8.087  15.708  1.00  0.00     0.210 C 
BRANCH  27  28
HETATM   28  N3  UNL     1      14.974  -8.006  16.463  1.00  0.00    -0.265 N 
HETATM   29  N1  UNL     1      13.925  -8.829  16.597  1.00  0.00    -0.234 N 
HETATM   30  C1  UNL     1      13.563 -10.119  16.071  1.00  0.00     0.200 C 
HETATM   31  N2  UNL     1      13.372  -7.957  17.409  1.00  0.00    -0.278 N 
HETATM   32  C2  UNL     1      14.410  -7.114  17.294  1.00  0.00     0.220 A 
ATOM     33  H2  UNL     1      12.493  -7.930  17.927  1.00  0.00     0.189 HD
ENDBRANCH  27  28
ENDBRANCH   1  27
TORSDOF 10
ENDMDL
MODEL 4
REMARK VINA RESULT: -7.173319463      4.331      7.517
REMARK  10 active torsions:
REMARK  status: ('A' for Active; 'I' for Inactive)
REMARK    1  A    between atoms: N3_6  and  C3_7 
REMARK    2  A    between atoms: C3_7  and  C4_8 
REMARK    3  A    between atoms: C6_12  and  C7_13 
REMARK    4  A    between atoms: C7_13  and  C8_14 
REMARK    5  A    between atoms: C8_14  and  C9_15 
REMARK    6  A    between atoms: C9_15  and  N5_16 
REMARK    7  A    between atoms: N8_23  and  C12_24 
REMARK    8  A    between atoms: C12_24  and  C13_25 
REMARK    9  A    between atoms: C14_26  and  C15_27 
REMARK   10  A    between atoms: C15_27  and  N9_28 
ROOT
HETATM    1  C4  UNL     1      16.405  -7.451  14.034  1.00  0.00     0.049 A 
HETATM    2  C5  UNL     1      15.993  -7.945  12.815  1.00  0.00     0.116 A 
HETATM    3  N4  UNL     1      16.041  -6.901  11.974  1.00  0.00    -0.354 N 
ATOM      4  H4  UNL     1      15.796  -6.924  10.983  1.00  0.00     0.166 HD
HETATM    5  C6  UNL     1      16.470  -5.803  12.661  1.00  0.00     0.084 A 
HETATM    6  N8  UNL     1      16.695  -6.142  13.928  1.00  0.00    -0.326 N 
ENDROOT
BRANCH   5   7
HETATM    7  C7  UNL     1      16.645  -4.503  11.979  1.00  0.00     0.078 C 
BRANCH   7   8
HETATM    8  C8  UNL     1      17.419  -4.577  10.699  1.00  0.00     0.029 C 
BRANCH   8   9
HETATM    9  C9  UNL     1      16.785  -3.958   9.507  1.00  0.00     0.150 C 
BRANCH   9  10
HETATM   10  N5  UNL     1      17.748  -3.821   8.446  1.00  0.00    -0.287 N 
HETATM   11  C10 UNL     1      19.101  -3.779   8.559  1.00  0.00     0.201 A 
HETATM   12  N6  UNL     1      19.590  -3.643   7.316  1.00  0.00    -0.346 N 
HETATM   13  C11 UNL     1      18.569  -3.602   6.463  1.00  0.00     0.198 A 
ATOM     14  H6  UNL     1      20.578  -3.581   7.067  1.00  0.00     0.167 HD
HETATM   15  N7  UNL     1      17.438  -3.712   7.166  1.00  0.00    -0.293 N 
ATOM     16  H7  UNL     1      16.494  -3.712   6.779  1.00  0.00     0.188 HD
ENDBRANCH   9  10
ENDBRANCH   8   9
ENDBRANCH   7   8
ENDBRANCH   5   7
BRANCH   6  17
HETATM   17  C12 UNL     1      17.187  -5.321  14.995  1.00  0.00     0.224 C 
BRANCH  17  18
HETATM   18  C13 UNL     1      15.992  -4.608  15.536  1.00  0.00    -0.085 C 
HETATM   19  C14 UNL     1      15.039  -4.020  15.981  1.00  0.00    -0.085 C 
BRANCH  19  20
HETATM   20  C15 UNL     1      13.898  -3.292  16.537  1.00  0.00     0.221 C 
BRANCH  20  21
HETATM   21  N9  UNL     1      14.421  -2.276  17.412  1.00  0.00    -0.356 N 
HETATM   22  C16 UNL     1      15.321  -1.381  16.956  1.00  0.00     0.091 A 
HETATM   23  C17 UNL     1      15.843  -0.386  17.787  1.00  0.00     0.017 A 
HETATM   24  C18 UNL     1      15.446  -0.297  19.106  1.00  0.00     0.003 A 
HETATM   25  C19 UNL     1      14.527  -1.222  19.552  1.00  0.00     0.017 A 
HETATM   26  C20 UNL     1      14.033  -2.192  18.699  1.00  0.00     0.091 A 
ENDBRANCH  20  21
ENDBRANCH  19  20
ENDBRANCH  17  18
ENDBRANCH   6  17
BRANCH   1  27
HETATM   27  C3  UNL     1      16.497  -8.296  15.244  1.00  0.00     0.210 C 
BRANCH  27  28
HETATM   28  N3  UNL     1      15.342  -9.164  15.404  1.00  0.00    -0.265 N 
HETATM   29  N1  UNL     1      15.066 -10.411  14.994  1.00  0.00    -0.234 N 
HETATM   30  C1  UNL     1      15.762 -11.416  14.235  1.00  0.00     0.200 C 
HETATM   31  N2  UNL     1      13.893 -10.321  15.580  1.00  0.00    -0.278 N 
HETATM   32  C2  UNL     1      14.144  -9.072  16.004  1.00  0.00     0.220 A 
ATOM     33  H2  UNL     1      13.099 -10.954  15.676  1.00  0.00     0.189 HD
ENDBRANCH  27  28
ENDBRANCH   1  27
TORSDOF 10
ENDMDL
MODEL 5
REMARK VINA RESULT: -7.072890841      1.018      1.690
REMARK  10 active torsions:
REMARK  status: ('A' for Active; 'I' for Inactive)
REMARK    1  A    between atoms: N3_6  and  C3_7 
REMARK    2  A    between atoms: C3_7  and  C4_8 
REMARK    3  A    between atoms: C6_12  and  C7_13 
REMARK    4  A    between atoms: C7_13  and  C8_14 
REMARK    5  A    between atoms: C8_14  and  C9_15 
REMARK    6  A    between atoms: C9_15  and  N5_16 
REMARK    7  A    between atoms: N8_23  and  C12_24 
REMARK    8  A    between atoms: C12_24  and  C13_25 
REMARK    9  A    between atoms: C14_26  and  C15_27 
REMARK   10  A    between atoms: C15_27  and  N9_28 
ROOT
HETATM    1  C4  UNL     1      16.521  -8.630  13.433  1.00  0.00     0.049 A 
HETATM    2  C5  UNL     1      15.481  -7.957  12.827  1.00  0.00     0.116 A 
HETATM    3  N4  UNL     1      16.062  -7.069  12.006  1.00  0.00    -0.354 N 
ATOM      4  H4  UNL     1      15.572  -6.408  11.403  1.00  0.00     0.166 HD
HETATM    5  C6  UNL     1      17.417  -7.197  12.109  1.00  0.00     0.084 A 
HETATM    6  N8  UNL     1      17.699  -8.157  12.987  1.00  0.00    -0.326 N 
ENDROOT
BRANCH   5   7
HETATM    7  C7  UNL     1      18.321  -6.358  11.294  1.00  0.00     0.078 C 
BRANCH   7   8
HETATM    8  C8  UNL     1      17.669  -5.153  10.691  1.00  0.00     0.029 C 
BRANCH   8   9
HETATM    9  C9  UNL     1      18.567  -4.025  10.336  1.00  0.00     0.150 C 
BRANCH   9  10
HETATM   10  N5  UNL     1      18.597  -3.843   8.909  1.00  0.00    -0.287 N 
HETATM   11  C10 UNL     1      17.676  -3.209   8.136  1.00  0.00     0.201 A 
HETATM   12  N6  UNL     1      18.113  -3.284   6.870  1.00  0.00    -0.346 N 
HETATM   13  C11 UNL     1      19.269  -3.944   6.861  1.00  0.00     0.198 A 
ATOM     14  H6  UNL     1      17.640  -2.899   6.052  1.00  0.00     0.167 HD
HETATM   15  N7  UNL     1      19.561  -4.286   8.119  1.00  0.00    -0.293 N 
ATOM     16  H7  UNL     1      20.388  -4.802   8.420  1.00  0.00     0.188 HD
ENDBRANCH   9  10
ENDBRANCH   8   9
ENDBRANCH   7   8
ENDBRANCH   5   7
BRANCH   6  17
HETATM   17  C12 UNL     1      18.984  -8.654  13.380  1.00  0.00     0.224 C 
BRANCH  17  18
HETATM   18  C13 UNL     1      19.344  -9.686  12.364  1.00  0.00    -0.085 C 
HETATM   19  C14 UNL     1      19.644 -10.505  11.533  1.00  0.00    -0.085 C 
BRANCH  19  20
HETATM   20  C15 UNL     1      20.016 -11.481  10.508  1.00  0.00     0.221 C 
BRANCH  20  21
HETATM   21  N9  UNL     1      18.835 -12.238  10.187  1.00  0.00    -0.356 N 
HETATM   22  C16 UNL     1      17.624 -11.823  10.610  1.00  0.00     0.091 A 
HETATM   23  C17 UNL     1      16.463 -12.542  10.311  1.00  0.00     0.017 A 
HETATM   24  C18 UNL     1      16.531 -13.705   9.571  1.00  0.00     0.003 A 
HETATM   25  C19 UNL     1      17.778 -14.111   9.150  1.00  0.00     0.017 A 
HETATM   26  C20 UNL     1      18.904 -13.372   9.465  1.00  0.00     0.091 A 
ENDBRANCH  20  21
ENDBRANCH  19  20
ENDBRANCH  17  18
ENDBRANCH   6  17
BRANCH   1  27
HETATM   27  C3  UNL     1      16.302  -9.707  14.421  1.00  0.00     0.210 C 
BRANCH  27  28
HETATM   28  N3  UNL     1      15.229  -9.398  15.353  1.00  0.00    -0.265 N 
HETATM   29  N1  UNL     1      15.067  -8.447  16.284  1.00  0.00    -0.234 N 
HETATM   30  C1  UNL     1      15.855  -7.344  16.768  1.00  0.00     0.200 C 
HETATM   31  N2  UNL     1      13.887  -8.953  16.564  1.00  0.00    -0.278 N 
HETATM   32  C2  UNL     1      14.023  -9.914  15.638  1.00  0.00     0.220 A 
ATOM     33  H2  UNL     1      13.152  -8.709  17.229  1.00  0.00     0.189 HD
ENDBRANCH  27  28
ENDBRANCH   1  27
TORSDOF 10
ENDMDL
