MODEL 1
REMARK VINA RESULT: -8.446796009      0.000      0.000
REMARK  9 active torsions:
REMARK  status: ('A' for Active; 'I' for Inactive)
REMARK    1  A    between atoms: N1_8  and  C8_9 
REMARK    2  A    between atoms: C8_9  and  C9_10 
REMARK    3  A    between atoms: C9_10  and  C10_11 
REMARK    4  A    between atoms: C10_11  and  C11_12 
REMARK    5  A    between atoms: C11_12  and  C12_13 
REMARK    6  A    between atoms: C12_13  and  C13_14 
REMARK    7  A    between atoms: C13_14  and  N2_15 
REMARK    8  A    between atoms: C16_18  and  N3_19 
REMARK    9  A    between atoms: N3_19  and  C17_21 
ROOT
HETATM    1  N2  UNL     1      17.339  -7.348  12.133  1.00  0.00    -0.353 N 
HETATM    2  C14 UNL     1      16.829  -6.094  12.322  1.00  0.00     0.095 A 
HETATM    3  C15 UNL     1      17.448  -5.003  11.764  1.00  0.00     0.066 A 
HETATM    4  C16 UNL     1      18.582  -5.209  11.016  1.00  0.00     0.108 A 
HETATM    5  N7  UNL     1      19.074  -6.452  10.837  1.00  0.00    -0.338 N 
ATOM      6  H7  UNL     1      19.917  -6.594  10.281  1.00  0.00     0.168 HD
HETATM    7  C21 UNL     1      18.451  -7.501  11.394  1.00  0.00     0.184 A 
ENDROOT
BRANCH   1   8
HETATM    8  C13 UNL     1      16.640  -8.428  12.744  1.00  0.00     0.129 C 
BRANCH   8   9
HETATM    9  C12 UNL     1      15.248  -7.999  13.245  1.00  0.00     0.020 C 
BRANCH   9  10
HETATM   10  C11 UNL     1      14.776  -9.127  14.093  1.00  0.00     0.002 C 
BRANCH  10  11
HETATM   11  C10 UNL     1      15.697 -10.103  14.651  1.00  0.00     0.002 C 
BRANCH  11  12
HETATM   12  C9  UNL     1      15.551 -11.545  14.439  1.00  0.00     0.020 C 
BRANCH  12  13
HETATM   13  C8  UNL     1      16.739 -12.400  14.252  1.00  0.00     0.128 C 
BRANCH  13  14
HETATM   14  N1  UNL     1      17.224 -12.334  12.851  1.00  0.00    -0.359 N 
HETATM   15  C6  UNL     1      18.356 -11.702  12.523  1.00  0.00     0.013 A 
HETATM   16  C4  UNL     1      18.797 -11.631  11.207  1.00  0.00    -0.039 A 
HETATM   17  C7  UNL     1      19.189 -11.071  13.552  1.00  0.00     0.069 C 
HETATM   18  C3  UNL     1      18.017 -12.240  10.247  1.00  0.00     0.016 A 
HETATM   19  C5  UNL     1      20.061 -10.919  10.888  1.00  0.00     0.050 C 
HETATM   20  C2  UNL     1      16.855 -12.892  10.556  1.00  0.00    -0.046 A 
HETATM   21  C1  UNL     1      16.046 -13.534   9.495  1.00  0.00     0.049 C 
HETATM   22  C22 UNL     1      16.486 -12.919  11.885  1.00  0.00     0.097 A 
ENDBRANCH  13  14
ENDBRANCH  12  13
ENDBRANCH  11  12
ENDBRANCH  10  11
ENDBRANCH   9  10
ENDBRANCH   8   9
ENDBRANCH   1   8
BRANCH   4  23
HETATM   23  N3  UNL     1      19.168  -4.195  10.490  1.00  0.00    -0.327 N 
ATOM     24  H3  UNL     1      19.743  -3.585  11.071  1.00  0.00     0.169 HD
BRANCH  23  25
HETATM   25  C17 UNL     1      19.025  -3.919   9.113  1.00  0.00     0.139 A 
HETATM   26  C18 UNL     1      18.034  -3.871   8.238  1.00  0.00     0.125 A 
HETATM   27  N4  UNL     1      16.793  -3.933   7.715  1.00  0.00    -0.302 N 
HETATM   28  C20 UNL     1      18.864  -3.529   7.199  1.00  0.00     0.142 A 
HETATM   29  C19 UNL     1      16.823  -3.645   6.398  1.00  0.00     0.326 A 
ATOM     30  H4  UNL     1      15.950  -4.165   8.242  1.00  0.00     0.171 HD
HETATM   31  O1  UNL     1      15.854  -3.605   5.582  1.00  0.00    -0.247 OA
HETATM   32  N5  UNL     1      18.096  -3.400   6.096  1.00  0.00    -0.292 N 
ATOM     33  H5  UNL     1      18.441  -3.152   5.169  1.00  0.00     0.172 HD
HETATM   34  N6  UNL     1      19.847  -3.565   8.008  1.00  0.00    -0.325 N 
ATOM     35  H6  UNL     1      20.848  -3.401   7.902  1.00  0.00     0.169 HD
ENDBRANCH  23  25
ENDBRANCH   4  23
TORSDOF 9
ENDMDL
MODEL 2
REMARK VINA RESULT: -8.402427316      1.538      2.048
REMARK  9 active torsions:
REMARK  status: ('A' for Active; 'I' for Inactive)
REMARK    1  A    between atoms: N1_8  and  C8_9 
REMARK    2  A    between atoms: C8_9  and  C9_10 
REMARK    3  A    between atoms: C9_10  and  C10_11 
REMARK    4  A    between atoms: C10_11  and  C11_12 
REMARK    5  A    between atoms: C11_12  and  C12_13 
REMARK    6  A    between atoms: C12_13  and  C13_14 
REMARK    7  A    between atoms: C13_14  and  N2_15 
REMARK    8  A    between atoms: C16_18  and  N3_19 
REMARK    9  A    between atoms: N3_19  and  C17_21 
ROOT
HETATM    1  N2  UNL     1      15.948  -6.944  14.112  1.00  0.00    -0.353 N 
HETATM    2  C14 UNL     1      16.261  -5.757  14.714  1.00  0.00     0.095 A 
HETATM    3  C15 UNL     1      16.705  -4.697  13.964  1.00  0.00     0.066 A 
HETATM    4  C16 UNL     1      16.824  -4.864  12.605  1.00  0.00     0.108 A 
HETATM    5  N7  UNL     1      16.512  -6.040  12.025  1.00  0.00    -0.338 N 
ATOM      6  H7  UNL     1      16.604  -6.154  11.016  1.00  0.00     0.168 HD
HETATM    7  C21 UNL     1      16.080  -7.061  12.780  1.00  0.00     0.184 A 
ENDROOT
BRANCH   1   8
HETATM    8  C13 UNL     1      15.494  -7.996  14.957  1.00  0.00     0.129 C 
BRANCH   8   9
HETATM    9  C12 UNL     1      14.740  -9.083  14.167  1.00  0.00     0.020 C 
BRANCH   9  10
HETATM   10  C11 UNL     1      14.284 -10.062  15.191  1.00  0.00     0.002 C 
BRANCH  10  11
HETATM   11  C10 UNL     1      15.199 -11.011  15.804  1.00  0.00     0.002 C 
BRANCH  11  12
HETATM   12  C9  UNL     1      15.580 -12.273  15.165  1.00  0.00     0.020 C 
BRANCH  12  13
HETATM   13  C8  UNL     1      16.970 -12.501  14.726  1.00  0.00     0.128 C 
BRANCH  13  14
HETATM   14  N1  UNL     1      17.145 -12.122  13.303  1.00  0.00    -0.359 N 
HETATM   15  C6  UNL     1      17.766 -10.994  12.942  1.00  0.00     0.013 A 
HETATM   16  C4  UNL     1      17.914 -10.637  11.607  1.00  0.00    -0.039 A 
HETATM   17  C7  UNL     1      18.333 -10.094  13.951  1.00  0.00     0.069 C 
HETATM   18  C3  UNL     1      17.391 -11.496  10.663  1.00  0.00     0.016 A 
HETATM   19  C5  UNL     1      18.611  -9.375  11.252  1.00  0.00     0.050 C 
HETATM   20  C2  UNL     1      16.752 -12.656  11.006  1.00  0.00    -0.046 A 
HETATM   21  C1  UNL     1      16.205 -13.552   9.961  1.00  0.00     0.049 C 
HETATM   22  C22 UNL     1      16.646 -12.940  12.351  1.00  0.00     0.097 A 
ENDBRANCH  13  14
ENDBRANCH  12  13
ENDBRANCH  11  12
ENDBRANCH  10  11
ENDBRANCH   9  10
ENDBRANCH   8   9
ENDBRANCH   1   8
BRANCH   4  23
HETATM   23  N3  UNL     1      17.239  -3.878  11.896  1.00  0.00    -0.327 N 
ATOM     24  H3  UNL     1      17.768  -3.124  12.335  1.00  0.00     0.169 HD
BRANCH  23  25
HETATM   25  C17 UNL     1      16.971  -3.828  10.511  1.00  0.00     0.139 A 
HETATM   26  C18 UNL     1      17.675  -3.794   9.393  1.00  0.00     0.125 A 
HETATM   27  N4  UNL     1      18.730  -3.772   8.552  1.00  0.00    -0.302 N 
HETATM   28  C20 UNL     1      16.558  -3.760   8.596  1.00  0.00     0.142 A 
HETATM   29  C19 UNL     1      18.310  -3.725   7.272  1.00  0.00     0.326 A 
ATOM     30  H4  UNL     1      19.708  -3.789   8.844  1.00  0.00     0.171 HD
HETATM   31  O1  UNL     1      19.011  -3.694   6.217  1.00  0.00    -0.247 OA
HETATM   32  N5  UNL     1      16.979  -3.719   7.314  1.00  0.00    -0.292 N 
ATOM     33  H5  UNL     1      16.367  -3.687   6.498  1.00  0.00     0.172 HD
HETATM   34  N6  UNL     1      15.841  -3.791   9.647  1.00  0.00    -0.325 N 
ATOM     35  H6  UNL     1      14.834  -3.790   9.809  1.00  0.00     0.169 HD
ENDBRANCH  23  25
ENDBRANCH   4  23
TORSDOF 9
ENDMDL
MODEL 3
REMARK VINA RESULT: -8.270984058      1.376      1.813
REMARK  9 active torsions:
REMARK  status: ('A' for Active; 'I' for Inactive)
REMARK    1  A    between atoms: N1_8  and  C8_9 
REMARK    2  A    between atoms: C8_9  and  C9_10 
REMARK    3  A    between atoms: C9_10  and  C10_11 
REMARK    4  A    between atoms: C10_11  and  C11_12 
REMARK    5  A    between atoms: C11_12  and  C12_13 
REMARK    6  A    between atoms: C12_13  and  C13_14 
REMARK    7  A    between atoms: C13_14  and  N2_15 
REMARK    8  A    between atoms: C16_18  and  N3_19 
REMARK    9  A    between atoms: N3_19  and  C17_21 
ROOT
HETATM    1  N2  UNL     1      15.989  -6.856  14.033  1.00  0.00    -0.353 N 
HETATM    2  C14 UNL     1      16.346  -5.685  14.641  1.00  0.00     0.095 A 
HETATM    3  C15 UNL     1      16.763  -4.614  13.890  1.00  0.00     0.066 A 
HETATM    4  C16 UNL     1      16.809  -4.754  12.524  1.00  0.00     0.108 A 
HETATM    5  N7  UNL     1      16.453  -5.915  11.938  1.00  0.00    -0.338 N 
ATOM      6  H7  UNL     1      16.490  -6.009  10.923  1.00  0.00     0.168 HD
HETATM    7  C21 UNL     1      16.049  -6.947  12.694  1.00  0.00     0.184 A 
ENDROOT
BRANCH   1   8
HETATM    8  C13 UNL     1      15.567  -7.920  14.880  1.00  0.00     0.129 C 
BRANCH   8   9
HETATM    9  C12 UNL     1      14.771  -8.989  14.107  1.00  0.00     0.020 C 
BRANCH   9  10
HETATM   10  C11 UNL     1      14.287  -9.939  15.145  1.00  0.00     0.002 C 
BRANCH  10  11
HETATM   11  C10 UNL     1      15.165 -10.927  15.748  1.00  0.00     0.002 C 
BRANCH  11  12
HETATM   12  C9  UNL     1      15.512 -12.189  15.088  1.00  0.00     0.020 C 
BRANCH  12  13
HETATM   13  C8  UNL     1      16.903 -12.464  14.680  1.00  0.00     0.128 C 
BRANCH  13  14
HETATM   14  N1  UNL     1      17.117 -12.111  13.256  1.00  0.00    -0.359 N 
HETATM   15  C6  UNL     1      17.769 -11.002  12.891  1.00  0.00     0.013 A 
HETATM   16  C4  UNL     1      17.953 -10.670  11.554  1.00  0.00    -0.039 A 
HETATM   17  C7  UNL     1      18.333 -10.098  13.898  1.00  0.00     0.069 C 
HETATM   18  C3  UNL     1      17.434 -11.533  10.613  1.00  0.00     0.016 A 
HETATM   19  C5  UNL     1      18.685  -9.428  11.195  1.00  0.00     0.050 C 
HETATM   20  C2  UNL     1      16.763 -12.674  10.959  1.00  0.00    -0.046 A 
HETATM   21  C1  UNL     1      16.221 -13.575   9.916  1.00  0.00     0.049 C 
HETATM   22  C22 UNL     1      16.622 -12.934  12.306  1.00  0.00     0.097 A 
ENDBRANCH  13  14
ENDBRANCH  12  13
ENDBRANCH  11  12
ENDBRANCH  10  11
ENDBRANCH   9  10
ENDBRANCH   8   9
ENDBRANCH   1   8
BRANCH   4  23
HETATM   23  N3  UNL     1      17.198  -3.758  11.813  1.00  0.00    -0.327 N 
ATOM     24  H3  UNL     1      16.919  -2.812  12.072  1.00  0.00     0.169 HD
BRANCH  23  25
HETATM   25  C17 UNL     1      18.009  -3.963  10.676  1.00  0.00     0.139 A 
HETATM   26  C18 UNL     1      17.926  -3.727   9.378  1.00  0.00     0.125 A 
HETATM   27  N4  UNL     1      17.444  -3.321   8.186  1.00  0.00    -0.302 N 
HETATM   28  C20 UNL     1      19.164  -4.263   9.121  1.00  0.00     0.142 A 
HETATM   29  C19 UNL     1      18.332  -3.584   7.205  1.00  0.00     0.326 A 
ATOM     30  H4  UNL     1      16.536  -2.877   8.045  1.00  0.00     0.171 HD
HETATM   31  O1  UNL     1      18.225  -3.345   5.965  1.00  0.00    -0.247 OA
HETATM   32  N5  UNL     1      19.379  -4.160   7.792  1.00  0.00    -0.292 N 
ATOM     33  H5  UNL     1      20.220  -4.478   7.310  1.00  0.00     0.172 HD
HETATM   34  N6  UNL     1      19.285  -4.508  10.364  1.00  0.00    -0.325 N 
ATOM     35  H6  UNL     1      20.021  -4.936  10.926  1.00  0.00     0.169 HD
ENDBRANCH  23  25
ENDBRANCH   4  23
TORSDOF 9
ENDMDL
MODEL 4
REMARK VINA RESULT: -8.150143897      1.225      1.677
REMARK  9 active torsions:
REMARK  status: ('A' for Active; 'I' for Inactive)
REMARK    1  A    between atoms: N1_8  and  C8_9 
REMARK    2  A    between atoms: C8_9  and  C9_10 
REMARK    3  A    between atoms: C9_10  and  C10_11 
REMARK    4  A    between atoms: C10_11  and  C11_12 
REMARK    5  A    between atoms: C11_12  and  C12_13 
REMARK    6  A    between atoms: C12_13  and  C13_14 
REMARK    7  A    between atoms: C13_14  and  N2_15 
REMARK    8  A    between atoms: C16_18  and  N3_19 
REMARK    9  A    between atoms: N3_19  and  C17_21 
ROOT
HETATM    1  N2  UNL     1      16.817  -7.204  12.382  1.00  0.00    -0.353 N 
HETATM    2  C14 UNL     1      17.899  -7.034  11.565  1.00  0.00     0.095 A 
HETATM    3  C15 UNL     1      18.161  -5.806  11.009  1.00  0.00     0.066 A 
HETATM    4  C16 UNL     1      17.312  -4.765  11.299  1.00  0.00     0.108 A 
HETATM    5  N7  UNL     1      16.249  -4.947  12.108  1.00  0.00    -0.338 N 
ATOM      6  H7  UNL     1      15.624  -4.168  12.316  1.00  0.00     0.168 HD
HETATM    7  C21 UNL     1      16.014  -6.157  12.638  1.00  0.00     0.184 A 
ENDROOT
BRANCH   1   8
HETATM    8  C13 UNL     1      16.613  -8.507  12.919  1.00  0.00     0.129 C 
BRANCH   8   9
HETATM    9  C12 UNL     1      15.250  -8.630  13.626  1.00  0.00     0.020 C 
BRANCH   9  10
HETATM   10  C11 UNL     1      15.506  -9.481  14.820  1.00  0.00     0.002 C 
BRANCH  10  11
HETATM   11  C10 UNL     1      14.978 -10.831  14.925  1.00  0.00     0.002 C 
BRANCH  11  12
HETATM   12  C9  UNL     1      15.647 -11.994  14.337  1.00  0.00     0.020 C 
BRANCH  12  13
HETATM   13  C8  UNL     1      17.116 -12.024  14.200  1.00  0.00     0.128 C 
BRANCH  13  14
HETATM   14  N1  UNL     1      17.512 -12.142  12.775  1.00  0.00    -0.359 N 
HETATM   15  C6  UNL     1      18.689 -11.692  12.328  1.00  0.00     0.013 A 
HETATM   16  C4  UNL     1      19.048 -11.793  10.989  1.00  0.00    -0.039 A 
HETATM   17  C7  UNL     1      19.658 -11.086  13.246  1.00  0.00     0.069 C 
HETATM   18  C3  UNL     1      18.138 -12.378  10.135  1.00  0.00     0.016 A 
HETATM   19  C5  UNL     1      20.366 -11.280  10.536  1.00  0.00     0.050 C 
HETATM   20  C2  UNL     1      16.927 -12.847  10.567  1.00  0.00    -0.046 A 
HETATM   21  C1  UNL     1      15.977 -13.469   9.616  1.00  0.00     0.049 C 
HETATM   22  C22 UNL     1      16.645 -12.710  11.910  1.00  0.00     0.097 A 
ENDBRANCH  13  14
ENDBRANCH  12  13
ENDBRANCH  11  12
ENDBRANCH  10  11
ENDBRANCH   9  10
ENDBRANCH   8   9
ENDBRANCH   1   8
BRANCH   4  23
HETATM   23  N3  UNL     1      17.549  -3.613  10.785  1.00  0.00    -0.327 N 
ATOM     24  H3  UNL     1      17.661  -2.801  11.391  1.00  0.00     0.169 HD
BRANCH  23  25
HETATM   25  C17 UNL     1      17.655  -3.461   9.386  1.00  0.00     0.139 A 
HETATM   26  C18 UNL     1      18.487  -3.850   8.434  1.00  0.00     0.125 A 
HETATM   27  N4  UNL     1      19.536  -4.435   7.821  1.00  0.00    -0.302 N 
HETATM   28  C20 UNL     1      17.769  -3.229   7.442  1.00  0.00     0.142 A 
HETATM   29  C19 UNL     1      19.495  -4.199   6.493  1.00  0.00     0.326 A 
ATOM     30  H4  UNL     1      20.258  -4.978   8.294  1.00  0.00     0.171 HD
HETATM   31  O1  UNL     1      20.309  -4.587   5.602  1.00  0.00    -0.247 OA
HETATM   32  N5  UNL     1      18.409  -3.460   6.276  1.00  0.00    -0.292 N 
ATOM     33  H5  UNL     1      18.105  -3.120   5.364  1.00  0.00     0.172 HD
HETATM   34  N6  UNL     1      16.943  -2.833   8.326  1.00  0.00    -0.325 N 
ATOM     35  H6  UNL     1      16.090  -2.274   8.289  1.00  0.00     0.169 HD
ENDBRANCH  23  25
ENDBRANCH   4  23
TORSDOF 9
ENDMDL
MODEL 5
REMARK VINA RESULT: -8.145147911      1.486      2.081
REMARK  9 active torsions:
REMARK  status: ('A' for Active; 'I' for Inactive)
REMARK    1  A    between atoms: N1_8  and  C8_9 
REMARK    2  A    between atoms: C8_9  and  C9_10 
REMARK    3  A    between atoms: C9_10  and  C10_11 
REMARK    4  A    between atoms: C10_11  and  C11_12 
REMARK    5  A    between atoms: C11_12  and  C12_13 
REMARK    6  A    between atoms: C12_13  and  C13_14 
REMARK    7  A    between atoms: C13_14  and  N2_15 
REMARK    8  A    between atoms: C16_18  and  N3_19 
REMARK    9  A    between atoms: N3_19  and  C17_21 
ROOT
HETATM    1  N2  UNL     1      16.072  -7.205  14.075  1.00  0.00    -0.353 N 
HETATM    2  C14 UNL     1      16.260  -6.008  14.709  1.00  0.00     0.095 A 
HETATM    3  C15 UNL     1      16.478  -4.866  13.980  1.00  0.00     0.066 A 
HETATM    4  C16 UNL     1      16.501  -4.961  12.610  1.00  0.00     0.108 A 
HETATM    5  N7  UNL     1      16.314  -6.148  11.998  1.00  0.00    -0.338 N 
ATOM      6  H7  UNL     1      16.333  -6.208  10.980  1.00  0.00     0.168 HD
HETATM    7  C21 UNL     1      16.102  -7.250  12.733  1.00  0.00     0.184 A 
ENDROOT
BRANCH   1   8
HETATM    8  C13 UNL     1      15.851  -8.344  14.901  1.00  0.00     0.129 C 
BRANCH   8   9
HETATM    9  C12 UNL     1      14.598  -9.130  14.471  1.00  0.00     0.020 C 
BRANCH   9  10
HETATM   10  C11 UNL     1      14.860 -10.536  14.883  1.00  0.00     0.002 C 
BRANCH  10  11
HETATM   11  C10 UNL     1      16.161 -11.157  14.700  1.00  0.00     0.002 C 
BRANCH  11  12
HETATM   12  C9  UNL     1      16.574 -11.779  13.440  1.00  0.00     0.020 C 
BRANCH  12  13
HETATM   13  C8  UNL     1      17.286 -10.993  12.414  1.00  0.00     0.128 C 
BRANCH  13  14
HETATM   14  N1  UNL     1      17.826 -11.876  11.351  1.00  0.00    -0.359 N 
HETATM   15  C6  UNL     1      19.136 -11.958  11.097  1.00  0.00     0.013 A 
HETATM   16  C4  UNL     1      19.635 -12.776  10.089  1.00  0.00    -0.039 A 
HETATM   17  C7  UNL     1      20.104 -11.194  11.890  1.00  0.00     0.069 C 
HETATM   18  C3  UNL     1      18.721 -13.503   9.358  1.00  0.00     0.016 A 
HETATM   19  C5  UNL     1      21.099 -12.836   9.842  1.00  0.00     0.050 C 
HETATM   20  C2  UNL     1      17.375 -13.438   9.597  1.00  0.00    -0.046 A 
HETATM   21  C1  UNL     1      16.426 -14.236   8.789  1.00  0.00     0.049 C 
HETATM   22  C22 UNL     1      16.960 -12.603  10.614  1.00  0.00     0.097 A 
ENDBRANCH  13  14
ENDBRANCH  12  13
ENDBRANCH  11  12
ENDBRANCH  10  11
ENDBRANCH   9  10
ENDBRANCH   8   9
ENDBRANCH   1   8
BRANCH   4  23
HETATM   23  N3  UNL     1      16.705  -3.898  11.920  1.00  0.00    -0.327 N 
ATOM     24  H3  UNL     1      16.181  -3.048  12.131  1.00  0.00     0.169 HD
BRANCH  23  25
HETATM   25  C17 UNL     1      17.648  -3.895  10.870  1.00  0.00     0.139 A 
HETATM   26  C18 UNL     1      17.630  -3.733   9.558  1.00  0.00     0.125 A 
HETATM   27  N4  UNL     1      17.171  -3.519   8.307  1.00  0.00    -0.302 N 
HETATM   28  C20 UNL     1      18.988  -3.897   9.438  1.00  0.00     0.142 A 
HETATM   29  C19 UNL     1      18.189  -3.546   7.423  1.00  0.00     0.326 A 
ATOM     30  H4  UNL     1      16.193  -3.360   8.065  1.00  0.00     0.171 HD
HETATM   31  O1  UNL     1      18.141  -3.386   6.166  1.00  0.00    -0.247 OA
HETATM   32  N5  UNL     1      19.294  -3.778   8.129  1.00  0.00    -0.292 N 
ATOM     33  H5  UNL     1      20.233  -3.855   7.739  1.00  0.00     0.172 HD
HETATM   34  N6  UNL     1      19.051  -4.059  10.700  1.00  0.00    -0.325 N 
ATOM     35  H6  UNL     1      19.819  -4.239  11.346  1.00  0.00     0.169 HD
ENDBRANCH  23  25
ENDBRANCH   4  23
TORSDOF 9
ENDMDL
