MODEL 1
REMARK VINA RESULT: -8.637057863      0.000      0.000
REMARK  11 active torsions:
REMARK  status: ('A' for Active; 'I' for Inactive)
REMARK    1  A    between atoms: C2_2  and  C3_3 
REMARK    2  A    between atoms: C3_3  and  C4_4 
REMARK    3  A    between atoms: C4_4  and  C5_5 
REMARK    4  A    between atoms: C5_5  and  C6_6 
REMARK    5  A    between atoms: C15_15  and  O1_16 
REMARK    6  A    between atoms: O1_16  and  C16_17 
REMARK    7  A    between atoms: C17_19  and  C18_20 
REMARK    8  A    between atoms: C18_20  and  O3_21 
REMARK    9  A    between atoms: C19_23  and  O4_24 
REMARK   10  A    between atoms: C20_26  and  O5_27 
REMARK   11  A    between atoms: C21_29  and  O6_30 
ROOT
HETATM    1  C6  UNL     1      72.721  81.633  48.829  1.00  0.00    -0.006 C 
HETATM    2  C7  UNL     1      72.428  81.716  50.339  1.00  0.00     0.006 C 
HETATM    3  C8  UNL     1      72.322  83.217  50.639  1.00  0.00     0.006 C 
HETATM    4  C9  UNL     1      73.231  83.751  49.586  1.00  0.00    -0.002 C 
HETATM    5  C10 UNL     1      73.283  85.220  49.450  1.00  0.00    -0.005 C 
HETATM    6  C11 UNL     1      74.052  85.772  50.662  1.00  0.00     0.006 C 
HETATM    7  C12 UNL     1      74.361  87.246  50.490  1.00  0.00     0.005 C 
HETATM    8  C13 UNL     1      73.650  87.728  49.292  1.00  0.00    -0.008 C 
HETATM    9  C14 UNL     1      73.981  89.146  48.878  1.00  0.00     0.037 C 
HETATM   10  C15 UNL     1      73.454  89.127  47.453  1.00  0.00     0.125 C 
HETATM   11  C22 UNL     1      73.581  87.678  46.966  1.00  0.00     0.037 C 
HETATM   12  C23 UNL     1      74.268  87.005  48.083  1.00  0.00    -0.004 C 
HETATM   13  C24 UNL     1      74.129  85.556  48.235  1.00  0.00    -0.005 C 
HETATM   14  C25 UNL     1      73.684  84.811  47.005  1.00  0.00     0.006 C 
HETATM   15  C26 UNL     1      73.719  83.324  47.269  1.00  0.00     0.010 C 
HETATM   16  C27 UNL     1      72.701  83.031  48.344  1.00  0.00    -0.036 C 
HETATM   17  C28 UNL     1      71.365  83.514  47.928  1.00  0.00     0.016 C 
ENDROOT
BRANCH  10  18
HETATM   18  O1  UNL     1      74.128  90.006  46.626  1.00  0.00    -0.353 OA
BRANCH  18  19
HETATM   19  C16 UNL     1      73.241  90.473  45.666  1.00  0.00     0.292 C 
HETATM   20  O2  UNL     1      73.707  90.330  44.377  1.00  0.00    -0.348 OA
HETATM   21  C17 UNL     1      74.858  91.081  44.161  1.00  0.00     0.179 C 
HETATM   22  C19 UNL     1      74.611  92.563  44.271  1.00  0.00     0.180 C 
HETATM   23  C20 UNL     1      74.118  92.824  45.699  1.00  0.00     0.183 C 
HETATM   24  C21 UNL     1      72.903  91.941  45.888  1.00  0.00     0.204 C 
BRANCH  21  25
HETATM   25  C18 UNL     1      75.404  90.777  42.781  1.00  0.00     0.198 C 
BRANCH  25  26
HETATM   26  O3  UNL     1      76.762  91.020  42.759  1.00  0.00    -0.398 OA
ATOM     27  H3  UNL     1      77.084  90.936  41.869  1.00  0.00     0.209 HD
ENDBRANCH  25  26
ENDBRANCH  21  25
BRANCH  22  28
HETATM   28  O4  UNL     1      75.813  93.215  44.030  1.00  0.00    -0.390 OA
ATOM     29  H4  UNL     1      76.194  92.843  43.243  1.00  0.00     0.210 HD
ENDBRANCH  22  28
BRANCH  23  30
HETATM   30  O5  UNL     1      73.727  94.137  45.825  1.00  0.00    -0.390 OA
ATOM     31  H5  UNL     1      73.024  94.204  46.460  1.00  0.00     0.210 HD
ENDBRANCH  23  30
BRANCH  24  32
HETATM   32  O6  UNL     1      71.977  92.278  44.888  1.00  0.00    -0.388 OA
ATOM     33  H6  UNL     1      71.119  92.172  45.282  1.00  0.00     0.210 HD
ENDBRANCH  24  32
ENDBRANCH  18  19
ENDBRANCH  10  18
BRANCH   1  34
HETATM   34  C5  UNL     1      71.748  80.673  48.267  1.00  0.00     0.005 C 
BRANCH  34  35
HETATM   35  C4  UNL     1      70.967  79.932  49.321  1.00  0.00     0.004 C 
BRANCH  35  36
HETATM   36  C3  UNL     1      70.213  78.756  48.685  1.00  0.00     0.026 C 
BRANCH  36  37
HETATM   37  C2  UNL     1      68.836  79.168  48.310  1.00  0.00    -0.037 C 
HETATM   38  C1  UNL     1      67.766  78.591  48.852  1.00  0.00     0.007 C 
ENDBRANCH  36  37
ENDBRANCH  35  36
ENDBRANCH  34  35
ENDBRANCH   1  34
TORSDOF 11
ENDMDL
MODEL 2
REMARK VINA RESULT: -8.514909075      3.700     10.994
REMARK  11 active torsions:
REMARK  status: ('A' for Active; 'I' for Inactive)
REMARK    1  A    between atoms: C2_2  and  C3_3 
REMARK    2  A    between atoms: C3_3  and  C4_4 
REMARK    3  A    between atoms: C4_4  and  C5_5 
REMARK    4  A    between atoms: C5_5  and  C6_6 
REMARK    5  A    between atoms: C15_15  and  O1_16 
REMARK    6  A    between atoms: O1_16  and  C16_17 
REMARK    7  A    between atoms: C17_19  and  C18_20 
REMARK    8  A    between atoms: C18_20  and  O3_21 
REMARK    9  A    between atoms: C19_23  and  O4_24 
REMARK   10  A    between atoms: C20_26  and  O5_27 
REMARK   11  A    between atoms: C21_29  and  O6_30 
ROOT
HETATM    1  C6  UNL     1      74.419  94.214  42.561  1.00  0.00    -0.006 C 
HETATM    2  C7  UNL     1      73.832  95.272  43.514  1.00  0.00     0.006 C 
HETATM    3  C8  UNL     1      73.716  94.562  44.869  1.00  0.00     0.006 C 
HETATM    4  C9  UNL     1      73.519  93.160  44.406  1.00  0.00    -0.002 C 
HETATM    5  C10 UNL     1      73.511  92.119  45.452  1.00  0.00    -0.005 C 
HETATM    6  C11 UNL     1      72.189  92.249  46.225  1.00  0.00     0.006 C 
HETATM    7  C12 UNL     1      71.986  91.076  47.164  1.00  0.00     0.005 C 
HETATM    8  C13 UNL     1      73.225  90.277  47.177  1.00  0.00    -0.008 C 
HETATM    9  C14 UNL     1      73.138  88.972  47.939  1.00  0.00     0.037 C 
HETATM   10  C15 UNL     1      74.360  88.266  47.378  1.00  0.00     0.125 C 
HETATM   11  C22 UNL     1      74.560  88.811  45.959  1.00  0.00     0.037 C 
HETATM   12  C23 UNL     1      73.392  89.688  45.765  1.00  0.00    -0.004 C 
HETATM   13  C24 UNL     1      73.463  90.762  44.774  1.00  0.00    -0.005 C 
HETATM   14  C25 UNL     1      74.530  90.610  43.724  1.00  0.00     0.006 C 
HETATM   15  C26 UNL     1      74.396  91.710  42.697  1.00  0.00     0.010 C 
HETATM   16  C27 UNL     1      74.664  93.019  43.399  1.00  0.00    -0.036 C 
HETATM   17  C28 UNL     1      75.996  92.989  44.045  1.00  0.00     0.016 C 
ENDROOT
BRANCH  10  18
HETATM   18  O1  UNL     1      74.228  86.890  47.384  1.00  0.00    -0.353 OA
BRANCH  18  19
HETATM   19  C16 UNL     1      73.270  86.544  48.327  1.00  0.00     0.292 C 
HETATM   20  O2  UNL     1      73.793  86.327  49.584  1.00  0.00    -0.348 OA
HETATM   21  C17 UNL     1      74.674  85.250  49.593  1.00  0.00     0.179 C 
HETATM   22  C19 UNL     1      73.994  83.943  49.277  1.00  0.00     0.180 C 
HETATM   23  C20 UNL     1      73.405  84.081  47.868  1.00  0.00     0.183 C 
HETATM   24  C21 UNL     1      72.503  85.297  47.911  1.00  0.00     0.204 C 
BRANCH  21  25
HETATM   25  C18 UNL     1      75.325  85.146  50.957  1.00  0.00     0.198 C 
BRANCH  25  26
HETATM   26  O3  UNL     1      75.214  86.353  51.614  1.00  0.00    -0.398 OA
ATOM     27  H3  UNL     1      75.040  86.198  52.535  1.00  0.00     0.209 HD
ENDBRANCH  25  26
ENDBRANCH  21  25
BRANCH  22  28
HETATM   28  O4  UNL     1      74.953  82.941  49.323  1.00  0.00    -0.390 OA
ATOM     29  H4  UNL     1      74.516  82.111  49.168  1.00  0.00     0.210 HD
ENDBRANCH  22  28
BRANCH  23  30
HETATM   30  O5  UNL     1      72.637  82.978  47.574  1.00  0.00    -0.390 OA
ATOM     31  H5  UNL     1      72.006  82.831  48.268  1.00  0.00     0.210 HD
ENDBRANCH  23  30
BRANCH  24  32
HETATM   32  O6  UNL     1      71.548  85.079  48.915  1.00  0.00    -0.388 OA
ATOM     33  H6  UNL     1      71.862  84.335  49.416  1.00  0.00     0.210 HD
ENDBRANCH  24  32
ENDBRANCH  18  19
ENDBRANCH  10  18
BRANCH   1  34
HETATM   34  C5  UNL     1      75.566  94.852  41.883  1.00  0.00     0.005 C 
BRANCH  34  35
HETATM   35  C4  UNL     1      75.767  94.365  40.471  1.00  0.00     0.004 C 
BRANCH  35  36
HETATM   36  C3  UNL     1      74.836  95.126  39.517  1.00  0.00     0.026 C 
BRANCH  36  37
HETATM   37  C2  UNL     1      75.279  96.539  39.381  1.00  0.00    -0.037 C 
HETATM   38  C1  UNL     1      74.925  97.281  38.335  1.00  0.00     0.007 C 
ENDBRANCH  36  37
ENDBRANCH  35  36
ENDBRANCH  34  35
ENDBRANCH   1  34
TORSDOF 11
ENDMDL
MODEL 3
REMARK VINA RESULT: -8.507139637      3.640     10.921
REMARK  11 active torsions:
REMARK  status: ('A' for Active; 'I' for Inactive)
REMARK    1  A    between atoms: C2_2  and  C3_3 
REMARK    2  A    between atoms: C3_3  and  C4_4 
REMARK    3  A    between atoms: C4_4  and  C5_5 
REMARK    4  A    between atoms: C5_5  and  C6_6 
REMARK    5  A    between atoms: C15_15  and  O1_16 
REMARK    6  A    between atoms: O1_16  and  C16_17 
REMARK    7  A    between atoms: C17_19  and  C18_20 
REMARK    8  A    between atoms: C18_20  and  O3_21 
REMARK    9  A    between atoms: C19_23  and  O4_24 
REMARK   10  A    between atoms: C20_26  and  O5_27 
REMARK   11  A    between atoms: C21_29  and  O6_30 
ROOT
HETATM    1  C6  UNL     1      74.499  94.026  42.527  1.00  0.00    -0.006 C 
HETATM    2  C7  UNL     1      73.910  95.132  43.423  1.00  0.00     0.006 C 
HETATM    3  C8  UNL     1      73.764  94.483  44.806  1.00  0.00     0.006 C 
HETATM    4  C9  UNL     1      73.559  93.064  44.401  1.00  0.00    -0.002 C 
HETATM    5  C10 UNL     1      73.523  92.070  45.492  1.00  0.00    -0.005 C 
HETATM    6  C11 UNL     1      72.190  92.248  46.237  1.00  0.00     0.006 C 
HETATM    7  C12 UNL     1      71.959  91.119  47.223  1.00  0.00     0.005 C 
HETATM    8  C13 UNL     1      73.188  90.308  47.290  1.00  0.00    -0.008 C 
HETATM    9  C14 UNL     1      73.074  89.038  48.107  1.00  0.00     0.037 C 
HETATM   10  C15 UNL     1      74.297  88.295  47.597  1.00  0.00     0.125 C 
HETATM   11  C22 UNL     1      74.525  88.776  46.159  1.00  0.00     0.037 C 
HETATM   12  C23 UNL     1      73.370  89.656  45.909  1.00  0.00    -0.004 C 
HETATM   13  C24 UNL     1      73.469  90.685  44.873  1.00  0.00    -0.005 C 
HETATM   14  C25 UNL     1      74.551  90.476  43.847  1.00  0.00     0.006 C 
HETATM   15  C26 UNL     1      74.445  91.531  42.772  1.00  0.00     0.010 C 
HETATM   16  C27 UNL     1      74.718  92.866  43.421  1.00  0.00    -0.036 C 
HETATM   17  C28 UNL     1      76.038  92.850  44.088  1.00  0.00     0.016 C 
ENDROOT
BRANCH  10  18
HETATM   18  O1  UNL     1      74.149  86.923  47.661  1.00  0.00    -0.353 OA
BRANCH  18  19
HETATM   19  C16 UNL     1      73.867  86.571  48.974  1.00  0.00     0.292 C 
HETATM   20  O2  UNL     1      74.769  85.674  49.505  1.00  0.00    -0.348 OA
HETATM   21  C17 UNL     1      74.747  84.461  48.823  1.00  0.00     0.179 C 
HETATM   22  C19 UNL     1      73.430  83.743  48.962  1.00  0.00     0.180 C 
HETATM   23  C20 UNL     1      72.360  84.661  48.360  1.00  0.00     0.183 C 
HETATM   24  C21 UNL     1      72.473  85.975  49.105  1.00  0.00     0.204 C 
BRANCH  21  25
HETATM   25  C18 UNL     1      75.850  83.568  49.352  1.00  0.00     0.198 C 
BRANCH  25  26
HETATM   26  O3  UNL     1      76.616  83.109  48.301  1.00  0.00    -0.398 OA
ATOM     27  H3  UNL     1      77.258  82.488  48.624  1.00  0.00     0.209 HD
ENDBRANCH  25  26
ENDBRANCH  21  25
BRANCH  22  28
HETATM   28  O4  UNL     1      73.518  82.549  48.258  1.00  0.00    -0.390 OA
ATOM     29  H4  UNL     1      72.642  82.310  47.979  1.00  0.00     0.210 HD
ENDBRANCH  22  28
BRANCH  23  30
HETATM   30  O5  UNL     1      71.110  84.135  48.591  1.00  0.00    -0.390 OA
ATOM     31  H5  UNL     1      70.493  84.835  48.766  1.00  0.00     0.210 HD
ENDBRANCH  23  30
BRANCH  24  32
HETATM   32  O6  UNL     1      72.296  85.703  50.470  1.00  0.00    -0.388 OA
ATOM     33  H6  UNL     1      72.490  86.515  50.924  1.00  0.00     0.210 HD
ENDBRANCH  24  32
ENDBRANCH  18  19
ENDBRANCH  10  18
BRANCH   1  34
HETATM   34  C5  UNL     1      75.664  94.621  41.840  1.00  0.00     0.005 C 
BRANCH  34  35
HETATM   35  C4  UNL     1      75.772  94.215  40.393  1.00  0.00     0.004 C 
BRANCH  35  36
HETATM   36  C3  UNL     1      74.802  95.049  39.542  1.00  0.00     0.026 C 
BRANCH  36  37
HETATM   37  C2  UNL     1      75.304  96.441  39.402  1.00  0.00    -0.037 C 
HETATM   38  C1  UNL     1      74.950  97.207  38.374  1.00  0.00     0.007 C 
ENDBRANCH  36  37
ENDBRANCH  35  36
ENDBRANCH  34  35
ENDBRANCH   1  34
TORSDOF 11
ENDMDL
MODEL 4
REMARK VINA RESULT: -8.198932945      3.857     10.954
REMARK  11 active torsions:
REMARK  status: ('A' for Active; 'I' for Inactive)
REMARK    1  A    between atoms: C2_2  and  C3_3 
REMARK    2  A    between atoms: C3_3  and  C4_4 
REMARK    3  A    between atoms: C4_4  and  C5_5 
REMARK    4  A    between atoms: C5_5  and  C6_6 
REMARK    5  A    between atoms: C15_15  and  O1_16 
REMARK    6  A    between atoms: O1_16  and  C16_17 
REMARK    7  A    between atoms: C17_19  and  C18_20 
REMARK    8  A    between atoms: C18_20  and  O3_21 
REMARK    9  A    between atoms: C19_23  and  O4_24 
REMARK   10  A    between atoms: C20_26  and  O5_27 
REMARK   11  A    between atoms: C21_29  and  O6_30 
ROOT
HETATM    1  C6  UNL     1      74.597  93.551  42.368  1.00  0.00    -0.006 C 
HETATM    2  C7  UNL     1      73.927  94.727  43.104  1.00  0.00     0.006 C 
HETATM    3  C8  UNL     1      73.727  94.230  44.541  1.00  0.00     0.006 C 
HETATM    4  C9  UNL     1      73.585  92.768  44.288  1.00  0.00    -0.002 C 
HETATM    5  C10 UNL     1      73.519  91.900  45.480  1.00  0.00    -0.005 C 
HETATM    6  C11 UNL     1      72.143  92.112  46.133  1.00  0.00     0.006 C 
HETATM    7  C12 UNL     1      71.892  91.092  47.226  1.00  0.00     0.005 C 
HETATM    8  C13 UNL     1      73.139  90.337  47.445  1.00  0.00    -0.008 C 
HETATM    9  C14 UNL     1      73.019  89.162  48.392  1.00  0.00     0.037 C 
HETATM   10  C15 UNL     1      74.288  88.411  48.032  1.00  0.00     0.125 C 
HETATM   11  C22 UNL     1      74.580  88.738  46.562  1.00  0.00     0.037 C 
HETATM   12  C23 UNL     1      73.415  89.544  46.157  1.00  0.00    -0.004 C 
HETATM   13  C24 UNL     1      73.539  90.455  45.018  1.00  0.00    -0.005 C 
HETATM   14  C25 UNL     1      74.681  90.172  44.079  1.00  0.00     0.006 C 
HETATM   15  C26 UNL     1      74.603  91.097  42.888  1.00  0.00     0.010 C 
HETATM   16  C27 UNL     1      74.800  92.505  43.396  1.00  0.00    -0.036 C 
HETATM   17  C28 UNL     1      76.083  92.609  44.126  1.00  0.00     0.016 C 
ENDROOT
BRANCH  10  18
HETATM   18  O1  UNL     1      74.177  87.049  48.241  1.00  0.00    -0.353 OA
BRANCH  18  19
HETATM   19  C16 UNL     1      73.803  86.836  49.561  1.00  0.00     0.292 C 
HETATM   20  O2  UNL     1      74.858  86.489  50.378  1.00  0.00    -0.348 OA
HETATM   21  C17 UNL     1      75.428  85.279  49.994  1.00  0.00     0.179 C 
HETATM   22  C19 UNL     1      74.480  84.118  50.149  1.00  0.00     0.180 C 
HETATM   23  C20 UNL     1      73.279  84.404  49.240  1.00  0.00     0.183 C 
HETATM   24  C21 UNL     1      72.741  85.752  49.671  1.00  0.00     0.204 C 
BRANCH  21  25
HETATM   25  C18 UNL     1      76.664  85.018  50.830  1.00  0.00     0.198 C 
BRANCH  25  26
HETATM   26  O3  UNL     1      76.889  86.091  51.667  1.00  0.00    -0.398 OA
ATOM     27  H3  UNL     1      77.630  85.903  52.231  1.00  0.00     0.209 HD
ENDBRANCH  25  26
ENDBRANCH  21  25
BRANCH  22  28
HETATM   28  O4  UNL     1      75.147  82.967  49.751  1.00  0.00    -0.390 OA
ATOM     29  H4  UNL     1      75.600  82.615  50.508  1.00  0.00     0.210 HD
ENDBRANCH  22  28
BRANCH  23  30
HETATM   30  O5  UNL     1      72.302  83.458  49.447  1.00  0.00    -0.390 OA
ATOM     31  H5  UNL     1      71.650  83.512  48.758  1.00  0.00     0.210 HD
ENDBRANCH  23  30
BRANCH  24  32
HETATM   32  O6  UNL     1      72.423  85.662  51.035  1.00  0.00    -0.388 OA
ATOM     33  H6  UNL     1      72.422  86.555  51.361  1.00  0.00     0.210 HD
ENDBRANCH  24  32
ENDBRANCH  18  19
ENDBRANCH  10  18
BRANCH   1  34
HETATM   34  C5  UNL     1      75.779  94.107  41.679  1.00  0.00     0.005 C 
BRANCH  34  35
HETATM   35  C4  UNL     1      75.457  95.303  40.820  1.00  0.00     0.004 C 
BRANCH  35  36
HETATM   36  C3  UNL     1      76.580  96.345  40.931  1.00  0.00     0.026 C 
BRANCH  36  37
HETATM   37  C2  UNL     1      77.126  96.370  42.314  1.00  0.00    -0.037 C 
HETATM   38  C1  UNL     1      78.200  97.091  42.624  1.00  0.00     0.007 C 
ENDBRANCH  36  37
ENDBRANCH  35  36
ENDBRANCH  34  35
ENDBRANCH   1  34
TORSDOF 11
ENDMDL
MODEL 5
REMARK VINA RESULT: -7.911182096      5.872     10.582
REMARK  11 active torsions:
REMARK  status: ('A' for Active; 'I' for Inactive)
REMARK    1  A    between atoms: C2_2  and  C3_3 
REMARK    2  A    between atoms: C3_3  and  C4_4 
REMARK    3  A    between atoms: C4_4  and  C5_5 
REMARK    4  A    between atoms: C5_5  and  C6_6 
REMARK    5  A    between atoms: C15_15  and  O1_16 
REMARK    6  A    between atoms: O1_16  and  C16_17 
REMARK    7  A    between atoms: C17_19  and  C18_20 
REMARK    8  A    between atoms: C18_20  and  O3_21 
REMARK    9  A    between atoms: C19_23  and  O4_24 
REMARK   10  A    between atoms: C20_26  and  O5_27 
REMARK   11  A    between atoms: C21_29  and  O6_30 
ROOT
HETATM    1  C6  UNL     1      72.845  91.686  45.103  1.00  0.00    -0.006 C 
HETATM    2  C7  UNL     1      73.820  90.496  45.023  1.00  0.00     0.006 C 
HETATM    3  C8  UNL     1      75.081  91.064  44.359  1.00  0.00     0.006 C 
HETATM    4  C9  UNL     1      74.470  92.141  43.530  1.00  0.00    -0.002 C 
HETATM    5  C10 UNL     1      75.406  93.041  42.829  1.00  0.00    -0.005 C 
HETATM    6  C11 UNL     1      76.035  92.246  41.672  1.00  0.00     0.006 C 
HETATM    7  C12 UNL     1      76.831  93.153  40.754  1.00  0.00     0.005 C 
HETATM    8  C13 UNL     1      76.908  94.486  41.378  1.00  0.00    -0.008 C 
HETATM    9  C14 UNL     1      77.530  95.563  40.515  1.00  0.00     0.037 C 
HETATM   10  C15 UNL     1      77.047  96.797  41.256  1.00  0.00     0.125 C 
HETATM   11  C22 UNL     1      75.717  96.412  41.915  1.00  0.00     0.037 C 
HETATM   12  C23 UNL     1      75.476  95.046  41.417  1.00  0.00    -0.004 C 
HETATM   13  C24 UNL     1      74.604  94.153  42.180  1.00  0.00    -0.005 C 
HETATM   14  C25 UNL     1      73.671  94.825  43.151  1.00  0.00     0.006 C 
HETATM   15  C26 UNL     1      72.743  93.801  43.760  1.00  0.00     0.010 C 
HETATM   16  C27 UNL     1      73.590  92.846  44.565  1.00  0.00    -0.036 C 
HETATM   17  C28 UNL     1      74.376  93.589  45.576  1.00  0.00     0.016 C 
ENDROOT
BRANCH  10  18
HETATM   18  O1  UNL     1      76.910  97.895  40.428  1.00  0.00    -0.353 OA
BRANCH  18  19
HETATM   19  C16 UNL     1      76.546  97.450  39.165  1.00  0.00     0.292 C 
HETATM   20  O2  UNL     1      77.404  97.869  38.170  1.00  0.00    -0.348 OA
HETATM   21  C17 UNL     1      77.409  99.254  38.046  1.00  0.00     0.179 C 
HETATM   22  C19 UNL     1      76.077  99.800  37.600  1.00  0.00     0.180 C 
HETATM   23  C20 UNL     1      75.056  99.409  38.674  1.00  0.00     0.183 C 
HETATM   24  C21 UNL     1      75.139  97.902  38.798  1.00  0.00     0.204 C 
BRANCH  21  25
HETATM   25  C18 UNL     1      78.468  99.665  37.044  1.00  0.00     0.198 C 
BRANCH  25  26
HETATM   26  O3  UNL     1      79.091 100.816  37.478  1.00  0.00    -0.398 OA
ATOM     27  H3  UNL     1      78.478 101.337  37.984  1.00  0.00     0.209 HD
ENDBRANCH  25  26
ENDBRANCH  21  25
BRANCH  22  28
HETATM   28  O4  UNL     1      76.194 101.180  37.499  1.00  0.00    -0.390 OA
ATOM     29  H4  UNL     1      75.913 101.558  38.325  1.00  0.00     0.210 HD
ENDBRANCH  22  28
BRANCH  23  30
HETATM   30  O5  UNL     1      73.788  99.743  38.257  1.00  0.00    -0.390 OA
ATOM     31  H5  UNL     1      73.233  99.902  39.011  1.00  0.00     0.210 HD
ENDBRANCH  23  30
BRANCH  24  32
HETATM   32  O6  UNL     1      74.878  97.359  37.531  1.00  0.00    -0.388 OA
ATOM     33  H6  UNL     1      74.049  97.731  37.254  1.00  0.00     0.210 HD
ENDBRANCH  24  32
ENDBRANCH  18  19
ENDBRANCH  10  18
BRANCH   1  34
HETATM   34  C5  UNL     1      72.363  91.737  46.499  1.00  0.00     0.005 C 
BRANCH  34  35
HETATM   35  C4  UNL     1      72.929  90.640  47.363  1.00  0.00     0.004 C 
BRANCH  35  36
HETATM   36  C3  UNL     1      71.814  89.664  47.767  1.00  0.00     0.026 C 
BRANCH  36  37
HETATM   37  C2  UNL     1      72.272  88.788  48.877  1.00  0.00    -0.037 C 
HETATM   38  C1  UNL     1      73.511  88.305  48.915  1.00  0.00     0.007 C 
ENDBRANCH  36  37
ENDBRANCH  35  36
ENDBRANCH  34  35
ENDBRANCH   1  34
TORSDOF 11
ENDMDL
