MODEL 1
REMARK VINA RESULT: -7.771972740      0.000      0.000
REMARK  10 active torsions:
REMARK  status: ('A' for Active; 'I' for Inactive)
REMARK    1  A    between atoms: O1_2  and  C2_3 
REMARK    2  A    between atoms: C2_3  and  C3_4 
REMARK    3  A    between atoms: C3_4  and  O2_5 
REMARK    4  A    between atoms: O2_5  and  C4_6 
REMARK    5  A    between atoms: C4_6  and  C5_7 
REMARK    6  A    between atoms: C5_7  and  N1_8 
REMARK    7  A    between atoms: N1_8  and  C6_10 
REMARK    8  A    between atoms: C19_23  and  O3_24 
REMARK    9  A    between atoms: C23_29  and  O4_30 
REMARK   10  A    between atoms: C24_32  and  O5_33 
ROOT
HETATM    1  C6  UNL     1      72.948  88.537  47.952  1.00  0.00     0.026 C 
HETATM    2  C7  UNL     1      71.486  88.905  47.941  1.00  0.00     0.038 C 
HETATM    3  C8  UNL     1      73.317  88.363  49.432  1.00  0.00     0.031 C 
HETATM    4  C9  UNL     1      74.516  87.441  49.422  1.00  0.00     0.012 C 
HETATM    5  C10 UNL     1      73.920  86.018  49.426  1.00  0.00    -0.036 C 
HETATM    6  C11 UNL     1      73.164  85.944  50.759  1.00  0.00     0.016 C 
HETATM    7  C12 UNL     1      72.984  86.021  48.271  1.00  0.00    -0.004 C 
HETATM    8  C13 UNL     1      72.937  84.763  47.485  1.00  0.00     0.006 C 
HETATM    9  C14 UNL     1      74.201  83.949  47.478  1.00  0.00     0.011 C 
HETATM   10  C15 UNL     1      74.756  83.696  48.892  1.00  0.00    -0.032 C 
HETATM   11  C16 UNL     1      73.603  83.018  49.621  1.00  0.00     0.016 C 
HETATM   12  C17 UNL     1      75.047  85.076  49.427  1.00  0.00     0.005 C 
HETATM   13  C18 UNL     1      75.639  85.084  50.810  1.00  0.00     0.038 C 
HETATM   14  C19 UNL     1      77.153  85.252  50.674  1.00  0.00     0.119 C 
HETATM   15  C20 UNL     1      77.669  83.892  50.293  1.00  0.00     0.037 C 
HETATM   16  C21 UNL     1      77.259  83.480  48.887  1.00  0.00    -0.001 C 
HETATM   17  C22 UNL     1      78.370  82.491  48.493  1.00  0.00     0.039 C 
HETATM   18  C23 UNL     1      78.393  81.314  49.398  1.00  0.00     0.147 C 
HETATM   19  C24 UNL     1      77.076  80.771  49.811  1.00  0.00     0.147 C 
HETATM   20  C25 UNL     1      75.920  81.671  49.841  1.00  0.00     0.044 C 
HETATM   21  C26 UNL     1      75.941  82.806  48.812  1.00  0.00    -0.030 C 
HETATM   22  C27 UNL     1      75.851  82.037  47.487  1.00  0.00     0.016 C 
HETATM   23  C28 UNL     1      73.140  87.186  47.319  1.00  0.00     0.036 C 
ENDROOT
BRANCH   1  24
HETATM   24  N1  UNL     1      73.810  89.458  47.313  1.00  0.00    -0.391 N 
ATOM     25  H1  UNL     1      74.258  90.192  47.862  1.00  0.00     0.159 HD
BRANCH  24  26
HETATM   26  C5  UNL     1      74.058  89.377  45.949  1.00  0.00     0.082 C 
BRANCH  26  27
HETATM   27  C4  UNL     1      73.781  90.554  45.052  1.00  0.00     0.211 C 
BRANCH  27  28
HETATM   28  O2  UNL     1      73.417  91.696  45.696  1.00  0.00    -0.384 OA
BRANCH  28  29
HETATM   29  C3  UNL     1      74.089  92.818  45.366  1.00  0.00     0.194 C 
BRANCH  29  30
HETATM   30  C2  UNL     1      74.539  93.001  43.958  1.00  0.00     0.193 C 
BRANCH  30  31
HETATM   31  O1  UNL     1      75.903  92.846  43.778  1.00  0.00    -0.394 OA
HETATM   32  C1  UNL     1      76.200  92.096  42.645  1.00  0.00     0.201 C 
ENDBRANCH  30  31
ENDBRANCH  29  30
ENDBRANCH  28  29
ENDBRANCH  27  28
ENDBRANCH  26  27
ENDBRANCH  24  26
ENDBRANCH   1  24
BRANCH  14  33
HETATM   33  O3  UNL     1      77.651  85.593  51.904  1.00  0.00    -0.396 OA
ATOM     34  H3  UNL     1      78.576  85.781  51.803  1.00  0.00     0.210 HD
ENDBRANCH  14  33
BRANCH  19  35
HETATM   35  O5  UNL     1      76.789  79.574  49.104  1.00  0.00    -0.393 OA
ATOM     36  H5  UNL     1      76.371  79.771  48.274  1.00  0.00     0.210 HD
ENDBRANCH  19  35
BRANCH  18  37
HETATM   37  O4  UNL     1      79.224  81.563  50.522  1.00  0.00    -0.393 OA
ATOM     38  H4  UNL     1      79.087  80.904  51.192  1.00  0.00     0.210 HD
ENDBRANCH  18  37
TORSDOF 10
ENDMDL
MODEL 2
REMARK VINA RESULT: -7.708890479      0.945      1.066
REMARK  10 active torsions:
REMARK  status: ('A' for Active; 'I' for Inactive)
REMARK    1  A    between atoms: O1_2  and  C2_3 
REMARK    2  A    between atoms: C2_3  and  C3_4 
REMARK    3  A    between atoms: C3_4  and  O2_5 
REMARK    4  A    between atoms: O2_5  and  C4_6 
REMARK    5  A    between atoms: C4_6  and  C5_7 
REMARK    6  A    between atoms: C5_7  and  N1_8 
REMARK    7  A    between atoms: N1_8  and  C6_10 
REMARK    8  A    between atoms: C19_23  and  O3_24 
REMARK    9  A    between atoms: C23_29  and  O4_30 
REMARK   10  A    between atoms: C24_32  and  O5_33 
ROOT
HETATM    1  C6  UNL     1      72.978  88.615  47.890  1.00  0.00     0.026 C 
HETATM    2  C7  UNL     1      71.519  88.995  47.903  1.00  0.00     0.038 C 
HETATM    3  C8  UNL     1      73.382  88.478  49.364  1.00  0.00     0.031 C 
HETATM    4  C9  UNL     1      74.573  87.545  49.351  1.00  0.00     0.012 C 
HETATM    5  C10 UNL     1      73.966  86.129  49.409  1.00  0.00    -0.036 C 
HETATM    6  C11 UNL     1      73.241  86.098  50.762  1.00  0.00     0.016 C 
HETATM    7  C12 UNL     1      73.002  86.108  48.277  1.00  0.00    -0.004 C 
HETATM    8  C13 UNL     1      72.925  84.829  47.528  1.00  0.00     0.006 C 
HETATM    9  C14 UNL     1      74.181  84.004  47.514  1.00  0.00     0.011 C 
HETATM   10  C15 UNL     1      74.768  83.786  48.920  1.00  0.00    -0.032 C 
HETATM   11  C16 UNL     1      73.628  83.138  49.695  1.00  0.00     0.016 C 
HETATM   12  C17 UNL     1      75.084  85.176  49.409  1.00  0.00     0.005 C 
HETATM   13  C18 UNL     1      75.710  85.218  50.776  1.00  0.00     0.038 C 
HETATM   14  C19 UNL     1      77.222  85.368  50.600  1.00  0.00     0.119 C 
HETATM   15  C20 UNL     1      77.716  83.994  50.244  1.00  0.00     0.037 C 
HETATM   16  C21 UNL     1      77.269  83.547  48.861  1.00  0.00    -0.001 C 
HETATM   17  C22 UNL     1      78.361  82.538  48.468  1.00  0.00     0.039 C 
HETATM   18  C23 UNL     1      78.397  81.386  49.405  1.00  0.00     0.147 C 
HETATM   19  C24 UNL     1      77.086  80.866  49.865  1.00  0.00     0.147 C 
HETATM   20  C25 UNL     1      75.939  81.777  49.898  1.00  0.00     0.044 C 
HETATM   21  C26 UNL     1      75.944  82.883  48.837  1.00  0.00    -0.030 C 
HETATM   22  C27 UNL     1      75.815  82.078  47.536  1.00  0.00     0.016 C 
HETATM   23  C28 UNL     1      73.144  87.244  47.290  1.00  0.00     0.036 C 
ENDROOT
BRANCH   1  24
HETATM   24  N1  UNL     1      73.833  89.509  47.204  1.00  0.00    -0.391 N 
ATOM     25  H1  UNL     1      74.213  90.317  47.696  1.00  0.00     0.159 HD
BRANCH  24  26
HETATM   26  C5  UNL     1      74.161  89.303  45.871  1.00  0.00     0.082 C 
BRANCH  26  27
HETATM   27  C4  UNL     1      74.184  90.457  44.903  1.00  0.00     0.211 C 
BRANCH  27  28
HETATM   28  O2  UNL     1      72.975  91.037  44.671  1.00  0.00    -0.384 OA
BRANCH  28  29
HETATM   29  C3  UNL     1      72.681  92.136  45.397  1.00  0.00     0.194 C 
BRANCH  29  30
HETATM   30  C2  UNL     1      73.433  93.394  45.138  1.00  0.00     0.193 C 
BRANCH  30  31
HETATM   31  O1  UNL     1      72.682  94.385  44.528  1.00  0.00    -0.394 OA
HETATM   32  C1  UNL     1      73.431  95.130  43.625  1.00  0.00     0.201 C 
ENDBRANCH  30  31
ENDBRANCH  29  30
ENDBRANCH  28  29
ENDBRANCH  27  28
ENDBRANCH  26  27
ENDBRANCH  24  26
ENDBRANCH   1  24
BRANCH  14  33
HETATM   33  O3  UNL     1      77.752  85.739  51.807  1.00  0.00    -0.396 OA
ATOM     34  H3  UNL     1      78.587  85.299  51.907  1.00  0.00     0.210 HD
ENDBRANCH  14  33
BRANCH  19  35
HETATM   35  O5  UNL     1      76.772  79.653  49.199  1.00  0.00    -0.393 OA
ATOM     36  H5  UNL     1      75.948  79.303  49.516  1.00  0.00     0.210 HD
ENDBRANCH  19  35
BRANCH  18  37
HETATM   37  O4  UNL     1      79.258  81.658  50.501  1.00  0.00    -0.393 OA
ATOM     38  H4  UNL     1      78.768  81.676  51.314  1.00  0.00     0.210 HD
ENDBRANCH  18  37
TORSDOF 10
ENDMDL
MODEL 3
REMARK VINA RESULT: -7.255492025      1.321      1.674
REMARK  10 active torsions:
REMARK  status: ('A' for Active; 'I' for Inactive)
REMARK    1  A    between atoms: O1_2  and  C2_3 
REMARK    2  A    between atoms: C2_3  and  C3_4 
REMARK    3  A    between atoms: C3_4  and  O2_5 
REMARK    4  A    between atoms: O2_5  and  C4_6 
REMARK    5  A    between atoms: C4_6  and  C5_7 
REMARK    6  A    between atoms: C5_7  and  N1_8 
REMARK    7  A    between atoms: N1_8  and  C6_10 
REMARK    8  A    between atoms: C19_23  and  O3_24 
REMARK    9  A    between atoms: C23_29  and  O4_30 
REMARK   10  A    between atoms: C24_32  and  O5_33 
ROOT
HETATM    1  C6  UNL     1      73.535  87.548  48.847  1.00  0.00     0.026 C 
HETATM    2  C7  UNL     1      72.145  87.812  49.368  1.00  0.00     0.038 C 
HETATM    3  C8  UNL     1      74.385  87.227  50.084  1.00  0.00     0.031 C 
HETATM    4  C9  UNL     1      75.535  86.397  49.557  1.00  0.00     0.012 C 
HETATM    5  C10 UNL     1      75.012  84.946  49.567  1.00  0.00    -0.036 C 
HETATM    6  C11 UNL     1      74.749  84.664  51.052  1.00  0.00     0.016 C 
HETATM    7  C12 UNL     1      73.742  85.019  48.796  1.00  0.00    -0.004 C 
HETATM    8  C13 UNL     1      73.466  83.862  47.909  1.00  0.00     0.006 C 
HETATM    9  C14 UNL     1      74.674  83.144  47.378  1.00  0.00     0.011 C 
HETATM   10  C15 UNL     1      75.679  82.767  48.481  1.00  0.00    -0.032 C 
HETATM   11  C16 UNL     1      74.856  81.929  49.453  1.00  0.00     0.016 C 
HETATM   12  C17 UNL     1      76.097  84.090  49.070  1.00  0.00     0.005 C 
HETATM   13  C18 UNL     1      77.119  83.978  50.168  1.00  0.00     0.038 C 
HETATM   14  C19 UNL     1      78.495  84.264  49.564  1.00  0.00     0.119 C 
HETATM   15  C20 UNL     1      78.887  82.998  48.855  1.00  0.00     0.037 C 
HETATM   16  C21 UNL     1      78.039  82.726  47.622  1.00  0.00    -0.001 C 
HETATM   17  C22 UNL     1      78.978  81.870  46.755  1.00  0.00     0.039 C 
HETATM   18  C23 UNL     1      79.335  80.599  47.436  1.00  0.00     0.147 C 
HETATM   19  C24 UNL     1      78.248  79.921  48.184  1.00  0.00     0.147 C 
HETATM   20  C25 UNL     1      77.147  80.729  48.714  1.00  0.00     0.044 C 
HETATM   21  C26 UNL     1      76.791  81.976  47.897  1.00  0.00    -0.030 C 
HETATM   22  C27 UNL     1      76.281  81.363  46.586  1.00  0.00     0.016 C 
HETATM   23  C28 UNL     1      73.539  86.296  48.011  1.00  0.00     0.036 C 
ENDROOT
BRANCH   1  24
HETATM   24  N1  UNL     1      74.108  88.594  48.088  1.00  0.00    -0.391 N 
ATOM     25  H1  UNL     1      74.727  89.265  48.544  1.00  0.00     0.159 HD
BRANCH  24  26
HETATM   26  C5  UNL     1      73.842  88.722  46.731  1.00  0.00     0.082 C 
BRANCH  26  27
HETATM   27  C4  UNL     1      73.452  90.056  46.152  1.00  0.00     0.211 C 
BRANCH  27  28
HETATM   28  O2  UNL     1      73.751  90.221  44.835  1.00  0.00    -0.384 OA
BRANCH  28  29
HETATM   29  C3  UNL     1      73.635  91.471  44.340  1.00  0.00     0.194 C 
BRANCH  29  30
HETATM   30  C2  UNL     1      74.548  92.533  44.845  1.00  0.00     0.193 C 
BRANCH  30  31
HETATM   31  O1  UNL     1      75.754  92.608  44.169  1.00  0.00    -0.394 OA
HETATM   32  C1  UNL     1      75.595  92.466  42.795  1.00  0.00     0.201 C 
ENDBRANCH  30  31
ENDBRANCH  29  30
ENDBRANCH  28  29
ENDBRANCH  27  28
ENDBRANCH  26  27
ENDBRANCH  24  26
ENDBRANCH   1  24
BRANCH  14  33
HETATM   33  O3  UNL     1      79.368  84.493  50.594  1.00  0.00    -0.396 OA
ATOM     34  H3  UNL     1      79.799  83.672  50.799  1.00  0.00     0.210 HD
ENDBRANCH  14  33
BRANCH  19  35
HETATM   35  O5  UNL     1      77.772  78.799  47.458  1.00  0.00    -0.393 OA
ATOM     36  H5  UNL     1      78.473  78.409  46.951  1.00  0.00     0.210 HD
ENDBRANCH  19  35
BRANCH  18  37
HETATM   37  O4  UNL     1      80.489  80.771  48.245  1.00  0.00    -0.393 OA
ATOM     38  H4  UNL     1      80.645  79.998  48.774  1.00  0.00     0.210 HD
ENDBRANCH  18  37
TORSDOF 10
ENDMDL
MODEL 4
REMARK VINA RESULT: -7.245980333      1.609      2.138
REMARK  10 active torsions:
REMARK  status: ('A' for Active; 'I' for Inactive)
REMARK    1  A    between atoms: O1_2  and  C2_3 
REMARK    2  A    between atoms: C2_3  and  C3_4 
REMARK    3  A    between atoms: C3_4  and  O2_5 
REMARK    4  A    between atoms: O2_5  and  C4_6 
REMARK    5  A    between atoms: C4_6  and  C5_7 
REMARK    6  A    between atoms: C5_7  and  N1_8 
REMARK    7  A    between atoms: N1_8  and  C6_10 
REMARK    8  A    between atoms: C19_23  and  O3_24 
REMARK    9  A    between atoms: C23_29  and  O4_30 
REMARK   10  A    between atoms: C24_32  and  O5_33 
ROOT
HETATM    1  C6  UNL     1      73.321  87.844  48.483  1.00  0.00     0.026 C 
HETATM    2  C7  UNL     1      71.981  88.003  49.155  1.00  0.00     0.038 C 
HETATM    3  C8  UNL     1      74.359  88.296  49.520  1.00  0.00     0.031 C 
HETATM    4  C9  UNL     1      75.635  87.590  49.119  1.00  0.00     0.012 C 
HETATM    5  C10 UNL     1      75.565  86.217  49.819  1.00  0.00    -0.036 C 
HETATM    6  C11 UNL     1      75.562  86.570  51.312  1.00  0.00     0.016 C 
HETATM    7  C12 UNL     1      74.252  85.666  49.390  1.00  0.00    -0.004 C 
HETATM    8  C13 UNL     1      74.231  84.207  49.119  1.00  0.00     0.006 C 
HETATM    9  C14 UNL     1      75.530  83.609  48.657  1.00  0.00     0.011 C 
HETATM   10  C15 UNL     1      76.717  83.985  49.563  1.00  0.00    -0.032 C 
HETATM   11  C16 UNL     1      76.288  83.506  50.944  1.00  0.00     0.016 C 
HETATM   12  C17 UNL     1      76.792  85.489  49.469  1.00  0.00     0.005 C 
HETATM   13  C18 UNL     1      77.916  86.097  50.262  1.00  0.00     0.038 C 
HETATM   14  C19 UNL     1      79.073  86.379  49.301  1.00  0.00     0.119 C 
HETATM   15  C20 UNL     1      79.737  85.049  49.082  1.00  0.00     0.037 C 
HETATM   16  C21 UNL     1      78.876  84.084  48.282  1.00  0.00    -0.001 C 
HETATM   17  C22 UNL     1      79.923  83.159  47.637  1.00  0.00     0.039 C 
HETATM   18  C23 UNL     1      80.709  82.430  48.664  1.00  0.00     0.147 C 
HETATM   19  C24 UNL     1      79.957  81.935  49.843  1.00  0.00     0.147 C 
HETATM   20  C25 UNL     1      78.733  82.633  50.244  1.00  0.00     0.044 C 
HETATM   21  C26 UNL     1      77.940  83.281  49.105  1.00  0.00    -0.030 C 
HETATM   22  C27 UNL     1      77.490  82.058  48.294  1.00  0.00     0.016 C 
HETATM   23  C28 UNL     1      73.599  86.387  48.232  1.00  0.00     0.036 C 
ENDROOT
BRANCH   1  24
HETATM   24  N1  UNL     1      73.476  88.545  47.264  1.00  0.00    -0.391 N 
ATOM     25  H1  UNL     1      74.051  88.143  46.523  1.00  0.00     0.159 HD
BRANCH  24  26
HETATM   26  C5  UNL     1      72.856  89.771  47.060  1.00  0.00     0.082 C 
BRANCH  26  27
HETATM   27  C4  UNL     1      73.310  90.680  45.950  1.00  0.00     0.211 C 
BRANCH  27  28
HETATM   28  O2  UNL     1      73.911  90.054  44.902  1.00  0.00    -0.384 OA
BRANCH  28  29
HETATM   29  C3  UNL     1      74.668  90.822  44.091  1.00  0.00     0.194 C 
BRANCH  29  30
HETATM   30  C2  UNL     1      74.822  92.269  44.407  1.00  0.00     0.193 C 
BRANCH  30  31
HETATM   31  O1  UNL     1      75.916  92.865  43.800  1.00  0.00    -0.394 OA
HETATM   32  C1  UNL     1      75.702  93.096  42.446  1.00  0.00     0.201 C 
ENDBRANCH  30  31
ENDBRANCH  29  30
ENDBRANCH  28  29
ENDBRANCH  27  28
ENDBRANCH  26  27
ENDBRANCH  24  26
ENDBRANCH   1  24
BRANCH  14  33
HETATM   33  O3  UNL     1      79.948  87.222  49.931  1.00  0.00    -0.396 OA
ATOM     34  H3  UNL     1      79.680  88.114  49.746  1.00  0.00     0.210 HD
ENDBRANCH  14  33
BRANCH  19  35
HETATM   35  O5  UNL     1      79.753  80.533  49.748  1.00  0.00    -0.393 OA
ATOM     36  H5  UNL     1      78.834  80.323  49.863  1.00  0.00     0.210 HD
ENDBRANCH  19  35
BRANCH  18  37
HETATM   37  O4  UNL     1      81.844  83.188  49.057  1.00  0.00    -0.393 OA
ATOM     38  H4  UNL     1      82.643  82.771  48.758  1.00  0.00     0.210 HD
ENDBRANCH  18  37
TORSDOF 10
ENDMDL
MODEL 5
REMARK VINA RESULT: -7.197620826      1.062      1.144
REMARK  10 active torsions:
REMARK  status: ('A' for Active; 'I' for Inactive)
REMARK    1  A    between atoms: O1_2  and  C2_3 
REMARK    2  A    between atoms: C2_3  and  C3_4 
REMARK    3  A    between atoms: C3_4  and  O2_5 
REMARK    4  A    between atoms: O2_5  and  C4_6 
REMARK    5  A    between atoms: C4_6  and  C5_7 
REMARK    6  A    between atoms: C5_7  and  N1_8 
REMARK    7  A    between atoms: N1_8  and  C6_10 
REMARK    8  A    between atoms: C19_23  and  O3_24 
REMARK    9  A    between atoms: C23_29  and  O4_30 
REMARK   10  A    between atoms: C24_32  and  O5_33 
ROOT
HETATM    1  C6  UNL     1      73.317  88.263  48.026  1.00  0.00     0.026 C 
HETATM    2  C7  UNL     1      72.041  88.927  48.478  1.00  0.00     0.038 C 
HETATM    3  C8  UNL     1      74.180  88.126  49.288  1.00  0.00     0.031 C 
HETATM    4  C9  UNL     1      75.116  86.975  48.990  1.00  0.00     0.012 C 
HETATM    5  C10 UNL     1      74.336  85.712  49.411  1.00  0.00    -0.036 C 
HETATM    6  C11 UNL     1      74.134  85.897  50.921  1.00  0.00     0.016 C 
HETATM    7  C12 UNL     1      73.050  85.825  48.674  1.00  0.00    -0.004 C 
HETATM    8  C13 UNL     1      72.503  84.550  48.148  1.00  0.00     0.006 C 
HETATM    9  C14 UNL     1      73.516  83.492  47.814  1.00  0.00     0.011 C 
HETATM   10  C15 UNL     1      74.511  83.235  48.961  1.00  0.00    -0.032 C 
HETATM   11  C16 UNL     1      73.619  82.868  50.140  1.00  0.00     0.016 C 
HETATM   12  C17 UNL     1      75.207  84.558  49.151  1.00  0.00     0.005 C 
HETATM   13  C18 UNL     1      76.267  84.545  50.219  1.00  0.00     0.038 C 
HETATM   14  C19 UNL     1      77.625  84.383  49.534  1.00  0.00     0.119 C 
HETATM   15  C20 UNL     1      77.725  82.921  49.197  1.00  0.00     0.037 C 
HETATM   16  C21 UNL     1      76.755  82.501  48.104  1.00  0.00    -0.001 C 
HETATM   17  C22 UNL     1      77.456  81.276  47.491  1.00  0.00     0.039 C 
HETATM   18  C23 UNL     1      77.620  80.189  48.490  1.00  0.00     0.147 C 
HETATM   19  C24 UNL     1      76.484  79.966  49.417  1.00  0.00     0.147 C 
HETATM   20  C25 UNL     1      75.591  81.086  49.722  1.00  0.00     0.044 C 
HETATM   21  C26 UNL     1      75.413  82.113  48.598  1.00  0.00    -0.030 C 
HETATM   22  C27 UNL     1      74.706  81.284  47.518  1.00  0.00     0.016 C 
HETATM   23  C28 UNL     1      73.030  86.858  47.570  1.00  0.00     0.036 C 
ENDROOT
BRANCH   1  24
HETATM   24  N1  UNL     1      74.017  88.933  46.996  1.00  0.00    -0.391 N 
ATOM     25  H1  UNL     1      74.969  88.646  46.766  1.00  0.00     0.159 HD
BRANCH  24  26
HETATM   26  C5  UNL     1      73.430  89.977  46.293  1.00  0.00     0.082 C 
BRANCH  26  27
HETATM   27  C4  UNL     1      74.062  90.498  45.031  1.00  0.00     0.211 C 
BRANCH  27  28
HETATM   28  O2  UNL     1      73.325  91.422  44.356  1.00  0.00    -0.384 OA
BRANCH  28  29
HETATM   29  C3  UNL     1      74.001  92.453  43.808  1.00  0.00     0.194 C 
BRANCH  29  30
HETATM   30  C2  UNL     1      75.478  92.344  43.651  1.00  0.00     0.193 C 
BRANCH  30  31
HETATM   31  O1  UNL     1      76.053  93.410  42.979  1.00  0.00    -0.394 OA
HETATM   32  C1  UNL     1      75.554  93.547  41.689  1.00  0.00     0.201 C 
ENDBRANCH  30  31
ENDBRANCH  29  30
ENDBRANCH  28  29
ENDBRANCH  27  28
ENDBRANCH  26  27
ENDBRANCH  24  26
ENDBRANCH   1  24
BRANCH  14  33
HETATM   33  O3  UNL     1      78.596  84.703  50.445  1.00  0.00    -0.396 OA
ATOM     34  H3  UNL     1      78.909  85.577  50.244  1.00  0.00     0.210 HD
ENDBRANCH  14  33
BRANCH  19  35
HETATM   35  O5  UNL     1      75.757  78.806  49.039  1.00  0.00    -0.393 OA
ATOM     36  H5  UNL     1      74.823  78.961  49.113  1.00  0.00     0.210 HD
ENDBRANCH  19  35
BRANCH  18  37
HETATM   37  O4  UNL     1      78.841  80.342  49.199  1.00  0.00    -0.393 OA
ATOM     38  H4  UNL     1      79.010  81.259  49.381  1.00  0.00     0.210 HD
ENDBRANCH  18  37
TORSDOF 10
ENDMDL
