MODEL 1
REMARK VINA RESULT: -7.370744620      0.000      0.000
REMARK  12 active torsions:
REMARK  status: ('A' for Active; 'I' for Inactive)
REMARK    1  A    between atoms: C3_3  and  C4_4 
REMARK    2  A    between atoms: C6_6  and  O1_7 
REMARK    3  A    between atoms: O1_7  and  C7_8 
REMARK    4  A    between atoms: C7_8  and  C8_10 
REMARK    5  A    between atoms: C8_10  and  C10_12 
REMARK    6  A    between atoms: C10_12  and  O3_13 
REMARK    7  A    between atoms: C10_12  and  C11_15 
REMARK    8  A    between atoms: C11_15  and  O4_16 
REMARK    9  A    between atoms: C11_15  and  C12_18 
REMARK   10  A    between atoms: C12_18  and  O5_19 
REMARK   11  A    between atoms: C16_24  and  O6_25 
REMARK   12  A    between atoms: O6_25  and  C17_26 
ROOT
HETATM    1  C4  UNL     1      77.483  83.753  49.806  1.00  0.00     0.008 C 
HETATM    2  C5  UNL     1      78.427  83.880  48.614  1.00  0.00     0.023 C 
HETATM    3  C6  UNL     1      76.967  85.144  50.070  1.00  0.00     0.149 C 
HETATM    4  C13 UNL     1      77.559  85.904  51.167  1.00  0.00     0.031 C 
HETATM    5  C14 UNL     1      78.765  85.212  51.836  1.00  0.00     0.000 C 
HETATM    6  C15 UNL     1      79.080  86.196  52.893  1.00  0.00     0.039 C 
HETATM    7  C16 UNL     1      79.131  87.476  52.041  1.00  0.00     0.142 C 
HETATM    8  C18 UNL     1      78.065  87.265  50.955  1.00  0.00    -0.014 C 
HETATM    9  C19 UNL     1      78.563  87.612  49.604  1.00  0.00     0.018 C 
HETATM   10  C20 UNL     1      76.953  88.262  51.298  1.00  0.00     0.018 C 
HETATM   11  C21 UNL     1      78.233  83.908  52.196  1.00  0.00    -0.001 C 
HETATM   12  C22 UNL     1      78.946  83.021  53.106  1.00  0.00     0.006 C 
HETATM   13  C23 UNL     1      78.431  81.649  52.731  1.00  0.00     0.001 C 
HETATM   14  C24 UNL     1      77.555  81.839  51.480  1.00  0.00     0.011 C 
HETATM   15  C25 UNL     1      78.209  83.096  50.911  1.00  0.00    -0.027 C 
HETATM   16  C26 UNL     1      79.602  82.641  50.490  1.00  0.00     0.016 C 
ENDROOT
BRANCH   3  17
HETATM   17  O1  UNL     1      75.553  84.995  50.286  1.00  0.00    -0.314 OA
BRANCH  17  18
HETATM   18  C7  UNL     1      74.652  86.025  50.172  1.00  0.00     0.265 C 
HETATM   19  O2  UNL     1      74.174  86.506  51.222  1.00  0.00    -0.265 OA
BRANCH  18  20
HETATM   20  C8  UNL     1      74.224  86.588  48.851  1.00  0.00     0.113 C 
HETATM   21  C9  UNL     1      74.185  88.069  48.969  1.00  0.00     0.023 C 
BRANCH  20  22
HETATM   22  C10 UNL     1      72.926  85.923  48.494  1.00  0.00     0.162 C 
BRANCH  22  23
HETATM   23  O3  UNL     1      72.427  85.448  49.747  1.00  0.00    -0.392 OA
ATOM     24  H3  UNL     1      71.774  86.093  49.992  1.00  0.00     0.210 HD
ENDBRANCH  22  23
BRANCH  22  25
HETATM   25  C11 UNL     1      73.133  84.661  47.673  1.00  0.00     0.171 C 
BRANCH  25  26
HETATM   26  O4  UNL     1      73.569  84.937  46.392  1.00  0.00    -0.391 OA
ATOM     27  H4  UNL     1      72.865  85.239  45.830  1.00  0.00     0.210 HD
ENDBRANCH  25  26
BRANCH  25  28
HETATM   28  C12 UNL     1      71.972  83.728  47.769  1.00  0.00     0.198 C 
BRANCH  28  29
HETATM   29  O5  UNL     1      70.854  84.403  47.247  1.00  0.00    -0.398 OA
ATOM     30  H5  UNL     1      70.812  84.198  46.320  1.00  0.00     0.209 HD
ENDBRANCH  28  29
ENDBRANCH  25  28
ENDBRANCH  22  25
ENDBRANCH  20  22
ENDBRANCH  18  20
ENDBRANCH  17  18
ENDBRANCH   3  17
BRANCH   1  31
HETATM   31  C3  UNL     1      76.374  82.853  49.378  1.00  0.00    -0.019 C 
HETATM   32  C2  UNL     1      76.190  82.389  48.170  1.00  0.00    -0.034 C 
HETATM   33  C1  UNL     1      75.061  81.492  47.807  1.00  0.00     0.036 C 
ENDBRANCH   1  31
BRANCH   7  34
HETATM   34  O6  UNL     1      78.915  88.624  52.791  1.00  0.00    -0.300 OA
BRANCH  34  35
HETATM   35  C17 UNL     1      79.670  88.789  53.958  1.00  0.00     0.373 C 
HETATM   36  N1  UNL     1      81.077  88.848  53.976  1.00  0.00    -0.032 NA
HETATM   37  O7  UNL     1      79.071  88.894  55.081  1.00  0.00    -0.242 OA
ENDBRANCH  34  35
ENDBRANCH   7  34
TORSDOF 12
ENDMDL
MODEL 2
REMARK VINA RESULT: -7.053522818      0.861      1.225
REMARK  12 active torsions:
REMARK  status: ('A' for Active; 'I' for Inactive)
REMARK    1  A    between atoms: C3_3  and  C4_4 
REMARK    2  A    between atoms: C6_6  and  O1_7 
REMARK    3  A    between atoms: O1_7  and  C7_8 
REMARK    4  A    between atoms: C7_8  and  C8_10 
REMARK    5  A    between atoms: C8_10  and  C10_12 
REMARK    6  A    between atoms: C10_12  and  O3_13 
REMARK    7  A    between atoms: C10_12  and  C11_15 
REMARK    8  A    between atoms: C11_15  and  O4_16 
REMARK    9  A    between atoms: C11_15  and  C12_18 
REMARK   10  A    between atoms: C12_18  and  O5_19 
REMARK   11  A    between atoms: C16_24  and  O6_25 
REMARK   12  A    between atoms: O6_25  and  C17_26 
ROOT
HETATM    1  C4  UNL     1      77.349  83.366  49.965  1.00  0.00     0.008 C 
HETATM    2  C5  UNL     1      78.211  83.453  48.709  1.00  0.00     0.023 C 
HETATM    3  C6  UNL     1      76.773  84.745  50.162  1.00  0.00     0.149 C 
HETATM    4  C13 UNL     1      77.386  85.612  51.163  1.00  0.00     0.031 C 
HETATM    5  C14 UNL     1      78.666  85.033  51.802  1.00  0.00     0.000 C 
HETATM    6  C15 UNL     1      78.988  86.107  52.766  1.00  0.00     0.039 C 
HETATM    7  C16 UNL     1      78.917  87.322  51.824  1.00  0.00     0.142 C 
HETATM    8  C18 UNL     1      77.802  86.978  50.825  1.00  0.00    -0.014 C 
HETATM    9  C19 UNL     1      78.198  87.250  49.424  1.00  0.00     0.018 C 
HETATM   10  C20 UNL     1      76.659  87.940  51.168  1.00  0.00     0.018 C 
HETATM   11  C21 UNL     1      78.229  83.734  52.285  1.00  0.00    -0.001 C 
HETATM   12  C22 UNL     1      79.044  82.953  53.208  1.00  0.00     0.006 C 
HETATM   13  C23 UNL     1      78.584  81.533  52.964  1.00  0.00     0.001 C 
HETATM   14  C24 UNL     1      77.626  81.586  51.760  1.00  0.00     0.011 C 
HETATM   15  C25 UNL     1      78.174  82.830  51.065  1.00  0.00    -0.027 C 
HETATM   16  C26 UNL     1      79.563  82.418  50.589  1.00  0.00     0.016 C 
ENDROOT
BRANCH   3  17
HETATM   17  O1  UNL     1      75.385  84.540  50.477  1.00  0.00    -0.314 OA
BRANCH  17  18
HETATM   18  C7  UNL     1      74.385  85.411  50.119  1.00  0.00     0.265 C 
HETATM   19  O2  UNL     1      73.726  85.955  51.032  1.00  0.00    -0.265 OA
BRANCH  18  20
HETATM   20  C8  UNL     1      74.057  85.730  48.693  1.00  0.00     0.113 C 
HETATM   21  C9  UNL     1      73.076  86.847  48.682  1.00  0.00     0.023 C 
BRANCH  20  22
HETATM   22  C10 UNL     1      73.603  84.450  48.053  1.00  0.00     0.162 C 
BRANCH  22  23
HETATM   23  O3  UNL     1      73.240  84.841  46.726  1.00  0.00    -0.392 OA
ATOM     24  H3  UNL     1      73.004  84.023  46.304  1.00  0.00     0.210 HD
ENDBRANCH  22  23
BRANCH  22  25
HETATM   25  C11 UNL     1      72.308  83.933  48.657  1.00  0.00     0.171 C 
BRANCH  25  26
HETATM   26  O4  UNL     1      72.521  83.225  49.822  1.00  0.00    -0.391 OA
ATOM     27  H4  UNL     1      72.393  82.291  49.704  1.00  0.00     0.210 HD
ENDBRANCH  25  26
BRANCH  25  28
HETATM   28  C12 UNL     1      71.442  83.260  47.644  1.00  0.00     0.198 C 
BRANCH  28  29
HETATM   29  O5  UNL     1      70.548  84.229  47.155  1.00  0.00    -0.398 OA
ATOM     30  H5  UNL     1      69.809  84.253  47.753  1.00  0.00     0.209 HD
ENDBRANCH  28  29
ENDBRANCH  25  28
ENDBRANCH  22  25
ENDBRANCH  20  22
ENDBRANCH  18  20
ENDBRANCH  17  18
ENDBRANCH   3  17
BRANCH   1  31
HETATM   31  C3  UNL     1      76.268  82.382  49.671  1.00  0.00    -0.019 C 
HETATM   32  C2  UNL     1      76.043  81.815  48.515  1.00  0.00    -0.034 C 
HETATM   33  C1  UNL     1      74.946  80.839  48.288  1.00  0.00     0.036 C 
ENDBRANCH   1  31
BRANCH   7  34
HETATM   34  O6  UNL     1      78.683  88.510  52.504  1.00  0.00    -0.300 OA
BRANCH  34  35
HETATM   35  C17 UNL     1      79.525  88.820  53.579  1.00  0.00     0.373 C 
HETATM   36  N1  UNL     1      79.077  88.958  54.906  1.00  0.00    -0.032 NA
HETATM   37  O7  UNL     1      80.772  88.991  53.367  1.00  0.00    -0.242 OA
ENDBRANCH  34  35
ENDBRANCH   7  34
TORSDOF 12
ENDMDL
MODEL 3
REMARK VINA RESULT: -7.021220888      3.713      6.507
REMARK  12 active torsions:
REMARK  status: ('A' for Active; 'I' for Inactive)
REMARK    1  A    between atoms: C3_3  and  C4_4 
REMARK    2  A    between atoms: C6_6  and  O1_7 
REMARK    3  A    between atoms: O1_7  and  C7_8 
REMARK    4  A    between atoms: C7_8  and  C8_10 
REMARK    5  A    between atoms: C8_10  and  C10_12 
REMARK    6  A    between atoms: C10_12  and  O3_13 
REMARK    7  A    between atoms: C10_12  and  C11_15 
REMARK    8  A    between atoms: C11_15  and  O4_16 
REMARK    9  A    between atoms: C11_15  and  C12_18 
REMARK   10  A    between atoms: C12_18  and  O5_19 
REMARK   11  A    between atoms: C16_24  and  O6_25 
REMARK   12  A    between atoms: O6_25  and  C17_26 
ROOT
HETATM    1  C4  UNL     1      76.405  86.490  50.262  1.00  0.00     0.008 C 
HETATM    2  C5  UNL     1      76.019  86.697  51.724  1.00  0.00     0.023 C 
HETATM    3  C6  UNL     1      75.107  86.446  49.498  1.00  0.00     0.149 C 
HETATM    4  C13 UNL     1      74.585  85.144  49.098  1.00  0.00     0.031 C 
HETATM    5  C14 UNL     1      75.384  83.945  49.652  1.00  0.00     0.000 C 
HETATM    6  C15 UNL     1      74.638  82.825  49.040  1.00  0.00     0.039 C 
HETATM    7  C16 UNL     1      73.208  83.222  49.445  1.00  0.00     0.142 C 
HETATM    8  C18 UNL     1      73.202  84.758  49.406  1.00  0.00    -0.014 C 
HETATM    9  C19 UNL     1      72.574  85.350  50.609  1.00  0.00     0.018 C 
HETATM   10  C20 UNL     1      72.315  85.116  48.208  1.00  0.00     0.018 C 
HETATM   11  C21 UNL     1      76.742  84.233  49.219  1.00  0.00    -0.001 C 
HETATM   12  C22 UNL     1      77.789  83.221  49.281  1.00  0.00     0.006 C 
HETATM   13  C23 UNL     1      79.060  84.039  49.354  1.00  0.00     0.001 C 
HETATM   14  C24 UNL     1      78.625  85.507  49.503  1.00  0.00     0.011 C 
HETATM   15  C25 UNL     1      77.268  85.295  50.170  1.00  0.00    -0.027 C 
HETATM   16  C26 UNL     1      77.605  84.725  51.543  1.00  0.00     0.016 C 
ENDROOT
BRANCH   3  17
HETATM   17  O1  UNL     1      75.318  87.266  48.336  1.00  0.00    -0.314 OA
BRANCH  17  18
HETATM   18  C7  UNL     1      74.301  87.751  47.550  1.00  0.00     0.265 C 
HETATM   19  O2  UNL     1      73.828  86.998  46.671  1.00  0.00    -0.265 OA
BRANCH  18  20
HETATM   20  C8  UNL     1      73.743  89.132  47.704  1.00  0.00     0.113 C 
HETATM   21  C9  UNL     1      72.604  89.068  48.657  1.00  0.00     0.023 C 
BRANCH  20  22
HETATM   22  C10 UNL     1      73.418  89.627  46.324  1.00  0.00     0.162 C 
BRANCH  22  23
HETATM   23  O3  UNL     1      74.595  89.332  45.568  1.00  0.00    -0.392 OA
ATOM     24  H3  UNL     1      75.041  90.168  45.505  1.00  0.00     0.210 HD
ENDBRANCH  22  23
BRANCH  22  25
HETATM   25  C11 UNL     1      73.308  91.142  46.268  1.00  0.00     0.171 C 
BRANCH  25  26
HETATM   26  O4  UNL     1      72.036  91.585  46.570  1.00  0.00    -0.391 OA
ATOM     27  H4  UNL     1      72.044  92.316  47.177  1.00  0.00     0.210 HD
ENDBRANCH  25  26
BRANCH  25  28
HETATM   28  C12 UNL     1      73.906  91.705  45.022  1.00  0.00     0.198 C 
BRANCH  28  29
HETATM   29  O5  UNL     1      73.234  91.113  43.937  1.00  0.00    -0.398 OA
ATOM     30  H5  UNL     1      73.384  91.667  43.180  1.00  0.00     0.209 HD
ENDBRANCH  28  29
ENDBRANCH  25  28
ENDBRANCH  22  25
ENDBRANCH  20  22
ENDBRANCH  18  20
ENDBRANCH  17  18
ENDBRANCH   3  17
BRANCH   1  31
HETATM   31  C3  UNL     1      77.211  87.678  49.862  1.00  0.00    -0.019 C 
HETATM   32  C2  UNL     1      77.888  88.451  50.670  1.00  0.00    -0.034 C 
HETATM   33  C1  UNL     1      78.674  89.624  50.206  1.00  0.00     0.036 C 
ENDBRANCH   1  31
BRANCH   7  34
HETATM   34  O6  UNL     1      72.245  82.659  48.619  1.00  0.00    -0.300 OA
BRANCH  34  35
HETATM   35  C17 UNL     1      71.483  81.604  49.135  1.00  0.00     0.373 C 
HETATM   36  N1  UNL     1      70.666  80.773  48.346  1.00  0.00    -0.032 NA
HETATM   37  O7  UNL     1      71.515  81.365  50.389  1.00  0.00    -0.242 OA
ENDBRANCH  34  35
ENDBRANCH   7  34
TORSDOF 12
ENDMDL
MODEL 4
REMARK VINA RESULT: -6.882028098      0.829      1.164
REMARK  12 active torsions:
REMARK  status: ('A' for Active; 'I' for Inactive)
REMARK    1  A    between atoms: C3_3  and  C4_4 
REMARK    2  A    between atoms: C6_6  and  O1_7 
REMARK    3  A    between atoms: O1_7  and  C7_8 
REMARK    4  A    between atoms: C7_8  and  C8_10 
REMARK    5  A    between atoms: C8_10  and  C10_12 
REMARK    6  A    between atoms: C10_12  and  O3_13 
REMARK    7  A    between atoms: C10_12  and  C11_15 
REMARK    8  A    between atoms: C11_15  and  O4_16 
REMARK    9  A    between atoms: C11_15  and  C12_18 
REMARK   10  A    between atoms: C12_18  and  O5_19 
REMARK   11  A    between atoms: C16_24  and  O6_25 
REMARK   12  A    between atoms: O6_25  and  C17_26 
ROOT
HETATM    1  C4  UNL     1      77.838  83.956  50.203  1.00  0.00     0.008 C 
HETATM    2  C5  UNL     1      78.729  84.075  48.971  1.00  0.00     0.023 C 
HETATM    3  C6  UNL     1      77.286  85.338  50.445  1.00  0.00     0.149 C 
HETATM    4  C13 UNL     1      77.896  86.150  51.494  1.00  0.00     0.031 C 
HETATM    5  C14 UNL     1      79.149  85.518  52.135  1.00  0.00     0.000 C 
HETATM    6  C15 UNL     1      79.473  86.544  53.148  1.00  0.00     0.039 C 
HETATM    7  C16 UNL     1      79.448  87.797  52.256  1.00  0.00     0.142 C 
HETATM    8  C18 UNL     1      78.349  87.519  51.220  1.00  0.00    -0.014 C 
HETATM    9  C19 UNL     1      78.781  87.839  49.841  1.00  0.00     0.018 C 
HETATM   10  C20 UNL     1      77.218  88.491  51.578  1.00  0.00     0.018 C 
HETATM   11  C21 UNL     1      78.674  84.210  52.555  1.00  0.00    -0.001 C 
HETATM   12  C22 UNL     1      79.451  83.374  53.462  1.00  0.00     0.006 C 
HETATM   13  C23 UNL     1      78.967  81.976  53.150  1.00  0.00     0.001 C 
HETATM   14  C24 UNL     1      78.037  82.099  51.929  1.00  0.00     0.011 C 
HETATM   15  C25 UNL     1      78.627  83.358  51.297  1.00  0.00    -0.027 C 
HETATM   16  C26 UNL     1      80.017  82.934  50.835  1.00  0.00     0.016 C 
ENDROOT
BRANCH   3  17
HETATM   17  O1  UNL     1      75.888  85.151  50.722  1.00  0.00    -0.314 OA
BRANCH  17  18
HETATM   18  C7  UNL     1      74.937  86.122  50.529  1.00  0.00     0.265 C 
HETATM   19  O2  UNL     1      74.577  86.797  51.518  1.00  0.00    -0.265 OA
BRANCH  18  20
HETATM   20  C8  UNL     1      74.318  86.401  49.193  1.00  0.00     0.113 C 
HETATM   21  C9  UNL     1      74.592  87.820  48.843  1.00  0.00     0.023 C 
BRANCH  20  22
HETATM   22  C10 UNL     1      72.870  86.017  49.294  1.00  0.00     0.162 C 
BRANCH  22  23
HETATM   23  O3  UNL     1      72.846  85.045  50.343  1.00  0.00    -0.392 OA
ATOM     24  H3  UNL     1      73.312  85.467  51.055  1.00  0.00     0.210 HD
ENDBRANCH  22  23
BRANCH  22  25
HETATM   25  C11 UNL     1      72.390  85.257  48.069  1.00  0.00     0.171 C 
BRANCH  25  26
HETATM   26  O4  UNL     1      71.223  84.561  48.310  1.00  0.00    -0.391 OA
ATOM     27  H4  UNL     1      70.487  85.138  48.477  1.00  0.00     0.210 HD
ENDBRANCH  25  26
BRANCH  25  28
HETATM   28  C12 UNL     1      73.486  84.472  47.427  1.00  0.00     0.198 C 
BRANCH  28  29
HETATM   29  O5  UNL     1      73.695  85.024  46.150  1.00  0.00    -0.398 OA
ATOM     30  H5  UNL     1      74.634  85.052  46.009  1.00  0.00     0.209 HD
ENDBRANCH  28  29
ENDBRANCH  25  28
ENDBRANCH  22  25
ENDBRANCH  20  22
ENDBRANCH  18  20
ENDBRANCH  17  18
ENDBRANCH   3  17
BRANCH   1  31
HETATM   31  C3  UNL     1      76.743  83.009  49.847  1.00  0.00    -0.019 C 
HETATM   32  C2  UNL     1      76.589  82.417  48.692  1.00  0.00    -0.034 C 
HETATM   33  C1  UNL     1      75.472  81.480  48.399  1.00  0.00     0.036 C 
ENDBRANCH   1  31
BRANCH   7  34
HETATM   34  O6  UNL     1      79.225  88.961  52.979  1.00  0.00    -0.300 OA
BRANCH  34  35
HETATM   35  C17 UNL     1      80.284  89.465  53.743  1.00  0.00     0.373 C 
HETATM   36  N1  UNL     1      80.194  89.731  55.122  1.00  0.00    -0.032 NA
HETATM   37  O7  UNL     1      81.404  89.704  53.178  1.00  0.00    -0.242 OA
ENDBRANCH  34  35
ENDBRANCH   7  34
TORSDOF 12
ENDMDL
MODEL 5
REMARK VINA RESULT: -6.853761026      1.335      1.634
REMARK  12 active torsions:
REMARK  status: ('A' for Active; 'I' for Inactive)
REMARK    1  A    between atoms: C3_3  and  C4_4 
REMARK    2  A    between atoms: C6_6  and  O1_7 
REMARK    3  A    between atoms: O1_7  and  C7_8 
REMARK    4  A    between atoms: C7_8  and  C8_10 
REMARK    5  A    between atoms: C8_10  and  C10_12 
REMARK    6  A    between atoms: C10_12  and  O3_13 
REMARK    7  A    between atoms: C10_12  and  C11_15 
REMARK    8  A    between atoms: C11_15  and  O4_16 
REMARK    9  A    between atoms: C11_15  and  C12_18 
REMARK   10  A    between atoms: C12_18  and  O5_19 
REMARK   11  A    between atoms: C16_24  and  O6_25 
REMARK   12  A    between atoms: O6_25  and  C17_26 
ROOT
HETATM    1  C4  UNL     1      78.239  85.094  50.224  1.00  0.00     0.008 C 
HETATM    2  C5  UNL     1      79.204  85.306  49.061  1.00  0.00     0.023 C 
HETATM    3  C6  UNL     1      77.678  86.456  50.545  1.00  0.00     0.149 C 
HETATM    4  C13 UNL     1      78.225  87.174  51.691  1.00  0.00     0.031 C 
HETATM    5  C14 UNL     1      79.436  86.482  52.353  1.00  0.00     0.000 C 
HETATM    6  C15 UNL     1      79.700  87.419  53.465  1.00  0.00     0.039 C 
HETATM    7  C16 UNL     1      79.733  88.742  52.679  1.00  0.00     0.142 C 
HETATM    8  C18 UNL     1      78.697  88.558  51.560  1.00  0.00    -0.014 C 
HETATM    9  C19 UNL     1      79.213  88.986  50.239  1.00  0.00     0.018 C 
HETATM   10  C20 UNL     1      77.550  89.505  51.927  1.00  0.00     0.018 C 
HETATM   11  C21 UNL     1      78.933  85.148  52.634  1.00  0.00    -0.001 C 
HETATM   12  C22 UNL     1      79.651  84.235  53.515  1.00  0.00     0.006 C 
HETATM   13  C23 UNL     1      79.183  82.870  53.060  1.00  0.00     0.001 C 
HETATM   14  C24 UNL     1      78.329  83.100  51.800  1.00  0.00     0.011 C 
HETATM   15  C25 UNL     1      78.959  84.402  51.311  1.00  0.00    -0.027 C 
HETATM   16  C26 UNL     1      80.374  84.007  50.899  1.00  0.00     0.016 C 
ENDROOT
BRANCH   3  17
HETATM   17  O1  UNL     1      76.265  86.257  50.721  1.00  0.00    -0.314 OA
BRANCH  17  18
HETATM   18  C7  UNL     1      75.307  86.894  49.970  1.00  0.00     0.265 C 
HETATM   19  O2  UNL     1      75.642  87.917  49.336  1.00  0.00    -0.265 OA
BRANCH  18  20
HETATM   20  C8  UNL     1      73.891  86.414  49.885  1.00  0.00     0.113 C 
HETATM   21  C9  UNL     1      73.807  85.091  50.558  1.00  0.00     0.023 C 
BRANCH  20  22
HETATM   22  C10 UNL     1      73.509  86.438  48.433  1.00  0.00     0.162 C 
BRANCH  22  23
HETATM   23  O3  UNL     1      72.189  86.987  48.434  1.00  0.00    -0.392 OA
ATOM     24  H3  UNL     1      72.014  87.161  47.517  1.00  0.00     0.210 HD
ENDBRANCH  22  23
BRANCH  22  25
HETATM   25  C11 UNL     1      73.332  85.041  47.862  1.00  0.00     0.171 C 
BRANCH  25  26
HETATM   26  O4  UNL     1      73.589  84.994  46.506  1.00  0.00    -0.391 OA
ATOM     27  H4  UNL     1      73.301  84.178  46.114  1.00  0.00     0.210 HD
ENDBRANCH  25  26
BRANCH  25  28
HETATM   28  C12 UNL     1      72.049  84.413  48.295  1.00  0.00     0.198 C 
BRANCH  28  29
HETATM   29  O5  UNL     1      71.111  84.642  47.272  1.00  0.00    -0.398 OA
ATOM     30  H5  UNL     1      70.891  83.795  46.901  1.00  0.00     0.209 HD
ENDBRANCH  28  29
ENDBRANCH  25  28
ENDBRANCH  22  25
ENDBRANCH  20  22
ENDBRANCH  18  20
ENDBRANCH  17  18
ENDBRANCH   3  17
BRANCH   1  31
HETATM   31  C3  UNL     1      77.166  84.187  49.726  1.00  0.00    -0.019 C 
HETATM   32  C2  UNL     1      77.217  83.466  48.637  1.00  0.00    -0.034 C 
HETATM   33  C1  UNL     1      76.109  82.580  48.194  1.00  0.00     0.036 C 
ENDBRANCH   1  31
BRANCH   7  34
HETATM   34  O6  UNL     1      79.469  89.844  53.480  1.00  0.00    -0.300 OA
BRANCH  34  35
HETATM   35  C17 UNL     1      80.539  90.402  54.190  1.00  0.00     0.373 C 
HETATM   36  N1  UNL     1      81.680  90.953  53.576  1.00  0.00    -0.032 NA
HETATM   37  O7  UNL     1      80.499  90.424  55.466  1.00  0.00    -0.242 OA
ENDBRANCH  34  35
ENDBRANCH   7  34
TORSDOF 12
ENDMDL
