MODEL 1
REMARK VINA RESULT: -7.111287000      0.000      0.000
REMARK  10 active torsions:
REMARK  status: ('A' for Active; 'I' for Inactive)
REMARK    1  A    between atoms: C2_2  and  C3_3 
REMARK    2  A    between atoms: C3_3  and  O1_5 
REMARK    3  A    between atoms: C3_3  and  C5_7 
REMARK    4  A    between atoms: C5_7  and  C6_8 
REMARK    5  A    between atoms: C6_8  and  O2_9 
REMARK    6  A    between atoms: C6_8  and  C7_11 
REMARK    7  A    between atoms: C17_22  and  C19_24 
REMARK    8  A    between atoms: C21_27  and  O5_28 
REMARK    9  A    between atoms: C25_33  and  C26_34 
REMARK   10  A    between atoms: C28_36  and  O6_37 
ROOT
HETATM    1  C7  UNL     1      75.310  85.719  50.450  1.00  0.00     0.081 C 
HETATM    2  C8  UNL     1      76.343  86.719  50.070  1.00  0.00    -0.010 C 
HETATM    3  C9  UNL     1      76.234  88.011  50.278  1.00  0.00     0.023 C 
HETATM    4  C10 UNL     1      77.438  85.978  49.457  1.00  0.00     0.169 C 
HETATM    5  O3  UNL     1      78.274  86.629  48.779  1.00  0.00    -0.291 OA
HETATM    6  C11 UNL     1      77.341  84.512  49.775  1.00  0.00     0.061 C 
HETATM    7  C12 UNL     1      77.887  83.790  48.576  1.00  0.00     0.003 C 
HETATM    8  C13 UNL     1      77.828  82.304  48.568  1.00  0.00     0.011 C 
HETATM    9  C14 UNL     1      79.327  84.132  48.241  1.00  0.00     0.006 C 
HETATM   10  C15 UNL     1      80.200  84.242  49.421  1.00  0.00     0.007 C 
HETATM   11  C16 UNL     1      79.579  83.812  50.725  1.00  0.00     0.010 C 
HETATM   12  C17 UNL     1      80.629  83.893  51.739  1.00  0.00     0.016 C 
HETATM   13  C18 UNL     1      80.982  82.490  52.290  1.00  0.00     0.023 C 
HETATM   14  C20 UNL     1      80.443  84.777  52.925  1.00  0.00     0.048 C 
HETATM   15  C21 UNL     1      79.099  85.324  53.132  1.00  0.00     0.120 C 
HETATM   16  C22 UNL     1      78.321  85.621  51.838  1.00  0.00     0.042 C 
HETATM   17  C23 UNL     1      78.212  84.350  51.017  1.00  0.00    -0.018 C 
HETATM   18  C24 UNL     1      77.614  83.381  52.045  1.00  0.00     0.017 C 
HETATM   19  C25 UNL     1      75.864  84.432  49.951  1.00  0.00    -0.040 C 
ENDROOT
BRANCH  19  20
HETATM   20  C26 UNL     1      74.988  83.617  49.104  1.00  0.00    -0.019 C 
HETATM   21  C27 UNL     1      74.263  82.670  49.783  1.00  0.00     0.025 C 
HETATM   22  C28 UNL     1      74.608  83.513  47.726  1.00  0.00     0.142 C 
BRANCH  22  23
HETATM   23  O6  UNL     1      74.051  84.489  46.969  1.00  0.00    -0.372 OA
ATOM     24  H6  UNL     1      73.123  84.677  46.886  1.00  0.00     0.216 HD
ENDBRANCH  22  23
ENDBRANCH  19  20
BRANCH   1  25
HETATM   25  C6  UNL     1      74.048  86.336  50.083  1.00  0.00     0.134 C 
BRANCH  25  26
HETATM   26  C5  UNL     1      74.048  87.680  49.407  1.00  0.00     0.074 C 
BRANCH  26  27
HETATM   27  C3  UNL     1      73.030  87.736  48.261  1.00  0.00     0.073 C 
HETATM   28  C4  UNL     1      72.066  88.861  48.412  1.00  0.00     0.050 C 
BRANCH  27  29
HETATM   29  C2  UNL     1      73.833  87.904  47.004  1.00  0.00    -0.000 C 
HETATM   30  C1  UNL     1      73.878  89.037  46.347  1.00  0.00     0.010 C 
ENDBRANCH  27  29
BRANCH  27  31
HETATM   31  O1  UNL     1      72.398  86.515  48.228  1.00  0.00    -0.386 OA
ATOM     32  H1  UNL     1      72.505  86.089  49.071  1.00  0.00     0.211 HD
ENDBRANCH  27  31
ENDBRANCH  26  27
ENDBRANCH  25  26
BRANCH  25  33
HETATM   33  O2  UNL     1      72.941  86.104  50.897  1.00  0.00    -0.394 OA
ATOM     34  H2  UNL     1      72.516  85.268  50.750  1.00  0.00     0.210 HD
ENDBRANCH  25  33
ENDBRANCH   1  25
BRANCH  12  35
HETATM   35  C19 UNL     1      81.963  84.362  51.175  1.00  0.00     0.240 C 
HETATM   36  O4  UNL     1      82.745  85.059  51.741  1.00  0.00    -0.306 OA
ENDBRANCH  12  35
BRANCH  15  37
HETATM   37  O5  UNL     1      79.153  86.591  53.776  1.00  0.00    -0.396 OA
ATOM     38  H5  UNL     1      78.438  86.693  54.394  1.00  0.00     0.210 HD
ENDBRANCH  15  37
TORSDOF 10
ENDMDL
MODEL 2
REMARK VINA RESULT: -6.803617749      2.243      4.290
REMARK  10 active torsions:
REMARK  status: ('A' for Active; 'I' for Inactive)
REMARK    1  A    between atoms: C2_2  and  C3_3 
REMARK    2  A    between atoms: C3_3  and  O1_5 
REMARK    3  A    between atoms: C3_3  and  C5_7 
REMARK    4  A    between atoms: C5_7  and  C6_8 
REMARK    5  A    between atoms: C6_8  and  O2_9 
REMARK    6  A    between atoms: C6_8  and  C7_11 
REMARK    7  A    between atoms: C17_22  and  C19_24 
REMARK    8  A    between atoms: C21_27  and  O5_28 
REMARK    9  A    between atoms: C25_33  and  C26_34 
REMARK   10  A    between atoms: C28_36  and  O6_37 
ROOT
HETATM    1  C7  UNL     1      76.547  85.891  50.002  1.00  0.00     0.081 C 
HETATM    2  C8  UNL     1      76.213  84.631  50.720  1.00  0.00    -0.010 C 
HETATM    3  C9  UNL     1      75.015  84.095  50.752  1.00  0.00     0.023 C 
HETATM    4  C10 UNL     1      77.447  84.158  51.333  1.00  0.00     0.169 C 
HETATM    5  O3  UNL     1      77.351  83.294  52.241  1.00  0.00    -0.291 OA
HETATM    6  C11 UNL     1      78.644  84.834  50.725  1.00  0.00     0.061 C 
HETATM    7  C12 UNL     1      79.656  84.957  51.828  1.00  0.00     0.003 C 
HETATM    8  C13 UNL     1      80.922  85.682  51.539  1.00  0.00     0.011 C 
HETATM    9  C14 UNL     1      80.086  83.634  52.434  1.00  0.00     0.006 C 
HETATM   10  C15 UNL     1      80.293  82.567  51.443  1.00  0.00     0.007 C 
HETATM   11  C16 UNL     1      80.237  83.006  50.001  1.00  0.00     0.010 C 
HETATM   12  C17 UNL     1      80.570  81.836  49.191  1.00  0.00     0.016 C 
HETATM   13  C18 UNL     1      81.906  82.042  48.437  1.00  0.00     0.023 C 
HETATM   14  C20 UNL     1      79.592  81.332  48.186  1.00  0.00     0.048 C 
HETATM   15  C21 UNL     1      78.447  82.199  47.891  1.00  0.00     0.120 C 
HETATM   16  C22 UNL     1      77.945  83.025  49.087  1.00  0.00     0.042 C 
HETATM   17  C23 UNL     1      79.080  83.878  49.620  1.00  0.00    -0.018 C 
HETATM   18  C24 UNL     1      79.532  84.602  48.345  1.00  0.00     0.017 C 
HETATM   19  C25 UNL     1      77.985  86.106  50.318  1.00  0.00    -0.040 C 
ENDROOT
BRANCH  19  20
HETATM   20  C26 UNL     1      78.357  87.420  50.850  1.00  0.00    -0.019 C 
HETATM   21  C27 UNL     1      78.977  88.244  49.945  1.00  0.00     0.025 C 
HETATM   22  C28 UNL     1      78.244  88.165  52.070  1.00  0.00     0.142 C 
BRANCH  22  23
HETATM   23  O6  UNL     1      77.095  88.484  52.714  1.00  0.00    -0.372 OA
ATOM     24  H6  UNL     1      76.621  87.933  53.327  1.00  0.00     0.216 HD
ENDBRANCH  22  23
ENDBRANCH  19  20
BRANCH   1  25
HETATM   25  C6  UNL     1      75.439  86.784  50.290  1.00  0.00     0.134 C 
BRANCH  25  26
HETATM   26  C5  UNL     1      75.259  88.030  49.467  1.00  0.00     0.074 C 
BRANCH  26  27
HETATM   27  C3  UNL     1      74.125  87.874  48.446  1.00  0.00     0.073 C 
HETATM   28  C4  UNL     1      73.386  86.591  48.611  1.00  0.00     0.050 C 
BRANCH  27  29
HETATM   29  C2  UNL     1      73.204  89.037  48.673  1.00  0.00    -0.000 C 
HETATM   30  C1  UNL     1      72.861  89.858  47.710  1.00  0.00     0.010 C 
ENDBRANCH  27  29
BRANCH  27  31
HETATM   31  O1  UNL     1      74.692  87.988  47.199  1.00  0.00    -0.386 OA
ATOM     32  H1  UNL     1      75.576  88.322  47.291  1.00  0.00     0.211 HD
ENDBRANCH  27  31
ENDBRANCH  26  27
ENDBRANCH  25  26
BRANCH  25  33
HETATM   33  O2  UNL     1      75.018  86.905  51.613  1.00  0.00    -0.394 OA
ATOM     34  H2  UNL     1      75.230  86.159  52.160  1.00  0.00     0.210 HD
ENDBRANCH  25  33
ENDBRANCH   1  25
BRANCH  12  35
HETATM   35  C19 UNL     1      80.862  80.598  50.028  1.00  0.00     0.240 C 
HETATM   36  O4  UNL     1      80.599  79.479  49.720  1.00  0.00    -0.306 OA
ENDBRANCH  12  35
BRANCH  15  37
HETATM   37  O5  UNL     1      77.306  81.435  47.520  1.00  0.00    -0.396 OA
ATOM     38  H5  UNL     1      76.951  81.729  46.690  1.00  0.00     0.210 HD
ENDBRANCH  15  37
TORSDOF 10
ENDMDL
MODEL 3
REMARK VINA RESULT: -6.706878174      2.117      4.350
REMARK  10 active torsions:
REMARK  status: ('A' for Active; 'I' for Inactive)
REMARK    1  A    between atoms: C2_2  and  C3_3 
REMARK    2  A    between atoms: C3_3  and  O1_5 
REMARK    3  A    between atoms: C3_3  and  C5_7 
REMARK    4  A    between atoms: C5_7  and  C6_8 
REMARK    5  A    between atoms: C6_8  and  O2_9 
REMARK    6  A    between atoms: C6_8  and  C7_11 
REMARK    7  A    between atoms: C17_22  and  C19_24 
REMARK    8  A    between atoms: C21_27  and  O5_28 
REMARK    9  A    between atoms: C25_33  and  C26_34 
REMARK   10  A    between atoms: C28_36  and  O6_37 
ROOT
HETATM    1  C7  UNL     1      77.132  86.092  50.386  1.00  0.00     0.081 C 
HETATM    2  C8  UNL     1      76.936  84.833  51.154  1.00  0.00    -0.010 C 
HETATM    3  C9  UNL     1      75.842  84.108  51.118  1.00  0.00     0.023 C 
HETATM    4  C10 UNL     1      78.164  84.604  51.905  1.00  0.00     0.169 C 
HETATM    5  O3  UNL     1      78.120  83.785  52.857  1.00  0.00    -0.291 OA
HETATM    6  C11 UNL     1      79.291  85.437  51.360  1.00  0.00     0.061 C 
HETATM    7  C12 UNL     1      80.157  85.784  52.537  1.00  0.00     0.003 C 
HETATM    8  C13 UNL     1      81.312  86.693  52.312  1.00  0.00     0.011 C 
HETATM    9  C14 UNL     1      80.732  84.583  53.267  1.00  0.00     0.006 C 
HETATM   10  C15 UNL     1      81.204  83.515  52.371  1.00  0.00     0.007 C 
HETATM   11  C16 UNL     1      81.219  83.864  50.904  1.00  0.00     0.010 C 
HETATM   12  C17 UNL     1      81.814  82.725  50.207  1.00  0.00     0.016 C 
HETATM   13  C18 UNL     1      83.166  83.111  49.561  1.00  0.00     0.023 C 
HETATM   14  C20 UNL     1      81.033  82.014  49.156  1.00  0.00     0.048 C 
HETATM   15  C21 UNL     1      79.798  82.662  48.703  1.00  0.00     0.120 C 
HETATM   16  C22 UNL     1      79.054  83.455  49.792  1.00  0.00     0.042 C 
HETATM   17  C23 UNL     1      79.981  84.510  50.364  1.00  0.00    -0.018 C 
HETATM   18  C24 UNL     1      80.433  85.232  49.089  1.00  0.00     0.017 C 
HETATM   19  C25 UNL     1      78.479  86.559  50.812  1.00  0.00    -0.040 C 
ENDROOT
BRANCH  19  20
HETATM   20  C26 UNL     1      78.581  87.943  51.285  1.00  0.00    -0.019 C 
HETATM   21  C27 UNL     1      79.024  88.834  50.340  1.00  0.00     0.025 C 
HETATM   22  C28 UNL     1      78.323  88.702  52.474  1.00  0.00     0.142 C 
BRANCH  22  23
HETATM   23  O6  UNL     1      77.135  88.812  53.115  1.00  0.00    -0.372 OA
ATOM     24  H6  UNL     1      76.523  88.107  53.294  1.00  0.00     0.216 HD
ENDBRANCH  22  23
ENDBRANCH  19  20
BRANCH   1  25
HETATM   25  C6  UNL     1      75.872  86.802  50.514  1.00  0.00     0.134 C 
BRANCH  25  26
HETATM   26  C5  UNL     1      75.562  87.935  49.574  1.00  0.00     0.074 C 
BRANCH  26  27
HETATM   27  C3  UNL     1      74.387  87.593  48.649  1.00  0.00     0.073 C 
HETATM   28  C4  UNL     1      73.982  86.163  48.748  1.00  0.00     0.050 C 
BRANCH  27  29
HETATM   29  C2  UNL     1      73.256  88.484  49.074  1.00  0.00    -0.000 C 
HETATM   30  C1  UNL     1      72.829  89.479  48.334  1.00  0.00     0.010 C 
ENDBRANCH  27  29
BRANCH  27  31
HETATM   31  O1  UNL     1      74.770  87.935  47.373  1.00  0.00    -0.386 OA
ATOM     32  H1  UNL     1      75.178  88.793  47.393  1.00  0.00     0.211 HD
ENDBRANCH  27  31
ENDBRANCH  26  27
ENDBRANCH  25  26
BRANCH  25  33
HETATM   33  O2  UNL     1      75.326  86.948  51.788  1.00  0.00    -0.394 OA
ATOM     34  H2  UNL     1      74.886  86.173  52.116  1.00  0.00     0.210 HD
ENDBRANCH  25  33
ENDBRANCH   1  25
BRANCH  12  35
HETATM   35  C19 UNL     1      82.217  81.598  51.148  1.00  0.00     0.240 C 
HETATM   36  O4  UNL     1      82.440  80.474  50.824  1.00  0.00    -0.306 OA
ENDBRANCH  12  35
BRANCH  15  37
HETATM   37  O5  UNL     1      78.835  81.701  48.287  1.00  0.00    -0.396 OA
ATOM     38  H5  UNL     1      79.228  80.841  48.188  1.00  0.00     0.210 HD
ENDBRANCH  15  37
TORSDOF 10
ENDMDL
MODEL 4
REMARK VINA RESULT: -6.516760410      1.215      1.345
REMARK  10 active torsions:
REMARK  status: ('A' for Active; 'I' for Inactive)
REMARK    1  A    between atoms: C2_2  and  C3_3 
REMARK    2  A    between atoms: C3_3  and  O1_5 
REMARK    3  A    between atoms: C3_3  and  C5_7 
REMARK    4  A    between atoms: C5_7  and  C6_8 
REMARK    5  A    between atoms: C6_8  and  O2_9 
REMARK    6  A    between atoms: C6_8  and  C7_11 
REMARK    7  A    between atoms: C17_22  and  C19_24 
REMARK    8  A    between atoms: C21_27  and  O5_28 
REMARK    9  A    between atoms: C25_33  and  C26_34 
REMARK   10  A    between atoms: C28_36  and  O6_37 
ROOT
HETATM    1  C7  UNL     1      76.046  86.005  50.195  1.00  0.00     0.081 C 
HETATM    2  C8  UNL     1      77.375  86.467  49.712  1.00  0.00    -0.010 C 
HETATM    3  C9  UNL     1      77.744  87.725  49.654  1.00  0.00     0.023 C 
HETATM    4  C10 UNL     1      78.126  85.272  49.346  1.00  0.00     0.169 C 
HETATM    5  O3  UNL     1      79.144  85.423  48.625  1.00  0.00    -0.291 OA
HETATM    6  C11 UNL     1      77.498  84.040  49.936  1.00  0.00     0.061 C 
HETATM    7  C12 UNL     1      77.746  82.935  48.950  1.00  0.00     0.003 C 
HETATM    8  C13 UNL     1      77.148  81.602  49.227  1.00  0.00     0.011 C 
HETATM    9  C14 UNL     1      79.214  82.662  48.673  1.00  0.00     0.006 C 
HETATM   10  C15 UNL     1      80.062  82.700  49.874  1.00  0.00     0.007 C 
HETATM   11  C16 UNL     1      79.321  82.806  51.183  1.00  0.00     0.010 C 
HETATM   12  C17 UNL     1      80.323  82.720  52.244  1.00  0.00     0.016 C 
HETATM   13  C18 UNL     1      80.136  81.434  53.084  1.00  0.00     0.023 C 
HETATM   14  C20 UNL     1      80.468  83.841  53.215  1.00  0.00     0.048 C 
HETATM   15  C21 UNL     1      79.416  84.863  53.201  1.00  0.00     0.120 C 
HETATM   16  C22 UNL     1      78.806  85.136  51.815  1.00  0.00     0.042 C 
HETATM   17  C23 UNL     1      78.243  83.845  51.252  1.00  0.00    -0.018 C 
HETATM   18  C24 UNL     1      77.329  83.394  52.397  1.00  0.00     0.017 C 
HETATM   19  C25 UNL     1      76.093  84.531  50.004  1.00  0.00    -0.040 C 
ENDROOT
BRANCH  19  20
HETATM   20  C26 UNL     1      74.983  83.923  49.264  1.00  0.00    -0.019 C 
HETATM   21  C27 UNL     1      74.036  83.322  50.054  1.00  0.00     0.025 C 
HETATM   22  C28 UNL     1      74.538  83.776  47.909  1.00  0.00     0.142 C 
BRANCH  22  23
HETATM   23  O6  UNL     1      74.267  84.779  47.039  1.00  0.00    -0.372 OA
ATOM     24  H6  UNL     1      74.869  85.157  46.408  1.00  0.00     0.216 HD
ENDBRANCH  22  23
ENDBRANCH  19  20
BRANCH   1  25
HETATM   25  C6  UNL     1      75.098  86.939  49.613  1.00  0.00     0.134 C 
BRANCH  25  26
HETATM   26  C5  UNL     1      73.696  87.006  50.155  1.00  0.00     0.074 C 
BRANCH  26  27
HETATM   27  C3  UNL     1      72.742  87.690  49.168  1.00  0.00     0.073 C 
HETATM   28  C4  UNL     1      71.458  88.095  49.807  1.00  0.00     0.050 C 
BRANCH  27  29
HETATM   29  C2  UNL     1      73.473  88.898  48.660  1.00  0.00    -0.000 C 
HETATM   30  C1  UNL     1      72.861  89.885  48.051  1.00  0.00     0.010 C 
ENDBRANCH  27  29
BRANCH  27  31
HETATM   31  O1  UNL     1      72.548  86.814  48.127  1.00  0.00    -0.386 OA
ATOM     32  H1  UNL     1      72.509  85.930  48.471  1.00  0.00     0.211 HD
ENDBRANCH  27  31
ENDBRANCH  26  27
ENDBRANCH  25  26
BRANCH  25  33
HETATM   33  O2  UNL     1      75.200  87.216  48.251  1.00  0.00    -0.394 OA
ATOM     34  H2  UNL     1      76.091  87.264  47.927  1.00  0.00     0.210 HD
ENDBRANCH  25  33
ENDBRANCH   1  25
BRANCH  12  35
HETATM   35  C19 UNL     1      81.739  82.552  51.709  1.00  0.00     0.240 C 
HETATM   36  O4  UNL     1      82.717  83.039  52.181  1.00  0.00    -0.306 OA
ENDBRANCH  12  35
BRANCH  15  37
HETATM   37  O5  UNL     1      79.927  86.133  53.587  1.00  0.00    -0.396 OA
ATOM     38  H5  UNL     1      79.242  86.683  53.949  1.00  0.00     0.210 HD
ENDBRANCH  15  37
TORSDOF 10
ENDMDL
MODEL 5
REMARK VINA RESULT: -6.493033287      2.755      4.301
REMARK  10 active torsions:
REMARK  status: ('A' for Active; 'I' for Inactive)
REMARK    1  A    between atoms: C2_2  and  C3_3 
REMARK    2  A    between atoms: C3_3  and  O1_5 
REMARK    3  A    between atoms: C3_3  and  C5_7 
REMARK    4  A    between atoms: C5_7  and  C6_8 
REMARK    5  A    between atoms: C6_8  and  O2_9 
REMARK    6  A    between atoms: C6_8  and  C7_11 
REMARK    7  A    between atoms: C17_22  and  C19_24 
REMARK    8  A    between atoms: C21_27  and  O5_28 
REMARK    9  A    between atoms: C25_33  and  C26_34 
REMARK   10  A    between atoms: C28_36  and  O6_37 
ROOT
HETATM    1  C7  UNL     1      77.498  85.744  50.805  1.00  0.00     0.081 C 
HETATM    2  C8  UNL     1      77.414  87.189  50.461  1.00  0.00    -0.010 C 
HETATM    3  C9  UNL     1      76.290  87.855  50.334  1.00  0.00     0.023 C 
HETATM    4  C10 UNL     1      78.784  87.665  50.315  1.00  0.00     0.169 C 
HETATM    5  O3  UNL     1      78.959  88.761  49.725  1.00  0.00    -0.291 OA
HETATM    6  C11 UNL     1      79.758  86.699  50.931  1.00  0.00     0.061 C 
HETATM    7  C12 UNL     1      81.004  86.779  50.097  1.00  0.00     0.003 C 
HETATM    8  C13 UNL     1      82.121  85.852  50.418  1.00  0.00     0.011 C 
HETATM    9  C14 UNL     1      81.636  88.159  50.046  1.00  0.00     0.006 C 
HETATM   10  C15 UNL     1      81.642  88.857  51.341  1.00  0.00     0.007 C 
HETATM   11  C16 UNL     1      81.209  88.027  52.523  1.00  0.00     0.010 C 
HETATM   12  C17 UNL     1      81.387  88.860  53.711  1.00  0.00     0.016 C 
HETATM   13  C18 UNL     1      82.483  88.280  54.638  1.00  0.00     0.023 C 
HETATM   14  C20 UNL     1      80.217  89.166  54.581  1.00  0.00     0.048 C 
HETATM   15  C21 UNL     1      78.993  88.398  54.329  1.00  0.00     0.120 C 
HETATM   16  C22 UNL     1      78.763  88.024  52.855  1.00  0.00     0.042 C 
HETATM   17  C23 UNL     1      79.952  87.231  52.347  1.00  0.00    -0.018 C 
HETATM   18  C24 UNL     1      80.038  86.117  53.398  1.00  0.00     0.017 C 
HETATM   19  C25 UNL     1      78.956  85.455  50.764  1.00  0.00    -0.040 C 
ENDROOT
BRANCH  19  20
HETATM   20  C26 UNL     1      79.384  84.318  49.944  1.00  0.00    -0.019 C 
HETATM   21  C27 UNL     1      79.373  83.112  50.598  1.00  0.00     0.025 C 
HETATM   22  C28 UNL     1      79.801  84.050  48.599  1.00  0.00     0.142 C 
BRANCH  22  23
HETATM   23  O6  UNL     1      79.093  84.302  47.472  1.00  0.00    -0.372 OA
ATOM     24  H6  UNL     1      79.123  85.098  46.952  1.00  0.00     0.216 HD
ENDBRANCH  22  23
ENDBRANCH  19  20
BRANCH   1  25
HETATM   25  C6  UNL     1      76.453  85.117  50.015  1.00  0.00     0.134 C 
BRANCH  25  26
HETATM   26  C5  UNL     1      75.180  84.678  50.685  1.00  0.00     0.074 C 
BRANCH  26  27
HETATM   27  C3  UNL     1      73.964  84.872  49.769  1.00  0.00     0.073 C 
HETATM   28  C4  UNL     1      73.244  83.596  49.503  1.00  0.00     0.050 C 
BRANCH  27  29
HETATM   29  C2  UNL     1      73.064  85.840  50.481  1.00  0.00    -0.000 C 
HETATM   30  C1  UNL     1      72.539  86.881  49.882  1.00  0.00     0.010 C 
ENDBRANCH  27  29
BRANCH  27  31
HETATM   31  O1  UNL     1      74.425  85.458  48.614  1.00  0.00    -0.386 OA
ATOM     32  H1  UNL     1      75.361  85.315  48.547  1.00  0.00     0.211 HD
ENDBRANCH  27  31
ENDBRANCH  26  27
ENDBRANCH  25  26
BRANCH  25  33
HETATM   33  O2  UNL     1      76.833  84.327  48.931  1.00  0.00    -0.394 OA
ATOM     34  H2  UNL     1      77.180  84.814  48.195  1.00  0.00     0.210 HD
ENDBRANCH  25  33
ENDBRANCH   1  25
BRANCH  12  35
HETATM   35  C19 UNL     1      81.938  90.242  53.389  1.00  0.00     0.240 C 
HETATM   36  O4  UNL     1      81.556  91.265  53.863  1.00  0.00    -0.306 OA
ENDBRANCH  12  35
BRANCH  15  37
HETATM   37  O5  UNL     1      77.834  89.155  54.657  1.00  0.00    -0.396 OA
ATOM     38  H5  UNL     1      77.952  90.073  54.444  1.00  0.00     0.210 HD
ENDBRANCH  15  37
TORSDOF 10
ENDMDL
