MODEL 1
REMARK VINA RESULT: -8.295748156      0.000      0.000
REMARK  7 active torsions:
REMARK  status: ('A' for Active; 'I' for Inactive)
REMARK    1  A    between atoms: C2_2  and  C3_3 
REMARK    2  A    between atoms: C4_6  and  N2_7 
REMARK    3  A    between atoms: C5_12  and  N4_13 
REMARK    4  A    between atoms: N4_13  and  C6_15 
REMARK    5  A    between atoms: C6_15  and  C7_16 
REMARK    6  A    between atoms: C7_16  and  C8_17 
REMARK    7  A    between atoms: C8_17  and  N5_18 
ROOT
HETATM    1  C3  UNL     1       8.973  -8.336  10.039  1.00  0.00     0.135 A 
HETATM    2  N1  UNL     1       9.661  -8.408   8.863  1.00  0.00    -0.176 N 
ATOM      3  H1  UNL     1      10.584  -8.843   8.864  1.00  0.00     0.186 HD
HETATM    4  C4  UNL     1       9.180  -7.932   7.711  1.00  0.00     0.692 A 
HETATM    5  N3  UNL     1       7.969  -7.366   7.731  1.00  0.00    -0.023 N 
ATOM      6  H3  UNL     1       7.581  -6.996   6.864  1.00  0.00     0.203 HD
HETATM    7  C5  UNL     1       7.237  -7.268   8.875  1.00  0.00     0.694 A 
HETATM    8  N6  UNL     1       7.748  -7.753  10.014  1.00  0.00    -0.176 N 
ATOM      9  H6  UNL     1       7.207  -7.684  10.875  1.00  0.00     0.186 HD
ENDROOT
BRANCH   7  10
HETATM   10  N4  UNL     1       6.102  -6.719   8.791  1.00  0.00    -0.225 N 
ATOM     11  H4  UNL     1       5.998  -5.966   8.112  1.00  0.00     0.177 HD
BRANCH  10  12
HETATM   12  C6  UNL     1       4.966  -7.059   9.559  1.00  0.00     0.140 C 
BRANCH  12  13
HETATM   13  C7  UNL     1       3.728  -6.930   8.664  1.00  0.00     0.050 C 
BRANCH  13  14
HETATM   14  C8  UNL     1       3.765  -5.613   7.972  1.00  0.00     0.274 C 
BRANCH  14  15
HETATM   15  N5  UNL     1       3.460  -5.773   6.573  1.00  0.00     0.092 N 
HETATM   16  C9  UNL     1       2.391  -4.872   6.196  1.00  0.00     0.298 C 
HETATM   17  C10 UNL     1       1.060  -5.530   6.416  1.00  0.00     0.198 C 
HETATM   18  O1  UNL     1       0.957  -6.526   5.470  1.00  0.00    -0.388 OA
HETATM   19  C11 UNL     1       1.975  -7.427   5.441  1.00  0.00     0.198 C 
HETATM   20  C12 UNL     1       3.200  -7.134   6.219  1.00  0.00     0.298 C 
ENDBRANCH  14  15
ENDBRANCH  13  14
ENDBRANCH  12  13
ENDBRANCH  10  12
ENDBRANCH   7  10
BRANCH   4  21
HETATM   21  N2  UNL     1       9.862  -8.015   6.597  1.00  0.00    -0.234 N 
ATOM     22  H22 UNL     1       9.983  -8.911   6.126  1.00  0.00     0.174 HD
ATOM     23  H21 UNL     1      10.290  -7.193   6.170  1.00  0.00     0.174 HD
ENDBRANCH   4  21
BRANCH   1  24
HETATM   24  C2  UNL     1       9.582  -8.878  11.226  1.00  0.00     0.039 C 
HETATM   25  C1  UNL     1      10.866  -8.848  11.428  1.00  0.00     0.015 C 
ENDBRANCH   1  24
TORSDOF 7
ENDMDL
MODEL 2
REMARK VINA RESULT: -8.076117188      0.876      1.103
REMARK  7 active torsions:
REMARK  status: ('A' for Active; 'I' for Inactive)
REMARK    1  A    between atoms: C2_2  and  C3_3 
REMARK    2  A    between atoms: C4_6  and  N2_7 
REMARK    3  A    between atoms: C5_12  and  N4_13 
REMARK    4  A    between atoms: N4_13  and  C6_15 
REMARK    5  A    between atoms: C6_15  and  C7_16 
REMARK    6  A    between atoms: C7_16  and  C8_17 
REMARK    7  A    between atoms: C8_17  and  N5_18 
ROOT
HETATM    1  C3  UNL     1       8.660  -8.166  10.018  1.00  0.00     0.135 A 
HETATM    2  N1  UNL     1       9.470  -8.243   8.923  1.00  0.00    -0.176 N 
ATOM      3  H1  UNL     1      10.423  -8.587   9.045  1.00  0.00     0.186 HD
HETATM    4  C4  UNL     1       9.071  -7.887   7.699  1.00  0.00     0.692 A 
HETATM    5  N3  UNL     1       7.818  -7.439   7.560  1.00  0.00    -0.023 N 
ATOM      6  H3  UNL     1       7.492  -7.161   6.635  1.00  0.00     0.203 HD
HETATM    7  C5  UNL     1       6.966  -7.341   8.617  1.00  0.00     0.694 A 
HETATM    8  N6  UNL     1       7.397  -7.706   9.832  1.00  0.00    -0.176 N 
ATOM      9  H6  UNL     1       6.765  -7.636  10.630  1.00  0.00     0.186 HD
ENDROOT
BRANCH   7  10
HETATM   10  N4  UNL     1       5.802  -6.910   8.385  1.00  0.00    -0.225 N 
ATOM     11  H4  UNL     1       5.545  -6.763   7.409  1.00  0.00     0.177 HD
BRANCH  10  12
HETATM   12  C6  UNL     1       4.825  -6.613   9.361  1.00  0.00     0.140 C 
BRANCH  12  13
HETATM   13  C7  UNL     1       3.450  -6.973   8.787  1.00  0.00     0.050 C 
BRANCH  13  14
HETATM   14  C8  UNL     1       3.484  -6.810   7.309  1.00  0.00     0.274 C 
BRANCH  14  15
HETATM   15  N5  UNL     1       3.049  -5.487   6.940  1.00  0.00     0.092 N 
HETATM   16  C9  UNL     1       1.612  -5.382   7.089  1.00  0.00     0.298 C 
HETATM   17  C10 UNL     1       0.930  -5.805   5.821  1.00  0.00     0.198 C 
HETATM   18  O1  UNL     1       1.204  -4.830   4.887  1.00  0.00    -0.388 OA
HETATM   19  C11 UNL     1       2.520  -4.547   4.691  1.00  0.00     0.198 C 
HETATM   20  C12 UNL     1       3.511  -5.097   5.644  1.00  0.00     0.298 C 
ENDBRANCH  14  15
ENDBRANCH  13  14
ENDBRANCH  12  13
ENDBRANCH  10  12
ENDBRANCH   7  10
BRANCH   4  21
HETATM   21  N2  UNL     1       9.869  -7.972   6.665  1.00  0.00    -0.234 N 
ATOM     22  H22 UNL     1      10.347  -8.846   6.446  1.00  0.00     0.174 HD
ATOM     23  H21 UNL     1      10.038  -7.173   6.053  1.00  0.00     0.174 HD
ENDBRANCH   4  21
BRANCH   1  24
HETATM   24  C2  UNL     1       9.188  -8.574  11.294  1.00  0.00     0.039 C 
HETATM   25  C1  UNL     1      10.430  -8.923  11.456  1.00  0.00     0.015 C 
ENDBRANCH   1  24
TORSDOF 7
ENDMDL
MODEL 3
REMARK VINA RESULT: -8.026399547      0.872      1.066
REMARK  7 active torsions:
REMARK  status: ('A' for Active; 'I' for Inactive)
REMARK    1  A    between atoms: C2_2  and  C3_3 
REMARK    2  A    between atoms: C4_6  and  N2_7 
REMARK    3  A    between atoms: C5_12  and  N4_13 
REMARK    4  A    between atoms: N4_13  and  C6_15 
REMARK    5  A    between atoms: C6_15  and  C7_16 
REMARK    6  A    between atoms: C7_16  and  C8_17 
REMARK    7  A    between atoms: C8_17  and  N5_18 
ROOT
HETATM    1  C3  UNL     1       8.762  -8.180  10.014  1.00  0.00     0.135 A 
HETATM    2  N1  UNL     1       9.532  -8.293   8.894  1.00  0.00    -0.176 N 
ATOM      3  H1  UNL     1      10.469  -8.688   8.984  1.00  0.00     0.186 HD
HETATM    4  C4  UNL     1       9.114  -7.909   7.684  1.00  0.00     0.692 A 
HETATM    5  N3  UNL     1       7.884  -7.395   7.587  1.00  0.00    -0.023 N 
ATOM      6  H3  UNL     1       7.544  -7.095   6.674  1.00  0.00     0.203 HD
HETATM    7  C5  UNL     1       7.071  -7.260   8.671  1.00  0.00     0.694 A 
HETATM    8  N6  UNL     1       7.519  -7.653   9.869  1.00  0.00    -0.176 N 
ATOM      9  H6  UNL     1       6.917  -7.555  10.687  1.00  0.00     0.186 HD
ENDROOT
BRANCH   7  10
HETATM   10  N4  UNL     1       5.924  -6.766   8.476  1.00  0.00    -0.225 N 
ATOM     11  H4  UNL     1       5.757  -6.316   7.577  1.00  0.00     0.177 HD
BRANCH  10  12
HETATM   12  C6  UNL     1       4.854  -6.783   9.399  1.00  0.00     0.140 C 
BRANCH  12  13
HETATM   13  C7  UNL     1       3.543  -6.879   8.610  1.00  0.00     0.050 C 
BRANCH  13  14
HETATM   14  C8  UNL     1       3.396  -5.663   7.765  1.00  0.00     0.274 C 
BRANCH  14  15
HETATM   15  N5  UNL     1       2.965  -6.025   6.438  1.00  0.00     0.092 N 
HETATM   16  C9  UNL     1       3.427  -5.038   5.485  1.00  0.00     0.298 C 
HETATM   17  C10 UNL     1       2.418  -3.934   5.357  1.00  0.00     0.198 C 
HETATM   18  O1  UNL     1       1.325  -4.476   4.719  1.00  0.00    -0.388 OA
HETATM   19  C11 UNL     1       0.794  -5.590   5.289  1.00  0.00     0.198 C 
HETATM   20  C12 UNL     1       1.557  -6.266   6.364  1.00  0.00     0.298 C 
ENDBRANCH  14  15
ENDBRANCH  13  14
ENDBRANCH  12  13
ENDBRANCH  10  12
ENDBRANCH   7  10
BRANCH   4  21
HETATM   21  N2  UNL     1       9.875  -8.030   6.626  1.00  0.00    -0.234 N 
ATOM     22  H22 UNL     1       9.467  -8.059   5.692  1.00  0.00     0.174 HD
ATOM     23  H21 UNL     1      10.890  -8.100   6.703  1.00  0.00     0.174 HD
ENDBRANCH   4  21
BRANCH   1  24
HETATM   24  C2  UNL     1       9.306  -8.622  11.271  1.00  0.00     0.039 C 
HETATM   25  C1  UNL     1      10.567  -8.898  11.427  1.00  0.00     0.015 C 
ENDBRANCH   1  24
TORSDOF 7
ENDMDL
MODEL 4
REMARK VINA RESULT: -7.920716117      1.041      1.454
REMARK  7 active torsions:
REMARK  status: ('A' for Active; 'I' for Inactive)
REMARK    1  A    between atoms: C2_2  and  C3_3 
REMARK    2  A    between atoms: C4_6  and  N2_7 
REMARK    3  A    between atoms: C5_12  and  N4_13 
REMARK    4  A    between atoms: N4_13  and  C6_15 
REMARK    5  A    between atoms: C6_15  and  C7_16 
REMARK    6  A    between atoms: C7_16  and  C8_17 
REMARK    7  A    between atoms: C8_17  and  N5_18 
ROOT
HETATM    1  C3  UNL     1       9.752  -8.521  10.372  1.00  0.00     0.135 A 
HETATM    2  N1  UNL     1      10.049  -8.431   9.043  1.00  0.00    -0.176 N 
ATOM      3  H1  UNL     1      10.926  -8.834   8.711  1.00  0.00     0.186 HD
HETATM    4  C4  UNL     1       9.242  -7.839   8.157  1.00  0.00     0.692 A 
HETATM    5  N3  UNL     1       8.098  -7.318   8.612  1.00  0.00    -0.023 N 
ATOM      6  H3  UNL     1       7.467  -6.861   7.955  1.00  0.00     0.203 HD
HETATM    7  C5  UNL     1       7.750  -7.378   9.927  1.00  0.00     0.694 A 
HETATM    8  N6  UNL     1       8.580  -7.978  10.789  1.00  0.00    -0.176 N 
ATOM      9  H6  UNL     1       8.328  -8.028  11.776  1.00  0.00     0.186 HD
ENDROOT
BRANCH   7  10
HETATM   10  N4  UNL     1       6.647  -6.860  10.259  1.00  0.00    -0.225 N 
ATOM     11  H4  UNL     1       6.681  -5.999  10.803  1.00  0.00     0.177 HD
BRANCH  10  12
HETATM   12  C6  UNL     1       5.369  -7.371   9.939  1.00  0.00     0.140 C 
BRANCH  12  13
HETATM   13  C7  UNL     1       4.627  -6.319   9.106  1.00  0.00     0.050 C 
BRANCH  13  14
HETATM   14  C8  UNL     1       4.557  -6.781   7.693  1.00  0.00     0.274 C 
BRANCH  14  15
HETATM   15  N5  UNL     1       3.185  -6.974   7.297  1.00  0.00     0.092 N 
HETATM   16  C9  UNL     1       3.068  -6.865   5.858  1.00  0.00     0.298 C 
HETATM   17  C10 UNL     1       2.831  -5.436   5.466  1.00  0.00     0.198 C 
HETATM   18  O1  UNL     1       1.561  -5.120   5.892  1.00  0.00    -0.388 OA
HETATM   19  C11 UNL     1       1.303  -5.339   7.209  1.00  0.00     0.198 C 
HETATM   20  C12 UNL     1       2.283  -6.116   8.002  1.00  0.00     0.298 C 
ENDBRANCH  14  15
ENDBRANCH  13  14
ENDBRANCH  12  13
ENDBRANCH  10  12
ENDBRANCH   7  10
BRANCH   4  21
HETATM   21  N2  UNL     1       9.552  -7.768   6.888  1.00  0.00    -0.234 N 
ATOM     22  H22 UNL     1       8.996  -7.204   6.246  1.00  0.00     0.174 HD
ATOM     23  H21 UNL     1      10.352  -8.273   6.504  1.00  0.00     0.174 HD
ENDBRANCH   4  21
BRANCH   1  24
HETATM   24  C2  UNL     1      10.690  -9.179  11.243  1.00  0.00     0.039 C 
HETATM   25  C1  UNL     1      11.971  -9.178  11.018  1.00  0.00     0.015 C 
ENDBRANCH   1  24
TORSDOF 7
ENDMDL
MODEL 5
REMARK VINA RESULT: -7.505698834      1.518      2.450
REMARK  7 active torsions:
REMARK  status: ('A' for Active; 'I' for Inactive)
REMARK    1  A    between atoms: C2_2  and  C3_3 
REMARK    2  A    between atoms: C4_6  and  N2_7 
REMARK    3  A    between atoms: C5_12  and  N4_13 
REMARK    4  A    between atoms: N4_13  and  C6_15 
REMARK    5  A    between atoms: C6_15  and  C7_16 
REMARK    6  A    between atoms: C7_16  and  C8_17 
REMARK    7  A    between atoms: C8_17  and  N5_18 
ROOT
HETATM    1  C3  UNL     1       8.890  -8.238   8.038  1.00  0.00     0.135 A 
HETATM    2  N1  UNL     1       8.778  -9.014   9.154  1.00  0.00    -0.176 N 
ATOM      3  H1  UNL     1       9.557  -9.624   9.404  1.00  0.00     0.186 HD
HETATM    4  C4  UNL     1       7.693  -9.010   9.935  1.00  0.00     0.692 A 
HETATM    5  N3  UNL     1       6.683  -8.204   9.590  1.00  0.00    -0.023 N 
ATOM      6  H3  UNL     1       5.845  -8.185  10.171  1.00  0.00     0.203 HD
HETATM    7  C5  UNL     1       6.740  -7.407   8.488  1.00  0.00     0.694 A 
HETATM    8  N6  UNL     1       7.841  -7.434   7.726  1.00  0.00    -0.176 N 
ATOM      9  H6  UNL     1       7.892  -6.842   6.898  1.00  0.00     0.186 HD
ENDROOT
BRANCH   7  10
HETATM   10  N4  UNL     1       5.737  -6.678   8.248  1.00  0.00    -0.225 N 
ATOM     11  H4  UNL     1       5.687  -6.242   7.328  1.00  0.00     0.177 HD
BRANCH  10  12
HETATM   12  C6  UNL     1       4.678  -6.416   9.145  1.00  0.00     0.140 C 
BRANCH  12  13
HETATM   13  C7  UNL     1       3.393  -7.011   8.557  1.00  0.00     0.050 C 
BRANCH  13  14
HETATM   14  C8  UNL     1       3.388  -6.795   7.085  1.00  0.00     0.274 C 
BRANCH  14  15
HETATM   15  N5  UNL     1       2.948  -5.457   6.777  1.00  0.00     0.092 N 
HETATM   16  C9  UNL     1       1.511  -5.365   6.926  1.00  0.00     0.298 C 
HETATM   17  C10 UNL     1       0.835  -5.731   5.637  1.00  0.00     0.198 C 
HETATM   18  O1  UNL     1       1.107  -4.714   4.751  1.00  0.00    -0.388 OA
HETATM   19  C11 UNL     1       2.422  -4.416   4.572  1.00  0.00     0.198 C 
HETATM   20  C12 UNL     1       3.413  -5.005   5.502  1.00  0.00     0.298 C 
ENDBRANCH  14  15
ENDBRANCH  13  14
ENDBRANCH  12  13
ENDBRANCH  10  12
ENDBRANCH   7  10
BRANCH   4  21
HETATM   21  N2  UNL     1       7.613  -9.764  11.001  1.00  0.00    -0.234 N 
ATOM     22  H22 UNL     1       6.708  -9.993  11.412  1.00  0.00     0.174 HD
ATOM     23  H21 UNL     1       8.447 -10.143  11.451  1.00  0.00     0.174 HD
ENDBRANCH   4  21
BRANCH   1  24
HETATM   24  C2  UNL     1      10.101  -8.316   7.264  1.00  0.00     0.039 C 
HETATM   25  C1  UNL     1      10.691  -9.445   7.003  1.00  0.00     0.015 C 
ENDBRANCH   1  24
TORSDOF 7
ENDMDL
