MODEL 1
REMARK VINA RESULT: -7.456341977      0.000      0.000
REMARK  8 active torsions:
REMARK  status: ('A' for Active; 'I' for Inactive)
REMARK    1  A    between atoms: S1_2  and  C2_4 
REMARK    2  A    between atoms: C2_4  and  C3_5 
REMARK    3  A    between atoms: C4_6  and  C5_7 
REMARK    4  A    between atoms: C5_7  and  C6_8 
REMARK    5  A    between atoms: C7_10  and  O3_11 
REMARK    6  A    between atoms: C8_13  and  C9_14 
REMARK    7  A    between atoms: C9_14  and  O4_15 
REMARK    8  A    between atoms: C10_17  and  O5_18 
ROOT
HETATM    1  C6  UNL     1       3.340  -5.523   7.078  1.00  0.00     0.157 C 
HETATM    2  O2  UNL     1       3.927  -5.747   5.834  1.00  0.00    -0.353 OA
HETATM    3  C7  UNL     1       3.238  -5.019   4.903  1.00  0.00     0.266 C 
HETATM    4  C8  UNL     1       1.955  -4.547   5.502  1.00  0.00     0.095 C 
HETATM    5  C10 UNL     1       1.871  -5.447   6.740  1.00  0.00     0.158 C 
ENDROOT
BRANCH   1   6
HETATM    6  C5  UNL     1       3.638  -6.732   7.932  1.00  0.00     0.061 C 
BRANCH   6   7
HETATM    7  C4  UNL     1       4.500  -6.440   9.078  1.00  0.00    -0.027 C 
HETATM    8  C3  UNL     1       5.740  -6.737   9.291  1.00  0.00    -0.018 C 
BRANCH   8   9
HETATM    9  C2  UNL     1       6.599  -7.478   8.371  1.00  0.00     0.135 C 
BRANCH   9  10
HETATM   10  S1  UNL     1       8.172  -7.900   9.111  1.00  0.00     0.014 S 
HETATM   11  C1  UNL     1       7.871  -8.031  10.874  1.00  0.00     0.127 C 
HETATM   12  O1  UNL     1       8.539  -9.464   8.559  1.00  0.00    -0.258 OA
ENDBRANCH   9  10
ENDBRANCH   8   9
ENDBRANCH   6   7
ENDBRANCH   1   6
BRANCH   5  13
HETATM   13  O5  UNL     1       1.118  -4.847   7.726  1.00  0.00    -0.392 OA
ATOM     14  H5  UNL     1       0.221  -4.682   7.463  1.00  0.00     0.210 HD
ENDBRANCH   5  13
BRANCH   3  15
HETATM   15  O3  UNL     1       4.065  -3.955   4.502  1.00  0.00    -0.371 OA
ATOM     16  H3  UNL     1       4.299  -4.103   3.594  1.00  0.00     0.212 HD
ENDBRANCH   3  15
BRANCH   4  17
HETATM   17  C9  UNL     1       0.762  -4.757   4.608  1.00  0.00     0.176 C 
BRANCH  17  18
HETATM   18  O4  UNL     1      -0.359  -5.158   5.288  1.00  0.00    -0.400 OA
ATOM     19  H4  UNL     1      -0.942  -5.697   4.765  1.00  0.00     0.209 HD
ENDBRANCH  17  18
ENDBRANCH   4  17
TORSDOF 8
ENDMDL
MODEL 2
REMARK VINA RESULT: -7.314943640      2.559      6.968
REMARK  8 active torsions:
REMARK  status: ('A' for Active; 'I' for Inactive)
REMARK    1  A    between atoms: S1_2  and  C2_4 
REMARK    2  A    between atoms: C2_4  and  C3_5 
REMARK    3  A    between atoms: C4_6  and  C5_7 
REMARK    4  A    between atoms: C5_7  and  C6_8 
REMARK    5  A    between atoms: C7_10  and  O3_11 
REMARK    6  A    between atoms: C8_13  and  C9_14 
REMARK    7  A    between atoms: C9_14  and  O4_15 
REMARK    8  A    between atoms: C10_17  and  O5_18 
ROOT
HETATM    1  C6  UNL     1       6.388  -7.241   9.607  1.00  0.00     0.157 C 
HETATM    2  O2  UNL     1       6.779  -8.275  10.455  1.00  0.00    -0.353 OA
HETATM    3  C7  UNL     1       8.121  -8.480  10.286  1.00  0.00     0.266 C 
HETATM    4  C8  UNL     1       8.572  -7.771   9.053  1.00  0.00     0.095 C 
HETATM    5  C10 UNL     1       7.225  -7.493   8.376  1.00  0.00     0.158 C 
ENDROOT
BRANCH   1   6
HETATM    6  C5  UNL     1       4.921  -7.439   9.314  1.00  0.00     0.061 C 
BRANCH   6   7
HETATM    7  C4  UNL     1       4.189  -6.185   9.123  1.00  0.00    -0.027 C 
HETATM    8  C3  UNL     1       3.794  -5.602   8.039  1.00  0.00    -0.018 C 
BRANCH   8   9
HETATM    9  C2  UNL     1       4.008  -6.107   6.685  1.00  0.00     0.135 C 
BRANCH   9  10
HETATM   10  S1  UNL     1       2.798  -5.471   5.531  1.00  0.00     0.014 S 
HETATM   11  C1  UNL     1       1.221  -5.537   6.382  1.00  0.00     0.127 C 
HETATM   12  O1  UNL     1       3.174  -3.827   5.325  1.00  0.00    -0.258 OA
ENDBRANCH   9  10
ENDBRANCH   8   9
ENDBRANCH   6   7
ENDBRANCH   1   6
BRANCH   5  13
HETATM   13  O5  UNL     1       7.316  -6.395   7.549  1.00  0.00    -0.392 OA
ATOM     14  H5  UNL     1       8.084  -6.411   6.989  1.00  0.00     0.210 HD
ENDBRANCH   5  13
BRANCH   3  15
HETATM   15  O3  UNL     1       8.768  -8.009  11.442  1.00  0.00    -0.371 OA
ATOM     16  H3  UNL     1       9.094  -7.137  11.250  1.00  0.00     0.212 HD
ENDBRANCH   3  15
BRANCH   4  17
HETATM   17  C9  UNL     1       9.451  -8.613   8.166  1.00  0.00     0.176 C 
BRANCH  17  18
HETATM   18  O4  UNL     1       9.750  -8.008   6.972  1.00  0.00    -0.400 OA
ATOM     19  H4  UNL     1       8.982  -7.691   6.511  1.00  0.00     0.209 HD
ENDBRANCH  17  18
ENDBRANCH   4  17
TORSDOF 8
ENDMDL
MODEL 3
REMARK VINA RESULT: -7.253387242      2.539      7.353
REMARK  8 active torsions:
REMARK  status: ('A' for Active; 'I' for Inactive)
REMARK    1  A    between atoms: S1_2  and  C2_4 
REMARK    2  A    between atoms: C2_4  and  C3_5 
REMARK    3  A    between atoms: C4_6  and  C5_7 
REMARK    4  A    between atoms: C5_7  and  C6_8 
REMARK    5  A    between atoms: C7_10  and  O3_11 
REMARK    6  A    between atoms: C8_13  and  C9_14 
REMARK    7  A    between atoms: C9_14  and  O4_15 
REMARK    8  A    between atoms: C10_17  and  O5_18 
ROOT
HETATM    1  C6  UNL     1       6.992  -7.079   8.863  1.00  0.00     0.157 C 
HETATM    2  O2  UNL     1       6.701  -7.777  10.034  1.00  0.00    -0.353 OA
HETATM    3  C7  UNL     1       7.860  -8.342  10.491  1.00  0.00     0.266 C 
HETATM    4  C8  UNL     1       8.892  -8.279   9.416  1.00  0.00     0.095 C 
HETATM    5  C10 UNL     1       8.015  -7.967   8.198  1.00  0.00     0.158 C 
ENDROOT
BRANCH   1   6
HETATM    6  C5  UNL     1       5.719  -7.019   8.055  1.00  0.00     0.061 C 
BRANCH   6   7
HETATM    7  C4  UNL     1       4.514  -6.874   8.874  1.00  0.00    -0.027 C 
HETATM    8  C3  UNL     1       3.273  -6.776   8.527  1.00  0.00    -0.018 C 
BRANCH   8   9
HETATM    9  C2  UNL     1       2.778  -6.790   7.152  1.00  0.00     0.135 C 
BRANCH   9  10
HETATM   10  S1  UNL     1       1.988  -5.248   6.705  1.00  0.00     0.014 S 
HETATM   11  C1  UNL     1       2.898  -4.616   5.295  1.00  0.00     0.127 C 
HETATM   12  O1  UNL     1       0.441  -5.667   6.141  1.00  0.00    -0.258 OA
ENDBRANCH   9  10
ENDBRANCH   8   9
ENDBRANCH   6   7
ENDBRANCH   1   6
BRANCH   5  13
HETATM   13  O5  UNL     1       8.747  -7.317   7.227  1.00  0.00    -0.392 OA
ATOM     14  H5  UNL     1       9.682  -7.322   7.397  1.00  0.00     0.210 HD
ENDBRANCH   5  13
BRANCH   3  15
HETATM   15  O3  UNL     1       8.246  -7.637  11.645  1.00  0.00    -0.371 OA
ATOM     16  H3  UNL     1       9.147  -7.870  11.832  1.00  0.00     0.212 HD
ENDBRANCH   3  15
BRANCH   4  17
HETATM   17  C9  UNL     1       9.634  -9.576   9.220  1.00  0.00     0.176 C 
BRANCH  17  18
HETATM   18  O4  UNL     1       9.379 -10.167   8.009  1.00  0.00    -0.400 OA
ATOM     19  H4  UNL     1      10.161 -10.300   7.486  1.00  0.00     0.209 HD
ENDBRANCH  17  18
ENDBRANCH   4  17
TORSDOF 8
ENDMDL
MODEL 4
REMARK VINA RESULT: -7.164469927      2.711      7.756
REMARK  8 active torsions:
REMARK  status: ('A' for Active; 'I' for Inactive)
REMARK    1  A    between atoms: S1_2  and  C2_4 
REMARK    2  A    between atoms: C2_4  and  C3_5 
REMARK    3  A    between atoms: C4_6  and  C5_7 
REMARK    4  A    between atoms: C5_7  and  C6_8 
REMARK    5  A    between atoms: C7_10  and  O3_11 
REMARK    6  A    between atoms: C8_13  and  C9_14 
REMARK    7  A    between atoms: C9_14  and  O4_15 
REMARK    8  A    between atoms: C10_17  and  O5_18 
ROOT
HETATM    1  C6  UNL     1       8.359  -8.053   9.713  1.00  0.00     0.157 C 
HETATM    2  O2  UNL     1       8.979  -8.903  10.627  1.00  0.00    -0.353 OA
HETATM    3  C7  UNL     1      10.281  -9.064  10.242  1.00  0.00     0.266 C 
HETATM    4  C8  UNL     1      10.446  -8.555   8.849  1.00  0.00     0.095 C 
HETATM    5  C10 UNL     1       8.982  -8.469   8.403  1.00  0.00     0.158 C 
ENDROOT
BRANCH   1   6
HETATM    6  C5  UNL     1       6.884  -8.374   9.738  1.00  0.00     0.061 C 
BRANCH   6   7
HETATM    7  C4  UNL     1       6.030  -7.188   9.814  1.00  0.00    -0.027 C 
HETATM    8  C3  UNL     1       5.403  -6.546   8.884  1.00  0.00    -0.018 C 
BRANCH   8   9
HETATM    9  C2  UNL     1       5.416  -6.894   7.465  1.00  0.00     0.135 C 
BRANCH   9  10
HETATM   10  S1  UNL     1       3.813  -6.670   6.702  1.00  0.00     0.014 S 
HETATM   11  C1  UNL     1       2.663  -6.374   8.046  1.00  0.00     0.127 C 
HETATM   12  O1  UNL     1       3.918  -5.221   5.821  1.00  0.00    -0.258 OA
ENDBRANCH   9  10
ENDBRANCH   8   9
ENDBRANCH   6   7
ENDBRANCH   1   6
BRANCH   5  13
HETATM   13  O5  UNL     1       8.833  -7.526   7.409  1.00  0.00    -0.392 OA
ATOM     14  H5  UNL     1       7.970  -7.127   7.398  1.00  0.00     0.210 HD
ENDBRANCH   5  13
BRANCH   3  15
HETATM   15  O3  UNL     1      11.082  -8.367  11.164  1.00  0.00    -0.371 OA
ATOM     16  H3  UNL     1      11.541  -9.013  11.689  1.00  0.00     0.212 HD
ENDBRANCH   3  15
BRANCH   4  17
HETATM   17  C9  UNL     1      11.221  -9.490   7.957  1.00  0.00     0.176 C 
BRANCH  17  18
HETATM   18  O4  UNL     1      11.270  -9.074   6.652  1.00  0.00    -0.400 OA
ATOM     19  H4  UNL     1      10.757  -9.619   6.066  1.00  0.00     0.209 HD
ENDBRANCH  17  18
ENDBRANCH   4  17
TORSDOF 8
ENDMDL
MODEL 5
REMARK VINA RESULT: -7.070187588      1.302      1.673
REMARK  8 active torsions:
REMARK  status: ('A' for Active; 'I' for Inactive)
REMARK    1  A    between atoms: S1_2  and  C2_4 
REMARK    2  A    between atoms: C2_4  and  C3_5 
REMARK    3  A    between atoms: C4_6  and  C5_7 
REMARK    4  A    between atoms: C5_7  and  C6_8 
REMARK    5  A    between atoms: C7_10  and  O3_11 
REMARK    6  A    between atoms: C8_13  and  C9_14 
REMARK    7  A    between atoms: C9_14  and  O4_15 
REMARK    8  A    between atoms: C10_17  and  O5_18 
ROOT
HETATM    1  C6  UNL     1       3.707  -5.970   6.934  1.00  0.00     0.157 C 
HETATM    2  O2  UNL     1       3.180  -7.260   6.893  1.00  0.00    -0.353 OA
HETATM    3  C7  UNL     1       2.411  -7.369   5.767  1.00  0.00     0.266 C 
HETATM    4  C8  UNL     1       2.165  -6.007   5.209  1.00  0.00     0.095 C 
HETATM    5  C10 UNL     1       2.570  -5.133   6.402  1.00  0.00     0.158 C 
ENDROOT
BRANCH   1   6
HETATM    6  C5  UNL     1       3.983  -5.650   8.383  1.00  0.00     0.061 C 
BRANCH   6   7
HETATM    7  C4  UNL     1       4.388  -6.816   9.172  1.00  0.00    -0.027 C 
HETATM    8  C3  UNL     1       5.533  -7.407   9.265  1.00  0.00    -0.018 C 
BRANCH   8   9
HETATM    9  C2  UNL     1       6.747  -7.009   8.557  1.00  0.00     0.135 C 
BRANCH   9  10
HETATM   10  S1  UNL     1       8.211  -7.772   9.249  1.00  0.00     0.014 S 
HETATM   11  C1  UNL     1       7.839  -8.077  10.977  1.00  0.00     0.127 C 
HETATM   12  O1  UNL     1       8.338  -9.292   8.500  1.00  0.00    -0.258 OA
ENDBRANCH   9  10
ENDBRANCH   8   9
ENDBRANCH   6   7
ENDBRANCH   1   6
BRANCH   5  13
HETATM   13  O5  UNL     1       2.968  -3.885   5.975  1.00  0.00    -0.392 OA
ATOM     14  H5  UNL     1       2.249  -3.349   5.663  1.00  0.00     0.210 HD
ENDBRANCH   5  13
BRANCH   3  15
HETATM   15  O3  UNL     1       3.099  -8.200   4.866  1.00  0.00    -0.371 OA
ATOM     16  H3  UNL     1       3.835  -8.580   5.333  1.00  0.00     0.212 HD
ENDBRANCH   3  15
BRANCH   4  17
HETATM   17  C9  UNL     1       0.727  -5.764   4.832  1.00  0.00     0.176 C 
BRANCH  17  18
HETATM   18  O4  UNL     1       0.002  -5.165   5.830  1.00  0.00    -0.400 OA
ATOM     19  H4  UNL     1      -0.293  -4.290   5.605  1.00  0.00     0.209 HD
ENDBRANCH  17  18
ENDBRANCH   4  17
TORSDOF 8
ENDMDL
