MODEL 1
REMARK VINA RESULT: -6.818861525      0.000      0.000
REMARK  7 active torsions:
REMARK  status: ('A' for Active; 'I' for Inactive)
REMARK    1  A    between atoms: C2_2  and  C3_3 
REMARK    2  A    between atoms: C3_3  and  C4_4 
REMARK    3  A    between atoms: C4_4  and  C5_5 
REMARK    4  A    between atoms: C4_4  and  N1_7 
REMARK    5  A    between atoms: C8_9  and  O1_10 
REMARK    6  A    between atoms: C9_12  and  O2_13 
REMARK    7  A    between atoms: C11_16  and  O3_17 
ROOT
HETATM    1  N1  UNL     1       5.487  -6.647   8.072  1.00  0.00    -0.364 N 
HETATM    2  C7  UNL     1       4.387  -6.580   8.942  1.00  0.00     0.097 C 
HETATM    3  C8  UNL     1       3.061  -7.054   8.395  1.00  0.00     0.185 C 
HETATM    4  C9  UNL     1       2.304  -5.845   7.877  1.00  0.00     0.163 C 
HETATM    5  C10 UNL     1       3.263  -5.089   7.007  1.00  0.00     0.106 C 
HETATM    6  C11 UNL     1       2.795  -4.676   5.653  1.00  0.00     0.267 C 
HETATM    7  O4  UNL     1       4.014  -5.141   5.134  1.00  0.00    -0.350 OA
HETATM    8  C12 UNL     1       4.005  -6.094   6.183  1.00  0.00     0.174 C 
HETATM    9  C13 UNL     1       5.353  -6.458   6.711  1.00  0.00     0.096 C 
ENDROOT
BRANCH   1  10
HETATM   10  C4  UNL     1       6.570  -7.426   8.585  1.00  0.00     0.088 C 
BRANCH  10  11
HETATM   11  C3  UNL     1       6.417  -7.586  10.046  1.00  0.00     0.025 C 
BRANCH  11  12
HETATM   12  C2  UNL     1       7.611  -7.963  10.861  1.00  0.00    -0.002 C 
HETATM   13  C1  UNL     1       7.591  -9.520  10.945  1.00  0.00     0.005 C 
ENDBRANCH  11  12
ENDBRANCH  10  11
BRANCH  10  14
HETATM   14  C5  UNL     1       7.912  -7.105   8.110  1.00  0.00     0.021 C 
HETATM   15  C6  UNL     1       8.876  -8.156   7.756  1.00  0.00     0.007 C 
ENDBRANCH  10  14
ENDBRANCH   1  10
BRANCH   3  16
HETATM   16  O1  UNL     1       2.274  -7.578   9.436  1.00  0.00    -0.388 OA
ATOM     17  H1  UNL     1       1.374  -7.289   9.336  1.00  0.00     0.210 HD
ENDBRANCH   3  16
BRANCH   4  18
HETATM   18  O2  UNL     1       1.753  -5.089   8.883  1.00  0.00    -0.392 OA
ATOM     19  H2  UNL     1       2.386  -4.838   9.544  1.00  0.00     0.210 HD
ENDBRANCH   4  18
BRANCH   6  20
HETATM   20  O3  UNL     1       2.679  -3.270   5.587  1.00  0.00    -0.371 OA
ATOM     21  H3  UNL     1       2.459  -3.001   4.703  1.00  0.00     0.212 HD
ENDBRANCH   6  20
TORSDOF 7
ENDMDL
MODEL 2
REMARK VINA RESULT: -6.307626220      3.254      6.948
REMARK  7 active torsions:
REMARK  status: ('A' for Active; 'I' for Inactive)
REMARK    1  A    between atoms: C2_2  and  C3_3 
REMARK    2  A    between atoms: C3_3  and  C4_4 
REMARK    3  A    between atoms: C4_4  and  C5_5 
REMARK    4  A    between atoms: C4_4  and  N1_7 
REMARK    5  A    between atoms: C8_9  and  O1_10 
REMARK    6  A    between atoms: C9_12  and  O2_13 
REMARK    7  A    between atoms: C11_16  and  O3_17 
ROOT
HETATM    1  N1  UNL     1       2.071  -4.502   4.595  1.00  0.00    -0.364 N 
HETATM    2  C7  UNL     1       1.739  -5.797   4.163  1.00  0.00     0.097 C 
HETATM    3  C8  UNL     1       1.266  -6.762   5.224  1.00  0.00     0.185 C 
HETATM    4  C9  UNL     1       2.459  -7.579   5.686  1.00  0.00     0.163 C 
HETATM    5  C10 UNL     1       3.553  -6.596   5.981  1.00  0.00     0.106 C 
HETATM    6  C11 UNL     1       4.267  -6.722   7.284  1.00  0.00     0.267 C 
HETATM    7  O4  UNL     1       4.136  -5.333   7.443  1.00  0.00    -0.350 OA
HETATM    8  C12 UNL     1       2.932  -5.441   6.702  1.00  0.00     0.174 C 
HETATM    9  C13 UNL     1       2.619  -4.265   5.840  1.00  0.00     0.096 C 
ENDROOT
BRANCH   1  10
HETATM   10  C4  UNL     1       1.331  -3.475   3.929  1.00  0.00     0.088 C 
BRANCH  10  11
HETATM   11  C3  UNL     1       0.823  -3.987   2.640  1.00  0.00     0.025 C 
BRANCH  11  12
HETATM   12  C2  UNL     1       1.251  -3.315   1.375  1.00  0.00    -0.002 C 
HETATM   13  C1  UNL     1       2.431  -4.170   0.822  1.00  0.00     0.005 C 
ENDBRANCH  11  12
ENDBRANCH  10  11
BRANCH  10  14
HETATM   14  C5  UNL     1       1.912  -2.137   3.905  1.00  0.00     0.021 C 
HETATM   15  C6  UNL     1       1.173  -0.967   4.401  1.00  0.00     0.007 C 
ENDBRANCH  10  14
ENDBRANCH   1  10
BRANCH   3  16
HETATM   16  O1  UNL     1       0.368  -7.687   4.662  1.00  0.00    -0.388 OA
ATOM     17  H1  UNL     1      -0.155  -8.086   5.348  1.00  0.00     0.210 HD
ENDBRANCH   3  16
BRANCH   4  18
HETATM   18  O2  UNL     1       2.818  -8.555   4.789  1.00  0.00    -0.392 OA
ATOM     19  H2  UNL     1       3.758  -8.681   4.736  1.00  0.00     0.210 HD
ENDBRANCH   4  18
BRANCH   6  20
HETATM   20  O3  UNL     1       5.605  -7.119   7.069  1.00  0.00    -0.371 OA
ATOM     21  H3  UNL     1       5.755  -7.979   7.444  1.00  0.00     0.212 HD
ENDBRANCH   6  20
TORSDOF 7
ENDMDL
MODEL 3
REMARK VINA RESULT: -6.212717421      2.361      4.301
REMARK  7 active torsions:
REMARK  status: ('A' for Active; 'I' for Inactive)
REMARK    1  A    between atoms: C2_2  and  C3_3 
REMARK    2  A    between atoms: C3_3  and  C4_4 
REMARK    3  A    between atoms: C4_4  and  C5_5 
REMARK    4  A    between atoms: C4_4  and  N1_7 
REMARK    5  A    between atoms: C8_9  and  O1_10 
REMARK    6  A    between atoms: C9_12  and  O2_13 
REMARK    7  A    between atoms: C11_16  and  O3_17 
ROOT
HETATM    1  N1  UNL     1       3.437  -5.899   6.035  1.00  0.00    -0.364 N 
HETATM    2  C7  UNL     1       3.323  -4.620   5.468  1.00  0.00     0.097 C 
HETATM    3  C8  UNL     1       1.926  -4.057   5.345  1.00  0.00     0.185 C 
HETATM    4  C9  UNL     1       1.415  -4.362   3.949  1.00  0.00     0.163 C 
HETATM    5  C10 UNL     1       1.674  -5.820   3.714  1.00  0.00     0.106 C 
HETATM    6  C11 UNL     1       0.551  -6.649   3.191  1.00  0.00     0.267 C 
HETATM    7  O4  UNL     1       0.872  -7.618   4.156  1.00  0.00    -0.350 OA
HETATM    8  C12 UNL     1       1.312  -6.545   4.971  1.00  0.00     0.174 C 
HETATM    9  C13 UNL     1       2.467  -6.866   5.860  1.00  0.00     0.096 C 
ENDROOT
BRANCH   1  10
HETATM   10  C4  UNL     1       4.287  -5.936   7.185  1.00  0.00     0.088 C 
BRANCH  10  11
HETATM   11  C3  UNL     1       5.324  -6.972   7.001  1.00  0.00     0.025 C 
BRANCH  11  12
HETATM   12  C2  UNL     1       6.635  -6.815   7.701  1.00  0.00    -0.002 C 
HETATM   13  C1  UNL     1       6.678  -7.942   8.777  1.00  0.00     0.005 C 
ENDBRANCH  11  12
ENDBRANCH  10  11
BRANCH  10  14
HETATM   14  C5  UNL     1       3.646  -5.894   8.495  1.00  0.00     0.021 C 
HETATM   15  C6  UNL     1       3.178  -7.116   9.164  1.00  0.00     0.007 C 
ENDBRANCH  10  14
ENDBRANCH   1  10
BRANCH   3  16
HETATM   16  O1  UNL     1       1.966  -2.655   5.437  1.00  0.00    -0.388 OA
ATOM     17  H1  UNL     1       2.560  -2.305   4.783  1.00  0.00     0.210 HD
ENDBRANCH   3  16
BRANCH   4  18
HETATM   18  O2  UNL     1       1.958  -3.540   2.991  1.00  0.00    -0.392 OA
ATOM     19  H2  UNL     1       2.897  -3.652   2.898  1.00  0.00     0.210 HD
ENDBRANCH   4  18
BRANCH   6  20
HETATM   20  O3  UNL     1       0.835  -7.080   1.876  1.00  0.00    -0.371 OA
ATOM     21  H3  UNL     1       0.065  -6.986   1.328  1.00  0.00     0.212 HD
ENDBRANCH   6  20
TORSDOF 7
ENDMDL
MODEL 4
REMARK VINA RESULT: -6.171087300      2.534      3.595
REMARK  7 active torsions:
REMARK  status: ('A' for Active; 'I' for Inactive)
REMARK    1  A    between atoms: C2_2  and  C3_3 
REMARK    2  A    between atoms: C3_3  and  C4_4 
REMARK    3  A    between atoms: C4_4  and  C5_5 
REMARK    4  A    between atoms: C4_4  and  N1_7 
REMARK    5  A    between atoms: C8_9  and  O1_10 
REMARK    6  A    between atoms: C9_12  and  O2_13 
REMARK    7  A    between atoms: C11_16  and  O3_17 
ROOT
HETATM    1  N1  UNL     1       3.313  -5.985   6.173  1.00  0.00    -0.364 N 
HETATM    2  C7  UNL     1       1.970  -6.389   6.113  1.00  0.00     0.097 C 
HETATM    3  C8  UNL     1       1.340  -6.443   4.742  1.00  0.00     0.185 C 
HETATM    4  C9  UNL     1       0.613  -5.133   4.503  1.00  0.00     0.163 C 
HETATM    5  C10 UNL     1       1.582  -4.043   4.856  1.00  0.00     0.106 C 
HETATM    6  C11 UNL     1       1.764  -2.933   3.879  1.00  0.00     0.267 C 
HETATM    7  O4  UNL     1       3.152  -3.059   4.057  1.00  0.00    -0.350 OA
HETATM    8  C12 UNL     1       2.915  -4.435   4.301  1.00  0.00     0.174 C 
HETATM    9  C13 UNL     1       3.839  -5.065   5.289  1.00  0.00     0.096 C 
ENDROOT
BRANCH   1  10
HETATM   10  C4  UNL     1       4.167  -6.945   6.802  1.00  0.00     0.088 C 
BRANCH  10  11
HETATM   11  C3  UNL     1       3.635  -7.280   8.139  1.00  0.00     0.025 C 
BRANCH  11  12
HETATM   12  C2  UNL     1       4.090  -6.485   9.319  1.00  0.00    -0.002 C 
HETATM   13  C1  UNL     1       3.401  -5.093   9.182  1.00  0.00     0.005 C 
ENDBRANCH  11  12
ENDBRANCH  10  11
BRANCH  10  14
HETATM   14  C5  UNL     1       5.606  -6.718   6.721  1.00  0.00     0.021 C 
HETATM   15  C6  UNL     1       6.523  -7.210   7.759  1.00  0.00     0.007 C 
ENDBRANCH  10  14
ENDBRANCH   1  10
BRANCH   3  16
HETATM   16  O1  UNL     1       0.348  -7.439   4.710  1.00  0.00    -0.388 OA
ATOM     17  H1  UNL     1      -0.477  -7.063   4.428  1.00  0.00     0.210 HD
ENDBRANCH   3  16
BRANCH   4  18
HETATM   18  O2  UNL     1      -0.581  -5.054   5.177  1.00  0.00    -0.392 OA
ATOM     19  H2  UNL     1      -1.225  -4.521   4.726  1.00  0.00     0.210 HD
ENDBRANCH   4  18
BRANCH   6  20
HETATM   20  O3  UNL     1       1.257  -1.727   4.412  1.00  0.00    -0.371 OA
ATOM     21  H3  UNL     1       1.945  -1.255   4.865  1.00  0.00     0.212 HD
ENDBRANCH   6  20
TORSDOF 7
ENDMDL
MODEL 5
REMARK VINA RESULT: -6.123781857      3.856      6.534
REMARK  7 active torsions:
REMARK  status: ('A' for Active; 'I' for Inactive)
REMARK    1  A    between atoms: C2_2  and  C3_3 
REMARK    2  A    between atoms: C3_3  and  C4_4 
REMARK    3  A    between atoms: C4_4  and  C5_5 
REMARK    4  A    between atoms: C4_4  and  N1_7 
REMARK    5  A    between atoms: C8_9  and  O1_10 
REMARK    6  A    between atoms: C9_12  and  O2_13 
REMARK    7  A    between atoms: C11_16  and  O3_17 
ROOT
HETATM    1  N1  UNL     1       6.908  -8.005   8.554  1.00  0.00    -0.364 N 
HETATM    2  C7  UNL     1       7.215  -8.388   9.870  1.00  0.00     0.097 C 
HETATM    3  C8  UNL     1       8.483  -7.818  10.461  1.00  0.00     0.185 C 
HETATM    4  C9  UNL     1       9.596  -8.830  10.258  1.00  0.00     0.163 C 
HETATM    5  C10 UNL     1       9.540  -9.232   8.814  1.00  0.00     0.106 C 
HETATM    6  C11 UNL     1      10.813  -9.214   8.039  1.00  0.00     0.267 C 
HETATM    7  O4  UNL     1      10.126  -8.560   7.004  1.00  0.00    -0.350 OA
HETATM    8  C12 UNL     1       9.311  -7.989   8.014  1.00  0.00     0.174 C 
HETATM    9  C13 UNL     1       7.891  -7.758   7.617  1.00  0.00     0.096 C 
ENDROOT
BRANCH   1  10
HETATM   10  C4  UNL     1       5.625  -7.386   8.428  1.00  0.00     0.088 C 
BRANCH  10  11
HETATM   11  C3  UNL     1       5.503  -6.769   7.091  1.00  0.00     0.025 C 
BRANCH  11  12
HETATM   12  C2  UNL     1       4.243  -6.970   6.313  1.00  0.00    -0.002 C 
HETATM   13  C1  UNL     1       3.769  -5.543   5.900  1.00  0.00     0.005 C 
ENDBRANCH  11  12
ENDBRANCH  10  11
BRANCH  10  14
HETATM   14  C5  UNL     1       5.152  -6.585   9.551  1.00  0.00     0.021 C 
HETATM   15  C6  UNL     1       4.008  -5.672   9.420  1.00  0.00     0.007 C 
ENDBRANCH  10  14
ENDBRANCH   1  10
BRANCH   3  16
HETATM   16  O1  UNL     1       8.342  -7.683  11.854  1.00  0.00    -0.388 OA
ATOM     17  H1  UNL     1       9.128  -7.297  12.222  1.00  0.00     0.210 HD
ENDBRANCH   3  16
BRANCH   4  18
HETATM   18  O2  UNL     1       9.522  -9.887  11.132  1.00  0.00    -0.392 OA
ATOM     19  H2  UNL     1      10.284  -9.953  11.696  1.00  0.00     0.210 HD
ENDBRANCH   4  18
BRANCH   6  20
HETATM   20  O3  UNL     1      11.190 -10.530   7.693  1.00  0.00    -0.371 OA
ATOM     21  H3  UNL     1      11.933 -10.513   7.100  1.00  0.00     0.212 HD
ENDBRANCH   6  20
TORSDOF 7
ENDMDL
