MODEL 1
REMARK VINA RESULT: -6.130051113      0.000      0.000
REMARK  8 active torsions:
REMARK  status: ('A' for Active; 'I' for Inactive)
REMARK    1  A    between atoms: C2_2  and  N1_3 
REMARK    2  A    between atoms: N1_3  and  C3_4 
REMARK    3  A    between atoms: N1_3  and  C5_10 
REMARK    4  A    between atoms: C3_4  and  C4_5 
REMARK    5  A    between atoms: C4_5  and  N2_6 
REMARK    6  A    between atoms: C5_10  and  C6_11 
REMARK    7  A    between atoms: C9_14  and  O1_15 
REMARK    8  A    between atoms: C10_17  and  O2_18 
ROOT
HETATM    1  C6  UNL     1       3.381  -6.316   5.665  1.00  0.00     0.161 C 
HETATM    2  C7  UNL     1       2.079  -7.005   6.017  1.00  0.00     0.040 C 
HETATM    3  C8  UNL     1       1.489  -7.643   4.811  1.00  0.00     0.037 C 
HETATM    4  C9  UNL     1       1.117  -6.700   3.725  1.00  0.00     0.150 C 
HETATM    5  C10 UNL     1       0.900  -5.278   4.147  1.00  0.00     0.180 C 
HETATM    6  C11 UNL     1       2.176  -4.577   4.586  1.00  0.00     0.083 C 
HETATM    7  C12 UNL     1       2.530  -3.670   3.373  1.00  0.00     0.048 C 
HETATM    8  C13 UNL     1       1.876  -3.550   5.657  1.00  0.00     0.048 C 
HETATM    9  O3  UNL     1       3.264  -5.334   4.743  1.00  0.00    -0.368 OA
ENDROOT
BRANCH   1  10
HETATM   10  C5  UNL     1       4.060  -5.784   6.908  1.00  0.00     0.095 C 
BRANCH  10  11
HETATM   11  N1  UNL     1       4.930  -6.657   7.574  1.00  0.00    -0.370 N 
BRANCH  11  12
HETATM   12  C2  UNL     1       4.651  -6.763   8.977  1.00  0.00     0.122 C 
HETATM   13  C1  UNL     1       3.201  -7.148   9.234  1.00  0.00     0.027 C 
ENDBRANCH  11  12
BRANCH  11  14
HETATM   14  C3  UNL     1       6.241  -6.858   7.169  1.00  0.00     0.090 C 
BRANCH  14  15
HETATM   15  C4  UNL     1       7.198  -7.398   8.204  1.00  0.00     0.274 C 
BRANCH  15  16
HETATM   16  N2  UNL     1       8.512  -7.545   7.589  1.00  0.00    -0.075 N 
ATOM     17  H23 UNL     1       8.485  -7.433   6.575  1.00  0.00     0.274 HD
ATOM     18  H22 UNL     1       9.132  -6.764   7.800  1.00  0.00     0.274 HD
ATOM     19  H21 UNL     1       8.905  -8.443   7.872  1.00  0.00     0.274 HD
ENDBRANCH  15  16
ENDBRANCH  14  15
ENDBRANCH  11  14
ENDBRANCH  10  11
ENDBRANCH   1  10
BRANCH   4  20
HETATM   20  O1  UNL     1      -0.086  -7.156   3.170  1.00  0.00    -0.393 OA
ATOM     21  H1  UNL     1      -0.440  -7.812   3.759  1.00  0.00     0.210 HD
ENDBRANCH   4  20
BRANCH   5  22
HETATM   22  O2  UNL     1      -0.127  -5.144   5.102  1.00  0.00    -0.390 OA
ATOM     23  H2  UNL     1      -0.911  -4.746   4.743  1.00  0.00     0.210 HD
ENDBRANCH   5  22
TORSDOF 8
ENDMDL
MODEL 2
REMARK VINA RESULT: -5.797748942      3.059      5.016
REMARK  8 active torsions:
REMARK  status: ('A' for Active; 'I' for Inactive)
REMARK    1  A    between atoms: C2_2  and  N1_3 
REMARK    2  A    between atoms: N1_3  and  C3_4 
REMARK    3  A    between atoms: N1_3  and  C5_10 
REMARK    4  A    between atoms: C3_4  and  C4_5 
REMARK    5  A    between atoms: C4_5  and  N2_6 
REMARK    6  A    between atoms: C5_10  and  C6_11 
REMARK    7  A    between atoms: C9_14  and  O1_15 
REMARK    8  A    between atoms: C10_17  and  O2_18 
ROOT
HETATM    1  C6  UNL     1       1.499  -6.337   3.898  1.00  0.00     0.161 C 
HETATM    2  C7  UNL     1       0.431  -5.361   4.348  1.00  0.00     0.040 C 
HETATM    3  C8  UNL     1       0.914  -3.963   4.201  1.00  0.00     0.037 C 
HETATM    4  C9  UNL     1       2.093  -3.619   5.036  1.00  0.00     0.150 C 
HETATM    5  C10 UNL     1       2.317  -4.492   6.235  1.00  0.00     0.180 C 
HETATM    6  C11 UNL     1       2.736  -5.909   5.880  1.00  0.00     0.083 C 
HETATM    7  C12 UNL     1       4.263  -5.923   6.172  1.00  0.00     0.048 C 
HETATM    8  C13 UNL     1       2.220  -6.889   6.913  1.00  0.00     0.048 C 
HETATM    9  O3  UNL     1       2.655  -6.265   4.596  1.00  0.00    -0.368 OA
ENDROOT
BRANCH   1  10
HETATM   10  C5  UNL     1       0.971  -7.754   3.910  1.00  0.00     0.095 C 
BRANCH  10  11
HETATM   11  N1  UNL     1       1.569  -8.658   3.022  1.00  0.00    -0.370 N 
BRANCH  11  12
HETATM   12  C2  UNL     1       2.355  -9.658   3.687  1.00  0.00     0.122 C 
HETATM   13  C1  UNL     1       1.525 -10.451   4.688  1.00  0.00     0.027 C 
ENDBRANCH  11  12
BRANCH  11  14
HETATM   14  C3  UNL     1       1.948  -8.302   1.737  1.00  0.00     0.090 C 
BRANCH  14  15
HETATM   15  C4  UNL     1       2.698  -9.339   0.936  1.00  0.00     0.274 C 
BRANCH  15  16
HETATM   16  N2  UNL     1       4.023  -8.817   0.626  1.00  0.00    -0.075 N 
ATOM     17  H23 UNL     1       3.991  -8.027  -0.020  1.00  0.00     0.274 HD
ATOM     18  H22 UNL     1       4.448  -8.334   1.417  1.00  0.00     0.274 HD
ATOM     19  H21 UNL     1       4.601  -9.582   0.278  1.00  0.00     0.274 HD
ENDBRANCH  15  16
ENDBRANCH  14  15
ENDBRANCH  11  14
ENDBRANCH  10  11
ENDBRANCH   1  10
BRANCH   4  20
HETATM   20  O1  UNL     1       1.907  -2.311   5.504  1.00  0.00    -0.393 OA
ATOM     21  H1  UNL     1       2.713  -2.045   5.931  1.00  0.00     0.210 HD
ENDBRANCH   4  20
BRANCH   5  22
HETATM   22  O2  UNL     1       1.230  -4.473   7.131  1.00  0.00    -0.390 OA
ATOM     23  H2  UNL     1       1.108  -5.304   7.577  1.00  0.00     0.210 HD
ENDBRANCH   5  22
TORSDOF 8
ENDMDL
MODEL 3
REMARK VINA RESULT: -5.779128132      3.037      4.991
REMARK  8 active torsions:
REMARK  status: ('A' for Active; 'I' for Inactive)
REMARK    1  A    between atoms: C2_2  and  N1_3 
REMARK    2  A    between atoms: N1_3  and  C3_4 
REMARK    3  A    between atoms: N1_3  and  C5_10 
REMARK    4  A    between atoms: C3_4  and  C4_5 
REMARK    5  A    between atoms: C4_5  and  N2_6 
REMARK    6  A    between atoms: C5_10  and  C6_11 
REMARK    7  A    between atoms: C9_14  and  O1_15 
REMARK    8  A    between atoms: C10_17  and  O2_18 
ROOT
HETATM    1  C6  UNL     1       2.281  -7.362   4.891  1.00  0.00     0.161 C 
HETATM    2  C7  UNL     1       1.161  -6.365   5.103  1.00  0.00     0.040 C 
HETATM    3  C8  UNL     1       1.602  -5.001   4.710  1.00  0.00     0.037 C 
HETATM    4  C9  UNL     1       2.728  -4.454   5.509  1.00  0.00     0.150 C 
HETATM    5  C10 UNL     1       2.925  -5.073   6.861  1.00  0.00     0.180 C 
HETATM    6  C11 UNL     1       3.408  -6.513   6.802  1.00  0.00     0.083 C 
HETATM    7  C12 UNL     1       4.919  -6.406   7.150  1.00  0.00     0.048 C 
HETATM    8  C13 UNL     1       2.879  -7.299   7.982  1.00  0.00     0.048 C 
HETATM    9  O3  UNL     1       3.400  -7.110   5.607  1.00  0.00    -0.368 OA
ENDROOT
BRANCH   1  10
HETATM   10  C5  UNL     1       1.801  -8.773   5.154  1.00  0.00     0.095 C 
BRANCH  10  11
HETATM   11  N1  UNL     1       1.739  -9.634   4.051  1.00  0.00    -0.370 N 
BRANCH  11  12
HETATM   12  C2  UNL     1       2.033 -10.997   4.389  1.00  0.00     0.122 C 
HETATM   13  C1  UNL     1       0.877 -11.655   5.130  1.00  0.00     0.027 C 
ENDBRANCH  11  12
BRANCH  11  14
HETATM   14  C3  UNL     1       2.037  -9.219   2.762  1.00  0.00     0.090 C 
BRANCH  14  15
HETATM   15  C4  UNL     1       2.992 -10.082   1.973  1.00  0.00     0.274 C 
BRANCH  15  16
HETATM   16  N2  UNL     1       3.726  -9.232   1.043  1.00  0.00    -0.075 N 
ATOM     17  H23 UNL     1       3.997  -8.340   1.459  1.00  0.00     0.274 HD
ATOM     18  H22 UNL     1       4.662  -9.585   0.845  1.00  0.00     0.274 HD
ATOM     19  H21 UNL     1       3.165  -9.115   0.199  1.00  0.00     0.274 HD
ENDBRANCH  15  16
ENDBRANCH  14  15
ENDBRANCH  11  14
ENDBRANCH  10  11
ENDBRANCH   1  10
BRANCH   4  20
HETATM   20  O1  UNL     1       2.476  -3.091   5.709  1.00  0.00    -0.393 OA
ATOM     21  H1  UNL     1       2.831  -2.859   6.560  1.00  0.00     0.210 HD
ENDBRANCH   4  20
BRANCH   5  22
HETATM   22  O2  UNL     1       1.797  -4.931   7.693  1.00  0.00    -0.390 OA
ATOM     23  H2  UNL     1       2.014  -4.575   8.547  1.00  0.00     0.210 HD
ENDBRANCH   5  22
TORSDOF 8
ENDMDL
MODEL 4
REMARK VINA RESULT: -5.712596571      3.086      5.350
REMARK  8 active torsions:
REMARK  status: ('A' for Active; 'I' for Inactive)
REMARK    1  A    between atoms: C2_2  and  N1_3 
REMARK    2  A    between atoms: N1_3  and  C3_4 
REMARK    3  A    between atoms: N1_3  and  C5_10 
REMARK    4  A    between atoms: C3_4  and  C4_5 
REMARK    5  A    between atoms: C4_5  and  N2_6 
REMARK    6  A    between atoms: C5_10  and  C6_11 
REMARK    7  A    between atoms: C9_14  and  O1_15 
REMARK    8  A    between atoms: C10_17  and  O2_18 
ROOT
HETATM    1  C6  UNL     1       1.502  -6.266   3.906  1.00  0.00     0.161 C 
HETATM    2  C7  UNL     1       0.439  -5.288   4.363  1.00  0.00     0.040 C 
HETATM    3  C8  UNL     1       0.932  -3.891   4.235  1.00  0.00     0.037 C 
HETATM    4  C9  UNL     1       2.109  -3.566   5.080  1.00  0.00     0.150 C 
HETATM    5  C10 UNL     1       2.320  -4.454   6.269  1.00  0.00     0.180 C 
HETATM    6  C11 UNL     1       2.731  -5.871   5.900  1.00  0.00     0.083 C 
HETATM    7  C12 UNL     1       4.256  -5.898   6.199  1.00  0.00     0.048 C 
HETATM    8  C13 UNL     1       2.204  -6.859   6.918  1.00  0.00     0.048 C 
HETATM    9  O3  UNL     1       2.655  -6.211   4.611  1.00  0.00    -0.368 OA
ENDROOT
BRANCH   1  10
HETATM   10  C5  UNL     1       0.964  -7.680   3.899  1.00  0.00     0.095 C 
BRANCH  10  11
HETATM   11  N1  UNL     1       1.491  -8.550   2.936  1.00  0.00    -0.370 N 
BRANCH  11  12
HETATM   12  C2  UNL     1       1.300  -8.080   1.594  1.00  0.00     0.122 C 
HETATM   13  C1  UNL     1      -0.167  -8.121   1.187  1.00  0.00     0.027 C 
ENDBRANCH  11  12
BRANCH  11  14
HETATM   14  C3  UNL     1       1.560  -9.921   3.126  1.00  0.00     0.090 C 
BRANCH  14  15
HETATM   15  C4  UNL     1       1.601 -10.410   4.554  1.00  0.00     0.274 C 
BRANCH  15  16
HETATM   16  N2  UNL     1       0.407 -11.207   4.806  1.00  0.00    -0.075 N 
ATOM     17  H23 UNL     1      -0.454 -10.703   4.589  1.00  0.00     0.274 HD
ATOM     18  H22 UNL     1       0.296 -11.969   4.137  1.00  0.00     0.274 HD
ATOM     19  H21 UNL     1       0.433 -11.536   5.772  1.00  0.00     0.274 HD
ENDBRANCH  15  16
ENDBRANCH  14  15
ENDBRANCH  11  14
ENDBRANCH  10  11
ENDBRANCH   1  10
BRANCH   4  20
HETATM   20  O1  UNL     1       1.929  -2.263   5.563  1.00  0.00    -0.393 OA
ATOM     21  H1  UNL     1       1.994  -1.674   4.820  1.00  0.00     0.210 HD
ENDBRANCH   4  20
BRANCH   5  22
HETATM   22  O2  UNL     1       1.229  -4.439   7.160  1.00  0.00    -0.390 OA
ATOM     23  H2  UNL     1       1.083  -5.281   7.576  1.00  0.00     0.210 HD
ENDBRANCH   5  22
TORSDOF 8
ENDMDL
MODEL 5
REMARK VINA RESULT: -5.706906048      3.484      5.954
REMARK  8 active torsions:
REMARK  status: ('A' for Active; 'I' for Inactive)
REMARK    1  A    between atoms: C2_2  and  N1_3 
REMARK    2  A    between atoms: N1_3  and  C3_4 
REMARK    3  A    between atoms: N1_3  and  C5_10 
REMARK    4  A    between atoms: C3_4  and  C4_5 
REMARK    5  A    between atoms: C4_5  and  N2_6 
REMARK    6  A    between atoms: C5_10  and  C6_11 
REMARK    7  A    between atoms: C9_14  and  O1_15 
REMARK    8  A    between atoms: C10_17  and  O2_18 
ROOT
HETATM    1  C6  UNL     1       1.218  -4.470   4.281  1.00  0.00     0.161 C 
HETATM    2  C7  UNL     1       1.803  -5.549   3.395  1.00  0.00     0.040 C 
HETATM    3  C8  UNL     1       0.966  -6.777   3.455  1.00  0.00     0.037 C 
HETATM    4  C9  UNL     1       0.886  -7.413   4.795  1.00  0.00     0.150 C 
HETATM    5  C10 UNL     1       1.999  -7.076   5.741  1.00  0.00     0.180 C 
HETATM    6  C11 UNL     1       1.978  -5.630   6.209  1.00  0.00     0.083 C 
HETATM    7  C12 UNL     1       1.409  -5.723   7.653  1.00  0.00     0.048 C 
HETATM    8  C13 UNL     1       3.384  -5.135   6.468  1.00  0.00     0.048 C 
HETATM    9  O3  UNL     1       1.134  -4.801   5.590  1.00  0.00    -0.368 OA
ENDROOT
BRANCH   1  10
HETATM   10  C5  UNL     1       1.980  -3.172   4.121  1.00  0.00     0.095 C 
BRANCH  10  11
HETATM   11  N1  UNL     1       1.219  -1.998   4.053  1.00  0.00    -0.370 N 
BRANCH  11  12
HETATM   12  C2  UNL     1       0.543  -1.843   2.798  1.00  0.00     0.122 C 
HETATM   13  C1  UNL     1      -0.971  -1.886   2.965  1.00  0.00     0.027 C 
ENDBRANCH  11  12
BRANCH  11  14
HETATM   14  C3  UNL     1       1.565  -0.843   4.737  1.00  0.00     0.090 C 
BRANCH  14  15
HETATM   15  C4  UNL     1       1.782   0.400   3.908  1.00  0.00     0.274 C 
BRANCH  15  16
HETATM   16  N2  UNL     1       1.305   1.552   4.664  1.00  0.00    -0.075 N 
ATOM     17  H23 UNL     1       0.415   1.372   5.130  1.00  0.00     0.274 HD
ATOM     18  H22 UNL     1       1.865   1.733   5.496  1.00  0.00     0.274 HD
ATOM     19  H21 UNL     1       1.262   2.356   4.038  1.00  0.00     0.274 HD
ENDBRANCH  15  16
ENDBRANCH  14  15
ENDBRANCH  11  14
ENDBRANCH  10  11
ENDBRANCH   1  10
BRANCH   4  20
HETATM   20  O1  UNL     1       0.911  -8.800   4.601  1.00  0.00    -0.393 OA
ATOM     21  H1  UNL     1       1.822  -9.071   4.611  1.00  0.00     0.210 HD
ENDBRANCH   4  20
BRANCH   5  22
HETATM   22  O2  UNL     1       3.265  -7.449   5.246  1.00  0.00    -0.390 OA
ATOM     23  H2  UNL     1       3.934  -7.460   5.920  1.00  0.00     0.210 HD
ENDBRANCH   5  22
TORSDOF 8
ENDMDL
