MODEL 1
REMARK VINA RESULT: -6.959291134      0.000      0.000
REMARK  8 active torsions:
REMARK  status: ('A' for Active; 'I' for Inactive)
REMARK    1  A    between atoms: C2_2  and  N1_3 
REMARK    2  A    between atoms: C2_2  and  C3_10 
REMARK    3  A    between atoms: N1_3  and  N2_5 
REMARK    4  A    between atoms: C5_12  and  N4_13 
REMARK    5  A    between atoms: N4_13  and  N5_15 
REMARK    6  A    between atoms: N5_15  and  N6_16 
REMARK    7  A    between atoms: C6_20  and  C7_21 
REMARK    8  A    between atoms: C7_21  and  O2_24 
ROOT
HETATM    1  C3  UNL     1       3.437  -6.697   7.083  1.00  0.00     0.152 C 
HETATM    2  C4  UNL     1       3.558  -5.242   6.684  1.00  0.00     0.090 C 
HETATM    3  C5  UNL     1       2.114  -4.836   6.355  1.00  0.00     0.255 C 
HETATM    4  O1  UNL     1       1.535  -5.726   5.477  1.00  0.00    -0.332 OA
HETATM    5  C6  UNL     1       2.332  -6.746   5.047  1.00  0.00     0.296 C 
HETATM    6  O3  UNL     1       3.061  -7.405   5.975  1.00  0.00    -0.351 OA
ENDROOT
BRANCH   1   7
HETATM    7  C2  UNL     1       4.652  -7.213   7.781  1.00  0.00     0.126 C 
HETATM    8  C1  UNL     1       4.621  -6.646   9.207  1.00  0.00     0.036 C 
BRANCH   7   9
HETATM    9  N1  UNL     1       5.883  -6.890   7.139  1.00  0.00    -0.316 N 
ATOM     10  H1  UNL     1       5.854  -6.757   6.129  1.00  0.00     0.182 HD
BRANCH   9  11
HETATM   11  N2  UNL     1       7.104  -6.742   7.751  1.00  0.00    -0.253 N 
HETATM   12  N3  UNL     1       8.081  -7.435   7.370  1.00  0.00    -0.331 N 
ATOM     13  H32 UNL     1       7.950  -8.100   6.607  1.00  0.00     0.178 HD
ATOM     14  H31 UNL     1       8.987  -7.325   7.824  1.00  0.00     0.178 HD
ATOM     15  H2  UNL     1       7.217  -6.073   8.511  1.00  0.00     0.207 HD
ENDBRANCH   9  11
ENDBRANCH   7   9
ENDBRANCH   1   7
BRANCH   3  16
HETATM   16  N4  UNL     1       2.019  -3.463   5.958  1.00  0.00    -0.223 N 
ATOM     17  H4  UNL     1       1.850  -2.758   6.675  1.00  0.00     0.200 HD
BRANCH  16  18
HETATM   18  N5  UNL     1       2.135  -3.094   4.769  1.00  0.00    -0.246 NA
BRANCH  18  19
HETATM   19  N6  UNL     1       2.133  -3.044   3.527  1.00  0.00    -0.261 N 
ATOM     20  H62 UNL     1       1.266  -3.574   3.438  1.00  0.00     0.193 HD
ATOM     21  H61 UNL     1       2.369  -2.858   2.553  1.00  0.00     0.193 HD
ENDBRANCH  18  19
ENDBRANCH  16  18
ENDBRANCH   3  16
BRANCH   5  22
HETATM   22  C7  UNL     1       1.412  -7.750   4.356  1.00  0.00     0.100 C 
HETATM   23  C8  UNL     1       1.417  -7.376   2.874  1.00  0.00     0.051 C 
HETATM   24  C9  UNL     1       2.009  -9.118   4.490  1.00  0.00     0.051 C 
BRANCH  22  25
HETATM   25  O2  UNL     1       0.115  -7.669   4.828  1.00  0.00    -0.386 OA
ATOM     26  H2  UNL     1      -0.521  -7.806   4.135  1.00  0.00     0.210 HD
ENDBRANCH  22  25
ENDBRANCH   5  22
TORSDOF 8
ENDMDL
MODEL 2
REMARK VINA RESULT: -6.620813616      2.920      3.749
REMARK  8 active torsions:
REMARK  status: ('A' for Active; 'I' for Inactive)
REMARK    1  A    between atoms: C2_2  and  N1_3 
REMARK    2  A    between atoms: C2_2  and  C3_10 
REMARK    3  A    between atoms: N1_3  and  N2_5 
REMARK    4  A    between atoms: C5_12  and  N4_13 
REMARK    5  A    between atoms: N4_13  and  N5_15 
REMARK    6  A    between atoms: N5_15  and  N6_16 
REMARK    7  A    between atoms: C6_20  and  C7_21 
REMARK    8  A    between atoms: C7_21  and  O2_24 
ROOT
HETATM    1  C3  UNL     1       3.816  -6.756   6.190  1.00  0.00     0.152 C 
HETATM    2  C4  UNL     1       2.673  -7.749   6.173  1.00  0.00     0.090 C 
HETATM    3  C5  UNL     1       2.105  -7.623   4.751  1.00  0.00     0.255 C 
HETATM    4  O1  UNL     1       1.856  -6.306   4.430  1.00  0.00    -0.332 OA
HETATM    5  C6  UNL     1       2.114  -5.393   5.410  1.00  0.00     0.296 C 
HETATM    6  O3  UNL     1       3.284  -5.502   6.076  1.00  0.00    -0.351 OA
ENDROOT
BRANCH   1   7
HETATM    7  C2  UNL     1       4.739  -6.950   7.347  1.00  0.00     0.126 C 
HETATM    8  C1  UNL     1       4.270  -5.998   8.455  1.00  0.00     0.036 C 
BRANCH   7   9
HETATM    9  N1  UNL     1       6.115  -6.733   7.048  1.00  0.00    -0.316 N 
ATOM     10  H1  UNL     1       6.331  -6.335   6.134  1.00  0.00     0.182 HD
BRANCH   9  11
HETATM   11  N2  UNL     1       7.179  -7.008   7.871  1.00  0.00    -0.253 N 
HETATM   12  N3  UNL     1       8.258  -7.425   7.379  1.00  0.00    -0.331 N 
ATOM     13  H32 UNL     1       8.326  -7.553   6.369  1.00  0.00     0.178 HD
ATOM     14  H31 UNL     1       9.048  -7.629   7.991  1.00  0.00     0.178 HD
ATOM     15  H2  UNL     1       7.094  -6.875   8.879  1.00  0.00     0.207 HD
ENDBRANCH   9  11
ENDBRANCH   7   9
ENDBRANCH   1   7
BRANCH   3  16
HETATM   16  N4  UNL     1       1.000  -8.507   4.534  1.00  0.00    -0.223 N 
ATOM     17  H4  UNL     1       0.080  -8.104   4.358  1.00  0.00     0.200 HD
BRANCH  16  18
HETATM   18  N5  UNL     1       1.118  -9.752   4.552  1.00  0.00    -0.246 NA
BRANCH  18  19
HETATM   19  N6  UNL     1       0.913 -10.970   4.688  1.00  0.00    -0.261 N 
ATOM     20  H62 UNL     1       1.888 -11.181   4.902  1.00  0.00     0.193 HD
ATOM     21  H61 UNL     1       0.481 -11.892   4.740  1.00  0.00     0.193 HD
ENDBRANCH  18  19
ENDBRANCH  16  18
ENDBRANCH   3  16
BRANCH   5  22
HETATM   22  C7  UNL     1       2.066  -4.020   4.743  1.00  0.00     0.100 C 
HETATM   23  C8  UNL     1       3.217  -3.998   3.738  1.00  0.00     0.051 C 
HETATM   24  C9  UNL     1       0.782  -3.903   3.979  1.00  0.00     0.051 C 
BRANCH  22  25
HETATM   25  O2  UNL     1       2.257  -2.999   5.655  1.00  0.00    -0.386 OA
ATOM     26  H2  UNL     1       3.074  -2.538   5.503  1.00  0.00     0.210 HD
ENDBRANCH  22  25
ENDBRANCH   5  22
TORSDOF 8
ENDMDL
MODEL 3
REMARK VINA RESULT: -6.417711766      3.069      5.781
REMARK  8 active torsions:
REMARK  status: ('A' for Active; 'I' for Inactive)
REMARK    1  A    between atoms: C2_2  and  N1_3 
REMARK    2  A    between atoms: C2_2  and  C3_10 
REMARK    3  A    between atoms: N1_3  and  N2_5 
REMARK    4  A    between atoms: C5_12  and  N4_13 
REMARK    5  A    between atoms: N4_13  and  N5_15 
REMARK    6  A    between atoms: N5_15  and  N6_16 
REMARK    7  A    between atoms: C6_20  and  C7_21 
REMARK    8  A    between atoms: C7_21  and  O2_24 
ROOT
HETATM    1  C3  UNL     1       0.581  -4.305   3.904  1.00  0.00     0.152 C 
HETATM    2  C4  UNL     1       0.674  -5.500   2.980  1.00  0.00     0.090 C 
HETATM    3  C5  UNL     1       0.555  -6.702   3.929  1.00  0.00     0.255 C 
HETATM    4  O1  UNL     1       1.440  -6.595   4.980  1.00  0.00    -0.332 OA
HETATM    5  C6  UNL     1       2.256  -5.502   4.965  1.00  0.00     0.296 C 
HETATM    6  O3  UNL     1       1.693  -4.303   4.699  1.00  0.00    -0.351 OA
ENDROOT
BRANCH   1   7
HETATM    7  C2  UNL     1       0.319  -3.026   3.178  1.00  0.00     0.126 C 
HETATM    8  C1  UNL     1       1.425  -2.879   2.124  1.00  0.00     0.036 C 
BRANCH   7   9
HETATM    9  N1  UNL     1       0.266  -1.874   4.014  1.00  0.00    -0.316 N 
ATOM     10  H1  UNL     1      -0.655  -1.474   4.190  1.00  0.00     0.182 HD
BRANCH   9  11
HETATM   11  N2  UNL     1       1.337  -1.248   4.605  1.00  0.00    -0.253 N 
HETATM   12  N3  UNL     1       1.617  -1.492   5.806  1.00  0.00    -0.331 N 
ATOM     13  H32 UNL     1       1.041  -2.155   6.325  1.00  0.00     0.178 HD
ATOM     14  H31 UNL     1       2.411  -1.028   6.245  1.00  0.00     0.178 HD
ATOM     15  H2  UNL     1       1.902  -0.588   4.072  1.00  0.00     0.207 HD
ENDBRANCH   9  11
ENDBRANCH   7   9
ENDBRANCH   1   7
BRANCH   3  16
HETATM   16  N4  UNL     1       0.613  -7.948   3.228  1.00  0.00    -0.223 N 
ATOM     17  H4  UNL     1      -0.177  -8.215   2.641  1.00  0.00     0.200 HD
BRANCH  16  18
HETATM   18  N5  UNL     1       1.592  -8.723   3.305  1.00  0.00    -0.246 NA
BRANCH  18  19
HETATM   19  N6  UNL     1       2.707  -9.220   3.535  1.00  0.00    -0.261 N 
ATOM     20  H62 UNL     1       2.490  -9.428   4.510  1.00  0.00     0.193 HD
ATOM     21  H61 UNL     1       3.664  -9.563   3.453  1.00  0.00     0.193 HD
ENDBRANCH  18  19
ENDBRANCH  16  18
ENDBRANCH   3  16
BRANCH   5  22
HETATM   22  C7  UNL     1       2.909  -5.432   6.344  1.00  0.00     0.100 C 
HETATM   23  C8  UNL     1       1.995  -6.218   7.284  1.00  0.00     0.051 C 
HETATM   24  C9  UNL     1       4.230  -6.138   6.285  1.00  0.00     0.051 C 
BRANCH  22  25
HETATM   25  O2  UNL     1       3.002  -4.132   6.803  1.00  0.00    -0.386 OA
ATOM     26  H2  UNL     1       2.146  -3.736   6.918  1.00  0.00     0.210 HD
ENDBRANCH  22  25
ENDBRANCH   5  22
TORSDOF 8
ENDMDL
MODEL 4
REMARK VINA RESULT: -6.397302134      3.047      5.526
REMARK  8 active torsions:
REMARK  status: ('A' for Active; 'I' for Inactive)
REMARK    1  A    between atoms: C2_2  and  N1_3 
REMARK    2  A    between atoms: C2_2  and  C3_10 
REMARK    3  A    between atoms: N1_3  and  N2_5 
REMARK    4  A    between atoms: C5_12  and  N4_13 
REMARK    5  A    between atoms: N4_13  and  N5_15 
REMARK    6  A    between atoms: N5_15  and  N6_16 
REMARK    7  A    between atoms: C6_20  and  C7_21 
REMARK    8  A    between atoms: C7_21  and  O2_24 
ROOT
HETATM    1  C3  UNL     1       1.125  -4.988   4.434  1.00  0.00     0.152 C 
HETATM    2  C4  UNL     1       1.081  -6.293   3.668  1.00  0.00     0.090 C 
HETATM    3  C5  UNL     1       0.930  -7.354   4.768  1.00  0.00     0.255 C 
HETATM    4  O1  UNL     1       1.878  -7.187   5.754  1.00  0.00    -0.332 OA
HETATM    5  C6  UNL     1       2.767  -6.170   5.562  1.00  0.00     0.296 C 
HETATM    6  O3  UNL     1       2.276  -4.973   5.171  1.00  0.00    -0.351 OA
ENDROOT
BRANCH   1   7
HETATM    7  C2  UNL     1       0.915  -3.794   3.563  1.00  0.00     0.126 C 
HETATM    8  C1  UNL     1       2.080  -3.760   2.565  1.00  0.00     0.036 C 
BRANCH   7   9
HETATM    9  N1  UNL     1       0.822  -2.559   4.268  1.00  0.00    -0.316 N 
ATOM     10  H1  UNL     1       0.137  -1.885   3.928  1.00  0.00     0.182 HD
BRANCH   9  11
HETATM   11  N2  UNL     1       1.567  -2.189   5.361  1.00  0.00    -0.253 N 
HETATM   12  N3  UNL     1       1.577  -0.988   5.732  1.00  0.00    -0.331 N 
ATOM     13  H32 UNL     1       1.028  -0.303   5.212  1.00  0.00     0.178 HD
ATOM     14  H31 UNL     1       2.130  -0.714   6.543  1.00  0.00     0.178 HD
ATOM     15  H2  UNL     1       2.111  -2.887   5.869  1.00  0.00     0.207 HD
ENDBRANCH   9  11
ENDBRANCH   7   9
ENDBRANCH   1   7
BRANCH   3  16
HETATM   16  N4  UNL     1       0.861  -8.679   4.230  1.00  0.00    -0.223 N 
ATOM     17  H4  UNL     1       0.023  -9.234   4.404  1.00  0.00     0.200 HD
BRANCH  16  18
HETATM   18  N5  UNL     1       1.785  -9.184   3.555  1.00  0.00    -0.246 NA
BRANCH  18  19
HETATM   19  N6  UNL     1       2.792  -9.356   2.848  1.00  0.00    -0.261 N 
ATOM     20  H62 UNL     1       2.408  -8.845   2.054  1.00  0.00     0.193 HD
ATOM     21  H61 UNL     1       3.708  -9.635   2.497  1.00  0.00     0.193 HD
ENDBRANCH  18  19
ENDBRANCH  16  18
ENDBRANCH   3  16
BRANCH   5  22
HETATM   22  C7  UNL     1       3.498  -5.980   6.889  1.00  0.00     0.100 C 
HETATM   23  C8  UNL     1       2.812  -6.913   7.886  1.00  0.00     0.051 C 
HETATM   24  C9  UNL     1       4.916  -6.438   6.724  1.00  0.00     0.051 C 
BRANCH  22  25
HETATM   25  O2  UNL     1       3.392  -4.682   7.353  1.00  0.00    -0.386 OA
ATOM     26  H2  UNL     1       3.274  -4.653   8.295  1.00  0.00     0.210 HD
ENDBRANCH  22  25
ENDBRANCH   5  22
TORSDOF 8
ENDMDL
MODEL 5
REMARK VINA RESULT: -6.370658962      0.850      1.153
REMARK  8 active torsions:
REMARK  status: ('A' for Active; 'I' for Inactive)
REMARK    1  A    between atoms: C2_2  and  N1_3 
REMARK    2  A    between atoms: C2_2  and  C3_10 
REMARK    3  A    between atoms: N1_3  and  N2_5 
REMARK    4  A    between atoms: C5_12  and  N4_13 
REMARK    5  A    between atoms: N4_13  and  N5_15 
REMARK    6  A    between atoms: N5_15  and  N6_16 
REMARK    7  A    between atoms: C6_20  and  C7_21 
REMARK    8  A    between atoms: C7_21  and  O2_24 
ROOT
HETATM    1  C3  UNL     1       3.314  -6.602   6.909  1.00  0.00     0.152 C 
HETATM    2  C4  UNL     1       3.468  -5.119   6.646  1.00  0.00     0.090 C 
HETATM    3  C5  UNL     1       2.063  -4.682   6.204  1.00  0.00     0.255 C 
HETATM    4  O1  UNL     1       1.581  -5.495   5.202  1.00  0.00    -0.332 OA
HETATM    5  C6  UNL     1       2.423  -6.479   4.774  1.00  0.00     0.296 C 
HETATM    6  O3  UNL     1       3.057  -7.214   5.714  1.00  0.00    -0.351 OA
ENDROOT
BRANCH   1   7
HETATM    7  C2  UNL     1       4.453  -7.177   7.683  1.00  0.00     0.126 C 
HETATM    8  C1  UNL     1       4.351  -6.618   9.109  1.00  0.00     0.036 C 
BRANCH   7   9
HETATM    9  N1  UNL     1       5.738  -6.908   7.129  1.00  0.00    -0.316 N 
ATOM     10  H1  UNL     1       5.786  -6.771   6.120  1.00  0.00     0.182 HD
BRANCH   9  11
HETATM   11  N2  UNL     1       6.920  -6.815   7.825  1.00  0.00    -0.253 N 
HETATM   12  N3  UNL     1       7.957  -7.359   7.368  1.00  0.00    -0.331 N 
ATOM     13  H32 UNL     1       7.905  -7.863   6.483  1.00  0.00     0.178 HD
ATOM     14  H31 UNL     1       8.834  -7.290   7.884  1.00  0.00     0.178 HD
ATOM     15  H2  UNL     1       6.954  -6.307   8.708  1.00  0.00     0.207 HD
ENDBRANCH   9  11
ENDBRANCH   7   9
ENDBRANCH   1   7
BRANCH   3  16
HETATM   16  N4  UNL     1       2.003  -3.281   5.914  1.00  0.00    -0.223 N 
ATOM     17  H4  UNL     1       1.908  -2.626   6.690  1.00  0.00     0.200 HD
BRANCH  16  18
HETATM   18  N5  UNL     1       2.062  -2.829   4.750  1.00  0.00    -0.246 NA
BRANCH  18  19
HETATM   19  N6  UNL     1       1.993  -2.689   3.517  1.00  0.00    -0.261 N 
ATOM     20  H62 UNL     1       1.430  -3.529   3.383  1.00  0.00     0.193 HD
ATOM     21  H61 UNL     1       2.092  -2.346   2.562  1.00  0.00     0.193 HD
ENDBRANCH  18  19
ENDBRANCH  16  18
ENDBRANCH   3  16
BRANCH   5  22
HETATM   22  C7  UNL     1       1.585  -7.419   3.911  1.00  0.00     0.100 C 
HETATM   23  C8  UNL     1       1.560  -8.758   4.648  1.00  0.00     0.051 C 
HETATM   24  C9  UNL     1       0.182  -6.894   3.855  1.00  0.00     0.051 C 
BRANCH  22  25
HETATM   25  O2  UNL     1       2.149  -7.612   2.664  1.00  0.00    -0.386 OA
ATOM     26  H2  UNL     1       1.704  -8.297   2.178  1.00  0.00     0.210 HD
ENDBRANCH  22  25
ENDBRANCH   5  22
TORSDOF 8
ENDMDL
