MODEL 1
REMARK VINA RESULT: -6.499921806      0.000      0.000
REMARK  2 active torsions:
REMARK  status: ('A' for Active; 'I' for Inactive)
REMARK    1  A    between atoms: C2_2  and  C3_3 
REMARK    2  A    between atoms: C3_3  and  N1_4 
ROOT
HETATM    1  N1  UNL     1       8.525  -8.613   9.792  1.00  0.00     0.097 N 
HETATM    2  C4  UNL     1       7.943  -7.859  10.884  1.00  0.00     0.278 C 
HETATM    3  C5  UNL     1       7.244  -6.747  10.175  1.00  0.00     0.102 C 
HETATM    4  C6  UNL     1       6.697  -7.375   8.933  1.00  0.00     0.213 C 
HETATM    5  C7  UNL     1       7.466  -8.668   8.810  1.00  0.00     0.342 C 
HETATM    6  O1  UNL     1       5.325  -7.600   9.159  1.00  0.00    -0.351 OA
HETATM    7  C8  UNL     1       4.720  -6.337   9.004  1.00  0.00     0.190 C 
HETATM    8  C9  UNL     1       4.564  -6.171   7.488  1.00  0.00     0.169 C 
HETATM    9  N2  UNL     1       5.781  -6.769   6.928  1.00  0.00    -0.095 NA
HETATM   10  O2  UNL     1       6.803  -6.592   7.804  1.00  0.00    -0.245 OA
ENDROOT
BRANCH   1  11
HETATM   11  C3  UNL     1       9.668  -7.913   9.249  1.00  0.00     0.299 C 
BRANCH  11  12
HETATM   12  C2  UNL     1      10.947  -8.614   9.557  1.00  0.00    -0.007 C 
HETATM   13  C1  UNL     1      11.680  -8.338  10.614  1.00  0.00     0.008 C 
ENDBRANCH  11  12
ENDBRANCH   1  11
TORSDOF 2
ENDMDL
MODEL 2
REMARK VINA RESULT: -6.280868901      0.853      1.001
REMARK  2 active torsions:
REMARK  status: ('A' for Active; 'I' for Inactive)
REMARK    1  A    between atoms: C2_2  and  C3_3 
REMARK    2  A    between atoms: C3_3  and  N1_4 
ROOT
HETATM    1  N1  UNL     1       8.436  -8.599   9.777  1.00  0.00     0.097 N 
HETATM    2  C4  UNL     1       7.933  -7.752  10.838  1.00  0.00     0.278 C 
HETATM    3  C5  UNL     1       7.232  -6.670  10.087  1.00  0.00     0.102 C 
HETATM    4  C6  UNL     1       6.605  -7.365   8.921  1.00  0.00     0.213 C 
HETATM    5  C7  UNL     1       7.327  -8.688   8.853  1.00  0.00     0.342 C 
HETATM    6  O1  UNL     1       5.239  -7.528   9.228  1.00  0.00    -0.351 OA
HETATM    7  C8  UNL     1       4.665  -6.259   9.012  1.00  0.00     0.190 C 
HETATM    8  C9  UNL     1       4.437  -6.195   7.497  1.00  0.00     0.169 C 
HETATM    9  N2  UNL     1       5.606  -6.871   6.924  1.00  0.00    -0.095 NA
HETATM   10  O2  UNL     1       6.676  -6.666   7.734  1.00  0.00    -0.245 OA
ENDROOT
BRANCH   1  11
HETATM   11  C3  UNL     1       9.570  -7.977   9.130  1.00  0.00     0.299 C 
BRANCH  11  12
HETATM   12  C2  UNL     1      10.080  -8.794   7.992  1.00  0.00    -0.007 C 
HETATM   13  C1  UNL     1      10.696  -9.945   8.155  1.00  0.00     0.008 C 
ENDBRANCH  11  12
ENDBRANCH   1  11
TORSDOF 2
ENDMDL
MODEL 3
REMARK VINA RESULT: -6.245973494      1.990      4.922
REMARK  2 active torsions:
REMARK  status: ('A' for Active; 'I' for Inactive)
REMARK    1  A    between atoms: C2_2  and  C3_3 
REMARK    2  A    between atoms: C3_3  and  N1_4 
ROOT
HETATM    1  N1  UNL     1       7.028  -6.691   8.958  1.00  0.00     0.097 N 
HETATM    2  C4  UNL     1       7.537  -6.697  10.314  1.00  0.00     0.278 C 
HETATM    3  C5  UNL     1       8.165  -8.048  10.420  1.00  0.00     0.102 C 
HETATM    4  C6  UNL     1       8.775  -8.287   9.076  1.00  0.00     0.213 C 
HETATM    5  C7  UNL     1       8.104  -7.271   8.184  1.00  0.00     0.342 C 
HETATM    6  O1  UNL     1      10.156  -8.042   9.204  1.00  0.00    -0.351 OA
HETATM    7  C8  UNL     1      10.670  -9.189   9.842  1.00  0.00     0.190 C 
HETATM    8  C9  UNL     1      10.837 -10.213   8.714  1.00  0.00     0.169 C 
HETATM    9  N2  UNL     1       9.676  -9.992   7.846  1.00  0.00    -0.095 NA
HETATM   10  O2  UNL     1       8.630  -9.575   8.605  1.00  0.00    -0.245 OA
ENDROOT
BRANCH   1  11
HETATM   11  C3  UNL     1       5.846  -7.518   8.859  1.00  0.00     0.299 C 
BRANCH  11  12
HETATM   12  C2  UNL     1       4.618  -6.786   9.282  1.00  0.00    -0.007 C 
HETATM   13  C1  UNL     1       3.498  -6.808   8.594  1.00  0.00     0.008 C 
ENDBRANCH  11  12
ENDBRANCH   1  11
TORSDOF 2
ENDMDL
MODEL 4
REMARK VINA RESULT: -6.210466600      1.277      2.010
REMARK  2 active torsions:
REMARK  status: ('A' for Active; 'I' for Inactive)
REMARK    1  A    between atoms: C2_2  and  C3_3 
REMARK    2  A    between atoms: C3_3  and  N1_4 
ROOT
HETATM    1  N1  UNL     1       8.731  -7.461   9.872  1.00  0.00     0.097 N 
HETATM    2  C4  UNL     1       8.722  -8.051   8.549  1.00  0.00     0.278 C 
HETATM    3  C5  UNL     1       7.268  -8.279   8.303  1.00  0.00     0.102 C 
HETATM    4  C6  UNL     1       6.590  -7.099   8.924  1.00  0.00     0.213 C 
HETATM    5  C7  UNL     1       7.642  -6.510   9.832  1.00  0.00     0.342 C 
HETATM    6  O1  UNL     1       6.253  -6.223   7.874  1.00  0.00    -0.351 OA
HETATM    7  C8  UNL     1       5.110  -6.794   7.278  1.00  0.00     0.190 C 
HETATM    8  C9  UNL     1       3.948  -6.354   8.177  1.00  0.00     0.169 C 
HETATM    9  N2  UNL     1       4.497  -6.410   9.536  1.00  0.00    -0.095 NA
HETATM   10  O2  UNL     1       5.425  -7.400   9.597  1.00  0.00    -0.245 OA
ENDROOT
BRANCH   1  11
HETATM   11  C3  UNL     1       8.469  -8.469  10.875  1.00  0.00     0.299 C 
BRANCH  11  12
HETATM   12  C2  UNL     1       9.714  -9.178  11.289  1.00  0.00    -0.007 C 
HETATM   13  C1  UNL     1      10.893  -8.597  11.324  1.00  0.00     0.008 C 
ENDBRANCH  11  12
ENDBRANCH   1  11
TORSDOF 2
ENDMDL
MODEL 5
REMARK VINA RESULT: -5.807156298      3.138      4.776
REMARK  2 active torsions:
REMARK  status: ('A' for Active; 'I' for Inactive)
REMARK    1  A    between atoms: C2_2  and  C3_3 
REMARK    2  A    between atoms: C3_3  and  N1_4 
ROOT
HETATM    1  N1  UNL     1       4.270  -7.317   8.006  1.00  0.00     0.097 N 
HETATM    2  C4  UNL     1       3.068  -6.997   8.748  1.00  0.00     0.278 C 
HETATM    3  C5  UNL     1       2.674  -5.676   8.177  1.00  0.00     0.102 C 
HETATM    4  C6  UNL     1       3.006  -5.779   6.722  1.00  0.00     0.213 C 
HETATM    5  C7  UNL     1       3.937  -6.964   6.644  1.00  0.00     0.342 C 
HETATM    6  O1  UNL     1       1.795  -6.017   6.043  1.00  0.00    -0.351 OA
HETATM    7  C8  UNL     1       1.154  -4.763   5.994  1.00  0.00     0.190 C 
HETATM    8  C9  UNL     1       1.812  -4.043   4.811  1.00  0.00     0.169 C 
HETATM    9  N2  UNL     1       3.223  -4.440   4.882  1.00  0.00    -0.095 NA
HETATM   10  O2  UNL     1       3.561  -4.638   6.182  1.00  0.00    -0.245 OA
ENDROOT
BRANCH   1  11
HETATM   11  C3  UNL     1       5.378  -6.512   8.469  1.00  0.00     0.299 C 
BRANCH  11  12
HETATM   12  C2  UNL     1       5.752  -6.837   9.875  1.00  0.00    -0.007 C 
HETATM   13  C1  UNL     1       6.769  -7.609  10.187  1.00  0.00     0.008 C 
ENDBRANCH  11  12
ENDBRANCH   1  11
TORSDOF 2
ENDMDL
