MODEL 1
REMARK VINA RESULT: -6.870756645      0.000      0.000
REMARK  2 active torsions:
REMARK  status: ('A' for Active; 'I' for Inactive)
REMARK    1  A    between atoms: C2_2  and  C3_3 
REMARK    2  A    between atoms: C3_3  and  N1_4 
ROOT
HETATM    1  N1  UNL     1       5.950  -6.490   8.474  1.00  0.00    -0.193 NA
HETATM    2  C4  UNL     1       5.693  -7.501   9.463  1.00  0.00     0.131 C 
HETATM    3  C5  UNL     1       6.827  -7.681  10.470  1.00  0.00     0.042 C 
HETATM    4  C6  UNL     1       7.392  -9.112  10.435  1.00  0.00     0.066 C 
HETATM    5  N2  UNL     1       8.698  -9.276  10.121  1.00  0.00    -0.382 N 
ATOM      6  H2  UNL     1       9.233  -9.644  10.908  1.00  0.00     0.164 HD
HETATM    7  C7  UNL     1       9.469  -9.079   9.044  1.00  0.00     0.062 C 
HETATM    8  C8  UNL     1       9.164  -8.015   8.009  1.00  0.00     0.078 C 
HETATM    9  C9  UNL     1       7.819  -7.566   8.374  1.00  0.00     0.151 C 
HETATM   10  C10 UNL     1       7.963  -6.939   9.747  1.00  0.00     0.045 C 
HETATM   11  O1  UNL     1       7.052  -6.721   7.682  1.00  0.00    -0.297 OA
ENDROOT
BRANCH   1  12
HETATM   12  C3  UNL     1       4.817  -6.554   7.543  1.00  0.00     0.147 C 
BRANCH  12  13
HETATM   13  C2  UNL     1       3.534  -6.651   8.238  1.00  0.00    -0.020 C 
HETATM   14  C1  UNL     1       2.493  -5.953   7.842  1.00  0.00     0.008 C 
ENDBRANCH  12  13
ENDBRANCH   1  12
TORSDOF 2
ENDMDL
MODEL 2
REMARK VINA RESULT: -6.371512781      2.117      5.524
REMARK  2 active torsions:
REMARK  status: ('A' for Active; 'I' for Inactive)
REMARK    1  A    between atoms: C2_2  and  C3_3 
REMARK    2  A    between atoms: C3_3  and  N1_4 
ROOT
HETATM    1  N1  UNL     1       5.134  -7.026   7.857  1.00  0.00    -0.193 NA
HETATM    2  C4  UNL     1       4.067  -6.685   8.758  1.00  0.00     0.131 C 
HETATM    3  C5  UNL     1       2.676  -6.814   8.141  1.00  0.00     0.042 C 
HETATM    4  C6  UNL     1       1.927  -5.469   8.152  1.00  0.00     0.066 C 
HETATM    5  N2  UNL     1       1.545  -4.942   6.965  1.00  0.00    -0.382 N 
ATOM      6  H2  UNL     1       0.529  -4.910   6.875  1.00  0.00     0.164 HD
HETATM    7  C7  UNL     1       2.157  -4.450   5.880  1.00  0.00     0.062 C 
HETATM    8  C8  UNL     1       3.530  -4.915   5.440  1.00  0.00     0.078 C 
HETATM    9  C9  UNL     1       3.992  -5.719   6.573  1.00  0.00     0.151 C 
HETATM   10  C10 UNL     1       3.037  -6.894   6.649  1.00  0.00     0.045 C 
HETATM   11  O1  UNL     1       5.209  -6.246   6.724  1.00  0.00    -0.297 OA
ENDROOT
BRANCH   1  12
HETATM   12  C3  UNL     1       6.374  -6.725   8.583  1.00  0.00     0.147 C 
BRANCH  12  13
HETATM   13  C2  UNL     1       6.289  -7.090   9.997  1.00  0.00    -0.020 C 
HETATM   14  C1  UNL     1       7.162  -7.907  10.541  1.00  0.00     0.008 C 
ENDBRANCH  12  13
ENDBRANCH   1  12
TORSDOF 2
ENDMDL
MODEL 3
REMARK VINA RESULT: -6.323976594      1.833      2.683
REMARK  2 active torsions:
REMARK  status: ('A' for Active; 'I' for Inactive)
REMARK    1  A    between atoms: C2_2  and  C3_3 
REMARK    2  A    between atoms: C3_3  and  N1_4 
ROOT
HETATM    1  N1  UNL     1       6.811  -8.005   9.795  1.00  0.00    -0.193 NA
HETATM    2  C4  UNL     1       7.512  -7.744   8.567  1.00  0.00     0.131 C 
HETATM    3  C5  UNL     1       8.618  -8.752   8.263  1.00  0.00     0.042 C 
HETATM    4  C6  UNL     1       9.993  -8.068   8.161  1.00  0.00     0.066 C 
HETATM    5  N2  UNL     1      10.962  -8.451   9.025  1.00  0.00    -0.382 N 
ATOM      6  H2  UNL     1      11.738  -8.908   8.545  1.00  0.00     0.164 HD
HETATM    7  C7  UNL     1      11.166  -8.382  10.346  1.00  0.00     0.062 C 
HETATM    8  C8  UNL     1      10.026  -8.367  11.345  1.00  0.00     0.078 C 
HETATM    9  C9  UNL     1       8.843  -8.183  10.503  1.00  0.00     0.151 C 
HETATM   10  C10 UNL     1       8.769  -9.426   9.637  1.00  0.00     0.045 C 
HETATM   11  O1  UNL     1       7.595  -7.977  10.927  1.00  0.00    -0.297 OA
ENDROOT
BRANCH   1  12
HETATM   12  C3  UNL     1       5.888  -6.877   9.969  1.00  0.00     0.147 C 
BRANCH  12  13
HETATM   13  C2  UNL     1       5.048  -6.663   8.789  1.00  0.00    -0.020 C 
HETATM   14  C1  UNL     1       3.747  -6.837   8.843  1.00  0.00     0.008 C 
ENDBRANCH  12  13
ENDBRANCH   1  12
TORSDOF 2
ENDMDL
MODEL 4
REMARK VINA RESULT: -6.185447400      1.729      2.712
REMARK  2 active torsions:
REMARK  status: ('A' for Active; 'I' for Inactive)
REMARK    1  A    between atoms: C2_2  and  C3_3 
REMARK    2  A    between atoms: C3_3  and  N1_4 
ROOT
HETATM    1  N1  UNL     1       8.010  -7.566   9.859  1.00  0.00    -0.193 NA
HETATM    2  C4  UNL     1       8.622  -8.253  10.964  1.00  0.00     0.131 C 
HETATM    3  C5  UNL     1      10.139  -8.383  10.843  1.00  0.00     0.042 C 
HETATM    4  C6  UNL     1      10.579  -9.858  10.829  1.00  0.00     0.066 C 
HETATM    5  N2  UNL     1      11.241 -10.317   9.741  1.00  0.00    -0.382 N 
ATOM      6  H2  UNL     1      12.202 -10.576   9.964  1.00  0.00     0.164 HD
HETATM    7  C7  UNL     1      10.959 -10.518   8.448  1.00  0.00     0.062 C 
HETATM    8  C8  UNL     1       9.929  -9.694   7.702  1.00  0.00     0.078 C 
HETATM    9  C9  UNL     1       9.262  -8.944   8.767  1.00  0.00     0.151 C 
HETATM   10  C10 UNL     1      10.332  -8.044   9.356  1.00  0.00     0.045 C 
HETATM   11  O1  UNL     1       8.186  -8.166   8.633  1.00  0.00    -0.297 OA
ENDROOT
BRANCH   1  12
HETATM   12  C3  UNL     1       6.563  -7.650  10.096  1.00  0.00     0.147 C 
BRANCH  12  13
HETATM   13  C2  UNL     1       5.790  -7.017   9.027  1.00  0.00    -0.020 C 
HETATM   14  C1  UNL     1       4.541  -6.655   9.217  1.00  0.00     0.008 C 
ENDBRANCH  12  13
ENDBRANCH   1  12
TORSDOF 2
ENDMDL
MODEL 5
REMARK VINA RESULT: -6.034580556      2.274      5.296
REMARK  2 active torsions:
REMARK  status: ('A' for Active; 'I' for Inactive)
REMARK    1  A    between atoms: C2_2  and  C3_3 
REMARK    2  A    between atoms: C3_3  and  N1_4 
ROOT
HETATM    1  N1  UNL     1      10.148  -9.429   8.885  1.00  0.00    -0.193 NA
HETATM    2  C4  UNL     1      10.043  -8.933  10.230  1.00  0.00     0.131 C 
HETATM    3  C5  UNL     1       8.623  -8.973  10.791  1.00  0.00     0.042 C 
HETATM    4  C6  UNL     1       8.129  -7.568  11.176  1.00  0.00     0.066 C 
HETATM    5  N2  UNL     1       7.028  -7.085  10.555  1.00  0.00    -0.382 N 
ATOM      6  H2  UNL     1       6.249  -6.966  11.202  1.00  0.00     0.164 HD
HETATM    7  C7  UNL     1       6.698  -6.723   9.308  1.00  0.00     0.062 C 
HETATM    8  C8  UNL     1       7.344  -7.340   8.084  1.00  0.00     0.078 C 
HETATM    9  C9  UNL     1       8.458  -8.108   8.643  1.00  0.00     0.151 C 
HETATM   10  C10 UNL     1       7.817  -9.183   9.499  1.00  0.00     0.045 C 
HETATM   11  O1  UNL     1       9.412  -8.735   7.951  1.00  0.00    -0.297 OA
ENDROOT
BRANCH   1  12
HETATM   12  C3  UNL     1      11.543  -9.197   8.488  1.00  0.00     0.147 C 
BRANCH  12  13
HETATM   13  C2  UNL     1      12.384 -10.374   8.709  1.00  0.00    -0.020 C 
HETATM   14  C1  UNL     1      12.005 -11.564   8.300  1.00  0.00     0.008 C 
ENDBRANCH  12  13
ENDBRANCH   1  12
TORSDOF 2
ENDMDL
