MODEL 1
REMARK VINA RESULT: -5.997940515      0.000      0.000
REMARK  3 active torsions:
REMARK  status: ('A' for Active; 'I' for Inactive)
REMARK    1  A    between atoms: C2_2  and  C3_3 
REMARK    2  A    between atoms: C3_3  and  N1_4 
REMARK    3  A    between atoms: C7_8  and  O1_9 
ROOT
HETATM    1  N1  UNL     1       7.150  -7.014  10.316  1.00  0.00    -0.284 NA
HETATM    2  C4  UNL     1       7.745  -7.011   8.966  1.00  0.00     0.127 C 
HETATM    3  C5  UNL     1       8.295  -8.303   8.519  1.00  0.00     0.137 C 
HETATM    4  C6  UNL     1       9.822  -8.230   8.672  1.00  0.00     0.065 C 
HETATM    5  C7  UNL     1      10.128  -8.596  10.107  1.00  0.00     0.122 C 
HETATM    6  C8  UNL     1       9.336  -7.686  10.986  1.00  0.00     0.054 C 
HETATM    7  C9  UNL     1       7.859  -8.023  11.046  1.00  0.00     0.088 C 
HETATM    8  C10 UNL     1       7.557  -9.373  10.427  1.00  0.00     0.188 C 
HETATM    9  O2  UNL     1       7.772  -9.427   9.079  1.00  0.00    -0.383 OA
ENDROOT
BRANCH   1  10
HETATM   10  C3  UNL     1       5.775  -7.223  10.107  1.00  0.00     0.059 C 
BRANCH  10  11
HETATM   11  C2  UNL     1       5.103  -6.681   8.943  1.00  0.00     0.001 C 
HETATM   12  C1  UNL     1       3.844  -6.518   8.664  1.00  0.00     0.012 C 
ENDBRANCH  10  11
ENDBRANCH   1  10
BRANCH   5  13
HETATM   13  O1  UNL     1      11.489  -8.283  10.334  1.00  0.00    -0.395 OA
ATOM     14  H1  UNL     1      11.742  -8.711  11.144  1.00  0.00     0.210 HD
ENDBRANCH   5  13
TORSDOF 3
ENDMDL
MODEL 2
REMARK VINA RESULT: -5.678958998      1.769      4.507
REMARK  3 active torsions:
REMARK  status: ('A' for Active; 'I' for Inactive)
REMARK    1  A    between atoms: C2_2  and  C3_3 
REMARK    2  A    between atoms: C3_3  and  N1_4 
REMARK    3  A    between atoms: C7_8  and  O1_9 
ROOT
HETATM    1  N1  UNL     1       9.469  -7.766  10.217  1.00  0.00    -0.284 NA
HETATM    2  C4  UNL     1       8.241  -7.662  11.027  1.00  0.00     0.127 C 
HETATM    3  C5  UNL     1       7.099  -8.457  10.540  1.00  0.00     0.137 C 
HETATM    4  C6  UNL     1       6.139  -7.494   9.826  1.00  0.00     0.065 C 
HETATM    5  C7  UNL     1       6.645  -7.355   8.408  1.00  0.00     0.122 C 
HETATM    6  C8  UNL     1       8.074  -6.926   8.476  1.00  0.00     0.054 C 
HETATM    7  C9  UNL     1       9.028  -8.034   8.881  1.00  0.00     0.088 C 
HETATM    8  C10 UNL     1       8.363  -9.397   8.853  1.00  0.00     0.188 C 
HETATM    9  O2  UNL     1       7.383  -9.555   9.791  1.00  0.00    -0.383 OA
ENDROOT
BRANCH   1  10
HETATM   10  C3  UNL     1      10.238  -8.760  10.849  1.00  0.00     0.059 C 
BRANCH  10  11
HETATM   11  C2  UNL     1      11.676  -8.629  10.975  1.00  0.00     0.001 C 
HETATM   12  C1  UNL     1      12.602  -8.354  10.106  1.00  0.00     0.012 C 
ENDBRANCH  10  11
ENDBRANCH   1  10
BRANCH   5  13
HETATM   13  O1  UNL     1       5.938  -6.282   7.817  1.00  0.00    -0.395 OA
ATOM     14  H1  UNL     1       5.701  -5.685   8.517  1.00  0.00     0.210 HD
ENDBRANCH   5  13
TORSDOF 3
ENDMDL
MODEL 3
REMARK VINA RESULT: -5.616489128      0.978      1.024
REMARK  3 active torsions:
REMARK  status: ('A' for Active; 'I' for Inactive)
REMARK    1  A    between atoms: C2_2  and  C3_3 
REMARK    2  A    between atoms: C3_3  and  N1_4 
REMARK    3  A    between atoms: C7_8  and  O1_9 
ROOT
HETATM    1  N1  UNL     1       7.430  -6.881   9.181  1.00  0.00    -0.284 NA
HETATM    2  C4  UNL     1       8.566  -7.400   8.395  1.00  0.00     0.127 C 
HETATM    3  C5  UNL     1       8.906  -8.813   8.640  1.00  0.00     0.137 C 
HETATM    4  C6  UNL     1      10.143  -8.837   9.551  1.00  0.00     0.065 C 
HETATM    5  C7  UNL     1       9.634  -8.714  10.970  1.00  0.00     0.122 C 
HETATM    6  C8  UNL     1       8.789  -7.485  11.044  1.00  0.00     0.054 C 
HETATM    7  C9  UNL     1       7.426  -7.640  10.397  1.00  0.00     0.088 C 
HETATM    8  C10 UNL     1       7.111  -9.085  10.066  1.00  0.00     0.188 C 
HETATM    9  O2  UNL     1       7.911  -9.619   9.097  1.00  0.00    -0.383 OA
ENDROOT
BRANCH   1  10
HETATM   10  C3  UNL     1       6.313  -7.017   8.338  1.00  0.00     0.059 C 
BRANCH  10  11
HETATM   11  C2  UNL     1       5.028  -6.450   8.698  1.00  0.00     0.001 C 
HETATM   12  C1  UNL     1       3.888  -7.000   8.992  1.00  0.00     0.012 C 
ENDBRANCH  10  11
ENDBRANCH   1  10
BRANCH   5  13
HETATM   13  O1  UNL     1      10.757  -8.472  11.795  1.00  0.00    -0.395 OA
ATOM     14  H1  UNL     1      11.489  -8.947  11.417  1.00  0.00     0.210 HD
ENDBRANCH   5  13
TORSDOF 3
ENDMDL
MODEL 4
REMARK VINA RESULT: -5.286471366      1.813      4.636
REMARK  3 active torsions:
REMARK  status: ('A' for Active; 'I' for Inactive)
REMARK    1  A    between atoms: C2_2  and  C3_3 
REMARK    2  A    between atoms: C3_3  and  N1_4 
REMARK    3  A    between atoms: C7_8  and  O1_9 
ROOT
HETATM    1  N1  UNL     1       9.796  -7.760   9.867  1.00  0.00    -0.284 NA
HETATM    2  C4  UNL     1       9.122  -8.460  10.978  1.00  0.00     0.127 C 
HETATM    3  C5  UNL     1       7.906  -9.205  10.606  1.00  0.00     0.137 C 
HETATM    4  C6  UNL     1       6.699  -8.359  11.038  1.00  0.00     0.065 C 
HETATM    5  C7  UNL     1       6.439  -7.377   9.917  1.00  0.00     0.122 C 
HETATM    6  C8  UNL     1       7.707  -6.630   9.666  1.00  0.00     0.054 C 
HETATM    7  C9  UNL     1       8.759  -7.438   8.931  1.00  0.00     0.088 C 
HETATM    8  C10 UNL     1       8.197  -8.728   8.366  1.00  0.00     0.188 C 
HETATM    9  O2  UNL     1       7.808  -9.627   9.317  1.00  0.00    -0.383 OA
ENDROOT
BRANCH   1  10
HETATM   10  C3  UNL     1      10.796  -8.648   9.432  1.00  0.00     0.059 C 
BRANCH  10  11
HETATM   11  C2  UNL     1      12.167  -8.511   9.883  1.00  0.00     0.001 C 
HETATM   12  C1  UNL     1      12.761  -8.877  10.980  1.00  0.00     0.012 C 
ENDBRANCH  10  11
ENDBRANCH   1  10
BRANCH   5  13
HETATM   13  O1  UNL     1       5.509  -6.429  10.403  1.00  0.00    -0.395 OA
ATOM     14  H1  UNL     1       6.003  -5.654  10.648  1.00  0.00     0.210 HD
ENDBRANCH   5  13
TORSDOF 3
ENDMDL
MODEL 5
REMARK VINA RESULT: -5.177686316      1.280      2.002
REMARK  3 active torsions:
REMARK  status: ('A' for Active; 'I' for Inactive)
REMARK    1  A    between atoms: C2_2  and  C3_3 
REMARK    2  A    between atoms: C3_3  and  N1_4 
REMARK    3  A    between atoms: C7_8  and  O1_9 
ROOT
HETATM    1  N1  UNL     1       6.731  -8.051   9.159  1.00  0.00    -0.284 NA
HETATM    2  C4  UNL     1       7.277  -9.167   9.955  1.00  0.00     0.127 C 
HETATM    3  C5  UNL     1       8.357  -8.803  10.889  1.00  0.00     0.137 C 
HETATM    4  C6  UNL     1       9.684  -9.238  10.250  1.00  0.00     0.065 C 
HETATM    5  C7  UNL     1      10.105  -8.116   9.327  1.00  0.00     0.122 C 
HETATM    6  C8  UNL     1       8.977  -7.857   8.384  1.00  0.00     0.054 C 
HETATM    7  C9  UNL     1       7.810  -7.119   9.013  1.00  0.00     0.088 C 
HETATM    8  C10 UNL     1       8.158  -6.560  10.378  1.00  0.00     0.188 C 
HETATM    9  O2  UNL     1       8.390  -7.515  11.326  1.00  0.00    -0.383 OA
ENDROOT
BRANCH   1  10
HETATM   10  C3  UNL     1       5.601  -7.614   9.873  1.00  0.00     0.059 C 
BRANCH  10  11
HETATM   11  C2  UNL     1       4.656  -6.685   9.286  1.00  0.00     0.001 C 
HETATM   12  C1  UNL     1       3.611  -6.868   8.535  1.00  0.00     0.012 C 
ENDBRANCH  10  11
ENDBRANCH   1  10
BRANCH   5  13
HETATM   13  O1  UNL     1      11.175  -8.604   8.541  1.00  0.00    -0.395 OA
ATOM     14  H1  UNL     1      10.828  -8.775   7.673  1.00  0.00     0.210 HD
ENDBRANCH   5  13
TORSDOF 3
ENDMDL
