MODEL 1
REMARK VINA RESULT: -6.170728042      0.000      0.000
REMARK  3 active torsions:
REMARK  status: ('A' for Active; 'I' for Inactive)
REMARK    1  A    between atoms: C2_2  and  C3_3 
REMARK    2  A    between atoms: C3_3  and  N1_4 
REMARK    3  A    between atoms: N1_4  and  C4_7 
ROOT
HETATM    1  C4  UNL     1       2.164  -5.125   5.545  1.00  0.00     0.245 C 
HETATM    2  C5  UNL     1       2.999  -3.993   4.919  1.00  0.00     0.290 C 
HETATM    3  O1  UNL     1       2.338  -2.773   5.084  1.00  0.00    -0.359 OA
HETATM    4  C6  UNL     1       1.427  -2.540   4.104  1.00  0.00     0.172 C 
HETATM    5  C7  UNL     1       0.533  -3.693   3.754  1.00  0.00     0.038 C 
HETATM    6  C8  UNL     1       1.179  -4.941   3.377  1.00  0.00    -0.011 A 
HETATM    7  C9  UNL     1       2.426  -4.610   2.712  1.00  0.00     0.181 C 
HETATM    8  O2  UNL     1       3.376  -4.255   3.633  1.00  0.00    -0.358 OA
HETATM    9  C10 UNL     1       0.471  -6.136   3.731  1.00  0.00     0.020 A 
HETATM   10  C11 UNL     1       1.659  -5.922   4.469  1.00  0.00     0.033 A 
ENDROOT
BRANCH   1  11
HETATM   11  N1  UNL     1       1.349  -4.716   6.634  1.00  0.00    -0.063 N 
ATOM     12  H12 UNL     1       0.361  -4.745   6.384  1.00  0.00     0.278 HD
ATOM     13  H11 UNL     1       1.443  -3.716   6.809  1.00  0.00     0.278 HD
BRANCH  11  14
HETATM   14  C3  UNL     1       1.610  -5.495   7.855  1.00  0.00     0.259 C 
BRANCH  14  15
HETATM   15  C2  UNL     1       3.060  -5.735   8.031  1.00  0.00    -0.010 C 
HETATM   16  C1  UNL     1       3.512  -6.826   8.615  1.00  0.00     0.008 C 
ENDBRANCH  14  15
ENDBRANCH  11  14
ENDBRANCH   1  11
TORSDOF 3
ENDMDL
MODEL 2
REMARK VINA RESULT: -5.889077691      2.076      3.012
REMARK  3 active torsions:
REMARK  status: ('A' for Active; 'I' for Inactive)
REMARK    1  A    between atoms: C2_2  and  C3_3 
REMARK    2  A    between atoms: C3_3  and  N1_4 
REMARK    3  A    between atoms: N1_4  and  C4_7 
ROOT
HETATM    1  C4  UNL     1       2.614  -4.944   5.942  1.00  0.00     0.245 C 
HETATM    2  C5  UNL     1       1.375  -5.833   6.146  1.00  0.00     0.290 C 
HETATM    3  O1  UNL     1       1.602  -7.094   5.590  1.00  0.00    -0.359 OA
HETATM    4  C6  UNL     1       1.319  -7.134   4.262  1.00  0.00     0.172 C 
HETATM    5  C7  UNL     1       1.839  -5.988   3.447  1.00  0.00     0.038 C 
HETATM    6  C8  UNL     1       1.462  -4.649   3.871  1.00  0.00    -0.011 A 
HETATM    7  C9  UNL     1       0.139  -4.729   4.463  1.00  0.00     0.181 C 
HETATM    8  O2  UNL     1       0.217  -5.239   5.731  1.00  0.00    -0.358 OA
HETATM    9  C10 UNL     1       2.431  -3.623   3.618  1.00  0.00     0.020 A 
HETATM   10  C11 UNL     1       2.260  -3.939   4.986  1.00  0.00     0.033 A 
ENDROOT
BRANCH   1  11
HETATM   11  N1  UNL     1       3.841  -5.657   5.874  1.00  0.00    -0.063 N 
ATOM     12  H12 UNL     1       4.552  -5.118   5.381  1.00  0.00     0.278 HD
ATOM     13  H11 UNL     1       3.769  -6.452   5.238  1.00  0.00     0.278 HD
BRANCH  11  14
HETATM   14  C3  UNL     1       4.319  -6.079   7.199  1.00  0.00     0.259 C 
BRANCH  14  15
HETATM   15  C2  UNL     1       5.649  -6.721   7.104  1.00  0.00    -0.010 C 
HETATM   16  C1  UNL     1       6.349  -7.018   8.180  1.00  0.00     0.008 C 
ENDBRANCH  14  15
ENDBRANCH  11  14
ENDBRANCH   1  11
TORSDOF 3
ENDMDL
MODEL 3
REMARK VINA RESULT: -5.601116935      7.755      9.752
REMARK  3 active torsions:
REMARK  status: ('A' for Active; 'I' for Inactive)
REMARK    1  A    between atoms: C2_2  and  C3_3 
REMARK    2  A    between atoms: C3_3  and  N1_4 
REMARK    3  A    between atoms: N1_4  and  C4_7 
ROOT
HETATM    1  C4  UNL     1       9.424  -9.056   8.834  1.00  0.00     0.245 C 
HETATM    2  C5  UNL     1       7.893  -8.975   8.699  1.00  0.00     0.290 C 
HETATM    3  O1  UNL     1       7.516  -7.668   8.379  1.00  0.00    -0.359 OA
HETATM    4  C6  UNL     1       7.385  -6.882   9.479  1.00  0.00     0.172 C 
HETATM    5  C7  UNL     1       8.486  -6.985  10.492  1.00  0.00     0.038 C 
HETATM    6  C8  UNL     1       8.787  -8.311  11.011  1.00  0.00    -0.011 A 
HETATM    7  C9  UNL     1       7.548  -9.068  11.034  1.00  0.00     0.181 C 
HETATM    8  O2  UNL     1       7.233  -9.500   9.773  1.00  0.00    -0.358 OA
HETATM    9  C10 UNL     1      10.157  -8.544  11.359  1.00  0.00     0.020 A 
HETATM   10  C11 UNL     1       9.716  -9.258  10.221  1.00  0.00     0.033 A 
ENDROOT
BRANCH   1  11
HETATM   11  N1  UNL     1      10.131  -8.116   8.038  1.00  0.00    -0.063 N 
ATOM     12  H12 UNL     1      10.951  -7.762   8.530  1.00  0.00     0.278 HD
ATOM     13  H11 UNL     1       9.608  -7.245   7.946  1.00  0.00     0.278 HD
BRANCH  11  14
HETATM   14  C3  UNL     1      10.496  -8.658   6.719  1.00  0.00     0.259 C 
BRANCH  14  15
HETATM   15  C2  UNL     1      10.700 -10.122   6.785  1.00  0.00    -0.010 C 
HETATM   16  C1  UNL     1      10.588 -10.882   5.715  1.00  0.00     0.008 C 
ENDBRANCH  14  15
ENDBRANCH  11  14
ENDBRANCH   1  11
TORSDOF 3
ENDMDL
MODEL 4
REMARK VINA RESULT: -5.448070227      2.237      4.405
REMARK  3 active torsions:
REMARK  status: ('A' for Active; 'I' for Inactive)
REMARK    1  A    between atoms: C2_2  and  C3_3 
REMARK    2  A    between atoms: C3_3  and  N1_4 
REMARK    3  A    between atoms: N1_4  and  C4_7 
ROOT
HETATM    1  C4  UNL     1       1.285  -6.473   4.210  1.00  0.00     0.245 C 
HETATM    2  C5  UNL     1       0.547  -5.181   4.604  1.00  0.00     0.290 C 
HETATM    3  O1  UNL     1       1.260  -4.072   4.144  1.00  0.00    -0.359 OA
HETATM    4  C6  UNL     1       2.236  -3.688   5.007  1.00  0.00     0.172 C 
HETATM    5  C7  UNL     1       3.086  -4.789   5.565  1.00  0.00     0.038 C 
HETATM    6  C8  UNL     1       2.399  -5.881   6.237  1.00  0.00    -0.011 A 
HETATM    7  C9  UNL     1       1.210  -5.334   6.867  1.00  0.00     0.181 C 
HETATM    8  O2  UNL     1       0.229  -5.131   5.931  1.00  0.00    -0.358 OA
HETATM    9  C10 UNL     1       3.022  -7.167   6.128  1.00  0.00     0.020 A 
HETATM   10  C11 UNL     1       1.807  -7.045   5.414  1.00  0.00     0.033 A 
ENDROOT
BRANCH   1  11
HETATM   11  N1  UNL     1       2.058  -6.366   3.023  1.00  0.00    -0.063 N 
ATOM     12  H12 UNL     1       3.054  -6.317   3.236  1.00  0.00     0.278 HD
ATOM     13  H11 UNL     1       1.939  -5.451   2.589  1.00  0.00     0.278 HD
BRANCH  11  14
HETATM   14  C3  UNL     1       1.773  -7.447   2.067  1.00  0.00     0.259 C 
BRANCH  14  15
HETATM   15  C2  UNL     1       0.340  -7.464   1.696  1.00  0.00    -0.010 C 
HETATM   16  C1  UNL     1      -0.124  -8.283   0.774  1.00  0.00     0.008 C 
ENDBRANCH  14  15
ENDBRANCH  11  14
ENDBRANCH   1  11
TORSDOF 3
ENDMDL
MODEL 5
REMARK VINA RESULT: -5.431463869      2.471      4.015
REMARK  3 active torsions:
REMARK  status: ('A' for Active; 'I' for Inactive)
REMARK    1  A    between atoms: C2_2  and  C3_3 
REMARK    2  A    between atoms: C3_3  and  N1_4 
REMARK    3  A    between atoms: N1_4  and  C4_7 
ROOT
HETATM    1  C4  UNL     1       1.345  -6.775   4.560  1.00  0.00     0.245 C 
HETATM    2  C5  UNL     1       0.575  -5.458   4.766  1.00  0.00     0.290 C 
HETATM    3  O1  UNL     1       1.199  -4.430   4.055  1.00  0.00    -0.359 OA
HETATM    4  C6  UNL     1       2.215  -3.858   4.752  1.00  0.00     0.172 C 
HETATM    5  C7  UNL     1       3.155  -4.806   5.434  1.00  0.00     0.038 C 
HETATM    6  C8  UNL     1       2.571  -5.775   6.348  1.00  0.00    -0.011 A 
HETATM    7  C9  UNL     1       1.405  -5.161   6.958  1.00  0.00     0.181 C 
HETATM    8  O2  UNL     1       0.352  -5.171   6.083  1.00  0.00    -0.358 OA
HETATM    9  C10 UNL     1       3.247  -7.037   6.429  1.00  0.00     0.020 A 
HETATM   10  C11 UNL     1       1.980  -7.093   5.803  1.00  0.00     0.033 A 
ENDROOT
BRANCH   1  11
HETATM   11  N1  UNL     1       2.025  -6.865   3.315  1.00  0.00    -0.063 N 
ATOM     12  H12 UNL     1       3.035  -6.822   3.445  1.00  0.00     0.278 HD
ATOM     13  H11 UNL     1       1.895  -6.017   2.764  1.00  0.00     0.278 HD
BRANCH  11  14
HETATM   14  C3  UNL     1       1.639  -8.061   2.550  1.00  0.00     0.259 C 
BRANCH  14  15
HETATM   15  C2  UNL     1       2.589  -9.170   2.784  1.00  0.00    -0.010 C 
HETATM   16  C1  UNL     1       2.287 -10.182   3.572  1.00  0.00     0.008 C 
ENDBRANCH  14  15
ENDBRANCH  11  14
ENDBRANCH   1  11
TORSDOF 3
ENDMDL
