MODEL 1
REMARK VINA RESULT: -6.861228339      0.000      0.000
REMARK  6 active torsions:
REMARK  status: ('A' for Active; 'I' for Inactive)
REMARK    1  A    between atoms: O1_2  and  C2_3 
REMARK    2  A    between atoms: C2_3  and  C3_4 
REMARK    3  A    between atoms: C2_3  and  C13_16 
REMARK    4  A    between atoms: C2_3  and  C14_20 
REMARK    5  A    between atoms: C4_5  and  C5_6 
REMARK    6  A    between atoms: C5_6  and  O2_7 
ROOT
HETATM    1  C3  UNL     1      26.125  24.469  15.122  1.00  0.00    -0.046 C 
HETATM    2  C4  UNL     1      25.323  23.974  15.851  1.00  0.00    -0.064 C 
ENDROOT
BRANCH   1   3
HETATM    3  C2  UNL     1      27.109  25.103  14.198  1.00  0.00     0.320 C 
BRANCH   3   4
HETATM    4  O1  UNL     1      28.304  24.563  14.435  1.00  0.00    -0.357 OA
HETATM    5  C1  UNL     1      28.704  24.035  15.588  1.00  0.00     0.204 C 
ENDBRANCH   3   4
BRANCH   3   6
HETATM    6  C13 UNL     1      26.632  24.828  12.752  1.00  0.00     0.439 C 
HETATM    7  F1  UNL     1      26.325  23.459  12.743  1.00  0.00    -0.166 F 
HETATM    8  F2  UNL     1      27.597  25.165  11.866  1.00  0.00    -0.166 F 
HETATM    9  F3  UNL     1      25.423  25.465  12.581  1.00  0.00    -0.166 F 
ENDBRANCH   3   6
BRANCH   3  10
HETATM   10  C14 UNL     1      27.089  26.592  14.363  1.00  0.00     0.439 C 
HETATM   11  F4  UNL     1      26.130  27.238  13.620  1.00  0.00    -0.166 F 
HETATM   12  F5  UNL     1      28.306  27.090  13.909  1.00  0.00    -0.166 F 
HETATM   13  F6  UNL     1      26.872  26.964  15.680  1.00  0.00    -0.166 F 
ENDBRANCH   3  10
ENDBRANCH   1   3
BRANCH   2  14
HETATM   14  C5  UNL     1      24.328  23.392  16.746  1.00  0.00     0.130 C 
HETATM   15  C6  UNL     1      24.878  22.029  17.289  1.00  0.00     0.131 C 
HETATM   16  C7  UNL     1      23.734  21.348  17.730  1.00  0.00    -0.179 C 
HETATM   17  C8  UNL     1      22.866  20.350  18.202  1.00  0.00     0.080 C 
HETATM   18  C9  UNL     1      21.442  20.985  18.064  1.00  0.00     0.011 C 
HETATM   19  C10 UNL     1      21.212  21.799  16.865  1.00  0.00     0.001 C 
HETATM   20  C11 UNL     1      21.725  23.232  16.790  1.00  0.00     0.004 C 
HETATM   21  C12 UNL     1      23.042  23.333  16.045  1.00  0.00     0.052 C 
BRANCH  14  22
HETATM   22  O2  UNL     1      24.158  24.179  17.895  1.00  0.00    -0.377 OA
ATOM     23  H2  UNL     1      23.906  23.647  18.641  1.00  0.00     0.211 HD
ENDBRANCH  14  22
ENDBRANCH   2  14
TORSDOF 6
ENDMDL
MODEL 2
REMARK VINA RESULT: -6.748255933      4.233      6.423
REMARK  6 active torsions:
REMARK  status: ('A' for Active; 'I' for Inactive)
REMARK    1  A    between atoms: O1_2  and  C2_3 
REMARK    2  A    between atoms: C2_3  and  C3_4 
REMARK    3  A    between atoms: C2_3  and  C13_16 
REMARK    4  A    between atoms: C2_3  and  C14_20 
REMARK    5  A    between atoms: C4_5  and  C5_6 
REMARK    6  A    between atoms: C5_6  and  O2_7 
ROOT
HETATM    1  C3  UNL     1      27.351  21.995  17.338  1.00  0.00    -0.046 C 
HETATM    2  C4  UNL     1      26.918  22.726  16.502  1.00  0.00    -0.064 C 
ENDROOT
BRANCH   1   3
HETATM    3  C2  UNL     1      27.899  21.062  18.363  1.00  0.00     0.320 C 
BRANCH   3   4
HETATM    4  O1  UNL     1      27.210  19.923  18.295  1.00  0.00    -0.357 OA
HETATM    5  C1  UNL     1      26.174  19.688  17.494  1.00  0.00     0.204 C 
ENDBRANCH   3   4
BRANCH   3   6
HETATM    6  C13 UNL     1      29.397  20.844  18.040  1.00  0.00     0.439 C 
HETATM    7  F1  UNL     1      29.450  19.551  17.499  1.00  0.00    -0.166 F 
HETATM    8  F2  UNL     1      30.145  20.988  19.157  1.00  0.00    -0.166 F 
HETATM    9  F3  UNL     1      29.726  21.680  16.996  1.00  0.00    -0.166 F 
ENDBRANCH   3   6
BRANCH   3  10
HETATM   10  C14 UNL     1      27.858  21.699  19.718  1.00  0.00     0.439 C 
HETATM   11  F4  UNL     1      28.783  22.697  19.911  1.00  0.00    -0.166 F 
HETATM   12  F5  UNL     1      28.164  20.722  20.661  1.00  0.00    -0.166 F 
HETATM   13  F6  UNL     1      26.621  22.262  19.988  1.00  0.00    -0.166 F 
ENDBRANCH   3  10
ENDBRANCH   1   3
BRANCH   2  14
HETATM   14  C5  UNL     1      26.406  23.613  15.463  1.00  0.00     0.130 C 
HETATM   15  C6  UNL     1      25.402  22.811  14.567  1.00  0.00     0.131 C 
HETATM   16  C7  UNL     1      25.331  23.553  13.379  1.00  0.00    -0.179 C 
HETATM   17  C8  UNL     1      25.051  23.953  12.063  1.00  0.00     0.080 C 
HETATM   18  C9  UNL     1      25.896  25.256  11.871  1.00  0.00     0.011 C 
HETATM   19  C10 UNL     1      27.230  25.257  12.483  1.00  0.00     0.001 C 
HETATM   20  C11 UNL     1      27.399  25.512  13.976  1.00  0.00     0.004 C 
HETATM   21  C12 UNL     1      27.541  24.226  14.766  1.00  0.00     0.052 C 
BRANCH  14  22
HETATM   22  O2  UNL     1      25.630  24.645  16.014  1.00  0.00    -0.377 OA
ATOM     23  H2  UNL     1      26.170  25.389  16.255  1.00  0.00     0.211 HD
ENDBRANCH  14  22
ENDBRANCH   2  14
TORSDOF 6
ENDMDL
MODEL 3
REMARK VINA RESULT: -6.624179397      2.886      4.825
REMARK  6 active torsions:
REMARK  status: ('A' for Active; 'I' for Inactive)
REMARK    1  A    between atoms: O1_2  and  C2_3 
REMARK    2  A    between atoms: C2_3  and  C3_4 
REMARK    3  A    between atoms: C2_3  and  C13_16 
REMARK    4  A    between atoms: C2_3  and  C14_20 
REMARK    5  A    between atoms: C4_5  and  C5_6 
REMARK    6  A    between atoms: C5_6  and  O2_7 
ROOT
HETATM    1  C3  UNL     1      25.904  23.322  15.703  1.00  0.00    -0.046 C 
HETATM    2  C4  UNL     1      26.361  22.570  16.507  1.00  0.00    -0.064 C 
ENDROOT
BRANCH   1   3
HETATM    3  C2  UNL     1      25.322  24.278  14.718  1.00  0.00     0.320 C 
BRANCH   3   4
HETATM    4  O1  UNL     1      24.075  24.555  15.100  1.00  0.00    -0.357 OA
HETATM    5  C1  UNL     1      23.305  23.781  15.859  1.00  0.00     0.204 C 
ENDBRANCH   3   4
BRANCH   3   6
HETATM    6  C13 UNL     1      26.214  25.542  14.714  1.00  0.00     0.439 C 
HETATM    7  F1  UNL     1      26.104  26.048  16.019  1.00  0.00    -0.166 F 
HETATM    8  F2  UNL     1      25.795  26.411  13.766  1.00  0.00    -0.166 F 
HETATM    9  F3  UNL     1      27.524  25.131  14.602  1.00  0.00    -0.166 F 
ENDBRANCH   3   6
BRANCH   3  10
HETATM   10  C14 UNL     1      25.405  23.710  13.335  1.00  0.00     0.439 C 
HETATM   11  F4  UNL     1      26.460  24.175  12.586  1.00  0.00    -0.166 F 
HETATM   12  F5  UNL     1      24.261  24.096  12.643  1.00  0.00    -0.166 F 
HETATM   13  F6  UNL     1      25.521  22.329  13.347  1.00  0.00    -0.166 F 
ENDBRANCH   3  10
ENDBRANCH   1   3
BRANCH   2  14
HETATM   14  C5  UNL     1      26.926  21.670  17.508  1.00  0.00     0.130 C 
HETATM   15  C6  UNL     1      26.554  22.206  18.932  1.00  0.00     0.131 C 
HETATM   16  C7  UNL     1      27.484  21.593  19.784  1.00  0.00    -0.179 C 
HETATM   17  C8  UNL     1      28.248  21.251  20.912  1.00  0.00     0.080 C 
HETATM   18  C9  UNL     1      29.351  20.294  20.350  1.00  0.00     0.011 C 
HETATM   19  C10 UNL     1      29.904  20.646  19.038  1.00  0.00     0.001 C 
HETATM   20  C11 UNL     1      29.141  20.316  17.760  1.00  0.00     0.004 C 
HETATM   21  C12 UNL     1      28.357  21.504  17.236  1.00  0.00     0.052 C 
BRANCH  14  22
HETATM   22  O2  UNL     1      26.325  20.403  17.446  1.00  0.00    -0.377 OA
ATOM     23  H2  UNL     1      26.038  20.203  16.563  1.00  0.00     0.211 HD
ENDBRANCH  14  22
ENDBRANCH   2  14
TORSDOF 6
ENDMDL
MODEL 4
REMARK VINA RESULT: -6.402776716      4.667      6.609
REMARK  6 active torsions:
REMARK  status: ('A' for Active; 'I' for Inactive)
REMARK    1  A    between atoms: O1_2  and  C2_3 
REMARK    2  A    between atoms: C2_3  and  C3_4 
REMARK    3  A    between atoms: C2_3  and  C13_16 
REMARK    4  A    between atoms: C2_3  and  C14_20 
REMARK    5  A    between atoms: C4_5  and  C5_6 
REMARK    6  A    between atoms: C5_6  and  O2_7 
ROOT
HETATM    1  C3  UNL     1      27.976  22.408  17.377  1.00  0.00    -0.046 C 
HETATM    2  C4  UNL     1      27.428  23.025  16.518  1.00  0.00    -0.064 C 
ENDROOT
BRANCH   1   3
HETATM    3  C2  UNL     1      28.636  21.628  18.462  1.00  0.00     0.320 C 
BRANCH   3   4
HETATM    4  O1  UNL     1      29.674  22.336  18.906  1.00  0.00    -0.357 OA
HETATM    5  C1  UNL     1      30.291  22.165  20.071  1.00  0.00     0.204 C 
ENDBRANCH   3   4
BRANCH   3   6
HETATM    6  C13 UNL     1      27.585  21.395  19.574  1.00  0.00     0.439 C 
HETATM    7  F1  UNL     1      27.517  22.624  20.248  1.00  0.00    -0.166 F 
HETATM    8  F2  UNL     1      27.961  20.368  20.370  1.00  0.00    -0.166 F 
HETATM    9  F3  UNL     1      26.357  21.254  18.966  1.00  0.00    -0.166 F 
ENDBRANCH   3   6
BRANCH   3  10
HETATM   10  C14 UNL     1      29.018  20.268  17.964  1.00  0.00     0.439 C 
HETATM   11  F4  UNL     1      29.819  20.270  16.847  1.00  0.00    -0.166 F 
HETATM   12  F5  UNL     1      27.853  19.608  17.583  1.00  0.00    -0.166 F 
HETATM   13  F6  UNL     1      29.697  19.536  18.925  1.00  0.00    -0.166 F 
ENDBRANCH   3  10
ENDBRANCH   1   3
BRANCH   2  14
HETATM   14  C5  UNL     1      26.738  23.763  15.464  1.00  0.00     0.130 C 
HETATM   15  C6  UNL     1      25.720  22.801  14.761  1.00  0.00     0.131 C 
HETATM   16  C7  UNL     1      25.465  23.414  13.526  1.00  0.00    -0.179 C 
HETATM   17  C8  UNL     1      25.018  23.658  12.217  1.00  0.00     0.080 C 
HETATM   18  C9  UNL     1      25.724  24.996  11.816  1.00  0.00     0.011 C 
HETATM   19  C10 UNL     1      27.108  25.159  12.275  1.00  0.00     0.001 C 
HETATM   20  C11 UNL     1      27.406  25.575  13.710  1.00  0.00     0.004 C 
HETATM   21  C12 UNL     1      27.739  24.388  14.594  1.00  0.00     0.052 C 
BRANCH  14  22
HETATM   22  O2  UNL     1      25.936  24.783  16.002  1.00  0.00    -0.377 OA
ATOM     23  H2  UNL     1      25.014  24.599  15.869  1.00  0.00     0.211 HD
ENDBRANCH  14  22
ENDBRANCH   2  14
TORSDOF 6
ENDMDL
MODEL 5
REMARK VINA RESULT: -6.395431299      4.254      6.327
REMARK  6 active torsions:
REMARK  status: ('A' for Active; 'I' for Inactive)
REMARK    1  A    between atoms: O1_2  and  C2_3 
REMARK    2  A    between atoms: C2_3  and  C3_4 
REMARK    3  A    between atoms: C2_3  and  C13_16 
REMARK    4  A    between atoms: C2_3  and  C14_20 
REMARK    5  A    between atoms: C4_5  and  C5_6 
REMARK    6  A    between atoms: C5_6  and  O2_7 
ROOT
HETATM    1  C3  UNL     1      27.442  22.335  17.427  1.00  0.00    -0.046 C 
HETATM    2  C4  UNL     1      27.008  22.958  16.509  1.00  0.00    -0.064 C 
ENDROOT
BRANCH   1   3
HETATM    3  C2  UNL     1      27.975  21.573  18.592  1.00  0.00     0.320 C 
BRANCH   3   4
HETATM    4  O1  UNL     1      27.128  21.728  19.609  1.00  0.00    -0.357 OA
HETATM    5  C1  UNL     1      25.961  22.362  19.558  1.00  0.00     0.204 C 
ENDBRANCH   3   4
BRANCH   3   6
HETATM    6  C13 UNL     1      28.090  20.090  18.164  1.00  0.00     0.439 C 
HETATM    7  F1  UNL     1      28.080  19.378  19.373  1.00  0.00    -0.166 F 
HETATM    8  F2  UNL     1      29.215  19.895  17.438  1.00  0.00    -0.166 F 
HETATM    9  F3  UNL     1      26.914  19.742  17.537  1.00  0.00    -0.166 F 
ENDBRANCH   3   6
BRANCH   3  10
HETATM   10  C14 UNL     1      29.369  22.019  18.910  1.00  0.00     0.439 C 
HETATM   11  F4  UNL     1      29.459  22.941  19.926  1.00  0.00    -0.166 F 
HETATM   12  F5  UNL     1      29.882  22.658  17.785  1.00  0.00    -0.166 F 
HETATM   13  F6  UNL     1      30.182  20.959  19.278  1.00  0.00    -0.166 F 
ENDBRANCH   3  10
ENDBRANCH   1   3
BRANCH   2  14
HETATM   14  C5  UNL     1      26.453  23.728  15.400  1.00  0.00     0.130 C 
HETATM   15  C6  UNL     1      25.524  22.792  14.555  1.00  0.00     0.131 C 
HETATM   16  C7  UNL     1      25.422  23.437  13.314  1.00  0.00    -0.179 C 
HETATM   17  C8  UNL     1      25.137  23.718  11.968  1.00  0.00     0.080 C 
HETATM   18  C9  UNL     1      25.892  25.061  11.690  1.00  0.00     0.011 C 
HETATM   19  C10 UNL     1      27.211  25.202  12.316  1.00  0.00     0.001 C 
HETATM   20  C11 UNL     1      27.336  25.578  13.788  1.00  0.00     0.004 C 
HETATM   21  C12 UNL     1      27.554  24.367  14.674  1.00  0.00     0.052 C 
BRANCH  14  22
HETATM   22  O2  UNL     1      25.597  24.739  15.863  1.00  0.00    -0.377 OA
ATOM     23  H2  UNL     1      24.748  24.690  15.439  1.00  0.00     0.211 HD
ENDBRANCH  14  22
ENDBRANCH   2  14
TORSDOF 6
ENDMDL
