MODEL 1
REMARK VINA RESULT: -6.238845640      0.000      0.000
REMARK  3 active torsions:
REMARK  status: ('A' for Active; 'I' for Inactive)
REMARK    1  A    between atoms: C3_5  and  N2_6 
REMARK    2  A    between atoms: N2_6  and  C4_8 
REMARK    3  A    between atoms: C4_8  and  C6_10 
ROOT
HETATM    1  C1  UNL     1      26.002  21.361  17.846  1.00  0.00     0.070 C 
HETATM    2  C2  UNL     1      26.943  22.304  17.099  1.00  0.00     0.036 A 
HETATM    3  N1  UNL     1      26.527  23.234  16.264  1.00  0.00    -0.339 N 
ATOM      4  H1  UNL     1      25.531  23.360  16.081  1.00  0.00     0.168 HD
HETATM    5  C3  UNL     1      27.429  24.004  15.664  1.00  0.00     0.146 A 
HETATM    6  S1  UNL     1      28.916  23.410  16.286  1.00  0.00    -0.040 SA
HETATM    7  C7  UNL     1      28.290  22.188  17.297  1.00  0.00     0.100 A 
HETATM    8 CL4  UNL     1      29.152  21.048  18.345  1.00  0.00    -0.074 Cl
ENDROOT
BRANCH   5   9
HETATM    9  N2  UNL     1      27.245  24.984  14.803  1.00  0.00    -0.362 N 
ATOM     10  H2  UNL     1      27.146  25.953  15.105  1.00  0.00     0.162 HD
BRANCH   9  11
HETATM   11  C4  UNL     1      27.190  24.609  13.411  1.00  0.00     0.134 C 
HETATM   12  C5  UNL     1      27.759  25.693  12.521  1.00  0.00     0.036 C 
BRANCH  11  13
HETATM   13  C6  UNL     1      25.756  24.377  12.953  1.00  0.00     0.208 C 
HETATM   14 CL1  UNL     1      25.677  24.865  11.244  1.00  0.00    -0.082 Cl
HETATM   15 CL2  UNL     1      24.686  25.459  13.868  1.00  0.00    -0.082 Cl
HETATM   16 CL3  UNL     1      25.309  22.676  13.167  1.00  0.00    -0.082 Cl
ENDBRANCH  11  13
ENDBRANCH   9  11
ENDBRANCH   5   9
TORSDOF 3
ENDMDL
MODEL 2
REMARK VINA RESULT: -6.209546545      0.065      1.350
REMARK  3 active torsions:
REMARK  status: ('A' for Active; 'I' for Inactive)
REMARK    1  A    between atoms: C3_5  and  N2_6 
REMARK    2  A    between atoms: N2_6  and  C4_8 
REMARK    3  A    between atoms: C4_8  and  C6_10 
ROOT
HETATM    1  C1  UNL     1      25.982  21.349  17.863  1.00  0.00     0.070 C 
HETATM    2  C2  UNL     1      26.902  22.299  17.100  1.00  0.00     0.036 A 
HETATM    3  N1  UNL     1      26.464  23.227  16.273  1.00  0.00    -0.339 N 
ATOM      4  H1  UNL     1      25.465  23.346  16.108  1.00  0.00     0.168 HD
HETATM    5  C3  UNL     1      27.349  24.004  15.657  1.00  0.00     0.146 A 
HETATM    6  S1  UNL     1      28.852  23.421  16.252  1.00  0.00    -0.040 SA
HETATM    7  C7  UNL     1      28.254  22.194  17.274  1.00  0.00     0.100 A 
HETATM    8 CL4  UNL     1      29.142  21.059  18.306  1.00  0.00    -0.074 Cl
ENDROOT
BRANCH   5   9
HETATM    9  N2  UNL     1      27.143  24.982  14.801  1.00  0.00    -0.362 N 
ATOM     10  H2  UNL     1      26.978  25.941  15.108  1.00  0.00     0.162 HD
BRANCH   9  11
HETATM   11  C4  UNL     1      27.161  24.623  13.403  1.00  0.00     0.134 C 
HETATM   12  C5  UNL     1      27.786  25.712  12.557  1.00  0.00     0.036 C 
BRANCH  11  13
HETATM   13  C6  UNL     1      25.753  24.407  12.866  1.00  0.00     0.208 C 
HETATM   14 CL1  UNL     1      24.668  25.417  13.850  1.00  0.00    -0.082 Cl
HETATM   15 CL2  UNL     1      25.296  22.712  13.136  1.00  0.00    -0.082 Cl
HETATM   16 CL3  UNL     1      25.674  24.844  11.150  1.00  0.00    -0.082 Cl
ENDBRANCH  11  13
ENDBRANCH   9  11
ENDBRANCH   5   9
TORSDOF 3
ENDMDL
MODEL 3
REMARK VINA RESULT: -6.205995474      0.107      1.357
REMARK  3 active torsions:
REMARK  status: ('A' for Active; 'I' for Inactive)
REMARK    1  A    between atoms: C3_5  and  N2_6 
REMARK    2  A    between atoms: N2_6  and  C4_8 
REMARK    3  A    between atoms: C4_8  and  C6_10 
ROOT
HETATM    1  C1  UNL     1      26.000  21.432  17.906  1.00  0.00     0.070 C 
HETATM    2  C2  UNL     1      26.946  22.343  17.126  1.00  0.00     0.036 A 
HETATM    3  N1  UNL     1      26.533  23.266  16.281  1.00  0.00    -0.339 N 
ATOM      4  H1  UNL     1      25.537  23.409  16.114  1.00  0.00     0.168 HD
HETATM    5  C3  UNL     1      27.439  24.007  15.652  1.00  0.00     0.146 A 
HETATM    6  S1  UNL     1      28.925  23.395  16.258  1.00  0.00    -0.040 SA
HETATM    7  C7  UNL     1      28.294  22.204  17.302  1.00  0.00     0.100 A 
HETATM    8 CL4  UNL     1      29.151  21.065  18.355  1.00  0.00    -0.074 Cl
ENDROOT
BRANCH   5   9
HETATM    9  N2  UNL     1      27.259  24.975  14.777  1.00  0.00    -0.362 N 
ATOM     10  H2  UNL     1      27.211  25.953  15.060  1.00  0.00     0.162 HD
BRANCH   9  11
HETATM   11  C4  UNL     1      27.132  24.573  13.397  1.00  0.00     0.134 C 
HETATM   12  C5  UNL     1      27.671  25.632  12.458  1.00  0.00     0.036 C 
BRANCH  11  13
HETATM   13  C6  UNL     1      25.675  24.351  13.014  1.00  0.00     0.208 C 
HETATM   14 CL1  UNL     1      25.333  22.625  13.277  1.00  0.00    -0.082 Cl
HETATM   15 CL2  UNL     1      25.489  24.673  11.278  1.00  0.00    -0.082 Cl
HETATM   16 CL3  UNL     1      24.617  25.382  13.992  1.00  0.00    -0.082 Cl
ENDBRANCH  11  13
ENDBRANCH   9  11
ENDBRANCH   5   9
TORSDOF 3
ENDMDL
MODEL 4
REMARK VINA RESULT: -5.891620283      3.077      3.758
REMARK  3 active torsions:
REMARK  status: ('A' for Active; 'I' for Inactive)
REMARK    1  A    between atoms: C3_5  and  N2_6 
REMARK    2  A    between atoms: N2_6  and  C4_8 
REMARK    3  A    between atoms: C4_8  and  C6_10 
ROOT
HETATM    1  C1  UNL     1      21.385  22.720  16.581  1.00  0.00     0.070 C 
HETATM    2  C2  UNL     1      22.890  22.785  16.828  1.00  0.00     0.036 A 
HETATM    3  N1  UNL     1      23.662  23.746  16.360  1.00  0.00    -0.339 N 
ATOM      4  H1  UNL     1      23.269  24.502  15.800  1.00  0.00     0.168 HD
HETATM    5  C3  UNL     1      24.962  23.710  16.633  1.00  0.00     0.146 A 
HETATM    6  S1  UNL     1      25.119  22.283  17.577  1.00  0.00    -0.040 SA
HETATM    7  C7  UNL     1      23.482  21.803  17.571  1.00  0.00     0.100 A 
HETATM    8 CL4  UNL     1      22.723  20.392  18.329  1.00  0.00    -0.074 Cl
ENDROOT
BRANCH   5   9
HETATM    9  N2  UNL     1      25.909  24.552  16.275  1.00  0.00    -0.362 N 
ATOM     10  H2  UNL     1      26.152  25.363  16.844  1.00  0.00     0.162 HD
BRANCH   9  11
HETATM   11  C4  UNL     1      26.585  24.263  15.033  1.00  0.00     0.134 C 
HETATM   12  C5  UNL     1      28.078  24.114  15.234  1.00  0.00     0.036 C 
BRANCH  11  13
HETATM   13  C6  UNL     1      26.391  25.385  14.021  1.00  0.00     0.208 C 
HETATM   14 CL1  UNL     1      24.688  25.325  13.510  1.00  0.00    -0.082 Cl
HETATM   15 CL2  UNL     1      27.389  25.040  12.594  1.00  0.00    -0.082 Cl
HETATM   16 CL3  UNL     1      26.800  26.948  14.748  1.00  0.00    -0.082 Cl
ENDBRANCH  11  13
ENDBRANCH   9  11
ENDBRANCH   5   9
TORSDOF 3
ENDMDL
MODEL 5
REMARK VINA RESULT: -5.880153900      2.881      3.448
REMARK  3 active torsions:
REMARK  status: ('A' for Active; 'I' for Inactive)
REMARK    1  A    between atoms: C3_5  and  N2_6 
REMARK    2  A    between atoms: N2_6  and  C4_8 
REMARK    3  A    between atoms: C4_8  and  C6_10 
ROOT
HETATM    1  C1  UNL     1      25.944  21.584  18.234  1.00  0.00     0.070 C 
HETATM    2  C2  UNL     1      24.984  22.365  17.338  1.00  0.00     0.036 A 
HETATM    3  N1  UNL     1      25.370  23.330  16.528  1.00  0.00    -0.339 N 
ATOM      4  H1  UNL     1      26.352  23.597  16.469  1.00  0.00     0.168 HD
HETATM    5  C3  UNL     1      24.454  23.949  15.790  1.00  0.00     0.146 A 
HETATM    6  S1  UNL     1      22.998  23.157  16.241  1.00  0.00    -0.040 SA
HETATM    7  C7  UNL     1      23.653  22.059  17.369  1.00  0.00     0.100 A 
HETATM    8 CL4  UNL     1      22.832  20.826  18.343  1.00  0.00    -0.074 Cl
ENDROOT
BRANCH   5   9
HETATM    9  N2  UNL     1      24.608  24.927  14.923  1.00  0.00    -0.362 N 
ATOM     10  H2  UNL     1      24.431  25.900  15.172  1.00  0.00     0.162 HD
BRANCH   9  11
HETATM   11  C4  UNL     1      25.041  24.547  13.600  1.00  0.00     0.134 C 
HETATM   12  C5  UNL     1      25.182  23.045  13.471  1.00  0.00     0.036 C 
BRANCH  11  13
HETATM   13  C6  UNL     1      26.403  25.143  13.267  1.00  0.00     0.208 C 
HETATM   14 CL1  UNL     1      27.617  24.146  14.103  1.00  0.00    -0.082 Cl
HETATM   15 CL2  UNL     1      26.490  26.778  13.953  1.00  0.00    -0.082 Cl
HETATM   16 CL3  UNL     1      26.660  25.150  11.514  1.00  0.00    -0.082 Cl
ENDBRANCH  11  13
ENDBRANCH   9  11
ENDBRANCH   5   9
TORSDOF 3
ENDMDL
