MODEL 1
REMARK VINA RESULT: -5.631188588      0.000      0.000
REMARK  2 active torsions:
REMARK  status: ('A' for Active; 'I' for Inactive)
REMARK    1  A    between atoms: C2_2  and  C3_3 
REMARK    2  A    between atoms: C3_3  and  O1_4 
ROOT
HETATM    1  C1  UNL     1      25.573  22.486  14.130  1.00  0.00     0.024 C 
HETATM    2  C2  UNL     1      25.470  23.633  15.092  1.00  0.00     0.058 C 
HETATM    3  C4  UNL     1      25.495  23.075  16.504  1.00  0.00     0.164 C 
HETATM    4 CL1  UNL     1      24.562  21.592  16.531  1.00  0.00    -0.094 Cl
HETATM    5 CL2  UNL     1      24.854  24.236  17.679  1.00  0.00    -0.094 Cl
HETATM    6  C5  UNL     1      26.953  22.863  16.693  1.00  0.00     0.072 C 
HETATM    7 CL3  UNL     1      27.645  21.730  17.815  1.00  0.00    -0.084 Cl
HETATM    8  C6  UNL     1      27.655  23.649  15.895  1.00  0.00     0.071 C 
HETATM    9 CL4  UNL     1      29.399  23.779  15.734  1.00  0.00    -0.084 Cl
HETATM   10  C7  UNL     1      26.725  24.469  15.111  1.00  0.00     0.176 C 
HETATM   11 CL5  UNL     1      26.431  25.971  16.010  1.00  0.00    -0.095 Cl
HETATM   12  C8  UNL     1      27.205  24.722  13.758  1.00  0.00     0.092 C 
HETATM   13  N1  UNL     1      27.573  24.936  12.705  1.00  0.00    -0.195 NA
ENDROOT
BRANCH   2  14
HETATM   14  C3  UNL     1      24.306  24.532  14.841  1.00  0.00     0.180 C 
BRANCH  14  15
HETATM   15  O1  UNL     1      24.216  24.953  13.518  1.00  0.00    -0.400 OA
ATOM     16  H1  UNL     1      24.044  24.243  12.912  1.00  0.00     0.209 HD
ENDBRANCH  14  15
ENDBRANCH   2  14
TORSDOF 2
ENDMDL
MODEL 2
REMARK VINA RESULT: -5.558427934      2.824      4.263
REMARK  2 active torsions:
REMARK  status: ('A' for Active; 'I' for Inactive)
REMARK    1  A    between atoms: C2_2  and  C3_3 
REMARK    2  A    between atoms: C3_3  and  O1_4 
ROOT
HETATM    1  C1  UNL     1      25.824  21.946  14.897  1.00  0.00     0.024 C 
HETATM    2  C2  UNL     1      25.985  22.818  16.107  1.00  0.00     0.058 C 
HETATM    3  C4  UNL     1      24.893  23.874  16.082  1.00  0.00     0.164 C 
HETATM    4 CL1  UNL     1      24.671  24.403  14.426  1.00  0.00    -0.094 Cl
HETATM    5 CL2  UNL     1      25.287  25.249  17.128  1.00  0.00    -0.094 Cl
HETATM    6  C5  UNL     1      23.745  23.099  16.618  1.00  0.00     0.072 C 
HETATM    7 CL3  UNL     1      22.076  23.483  16.320  1.00  0.00    -0.084 Cl
HETATM    8  C6  UNL     1      24.159  22.079  17.348  1.00  0.00     0.071 C 
HETATM    9 CL4  UNL     1      23.205  20.870  18.192  1.00  0.00    -0.084 Cl
HETATM   10  C7  UNL     1      25.625  22.091  17.379  1.00  0.00     0.176 C 
HETATM   11 CL5  UNL     1      26.134  23.052  18.782  1.00  0.00    -0.095 Cl
HETATM   12  C8  UNL     1      26.197  20.750  17.393  1.00  0.00     0.092 C 
HETATM   13  N1  UNL     1      26.654  19.711  17.416  1.00  0.00    -0.195 NA
ENDROOT
BRANCH   2  14
HETATM   14  C3  UNL     1      27.351  23.396  16.262  1.00  0.00     0.180 C 
BRANCH  14  15
HETATM   15  O1  UNL     1      27.896  23.839  15.060  1.00  0.00    -0.400 OA
ATOM     16  H1  UNL     1      27.987  24.783  15.018  1.00  0.00     0.209 HD
ENDBRANCH  14  15
ENDBRANCH   2  14
TORSDOF 2
ENDMDL
MODEL 3
REMARK VINA RESULT: -5.547750279      2.416      3.713
REMARK  2 active torsions:
REMARK  status: ('A' for Active; 'I' for Inactive)
REMARK    1  A    between atoms: C2_2  and  C3_3 
REMARK    2  A    between atoms: C3_3  and  O1_4 
ROOT
HETATM    1  C1  UNL     1      25.247  24.699  17.335  1.00  0.00     0.024 C 
HETATM    2  C2  UNL     1      25.410  23.949  16.046  1.00  0.00     0.058 C 
HETATM    3  C4  UNL     1      26.628  24.501  15.325  1.00  0.00     0.164 C 
HETATM    4 CL1  UNL     1      26.659  26.240  15.542  1.00  0.00    -0.094 Cl
HETATM    5 CL2  UNL     1      26.611  24.089  13.602  1.00  0.00    -0.094 Cl
HETATM    6  C5  UNL     1      27.719  23.793  16.040  1.00  0.00     0.072 C 
HETATM    7 CL3  UNL     1      29.358  24.363  16.144  1.00  0.00    -0.084 Cl
HETATM    8  C6  UNL     1      27.281  22.674  16.588  1.00  0.00     0.071 C 
HETATM    9 CL4  UNL     1      28.168  21.489  17.534  1.00  0.00    -0.084 Cl
HETATM   10  C7  UNL     1      25.856  22.526  16.273  1.00  0.00     0.176 C 
HETATM   11 CL5  UNL     1      25.724  21.608  14.760  1.00  0.00    -0.095 Cl
HETATM   12  C8  UNL     1      25.103  21.910  17.359  1.00  0.00     0.092 C 
HETATM   13  N1  UNL     1      24.507  21.420  18.192  1.00  0.00    -0.195 NA
ENDROOT
BRANCH   2  14
HETATM   14  C3  UNL     1      24.186  23.932  15.194  1.00  0.00     0.180 C 
BRANCH  14  15
HETATM   15  O1  UNL     1      23.007  23.947  15.933  1.00  0.00    -0.400 OA
ATOM     16  H1  UNL     1      22.493  23.155  15.831  1.00  0.00     0.209 HD
ENDBRANCH  14  15
ENDBRANCH   2  14
TORSDOF 2
ENDMDL
MODEL 4
REMARK VINA RESULT: -5.483025800      1.977      2.351
REMARK  2 active torsions:
REMARK  status: ('A' for Active; 'I' for Inactive)
REMARK    1  A    between atoms: C2_2  and  C3_3 
REMARK    2  A    between atoms: C3_3  and  O1_4 
ROOT
HETATM    1  C1  UNL     1      25.447  22.222  14.179  1.00  0.00     0.024 C 
HETATM    2  C2  UNL     1      25.178  23.597  14.716  1.00  0.00     0.058 C 
HETATM    3  C4  UNL     1      26.170  23.874  15.833  1.00  0.00     0.164 C 
HETATM    4 CL1  UNL     1      26.384  22.405  16.763  1.00  0.00    -0.094 Cl
HETATM    5 CL2  UNL     1      25.627  25.199  16.876  1.00  0.00    -0.094 Cl
HETATM    6  C5  UNL     1      27.371  24.261  15.048  1.00  0.00     0.072 C 
HETATM    7 CL3  UNL     1      29.004  24.141  15.628  1.00  0.00    -0.084 Cl
HETATM    8  C6  UNL     1      27.033  24.707  13.851  1.00  0.00     0.071 C 
HETATM    9 CL4  UNL     1      28.072  25.280  12.556  1.00  0.00    -0.084 Cl
HETATM   10  C7  UNL     1      25.571  24.673  13.735  1.00  0.00     0.176 C 
HETATM   11 CL5  UNL     1      24.944  26.240  14.282  1.00  0.00    -0.095 Cl
HETATM   12  C8  UNL     1      25.124  24.340  12.388  1.00  0.00     0.092 C 
HETATM   13  N1  UNL     1      24.762  24.093  11.340  1.00  0.00    -0.195 NA
ENDROOT
BRANCH   2  14
HETATM   14  C3  UNL     1      23.762  23.823  15.125  1.00  0.00     0.180 C 
BRANCH  14  15
HETATM   15  O1  UNL     1      23.310  22.899  16.063  1.00  0.00    -0.400 OA
ATOM     16  H1  UNL     1      22.473  23.135  16.445  1.00  0.00     0.209 HD
ENDBRANCH  14  15
ENDBRANCH   2  14
TORSDOF 2
ENDMDL
MODEL 5
REMARK VINA RESULT: -5.374841881      2.228      3.602
REMARK  2 active torsions:
REMARK  status: ('A' for Active; 'I' for Inactive)
REMARK    1  A    between atoms: C2_2  and  C3_3 
REMARK    2  A    between atoms: C3_3  and  O1_4 
ROOT
HETATM    1  C1  UNL     1      25.417  25.272  16.731  1.00  0.00     0.024 C 
HETATM    2  C2  UNL     1      25.612  24.453  15.489  1.00  0.00     0.058 C 
HETATM    3  C4  UNL     1      27.018  24.698  14.971  1.00  0.00     0.164 C 
HETATM    4 CL1  UNL     1      27.398  26.396  15.182  1.00  0.00    -0.094 Cl
HETATM    5 CL2  UNL     1      27.181  24.230  13.271  1.00  0.00    -0.094 Cl
HETATM    6  C5  UNL     1      27.801  23.799  15.857  1.00  0.00     0.072 C 
HETATM    7 CL3  UNL     1      29.488  24.004  16.222  1.00  0.00    -0.084 Cl
HETATM    8  C6  UNL     1      27.046  22.825  16.333  1.00  0.00     0.071 C 
HETATM    9 CL4  UNL     1      27.492  21.515  17.416  1.00  0.00    -0.084 Cl
HETATM   10  C7  UNL     1      25.692  22.977  15.792  1.00  0.00     0.176 C 
HETATM   11 CL5  UNL     1      25.599  22.049  14.282  1.00  0.00    -0.095 Cl
HETATM   12  C8  UNL     1      24.661  22.583  16.745  1.00  0.00     0.092 C 
HETATM   13  N1  UNL     1      23.849  22.268  17.473  1.00  0.00    -0.195 NA
ENDROOT
BRANCH   2  14
HETATM   14  C3  UNL     1      24.562  24.667  14.451  1.00  0.00     0.180 C 
BRANCH  14  15
HETATM   15  O1  UNL     1      24.717  25.863  13.756  1.00  0.00    -0.400 OA
ATOM     16  H1  UNL     1      24.987  26.584  14.312  1.00  0.00     0.209 HD
ENDBRANCH  14  15
ENDBRANCH   2  14
TORSDOF 2
ENDMDL
