MODEL 1
REMARK VINA RESULT: -8.652085616      0.000      0.000
REMARK  1 active torsions:
REMARK  status: ('A' for Active; 'I' for Inactive)
REMARK    1  A    between atoms: C4_5  and  C5_6 
ROOT
HETATM    1  C5  UNL     1      25.691  24.015  14.287  1.00  0.00     0.072 A 
HETATM    2  C6  UNL     1      24.775  23.761  13.278  1.00  0.00     0.173 A 
HETATM    3  F1  UNL     1      23.639  23.048  13.493  1.00  0.00    -0.202 F 
HETATM    4  C7  UNL     1      24.969  24.222  11.989  1.00  0.00     0.197 A 
HETATM    5  F2  UNL     1      24.057  23.965  10.998  1.00  0.00    -0.199 F 
HETATM    6  C8  UNL     1      26.113  24.949  11.742  1.00  0.00     0.199 A 
HETATM    7  F3  UNL     1      26.335  25.415  10.494  1.00  0.00    -0.199 F 
HETATM    8  C9  UNL     1      27.047  25.224  12.713  1.00  0.00     0.197 A 
HETATM    9  F4  UNL     1      28.177  25.939  12.479  1.00  0.00    -0.199 F 
HETATM   10  C10 UNL     1      26.816  24.746  13.981  1.00  0.00     0.173 A 
HETATM   11  F5  UNL     1      27.714  24.999  14.960  1.00  0.00    -0.202 F 
ENDROOT
BRANCH   1  12
HETATM   12  C4  UNL     1      25.447  23.506  15.646  1.00  0.00     0.052 A 
HETATM   13  C3  UNL     1      25.612  22.127  16.147  1.00  0.00     0.112 A 
HETATM   14  C2  UNL     1      25.252  22.241  17.587  1.00  0.00     0.147 A 
HETATM   15  C1  UNL     1      24.052  21.382  17.961  1.00  0.00     0.062 C 
HETATM   16 BR1  UNL     1      26.749  21.844  18.748  1.00  0.00    -0.052 Br
HETATM   17  O1  UNL     1      24.878  23.576  17.782  1.00  0.00    -0.257 OA
HETATM   18  N1  UNL     1      25.041  24.239  16.613  1.00  0.00    -0.268 N 
ATOM     19  H1  UNL     1      24.855  25.237  16.512  1.00  0.00     0.194 HD
ENDBRANCH   1  12
TORSDOF 1
ENDMDL
MODEL 2
REMARK VINA RESULT: -8.650877744      0.028      2.519
REMARK  1 active torsions:
REMARK  status: ('A' for Active; 'I' for Inactive)
REMARK    1  A    between atoms: C4_5  and  C5_6 
ROOT
HETATM    1  C5  UNL     1      25.672  23.998  14.282  1.00  0.00     0.072 A 
HETATM    2  C6  UNL     1      26.817  24.727  13.997  1.00  0.00     0.173 A 
HETATM    3  F1  UNL     1      27.757  24.999  14.940  1.00  0.00    -0.202 F 
HETATM    4  C7  UNL     1      27.067  25.218  12.729  1.00  0.00     0.197 A 
HETATM    5  F2  UNL     1      28.203  25.938  12.458  1.00  0.00    -0.199 F 
HETATM    6  C8  UNL     1      26.131  24.957  11.753  1.00  0.00     0.199 A 
HETATM    7  F3  UNL     1      26.342  25.423  10.503  1.00  0.00    -0.199 F 
HETATM    8  C9  UNL     1      24.983  24.240  11.992  1.00  0.00     0.197 A 
HETATM    9  F4  UNL     1      24.055  23.978  11.036  1.00  0.00    -0.199 F 
HETATM   10  C10 UNL     1      24.772  23.769  13.266  1.00  0.00     0.173 A 
HETATM   11  F5  UNL     1      23.653  23.059  13.535  1.00  0.00    -0.202 F 
ENDROOT
BRANCH   1  12
HETATM   12  C4  UNL     1      25.443  23.493  15.645  1.00  0.00     0.052 A 
HETATM   13  C3  UNL     1      25.621  22.118  16.150  1.00  0.00     0.112 A 
HETATM   14  C2  UNL     1      25.272  22.235  17.593  1.00  0.00     0.147 A 
HETATM   15  C1  UNL     1      24.081  21.370  17.979  1.00  0.00     0.062 C 
HETATM   16 BR1  UNL     1      26.780  21.853  18.742  1.00  0.00    -0.052 Br
HETATM   17  O1  UNL     1      24.891  23.568  17.785  1.00  0.00    -0.257 OA
HETATM   18  N1  UNL     1      25.039  24.227  16.612  1.00  0.00    -0.268 N 
ATOM     19  H1  UNL     1      24.846  25.224  16.508  1.00  0.00     0.194 HD
ENDBRANCH   1  12
TORSDOF 1
ENDMDL
MODEL 3
REMARK VINA RESULT: -7.855108314      2.372      2.611
REMARK  1 active torsions:
REMARK  status: ('A' for Active; 'I' for Inactive)
REMARK    1  A    between atoms: C4_5  and  C5_6 
ROOT
HETATM    1  C5  UNL     1      27.141  23.350  15.497  1.00  0.00     0.072 A 
HETATM    2  C6  UNL     1      26.110  22.879  14.699  1.00  0.00     0.173 A 
HETATM    3  F1  UNL     1      25.445  21.728  14.980  1.00  0.00    -0.202 F 
HETATM    4  C7  UNL     1      25.699  23.558  13.567  1.00  0.00     0.197 A 
HETATM    5  F2  UNL     1      24.678  23.083  12.785  1.00  0.00    -0.199 F 
HETATM    6  C8  UNL     1      26.356  24.729  13.259  1.00  0.00     0.199 A 
HETATM    7  F3  UNL     1      25.981  25.419  12.159  1.00  0.00    -0.199 F 
HETATM    8  C9  UNL     1      27.383  25.233  14.021  1.00  0.00     0.197 A 
HETATM    9  F4  UNL     1      28.036  26.385  13.724  1.00  0.00    -0.199 F 
HETATM   10  C10 UNL     1      27.761  24.526  15.138  1.00  0.00     0.173 A 
HETATM   11  F5  UNL     1      28.767  24.994  15.911  1.00  0.00    -0.202 F 
ENDROOT
BRANCH   1  12
HETATM   12  C4  UNL     1      27.548  22.597  16.693  1.00  0.00     0.052 A 
HETATM   13  C3  UNL     1      28.890  22.088  17.038  1.00  0.00     0.112 A 
HETATM   14  C2  UNL     1      28.683  21.450  18.368  1.00  0.00     0.147 A 
HETATM   15  C1  UNL     1      28.995  19.961  18.357  1.00  0.00     0.062 C 
HETATM   16 BR1  UNL     1      29.684  22.336  19.767  1.00  0.00    -0.052 Br
HETATM   17  O1  UNL     1      27.317  21.581  18.644  1.00  0.00    -0.257 OA
HETATM   18  N1  UNL     1      26.742  22.274  17.633  1.00  0.00    -0.268 N 
ATOM     19  H1  UNL     1      25.751  22.518  17.621  1.00  0.00     0.194 HD
ENDBRANCH   1  12
TORSDOF 1
ENDMDL
MODEL 4
REMARK VINA RESULT: -7.686528248      2.643      3.149
REMARK  1 active torsions:
REMARK  status: ('A' for Active; 'I' for Inactive)
REMARK    1  A    between atoms: C4_5  and  C5_6 
ROOT
HETATM    1  C5  UNL     1      26.805  23.136  16.224  1.00  0.00     0.072 A 
HETATM    2  C6  UNL     1      25.473  22.952  15.884  1.00  0.00     0.173 A 
HETATM    3  F1  UNL     1      24.690  22.028  16.499  1.00  0.00    -0.202 F 
HETATM    4  C7  UNL     1      24.866  23.702  14.895  1.00  0.00     0.197 A 
HETATM    5  F2  UNL     1      23.548  23.511  14.566  1.00  0.00    -0.199 F 
HETATM    6  C8  UNL     1      25.638  24.648  14.254  1.00  0.00     0.199 A 
HETATM    7  F3  UNL     1      25.077  25.399  13.282  1.00  0.00    -0.199 F 
HETATM    8  C9  UNL     1      26.960  24.864  14.559  1.00  0.00     0.197 A 
HETATM    9  F4  UNL     1      27.728  25.792  13.933  1.00  0.00    -0.199 F 
HETATM   10  C10 UNL     1      27.526  24.095  15.549  1.00  0.00     0.173 A 
HETATM   11  F5  UNL     1      28.824  24.283  15.875  1.00  0.00    -0.202 F 
ENDROOT
BRANCH   1  12
HETATM   12  C4  UNL     1      27.413  22.316  17.283  1.00  0.00     0.052 A 
HETATM   13  C3  UNL     1      28.829  21.926  17.435  1.00  0.00     0.112 A 
HETATM   14  C2  UNL     1      28.833  21.138  18.699  1.00  0.00     0.147 A 
HETATM   15  C1  UNL     1      29.287  19.701  18.492  1.00  0.00     0.062 C 
HETATM   16 BR1  UNL     1      29.888  21.984  20.083  1.00  0.00    -0.052 Br
HETATM   17  O1  UNL     1      27.499  21.091  19.122  1.00  0.00    -0.257 OA
HETATM   18  N1  UNL     1      26.751  21.814  18.256  1.00  0.00    -0.268 N 
ATOM     19  H1  UNL     1      25.746  21.947  18.370  1.00  0.00     0.194 HD
ENDBRANCH   1  12
TORSDOF 1
ENDMDL
MODEL 5
REMARK VINA RESULT: -7.678036433      2.634      3.958
REMARK  1 active torsions:
REMARK  status: ('A' for Active; 'I' for Inactive)
REMARK    1  A    between atoms: C4_5  and  C5_6 
ROOT
HETATM    1  C5  UNL     1      26.740  23.109  16.247  1.00  0.00     0.072 A 
HETATM    2  C6  UNL     1      27.473  24.094  15.602  1.00  0.00     0.173 A 
HETATM    3  F1  UNL     1      28.773  24.347  15.908  1.00  0.00    -0.202 F 
HETATM    4  C7  UNL     1      26.919  24.876  14.606  1.00  0.00     0.197 A 
HETATM    5  F2  UNL     1      27.654  25.847  13.974  1.00  0.00    -0.199 F 
HETATM    6  C8  UNL     1      25.602  24.640  14.275  1.00  0.00     0.199 A 
HETATM    7  F3  UNL     1      25.029  25.386  13.306  1.00  0.00    -0.199 F 
HETATM    8  C9  UNL     1      24.839  23.676  14.888  1.00  0.00     0.197 A 
HETATM    9  F4  UNL     1      23.541  23.437  14.568  1.00  0.00    -0.199 F 
HETATM   10  C10 UNL     1      25.428  22.920  15.874  1.00  0.00     0.173 A 
HETATM   11  F5  UNL     1      24.706  21.962  16.497  1.00  0.00    -0.202 F 
ENDROOT
BRANCH   1  12
HETATM   12  C4  UNL     1      27.367  22.299  17.302  1.00  0.00     0.052 A 
HETATM   13  C3  UNL     1      28.786  21.915  17.437  1.00  0.00     0.112 A 
HETATM   14  C2  UNL     1      28.811  21.136  18.706  1.00  0.00     0.147 A 
HETATM   15  C1  UNL     1      29.268  19.699  18.502  1.00  0.00     0.062 C 
HETATM   16 BR1  UNL     1      29.883  21.995  20.069  1.00  0.00    -0.052 Br
HETATM   17  O1  UNL     1      27.484  21.085  19.148  1.00  0.00    -0.257 OA
HETATM   18  N1  UNL     1      26.720  21.800  18.288  1.00  0.00    -0.268 N 
ATOM     19  H1  UNL     1      25.716  21.930  18.415  1.00  0.00     0.194 HD
ENDBRANCH   1  12
TORSDOF 1
ENDMDL
