MODEL 1
REMARK VINA RESULT: -6.218698609      0.000      0.000
REMARK  6 active torsions:
REMARK  status: ('A' for Active; 'I' for Inactive)
REMARK    1  A    between atoms: C1_4  and  C2_5 
REMARK    2  A    between atoms: C1_4  and  N4_11 
REMARK    3  A    between atoms: C2_5  and  C3_6 
REMARK    4  A    between atoms: N4_11  and  C5_13 
REMARK    5  A    between atoms: C5_13  and  C6_14 
REMARK    6  A    between atoms: C6_14  and  O1_15 
ROOT
HETATM    1  N1  UNL     1      23.979 -17.182   8.216  1.00  0.00    -0.389 N 
ATOM      2  H11 UNL     1      24.779 -17.481   8.774  1.00  0.00     0.157 HD
ATOM      3  H12 UNL     1      23.178 -17.805   8.102  1.00  0.00     0.157 HD
HETATM    4  C1  UNL     1      24.022 -16.009   7.675  1.00  0.00     0.072 C 
ENDROOT
BRANCH   4   5
HETATM    5  C2  UNL     1      22.854 -15.572   6.862  1.00  0.00     0.104 C 
BRANCH   5   6
HETATM    6  C3  UNL     1      22.918 -16.174   5.466  1.00  0.00     0.145 A 
HETATM    7  C4  UNL     1      21.655 -15.998   4.790  1.00  0.00     0.099 A 
HETATM    8  N2  UNL     1      21.397 -17.216   4.788  1.00  0.00    -0.317 N 
HETATM    9  N3  UNL     1      22.554 -17.523   5.423  1.00  0.00    -0.131 NA
ATOM     10  H2  UNL     1      20.615 -17.770   4.442  1.00  0.00     0.181 HD
ENDBRANCH   5   6
ENDBRANCH   4   5
BRANCH   4  11
HETATM   11  N4  UNL     1      25.137 -15.141   7.835  1.00  0.00    -0.378 N 
ATOM     12  H4  UNL     1      25.947 -15.474   8.358  1.00  0.00     0.160 HD
BRANCH  11  13
HETATM   13  C5  UNL     1      25.164 -13.801   7.283  1.00  0.00     0.146 C 
BRANCH  13  14
HETATM   14  C6  UNL     1      26.627 -13.423   7.070  1.00  0.00     0.183 C 
BRANCH  14  15
HETATM   15  O1  UNL     1      26.942 -13.711   5.725  1.00  0.00    -0.399 OA
ATOM     16  H1  UNL     1      27.248 -14.610   5.693  1.00  0.00     0.209 HD
ENDBRANCH  14  15
ENDBRANCH  13  14
ENDBRANCH  11  13
ENDBRANCH   4  11
TORSDOF 6
ENDMDL
MODEL 2
REMARK VINA RESULT: -6.187909643      1.544      1.636
REMARK  6 active torsions:
REMARK  status: ('A' for Active; 'I' for Inactive)
REMARK    1  A    between atoms: C1_4  and  C2_5 
REMARK    2  A    between atoms: C1_4  and  N4_11 
REMARK    3  A    between atoms: C2_5  and  C3_6 
REMARK    4  A    between atoms: N4_11  and  C5_13 
REMARK    5  A    between atoms: C5_13  and  C6_14 
REMARK    6  A    between atoms: C6_14  and  O1_15 
ROOT
HETATM    1  N1  UNL     1      21.686 -14.933   7.961  1.00  0.00    -0.389 N 
ATOM      2  H11 UNL     1      21.624 -13.966   8.279  1.00  0.00     0.157 HD
ATOM      3  H12 UNL     1      20.927 -15.584   8.164  1.00  0.00     0.157 HD
HETATM    4  C1  UNL     1      22.743 -15.288   7.306  1.00  0.00     0.072 C 
ENDROOT
BRANCH   4   5
HETATM    5  C2  UNL     1      22.834 -16.700   6.842  1.00  0.00     0.104 C 
BRANCH   5   6
HETATM    6  C3  UNL     1      21.912 -16.933   5.654  1.00  0.00     0.145 A 
HETATM    7  C4  UNL     1      22.676 -16.965   4.429  1.00  0.00     0.099 A 
HETATM    8  N2  UNL     1      22.181 -15.907   4.001  1.00  0.00    -0.317 N 
HETATM    9  N3  UNL     1      21.405 -15.753   5.101  1.00  0.00    -0.131 NA
ATOM     10  H2  UNL     1      22.310 -15.363   3.148  1.00  0.00     0.181 HD
ENDBRANCH   5   6
ENDBRANCH   4   5
BRANCH   4  11
HETATM   11  N4  UNL     1      23.801 -14.381   7.024  1.00  0.00    -0.378 N 
ATOM     12  H4  UNL     1      23.586 -13.515   6.531  1.00  0.00     0.160 HD
BRANCH  11  13
HETATM   13  C5  UNL     1      25.173 -14.644   7.410  1.00  0.00     0.146 C 
BRANCH  13  14
HETATM   14  C6  UNL     1      25.985 -13.392   7.092  1.00  0.00     0.183 C 
BRANCH  14  15
HETATM   15  O1  UNL     1      26.803 -13.694   5.982  1.00  0.00    -0.399 OA
ATOM     16  H1  UNL     1      26.829 -12.919   5.432  1.00  0.00     0.209 HD
ENDBRANCH  14  15
ENDBRANCH  13  14
ENDBRANCH  11  13
ENDBRANCH   4  11
TORSDOF 6
ENDMDL
MODEL 3
REMARK VINA RESULT: -6.147742726      1.975      2.597
REMARK  6 active torsions:
REMARK  status: ('A' for Active; 'I' for Inactive)
REMARK    1  A    between atoms: C1_4  and  C2_5 
REMARK    2  A    between atoms: C1_4  and  N4_11 
REMARK    3  A    between atoms: C2_5  and  C3_6 
REMARK    4  A    between atoms: N4_11  and  C5_13 
REMARK    5  A    between atoms: C5_13  and  C6_14 
REMARK    6  A    between atoms: C6_14  and  O1_15 
ROOT
HETATM    1  N1  UNL     1      22.863 -15.654   5.327  1.00  0.00    -0.389 N 
ATOM      2  H11 UNL     1      22.969 -14.898   4.649  1.00  0.00     0.157 HD
ATOM      3  H12 UNL     1      22.310 -16.478   5.086  1.00  0.00     0.157 HD
HETATM    4  C1  UNL     1      23.445 -15.525   6.474  1.00  0.00     0.072 C 
ENDROOT
BRANCH   4   5
HETATM    5  C2  UNL     1      23.290 -16.628   7.462  1.00  0.00     0.104 C 
BRANCH   5   6
HETATM    6  C3  UNL     1      22.390 -16.195   8.610  1.00  0.00     0.145 A 
HETATM    7  C4  UNL     1      21.057 -16.717   8.421  1.00  0.00     0.099 A 
HETATM    8  N2  UNL     1      20.559 -15.592   8.233  1.00  0.00    -0.317 N 
HETATM    9  N3  UNL     1      21.753 -14.971   8.389  1.00  0.00    -0.131 NA
ATOM     10  H2  UNL     1      19.614 -15.264   8.037  1.00  0.00     0.181 HD
ENDBRANCH   5   6
ENDBRANCH   4   5
BRANCH   4  11
HETATM   11  N4  UNL     1      24.215 -14.378   6.809  1.00  0.00    -0.378 N 
ATOM     12  H4  UNL     1      23.855 -13.456   6.562  1.00  0.00     0.160 HD
BRANCH  11  13
HETATM   13  C5  UNL     1      25.492 -14.471   7.487  1.00  0.00     0.146 C 
BRANCH  13  14
HETATM   14  C6  UNL     1      26.352 -13.306   7.006  1.00  0.00     0.183 C 
BRANCH  14  15
HETATM   15  O1  UNL     1      26.947 -13.699   5.789  1.00  0.00    -0.399 OA
ATOM     16  H1  UNL     1      26.674 -13.074   5.127  1.00  0.00     0.209 HD
ENDBRANCH  14  15
ENDBRANCH  13  14
ENDBRANCH  11  13
ENDBRANCH   4  11
TORSDOF 6
ENDMDL
MODEL 4
REMARK VINA RESULT: -5.965391064      2.215      2.333
REMARK  6 active torsions:
REMARK  status: ('A' for Active; 'I' for Inactive)
REMARK    1  A    between atoms: C1_4  and  C2_5 
REMARK    2  A    between atoms: C1_4  and  N4_11 
REMARK    3  A    between atoms: C2_5  and  C3_6 
REMARK    4  A    between atoms: N4_11  and  C5_13 
REMARK    5  A    between atoms: C5_13  and  C6_14 
REMARK    6  A    between atoms: C6_14  and  O1_15 
ROOT
HETATM    1  N1  UNL     1      23.395 -16.046   8.591  1.00  0.00    -0.389 N 
ATOM      2  H11 UNL     1      24.176 -15.831   9.212  1.00  0.00     0.157 HD
ATOM      3  H12 UNL     1      22.736 -16.784   8.840  1.00  0.00     0.157 HD
HETATM    4  C1  UNL     1      23.282 -15.359   7.501  1.00  0.00     0.072 C 
ENDROOT
BRANCH   4   5
HETATM    5  C2  UNL     1      22.142 -15.672   6.595  1.00  0.00     0.104 C 
BRANCH   5   6
HETATM    6  C3  UNL     1      20.846 -15.784   7.384  1.00  0.00     0.145 A 
HETATM    7  C4  UNL     1      19.744 -15.270   6.605  1.00  0.00     0.099 A 
HETATM    8  N2  UNL     1      19.564 -14.296   7.359  1.00  0.00    -0.317 N 
HETATM    9  N3  UNL     1      20.578 -14.665   8.178  1.00  0.00    -0.131 NA
ATOM     10  H2  UNL     1      18.905 -13.518   7.359  1.00  0.00     0.181 HD
ENDBRANCH   5   6
ENDBRANCH   4   5
BRANCH   4  11
HETATM   11  N4  UNL     1      24.200 -14.331   7.154  1.00  0.00    -0.378 N 
ATOM     12  H4  UNL     1      23.869 -13.544   6.596  1.00  0.00     0.160 HD
BRANCH  11  13
HETATM   13  C5  UNL     1      25.590 -14.361   7.562  1.00  0.00     0.146 C 
BRANCH  13  14
HETATM   14  C6  UNL     1      26.293 -13.190   6.881  1.00  0.00     0.183 C 
BRANCH  14  15
HETATM   15  O1  UNL     1      26.948 -13.701   5.741  1.00  0.00    -0.399 OA
ATOM     16  H1  UNL     1      27.202 -14.595   5.938  1.00  0.00     0.209 HD
ENDBRANCH  14  15
ENDBRANCH  13  14
ENDBRANCH  11  13
ENDBRANCH   4  11
TORSDOF 6
ENDMDL
MODEL 5
REMARK VINA RESULT: -5.741533235      1.739      2.166
REMARK  6 active torsions:
REMARK  status: ('A' for Active; 'I' for Inactive)
REMARK    1  A    between atoms: C1_4  and  C2_5 
REMARK    2  A    between atoms: C1_4  and  N4_11 
REMARK    3  A    between atoms: C2_5  and  C3_6 
REMARK    4  A    between atoms: N4_11  and  C5_13 
REMARK    5  A    between atoms: C5_13  and  C6_14 
REMARK    6  A    between atoms: C6_14  and  O1_15 
ROOT
HETATM    1  N1  UNL     1      22.834 -15.667   4.973  1.00  0.00    -0.389 N 
ATOM      2  H11 UNL     1      23.010 -14.800   4.465  1.00  0.00     0.157 HD
ATOM      3  H12 UNL     1      22.369 -16.445   4.504  1.00  0.00     0.157 HD
HETATM    4  C1  UNL     1      23.218 -15.734   6.206  1.00  0.00     0.072 C 
ENDROOT
BRANCH   4   5
HETATM    5  C2  UNL     1      22.962 -17.000   6.948  1.00  0.00     0.104 C 
BRANCH   5   6
HETATM    6  C3  UNL     1      21.957 -17.864   6.201  1.00  0.00     0.145 A 
HETATM    7  C4  UNL     1      21.876 -19.172   6.809  1.00  0.00     0.099 A 
HETATM    8  N2  UNL     1      22.384 -19.745   5.829  1.00  0.00    -0.317 N 
HETATM    9  N3  UNL     1      22.520 -18.585   5.143  1.00  0.00    -0.131 NA
ATOM     10  H2  UNL     1      22.611 -20.718   5.622  1.00  0.00     0.181 HD
ENDBRANCH   5   6
ENDBRANCH   4   5
BRANCH   4  11
HETATM   11  N4  UNL     1      23.866 -14.650   6.858  1.00  0.00    -0.378 N 
ATOM     12  H4  UNL     1      23.386 -13.752   6.913  1.00  0.00     0.160 HD
BRANCH  11  13
HETATM   13  C5  UNL     1      25.184 -14.775   7.448  1.00  0.00     0.146 C 
BRANCH  13  14
HETATM   14  C6  UNL     1      25.948 -13.492   7.136  1.00  0.00     0.183 C 
BRANCH  14  15
HETATM   15  O1  UNL     1      26.753 -13.748   6.005  1.00  0.00    -0.399 OA
ATOM     16  H1  UNL     1      26.372 -13.273   5.275  1.00  0.00     0.209 HD
ENDBRANCH  14  15
ENDBRANCH  13  14
ENDBRANCH  11  13
ENDBRANCH   4  11
TORSDOF 6
ENDMDL
