MODEL 1
REMARK VINA RESULT: -6.040959485      0.000      0.000
REMARK  7 active torsions:
REMARK  status: ('A' for Active; 'I' for Inactive)
REMARK    1  A    between atoms: N1_2  and  N2_3 
REMARK    2  A    between atoms: N1_2  and  C2_6 
REMARK    3  A    between atoms: N1_2  and  C3_10 
REMARK    4  A    between atoms: C3_10  and  N4_11 
REMARK    5  A    between atoms: N4_11  and  C4_14 
REMARK    6  A    between atoms: C4_14  and  N5_15 
REMARK    7  A    between atoms: N5_15  and  N6_16 
ROOT
HETATM    1  C3  UNL     1      22.640 -16.267   6.877  1.00  0.00     0.503 C 
ENDROOT
BRANCH   1   2
HETATM    2  N1  UNL     1      21.957 -16.872   5.781  1.00  0.00     0.061 N 
HETATM    3  C1  UNL     1      22.121 -16.137   4.545  1.00  0.00     0.312 C 
BRANCH   2   4
HETATM    4  N2  UNL     1      20.581 -17.025   6.005  1.00  0.00    -0.255 N 
ATOM      5  H22 UNL     1      19.841 -16.704   5.380  1.00  0.00     0.184 HD
ATOM      6  H21 UNL     1      20.465 -17.509   6.896  1.00  0.00     0.184 HD
ENDBRANCH   2   4
BRANCH   2   7
HETATM    7  C2  UNL     1      22.482 -18.183   5.574  1.00  0.00     0.315 C 
HETATM    8  N3  UNL     1      22.459 -18.701   4.398  1.00  0.00    -0.387 N 
ATOM      9  H32 UNL     1      22.063 -18.164   3.626  1.00  0.00     0.156 HD
ATOM     10  H31 UNL     1      22.835 -19.638   4.250  1.00  0.00     0.156 HD
ENDBRANCH   2   7
ENDBRANCH   1   2
BRANCH   1  11
HETATM   11  N4  UNL     1      23.755 -15.431   6.471  1.00  0.00    -0.034 N 
ATOM     12  H42 UNL     1      24.173 -15.726   5.588  1.00  0.00     0.280 HD
ATOM     13  H41 UNL     1      23.467 -14.499   6.176  1.00  0.00     0.280 HD
BRANCH  11  14
HETATM   14  C4  UNL     1      24.697 -15.412   7.561  1.00  0.00     0.370 C 
BRANCH  14  15
HETATM   15  N5  UNL     1      25.780 -14.474   7.336  1.00  0.00    -0.099 NA
BRANCH  15  16
HETATM   16  N6  UNL     1      25.295 -13.207   7.056  1.00  0.00    -0.252 N 
HETATM   17  N7  UNL     1      26.026 -12.245   6.820  1.00  0.00    -0.334 N 
ATOM     18  H72 UNL     1      27.034 -12.405   6.836  1.00  0.00     0.177 HD
ATOM     19  H71 UNL     1      25.669 -11.312   6.614  1.00  0.00     0.177 HD
ATOM     20  H6  UNL     1      24.286 -13.065   7.045  1.00  0.00     0.203 HD
ENDBRANCH  15  16
ENDBRANCH  14  15
ENDBRANCH  11  14
ENDBRANCH   1  11
TORSDOF 7
ENDMDL
MODEL 2
REMARK VINA RESULT: -6.036262797      1.020      1.482
REMARK  7 active torsions:
REMARK  status: ('A' for Active; 'I' for Inactive)
REMARK    1  A    between atoms: N1_2  and  N2_3 
REMARK    2  A    between atoms: N1_2  and  C2_6 
REMARK    3  A    between atoms: N1_2  and  C3_10 
REMARK    4  A    between atoms: C3_10  and  N4_11 
REMARK    5  A    between atoms: N4_11  and  C4_14 
REMARK    6  A    between atoms: C4_14  and  N5_15 
REMARK    7  A    between atoms: N5_15  and  N6_16 
ROOT
HETATM    1  C3  UNL     1      22.990 -16.518   6.903  1.00  0.00     0.503 C 
ENDROOT
BRANCH   1   2
HETATM    2  N1  UNL     1      21.992 -16.731   5.908  1.00  0.00     0.061 N 
HETATM    3  C1  UNL     1      20.713 -16.155   6.266  1.00  0.00     0.312 C 
BRANCH   2   4
HETATM    4  N2  UNL     1      21.781 -18.087   5.619  1.00  0.00    -0.255 N 
ATOM      5  H22 UNL     1      20.910 -18.489   5.272  1.00  0.00     0.184 HD
ATOM      6  H21 UNL     1      22.650 -18.584   5.819  1.00  0.00     0.184 HD
ENDBRANCH   2   4
BRANCH   2   7
HETATM    7  C2  UNL     1      22.413 -16.118   4.690  1.00  0.00     0.315 C 
HETATM    8  N3  UNL     1      21.551 -15.528   3.941  1.00  0.00    -0.387 N 
ATOM      9  H32 UNL     1      20.573 -15.508   4.230  1.00  0.00     0.156 HD
ATOM     10  H31 UNL     1      21.852 -15.089   3.070  1.00  0.00     0.156 HD
ENDBRANCH   2   7
ENDBRANCH   1   2
BRANCH   1  11
HETATM   11  N4  UNL     1      23.848 -15.381   6.626  1.00  0.00    -0.034 N 
ATOM     12  H42 UNL     1      24.269 -15.416   5.698  1.00  0.00     0.280 HD
ATOM     13  H41 UNL     1      23.329 -14.512   6.502  1.00  0.00     0.280 HD
BRANCH  11  14
HETATM   14  C4  UNL     1      24.822 -15.309   7.685  1.00  0.00     0.370 C 
BRANCH  14  15
HETATM   15  N5  UNL     1      25.891 -14.374   7.387  1.00  0.00    -0.099 NA
BRANCH  15  16
HETATM   16  N6  UNL     1      25.387 -13.156   6.966  1.00  0.00    -0.252 N 
HETATM   17  N7  UNL     1      26.093 -12.163   6.782  1.00  0.00    -0.334 N 
ATOM     18  H72 UNL     1      27.094 -12.261   6.954  1.00  0.00     0.177 HD
ATOM     19  H71 UNL     1      25.721 -11.266   6.472  1.00  0.00     0.177 HD
ATOM     20  H6  UNL     1      24.384 -13.076   6.799  1.00  0.00     0.203 HD
ENDBRANCH  15  16
ENDBRANCH  14  15
ENDBRANCH  11  14
ENDBRANCH   1  11
TORSDOF 7
ENDMDL
MODEL 3
REMARK VINA RESULT: -5.836764434      1.363      2.061
REMARK  7 active torsions:
REMARK  status: ('A' for Active; 'I' for Inactive)
REMARK    1  A    between atoms: N1_2  and  N2_3 
REMARK    2  A    between atoms: N1_2  and  C2_6 
REMARK    3  A    between atoms: N1_2  and  C3_10 
REMARK    4  A    between atoms: C3_10  and  N4_11 
REMARK    5  A    between atoms: N4_11  and  C4_14 
REMARK    6  A    between atoms: C4_14  and  N5_15 
REMARK    7  A    between atoms: N5_15  and  N6_16 
ROOT
HETATM    1  C3  UNL     1      22.684 -15.420   7.102  1.00  0.00     0.503 C 
ENDROOT
BRANCH   1   2
HETATM    2  N1  UNL     1      22.057 -16.129   6.036  1.00  0.00     0.061 N 
HETATM    3  C1  UNL     1      22.316 -17.553   6.083  1.00  0.00     0.312 C 
BRANCH   2   4
HETATM    4  N2  UNL     1      22.439 -15.669   4.767  1.00  0.00    -0.255 N 
ATOM      5  H22 UNL     1      23.356 -15.293   4.527  1.00  0.00     0.184 HD
ATOM      6  H21 UNL     1      21.639 -15.782   4.144  1.00  0.00     0.184 HD
ENDBRANCH   2   4
BRANCH   2   7
HETATM    7  C2  UNL     1      20.644 -15.947   6.125  1.00  0.00     0.315 C 
HETATM    8  N3  UNL     1      20.131 -15.452   7.194  1.00  0.00    -0.387 N 
ATOM      9  H32 UNL     1      20.744 -15.196   7.968  1.00  0.00     0.156 HD
ATOM     10  H31 UNL     1      19.121 -15.321   7.258  1.00  0.00     0.156 HD
ENDBRANCH   2   7
ENDBRANCH   1   2
BRANCH   1  11
HETATM   11  N4  UNL     1      23.870 -14.692   6.691  1.00  0.00    -0.034 N 
ATOM     12  H42 UNL     1      24.127 -14.865   5.719  1.00  0.00     0.280 HD
ATOM     13  H41 UNL     1      23.713 -13.688   6.610  1.00  0.00     0.280 HD
BRANCH  11  14
HETATM   14  C4  UNL     1      24.921 -15.024   7.618  1.00  0.00     0.370 C 
BRANCH  14  15
HETATM   15  N5  UNL     1      26.136 -14.271   7.368  1.00  0.00    -0.099 NA
BRANCH  15  16
HETATM   16  N6  UNL     1      25.875 -13.137   6.617  1.00  0.00    -0.252 N 
HETATM   17  N7  UNL     1      26.236 -12.009   6.955  1.00  0.00    -0.334 N 
ATOM     18  H72 UNL     1      26.749 -11.924   7.832  1.00  0.00     0.177 HD
ATOM     19  H71 UNL     1      26.043 -11.175   6.401  1.00  0.00     0.177 HD
ATOM     20  H6  UNL     1      25.360 -13.241   5.742  1.00  0.00     0.203 HD
ENDBRANCH  15  16
ENDBRANCH  14  15
ENDBRANCH  11  14
ENDBRANCH   1  11
TORSDOF 7
ENDMDL
MODEL 4
REMARK VINA RESULT: -5.692431734      1.338      1.793
REMARK  7 active torsions:
REMARK  status: ('A' for Active; 'I' for Inactive)
REMARK    1  A    between atoms: N1_2  and  N2_3 
REMARK    2  A    between atoms: N1_2  and  C2_6 
REMARK    3  A    between atoms: N1_2  and  C3_10 
REMARK    4  A    between atoms: C3_10  and  N4_11 
REMARK    5  A    between atoms: N4_11  and  C4_14 
REMARK    6  A    between atoms: C4_14  and  N5_15 
REMARK    7  A    between atoms: N5_15  and  N6_16 
ROOT
HETATM    1  C3  UNL     1      23.405 -16.101   6.982  1.00  0.00     0.503 C 
ENDROOT
BRANCH   1   2
HETATM    2  N1  UNL     1      22.306 -16.504   6.168  1.00  0.00     0.061 N 
HETATM    3  C1  UNL     1      21.058 -15.890   6.569  1.00  0.00     0.312 C 
BRANCH   2   4
HETATM    4  N2  UNL     1      22.111 -17.893   6.154  1.00  0.00    -0.255 N 
ATOM      5  H22 UNL     1      21.899 -18.468   6.970  1.00  0.00     0.184 HD
ATOM      6  H21 UNL     1      22.220 -18.210   5.191  1.00  0.00     0.184 HD
ENDBRANCH   2   4
BRANCH   2   7
HETATM    7  C2  UNL     1      22.562 -16.117   4.819  1.00  0.00     0.315 C 
HETATM    8  N3  UNL     1      21.601 -15.672   4.090  1.00  0.00    -0.387 N 
ATOM      9  H32 UNL     1      20.665 -15.603   4.490  1.00  0.00     0.156 HD
ATOM     10  H31 UNL     1      21.783 -15.395   3.125  1.00  0.00     0.156 HD
ENDBRANCH   2   7
ENDBRANCH   1   2
BRANCH   1  11
HETATM   11  N4  UNL     1      23.991 -14.837   6.575  1.00  0.00    -0.034 N 
ATOM     12  H42 UNL     1      24.223 -14.806   5.582  1.00  0.00     0.280 HD
ATOM     13  H41 UNL     1      23.321 -14.068   6.578  1.00  0.00     0.280 HD
BRANCH  11  14
HETATM   14  C4  UNL     1      25.127 -14.595   7.427  1.00  0.00     0.370 C 
BRANCH  14  15
HETATM   15  N5  UNL     1      26.291 -14.155   6.680  1.00  0.00    -0.099 NA
BRANCH  15  16
HETATM   16  N6  UNL     1      26.946 -13.126   7.336  1.00  0.00    -0.252 N 
HETATM   17  N7  UNL     1      27.751 -13.316   8.248  1.00  0.00    -0.334 N 
ATOM     18  H72 UNL     1      27.933 -14.282   8.521  1.00  0.00     0.177 HD
ATOM     19  H71 UNL     1      28.234 -12.558   8.731  1.00  0.00     0.177 HD
ATOM     20  H6  UNL     1      26.752 -12.167   7.050  1.00  0.00     0.203 HD
ENDBRANCH  15  16
ENDBRANCH  14  15
ENDBRANCH  11  14
ENDBRANCH   1  11
TORSDOF 7
ENDMDL
MODEL 5
REMARK VINA RESULT: -5.666658627      1.070      1.965
REMARK  7 active torsions:
REMARK  status: ('A' for Active; 'I' for Inactive)
REMARK    1  A    between atoms: N1_2  and  N2_3 
REMARK    2  A    between atoms: N1_2  and  C2_6 
REMARK    3  A    between atoms: N1_2  and  C3_10 
REMARK    4  A    between atoms: C3_10  and  N4_11 
REMARK    5  A    between atoms: N4_11  and  C4_14 
REMARK    6  A    between atoms: C4_14  and  N5_15 
REMARK    7  A    between atoms: N5_15  and  N6_16 
ROOT
HETATM    1  C3  UNL     1      23.094 -16.132   6.037  1.00  0.00     0.503 C 
ENDROOT
BRANCH   1   2
HETATM    2  N1  UNL     1      21.829 -16.789   6.030  1.00  0.00     0.061 N 
HETATM    3  C1  UNL     1      21.776 -17.910   6.944  1.00  0.00     0.312 C 
BRANCH   2   4
HETATM    4  N2  UNL     1      21.457 -17.258   4.761  1.00  0.00    -0.255 N 
ATOM      5  H22 UNL     1      21.015 -18.157   4.570  1.00  0.00     0.184 HD
ATOM      6  H21 UNL     1      21.709 -16.540   4.081  1.00  0.00     0.184 HD
ENDBRANCH   2   4
BRANCH   2   7
HETATM    7  C2  UNL     1      20.821 -15.861   6.431  1.00  0.00     0.315 C 
HETATM    8  N3  UNL     1      19.774 -16.282   7.046  1.00  0.00    -0.387 N 
ATOM      9  H32 UNL     1      19.679 -17.279   7.239  1.00  0.00     0.156 HD
ATOM     10  H31 UNL     1      19.054 -15.618   7.333  1.00  0.00     0.156 HD
ENDBRANCH   2   7
ENDBRANCH   1   2
BRANCH   1  11
HETATM   11  N4  UNL     1      23.262 -15.217   7.151  1.00  0.00    -0.034 N 
ATOM     12  H42 UNL     1      23.214 -14.237   6.872  1.00  0.00     0.280 HD
ATOM     13  H41 UNL     1      22.466 -15.213   7.787  1.00  0.00     0.280 HD
BRANCH  11  14
HETATM   14  C4  UNL     1      24.502 -15.556   7.802  1.00  0.00     0.370 C 
BRANCH  14  15
HETATM   15  N5  UNL     1      25.584 -14.667   7.425  1.00  0.00    -0.099 NA
BRANCH  15  16
HETATM   16  N6  UNL     1      25.103 -13.422   7.056  1.00  0.00    -0.252 N 
HETATM   17  N7  UNL     1      25.837 -12.476   6.769  1.00  0.00    -0.334 N 
ATOM     18  H72 UNL     1      26.844 -12.634   6.809  1.00  0.00     0.177 HD
ATOM     19  H71 UNL     1      25.482 -11.559   6.497  1.00  0.00     0.177 HD
ATOM     20  H6  UNL     1      24.094 -13.282   7.021  1.00  0.00     0.203 HD
ENDBRANCH  15  16
ENDBRANCH  14  15
ENDBRANCH  11  14
ENDBRANCH   1  11
TORSDOF 7
ENDMDL
