MODEL 1
REMARK VINA RESULT: -6.698867865      0.000      0.000
REMARK  4 active torsions:
REMARK  status: ('A' for Active; 'I' for Inactive)
REMARK    1  A    between atoms: N2_4  and  C1_6 
REMARK    2  A    between atoms: C1_6  and  C2_7 
REMARK    3  A    between atoms: N3_8  and  C3_10 
REMARK    4  A    between atoms: C3_10  and  N4_11 
REMARK       I    between atoms: N4_11  and  C4_13 
REMARK       I    between atoms: C4_13  and  N6_17 
ROOT
HETATM    1  N4  UNL     1      22.233 -15.813   6.136  1.00  0.00    -0.209 N 
ATOM      2  H4  UNL     1      21.431 -15.389   6.602  1.00  0.00     0.179 HD
HETATM    3  C4  UNL     1      22.117 -16.270   4.806  1.00  0.00     0.687 C 
HETATM    4  N5  UNL     1      21.320 -15.632   4.013  1.00  0.00    -0.234 N 
ATOM      5  H51 UNL     1      21.236 -15.963   3.052  1.00  0.00     0.174 HD
ATOM      6  H52 UNL     1      20.772 -14.817   4.289  1.00  0.00     0.174 HD
HETATM    7  N6  UNL     1      22.876 -17.398   4.423  1.00  0.00    -0.139 N 
ATOM      8  H6  UNL     1      23.870 -17.304   4.214  1.00  0.00     0.205 HD
HETATM    9  N7  UNL     1      22.312 -18.518   4.344  1.00  0.00    -0.331 N 
ATOM     10  H71 UNL     1      22.860 -19.332   4.068  1.00  0.00     0.177 HD
ATOM     11  H72 UNL     1      21.316 -18.594   4.557  1.00  0.00     0.177 HD
ENDROOT
BRANCH   1  12
HETATM   12  C3  UNL     1      23.478 -15.945   6.832  1.00  0.00     0.261 C 
BRANCH  12  13
HETATM   13  N3  UNL     1      24.265 -14.766   6.597  1.00  0.00    -0.384 N 
HETATM   14  C2  UNL     1      25.244 -14.545   7.387  1.00  0.00     0.078 C 
ATOM     15  H3  UNL     1      24.050 -14.129   5.829  1.00  0.00     0.160 HD
BRANCH  14  16
HETATM   16  C1  UNL     1      26.067 -13.332   7.158  1.00  0.00     0.182 C 
BRANCH  16  17
HETATM   17  N2  UNL     1      27.367 -13.562   7.690  1.00  0.00    -0.338 N 
HETATM   18  N1  UNL     1      27.620 -13.264   8.865  1.00  0.00    -0.349 N 
ATOM     19  H12 UNL     1      26.884 -12.852   9.438  1.00  0.00     0.176 HD
ATOM     20  H11 UNL     1      28.551 -13.429   9.246  1.00  0.00     0.176 HD
ATOM     21  H2  UNL     1      28.091 -13.975   7.102  1.00  0.00     0.179 HD
ENDBRANCH  16  17
ENDBRANCH  14  16
ENDBRANCH  12  13
ENDBRANCH   1  12
TORSDOF 4
ENDMDL
MODEL 2
REMARK VINA RESULT: -6.601647106      1.262      1.972
REMARK  4 active torsions:
REMARK  status: ('A' for Active; 'I' for Inactive)
REMARK    1  A    between atoms: N2_4  and  C1_6 
REMARK    2  A    between atoms: C1_6  and  C2_7 
REMARK    3  A    between atoms: N3_8  and  C3_10 
REMARK    4  A    between atoms: C3_10  and  N4_11 
REMARK       I    between atoms: N4_11  and  C4_13 
REMARK       I    between atoms: C4_13  and  N6_17 
ROOT
HETATM    1  N4  UNL     1      22.734 -15.384   5.896  1.00  0.00    -0.209 N 
ATOM      2  H4  UNL     1      23.186 -15.070   5.038  1.00  0.00     0.179 HD
HETATM    3  C4  UNL     1      21.559 -16.165   5.831  1.00  0.00     0.687 C 
HETATM    4  N5  UNL     1      21.426 -16.977   4.834  1.00  0.00    -0.234 N 
ATOM      5  H51 UNL     1      20.578 -17.541   4.787  1.00  0.00     0.174 HD
ATOM      6  H52 UNL     1      22.118 -17.090   4.093  1.00  0.00     0.174 HD
HETATM    7  N6  UNL     1      20.601 -16.009   6.857  1.00  0.00    -0.139 N 
ATOM      8  H6  UNL     1      20.742 -16.451   7.766  1.00  0.00     0.205 HD
HETATM    9  N7  UNL     1      19.574 -15.321   6.636  1.00  0.00    -0.331 N 
ATOM     10  H71 UNL     1      18.882 -15.208   7.377  1.00  0.00     0.177 HD
ATOM     11  H72 UNL     1      19.449 -14.887   5.721  1.00  0.00     0.177 HD
ENDROOT
BRANCH   1  12
HETATM   12  C3  UNL     1      23.289 -15.033   7.168  1.00  0.00     0.261 C 
BRANCH  12  13
HETATM   13  N3  UNL     1      24.187 -13.925   6.990  1.00  0.00    -0.384 N 
HETATM   14  C2  UNL     1      25.408 -14.098   7.322  1.00  0.00     0.078 C 
ATOM     15  H3  UNL     1      23.862 -13.035   6.612  1.00  0.00     0.160 HD
BRANCH  14  16
HETATM   16  C1  UNL     1      26.348 -12.965   7.144  1.00  0.00     0.182 C 
BRANCH  16  17
HETATM   17  N2  UNL     1      27.583 -13.302   7.766  1.00  0.00    -0.338 N 
HETATM   18  N1  UNL     1      27.694 -13.252   8.998  1.00  0.00    -0.349 N 
ATOM     19  H12 UNL     1      26.888 -12.965   9.554  1.00  0.00     0.176 HD
ATOM     20  H11 UNL     1      28.579 -13.494   9.443  1.00  0.00     0.176 HD
ATOM     21  H2  UNL     1      28.379 -13.587   7.194  1.00  0.00     0.179 HD
ENDBRANCH  16  17
ENDBRANCH  14  16
ENDBRANCH  12  13
ENDBRANCH   1  12
TORSDOF 4
ENDMDL
MODEL 3
REMARK VINA RESULT: -6.479711919      1.229      1.229
REMARK  4 active torsions:
REMARK  status: ('A' for Active; 'I' for Inactive)
REMARK    1  A    between atoms: N2_4  and  C1_6 
REMARK    2  A    between atoms: C1_6  and  C2_7 
REMARK    3  A    between atoms: N3_8  and  C3_10 
REMARK    4  A    between atoms: C3_10  and  N4_11 
REMARK       I    between atoms: N4_11  and  C4_13 
REMARK       I    between atoms: C4_13  and  N6_17 
ROOT
HETATM    1  N4  UNL     1      21.697 -15.706   6.252  1.00  0.00    -0.209 N 
ATOM      2  H4  UNL     1      20.804 -15.271   6.483  1.00  0.00     0.179 HD
HETATM    3  C4  UNL     1      21.932 -16.188   4.946  1.00  0.00     0.687 C 
HETATM    4  N5  UNL     1      21.377 -15.563   3.960  1.00  0.00    -0.234 N 
ATOM      5  H51 UNL     1      21.546 -15.912   3.017  1.00  0.00     0.174 HD
ATOM      6  H52 UNL     1      20.781 -14.742   4.068  1.00  0.00     0.174 HD
HETATM    7  N6  UNL     1      22.757 -17.324   4.797  1.00  0.00    -0.139 N 
ATOM      8  H6  UNL     1      23.772 -17.237   4.855  1.00  0.00     0.205 HD
HETATM    9  N7  UNL     1      22.226 -18.444   4.592  1.00  0.00    -0.331 N 
ATOM     10  H71 UNL     1      22.822 -19.265   4.484  1.00  0.00     0.177 HD
ATOM     11  H72 UNL     1      21.209 -18.514   4.536  1.00  0.00     0.177 HD
ENDROOT
BRANCH   1  12
HETATM   12  C3  UNL     1      22.715 -15.827   7.253  1.00  0.00     0.261 C 
BRANCH  12  13
HETATM   13  N3  UNL     1      23.779 -14.913   6.942  1.00  0.00    -0.384 N 
HETATM   14  C2  UNL     1      24.874 -15.044   7.587  1.00  0.00     0.078 C 
ATOM     15  H3  UNL     1      23.665 -14.188   6.233  1.00  0.00     0.160 HD
BRANCH  14  16
HETATM   16  C1  UNL     1      25.983 -14.108   7.278  1.00  0.00     0.182 C 
BRANCH  16  17
HETATM   17  N2  UNL     1      25.426 -12.908   6.755  1.00  0.00    -0.338 N 
HETATM   18  N1  UNL     1      26.083 -11.858   6.771  1.00  0.00    -0.349 N 
ATOM     19  H12 UNL     1      27.025 -11.872   7.164  1.00  0.00     0.176 HD
ATOM     20  H11 UNL     1      25.684 -10.998   6.396  1.00  0.00     0.176 HD
ATOM     21  H2  UNL     1      24.483 -12.911   6.366  1.00  0.00     0.179 HD
ENDBRANCH  16  17
ENDBRANCH  14  16
ENDBRANCH  12  13
ENDBRANCH   1  12
TORSDOF 4
ENDMDL
MODEL 4
REMARK VINA RESULT: -6.477721630      1.144      5.834
REMARK  4 active torsions:
REMARK  status: ('A' for Active; 'I' for Inactive)
REMARK    1  A    between atoms: N2_4  and  C1_6 
REMARK    2  A    between atoms: C1_6  and  C2_7 
REMARK    3  A    between atoms: N3_8  and  C3_10 
REMARK    4  A    between atoms: C3_10  and  N4_11 
REMARK       I    between atoms: N4_11  and  C4_13 
REMARK       I    between atoms: C4_13  and  N6_17 
ROOT
HETATM    1  N4  UNL     1      25.349 -14.178   6.706  1.00  0.00    -0.209 N 
ATOM      2  H4  UNL     1      25.199 -14.223   5.699  1.00  0.00     0.179 HD
HETATM    3  C4  UNL     1      26.105 -13.124   7.262  1.00  0.00     0.687 C 
HETATM    4  N5  UNL     1      26.052 -11.970   6.683  1.00  0.00    -0.234 N 
ATOM      5  H51 UNL     1      26.599 -11.208   7.084  1.00  0.00     0.174 HD
ATOM      6  H52 UNL     1      25.497 -11.774   5.850  1.00  0.00     0.174 HD
HETATM    7  N6  UNL     1      26.873 -13.395   8.416  1.00  0.00    -0.139 N 
ATOM      8  H6  UNL     1      26.428 -13.445   9.333  1.00  0.00     0.205 HD
HETATM    9  N7  UNL     1      28.111 -13.573   8.299  1.00  0.00    -0.331 N 
ATOM     10  H71 UNL     1      28.666 -13.769   9.132  1.00  0.00     0.177 HD
ATOM     11  H72 UNL     1      28.540 -13.519   7.375  1.00  0.00     0.177 HD
ENDROOT
BRANCH   1  12
HETATM   12  C3  UNL     1      24.792 -15.186   7.559  1.00  0.00     0.261 C 
BRANCH  12  13
HETATM   13  N3  UNL     1      23.401 -15.347   7.235  1.00  0.00    -0.384 N 
HETATM   14  C2  UNL     1      23.117 -15.953   6.147  1.00  0.00     0.078 C 
ATOM     15  H3  UNL     1      22.669 -14.991   7.849  1.00  0.00     0.160 HD
BRANCH  14  16
HETATM   16  C1  UNL     1      21.686 -16.128   5.798  1.00  0.00     0.182 C 
BRANCH  16  17
HETATM   17  N2  UNL     1      21.597 -17.034   4.703  1.00  0.00    -0.338 N 
HETATM   18  N1  UNL     1      22.216 -18.106   4.731  1.00  0.00    -0.349 N 
ATOM     19  H12 UNL     1      22.786 -18.325   5.548  1.00  0.00     0.176 HD
ATOM     20  H11 UNL     1      22.152 -18.755   3.947  1.00  0.00     0.176 HD
ATOM     21  H2  UNL     1      21.021 -16.799   3.894  1.00  0.00     0.179 HD
ENDBRANCH  16  17
ENDBRANCH  14  16
ENDBRANCH  12  13
ENDBRANCH   1  12
TORSDOF 4
ENDMDL
MODEL 5
REMARK VINA RESULT: -6.465660886      1.810      2.780
REMARK  4 active torsions:
REMARK  status: ('A' for Active; 'I' for Inactive)
REMARK    1  A    between atoms: N2_4  and  C1_6 
REMARK    2  A    between atoms: C1_6  and  C2_7 
REMARK    3  A    between atoms: N3_8  and  C3_10 
REMARK    4  A    between atoms: C3_10  and  N4_11 
REMARK       I    between atoms: N4_11  and  C4_13 
REMARK       I    between atoms: C4_13  and  N6_17 
ROOT
HETATM    1  N4  UNL     1      21.946 -17.534   4.725  1.00  0.00    -0.209 N 
ATOM      2  H4  UNL     1      21.922 -17.695   3.718  1.00  0.00     0.179 HD
HETATM    3  C4  UNL     1      22.101 -18.621   5.611  1.00  0.00     0.687 C 
HETATM    4  N5  UNL     1      22.814 -19.626   5.218  1.00  0.00    -0.234 N 
ATOM      5  H51 UNL     1      22.926 -20.412   5.858  1.00  0.00     0.174 HD
ATOM      6  H52 UNL     1      23.271 -19.681   4.308  1.00  0.00     0.174 HD
HETATM    7  N6  UNL     1      21.469 -18.546   6.871  1.00  0.00    -0.139 N 
ATOM      8  H6  UNL     1      21.876 -17.988   7.622  1.00  0.00     0.205 HD
HETATM    9  N7  UNL     1      20.398 -19.177   7.057  1.00  0.00    -0.331 N 
ATOM     10  H71 UNL     1      19.941 -19.122   7.967  1.00  0.00     0.177 HD
ATOM     11  H72 UNL     1      20.004 -19.731   6.296  1.00  0.00     0.177 HD
ENDROOT
BRANCH   1  12
HETATM   12  C3  UNL     1      21.822 -16.203   5.241  1.00  0.00     0.261 C 
BRANCH  12  13
HETATM   13  N3  UNL     1      23.127 -15.730   5.615  1.00  0.00    -0.384 N 
HETATM   14  C2  UNL     1      23.294 -15.364   6.828  1.00  0.00     0.078 C 
ATOM     15  H3  UNL     1      23.889 -15.689   4.939  1.00  0.00     0.160 HD
BRANCH  14  16
HETATM   16  C1  UNL     1      24.635 -14.874   7.230  1.00  0.00     0.182 C 
BRANCH  16  17
HETATM   17  N2  UNL     1      24.687 -13.469   7.004  1.00  0.00    -0.338 N 
HETATM   18  N1  UNL     1      25.768 -12.918   6.759  1.00  0.00    -0.349 N 
ATOM     19  H12 UNL     1      26.615 -13.487   6.724  1.00  0.00     0.176 HD
ATOM     20  H11 UNL     1      25.806 -11.912   6.596  1.00  0.00     0.176 HD
ATOM     21  H2  UNL     1      23.831 -12.916   7.042  1.00  0.00     0.179 HD
ENDBRANCH  16  17
ENDBRANCH  14  16
ENDBRANCH  12  13
ENDBRANCH   1  12
TORSDOF 4
ENDMDL
