MODEL 1
REMARK VINA RESULT: -9.283926191      0.000      0.000
REMARK  5 active torsions:
REMARK  status: ('A' for Active; 'I' for Inactive)
REMARK    1  A    between atoms: C16_17  and  C17_18 
REMARK    2  A    between atoms: C17_18  and  C19_20 
REMARK    3  A    between atoms: C19_20  and  C20_21 
REMARK    4  A    between atoms: C20_21  and  C21_22 
REMARK       I    between atoms: C21_22  and  N1_24 
REMARK    5  A    between atoms: N1_24  and  S1_26 
ROOT
HETATM    1  C1  UNL     1     -24.963   5.052  -1.196  1.00  0.00     0.015 C 
HETATM    2  C2  UNL     1     -25.388   4.082  -2.012  1.00  0.00    -0.084 C 
HETATM    3  C3  UNL     1     -26.607   3.299  -1.755  1.00  0.00     0.034 C 
HETATM    4  C4  UNL     1     -26.154   1.847  -1.736  1.00  0.00     0.010 C 
HETATM    5  C5  UNL     1     -25.603   1.472  -3.081  1.00  0.00     0.007 C 
HETATM    6  C6  UNL     1     -24.594   2.392  -3.662  1.00  0.00     0.069 C 
HETATM    7  C7  UNL     1     -23.320   1.635  -3.306  1.00  0.00     0.137 C 
HETATM    8  O1  UNL     1     -22.309   2.131  -2.835  1.00  0.00    -0.297 OA
HETATM    9  C8  UNL     1     -23.677   0.273  -3.680  1.00  0.00     0.068 C 
HETATM   10  C9  UNL     1     -22.815  -0.844  -3.227  1.00  0.00    -0.007 C 
HETATM   11  C10 UNL     1     -21.506  -0.786  -3.981  1.00  0.00     0.011 C 
HETATM   12  C11 UNL     1     -23.462  -2.149  -3.617  1.00  0.00     0.005 C 
HETATM   13  C12 UNL     1     -24.929  -2.252  -3.450  1.00  0.00     0.001 C 
HETATM   14  C13 UNL     1     -25.721  -0.987  -3.637  1.00  0.00     0.010 C 
HETATM   15  C14 UNL     1     -25.009   0.109  -2.937  1.00  0.00    -0.029 C 
HETATM   16  C15 UNL     1     -24.791  -0.259  -1.495  1.00  0.00     0.016 C 
HETATM   17  C16 UNL     1     -24.582   3.810  -3.235  1.00  0.00     0.029 C 
ENDROOT
BRANCH  17  18
HETATM   18  C17 UNL     1     -25.085   4.813  -4.253  1.00  0.00    -0.009 C 
HETATM   19  C18 UNL     1     -25.746   4.180  -5.459  1.00  0.00     0.010 C 
BRANCH  18  20
HETATM   20  C19 UNL     1     -24.195   5.904  -4.646  1.00  0.00     0.014 C 
BRANCH  20  21
HETATM   21  C20 UNL     1     -24.604   7.311  -4.524  1.00  0.00     0.104 C 
BRANCH  21  22
HETATM   22  C21 UNL     1     -24.600   7.917  -3.171  1.00  0.00     0.233 C 
HETATM   23  O2  UNL     1     -25.675   8.261  -2.591  1.00  0.00    -0.273 OA
HETATM   24  N1  UNL     1     -23.400   8.153  -2.452  1.00  0.00    -0.235 N 
ATOM     25  H1  UNL     1     -22.509   7.894  -2.874  1.00  0.00     0.184 HD
BRANCH  24  26
HETATM   26  S1  UNL     1     -23.411   8.862  -0.896  1.00  0.00     0.211 S 
HETATM   27  O3  UNL     1     -23.885   7.877   0.172  1.00  0.00    -0.578 OA
HETATM   28  O4  UNL     1     -24.375  10.011  -0.798  1.00  0.00    -0.578 OA
HETATM   29  O5  UNL     1     -21.861   9.428  -0.498  1.00  0.00    -0.578 OA
ENDBRANCH  24  26
ENDBRANCH  21  22
ENDBRANCH  20  21
ENDBRANCH  18  20
ENDBRANCH  17  18
TORSDOF 5
ENDMDL
MODEL 2
REMARK VINA RESULT: -9.275936926      4.705      9.080
REMARK  5 active torsions:
REMARK  status: ('A' for Active; 'I' for Inactive)
REMARK    1  A    between atoms: C16_17  and  C17_18 
REMARK    2  A    between atoms: C17_18  and  C19_20 
REMARK    3  A    between atoms: C19_20  and  C20_21 
REMARK    4  A    between atoms: C20_21  and  C21_22 
REMARK       I    between atoms: C21_22  and  N1_24 
REMARK    5  A    between atoms: N1_24  and  S1_26 
ROOT
HETATM    1  C1  UNL     1     -24.251   7.459  -9.796  1.00  0.00     0.015 C 
HETATM    2  C2  UNL     1     -25.287   8.160  -9.326  1.00  0.00    -0.084 C 
HETATM    3  C3  UNL     1     -25.811   9.361  -9.996  1.00  0.00     0.034 C 
HETATM    4  C4  UNL     1     -25.747  10.464  -8.950  1.00  0.00     0.010 C 
HETATM    5  C5  UNL     1     -26.640  10.117  -7.795  1.00  0.00     0.007 C 
HETATM    6  C6  UNL     1     -26.482   8.757  -7.223  1.00  0.00     0.069 C 
HETATM    7  C7  UNL     1     -25.615   9.087  -6.012  1.00  0.00     0.137 C 
HETATM    8  O1  UNL     1     -24.625   8.466  -5.661  1.00  0.00    -0.297 OA
HETATM    9  C8  UNL     1     -26.294  10.259  -5.479  1.00  0.00     0.068 C 
HETATM   10  C9  UNL     1     -25.607  11.081  -4.454  1.00  0.00    -0.007 C 
HETATM   11  C10 UNL     1     -25.550  10.300  -3.162  1.00  0.00     0.011 C 
HETATM   12  C11 UNL     1     -26.445  12.302  -4.166  1.00  0.00     0.005 C 
HETATM   13  C12 UNL     1     -27.084  12.970  -5.321  1.00  0.00     0.001 C 
HETATM   14  C13 UNL     1     -27.491  12.090  -6.471  1.00  0.00     0.010 C 
HETATM   15  C14 UNL     1     -26.386  11.137  -6.734  1.00  0.00    -0.029 C 
HETATM   16  C15 UNL     1     -25.106  11.889  -6.973  1.00  0.00     0.016 C 
HETATM   17  C16 UNL     1     -25.931   7.677  -8.072  1.00  0.00     0.029 C 
ENDROOT
BRANCH  17  18
HETATM   18  C17 UNL     1     -26.921   6.627  -8.534  1.00  0.00    -0.009 C 
HETATM   19  C18 UNL     1     -28.366   7.076  -8.463  1.00  0.00     0.010 C 
BRANCH  18  20
HETATM   20  C19 UNL     1     -26.764   5.262  -8.034  1.00  0.00     0.014 C 
BRANCH  20  21
HETATM   21  C20 UNL     1     -25.477   4.779  -7.512  1.00  0.00     0.104 C 
BRANCH  21  22
HETATM   22  C21 UNL     1     -25.308   4.716  -6.041  1.00  0.00     0.233 C 
HETATM   23  O2  UNL     1     -25.963   3.896  -5.329  1.00  0.00    -0.273 OA
HETATM   24  N1  UNL     1     -24.413   5.569  -5.346  1.00  0.00    -0.235 N 
ATOM     25  H1  UNL     1     -23.861   6.246  -5.872  1.00  0.00     0.184 HD
BRANCH  24  26
HETATM   26  S1  UNL     1     -24.236   5.491  -3.647  1.00  0.00     0.211 S 
HETATM   27  O3  UNL     1     -23.189   6.480  -3.139  1.00  0.00    -0.578 OA
HETATM   28  O4  UNL     1     -23.737   4.150  -3.185  1.00  0.00    -0.578 OA
HETATM   29  O5  UNL     1     -25.723   5.799  -2.886  1.00  0.00    -0.578 OA
ENDBRANCH  24  26
ENDBRANCH  21  22
ENDBRANCH  20  21
ENDBRANCH  18  20
ENDBRANCH  17  18
TORSDOF 5
ENDMDL
MODEL 3
REMARK VINA RESULT: -9.223064620      5.003      9.969
REMARK  5 active torsions:
REMARK  status: ('A' for Active; 'I' for Inactive)
REMARK    1  A    between atoms: C16_17  and  C17_18 
REMARK    2  A    between atoms: C17_18  and  C19_20 
REMARK    3  A    between atoms: C19_20  and  C20_21 
REMARK    4  A    between atoms: C20_21  and  C21_22 
REMARK       I    between atoms: C21_22  and  N1_24 
REMARK    5  A    between atoms: N1_24  and  S1_26 
ROOT
HETATM    1  C1  UNL     1     -26.836   9.277  -4.185  1.00  0.00     0.015 C 
HETATM    2  C2  UNL     1     -25.973   9.813  -5.053  1.00  0.00    -0.084 C 
HETATM    3  C3  UNL     1     -25.018  10.869  -4.683  1.00  0.00     0.034 C 
HETATM    4  C4  UNL     1     -25.302  12.019  -5.638  1.00  0.00     0.010 C 
HETATM    5  C5  UNL     1     -25.031  11.583  -7.048  1.00  0.00     0.007 C 
HETATM    6  C6  UNL     1     -25.647  10.303  -7.474  1.00  0.00     0.069 C 
HETATM    7  C7  UNL     1     -26.856  10.839  -8.233  1.00  0.00     0.137 C 
HETATM    8  O1  UNL     1     -27.997  10.417  -8.136  1.00  0.00    -0.297 OA
HETATM    9  C8  UNL     1     -26.254  11.903  -9.024  1.00  0.00     0.068 C 
HETATM   10  C9  UNL     1     -27.139  12.882  -9.699  1.00  0.00    -0.007 C 
HETATM   11  C10 UNL     1     -27.853  12.191 -10.837  1.00  0.00     0.011 C 
HETATM   12  C11 UNL     1     -26.287  13.954 -10.332  1.00  0.00     0.005 C 
HETATM   13  C12 UNL     1     -25.126  14.441  -9.554  1.00  0.00     0.001 C 
HETATM   14  C13 UNL     1     -24.453  13.446  -8.650  1.00  0.00     0.010 C 
HETATM   15  C14 UNL     1     -25.507  12.685  -7.937  1.00  0.00    -0.029 C 
HETATM   16  C15 UNL     1     -26.424  13.633  -7.214  1.00  0.00     0.016 C 
HETATM   17  C16 UNL     1     -25.989   9.291  -6.449  1.00  0.00     0.029 C 
ENDROOT
BRANCH  17  18
HETATM   18  C17 UNL     1     -25.102   8.063  -6.407  1.00  0.00    -0.009 C 
HETATM   19  C18 UNL     1     -24.784   7.493  -7.773  1.00  0.00     0.010 C 
BRANCH  18  20
HETATM   20  C19 UNL     1     -25.430   7.006  -5.452  1.00  0.00     0.014 C 
BRANCH  20  21
HETATM   21  C20 UNL     1     -24.396   6.115  -4.907  1.00  0.00     0.104 C 
BRANCH  21  22
HETATM   22  C21 UNL     1     -23.901   6.389  -3.536  1.00  0.00     0.233 C 
HETATM   23  O2  UNL     1     -23.605   5.451  -2.735  1.00  0.00    -0.273 OA
HETATM   24  N1  UNL     1     -23.736   7.707  -3.041  1.00  0.00    -0.235 N 
ATOM     25  H1  UNL     1     -23.960   8.497  -3.646  1.00  0.00     0.184 HD
BRANCH  24  26
HETATM   26  S1  UNL     1     -23.174   8.006  -1.454  1.00  0.00     0.211 S 
HETATM   27  O3  UNL     1     -23.227   9.492  -1.103  1.00  0.00    -0.578 OA
HETATM   28  O4  UNL     1     -21.728   7.633  -1.280  1.00  0.00    -0.578 OA
HETATM   29  O5  UNL     1     -24.092   7.125  -0.329  1.00  0.00    -0.578 OA
ENDBRANCH  24  26
ENDBRANCH  21  22
ENDBRANCH  20  21
ENDBRANCH  18  20
ENDBRANCH  17  18
TORSDOF 5
ENDMDL
MODEL 4
REMARK VINA RESULT: -9.171268328      4.013      5.576
REMARK  5 active torsions:
REMARK  status: ('A' for Active; 'I' for Inactive)
REMARK    1  A    between atoms: C16_17  and  C17_18 
REMARK    2  A    between atoms: C17_18  and  C19_20 
REMARK    3  A    between atoms: C19_20  and  C20_21 
REMARK    4  A    between atoms: C20_21  and  C21_22 
REMARK       I    between atoms: C21_22  and  N1_24 
REMARK    5  A    between atoms: N1_24  and  S1_26 
ROOT
HETATM    1  C1  UNL     1     -24.103   9.495  -3.448  1.00  0.00     0.015 C 
HETATM    2  C2  UNL     1     -24.973   8.483  -3.505  1.00  0.00    -0.084 C 
HETATM    3  C3  UNL     1     -26.118   8.359  -2.589  1.00  0.00     0.034 C 
HETATM    4  C4  UNL     1     -25.957   6.999  -1.927  1.00  0.00     0.010 C 
HETATM    5  C5  UNL     1     -26.040   5.919  -2.966  1.00  0.00     0.007 C 
HETATM    6  C6  UNL     1     -25.185   6.090  -4.167  1.00  0.00     0.069 C 
HETATM    7  C7  UNL     1     -24.027   5.170  -3.792  1.00  0.00     0.137 C 
HETATM    8  O1  UNL     1     -22.843   5.439  -3.913  1.00  0.00    -0.297 OA
HETATM    9  C8  UNL     1     -24.736   3.997  -3.301  1.00  0.00     0.068 C 
HETATM   10  C9  UNL     1     -23.978   2.962  -2.558  1.00  0.00    -0.007 C 
HETATM   11  C10 UNL     1     -23.071   2.235  -3.524  1.00  0.00     0.011 C 
HETATM   12  C11 UNL     1     -24.946   1.928  -2.039  1.00  0.00     0.005 C 
HETATM   13  C12 UNL     1     -26.229   2.420  -1.490  1.00  0.00     0.001 C 
HETATM   14  C13 UNL     1     -26.795   3.667  -2.109  1.00  0.00     0.010 C 
HETATM   15  C14 UNL     1     -25.687   4.638  -2.283  1.00  0.00    -0.029 C 
HETATM   16  C15 UNL     1     -25.002   4.875  -0.964  1.00  0.00     0.016 C 
HETATM   17  C16 UNL     1     -24.759   7.453  -4.560  1.00  0.00     0.029 C 
ENDROOT
BRANCH  17  18
HETATM   18  C17 UNL     1     -25.428   8.026  -5.793  1.00  0.00    -0.009 C 
HETATM   19  C18 UNL     1     -24.892   7.468  -7.094  1.00  0.00     0.010 C 
BRANCH  18  20
HETATM   20  C19 UNL     1     -25.609   9.474  -5.870  1.00  0.00     0.014 C 
BRANCH  20  21
HETATM   21  C20 UNL     1     -26.687  10.072  -6.672  1.00  0.00     0.104 C 
BRANCH  21  22
HETATM   22  C21 UNL     1     -26.691  11.546  -6.833  1.00  0.00     0.233 C 
HETATM   23  O2  UNL     1     -27.688  12.251  -6.490  1.00  0.00    -0.273 OA
HETATM   24  N1  UNL     1     -25.590  12.249  -7.385  1.00  0.00    -0.235 N 
ATOM     25  H1  UNL     1     -24.763  11.729  -7.676  1.00  0.00     0.184 HD
BRANCH  24  26
HETATM   26  S1  UNL     1     -25.615  13.949  -7.574  1.00  0.00     0.211 S 
HETATM   27  O3  UNL     1     -24.404  14.449  -8.360  1.00  0.00    -0.578 OA
HETATM   28  O4  UNL     1     -25.531  14.672  -6.259  1.00  0.00    -0.578 OA
HETATM   29  O5  UNL     1     -27.040  14.432  -8.360  1.00  0.00    -0.578 OA
ENDBRANCH  24  26
ENDBRANCH  21  22
ENDBRANCH  20  21
ENDBRANCH  18  20
ENDBRANCH  17  18
TORSDOF 5
ENDMDL
MODEL 5
REMARK VINA RESULT: -9.154911687      4.980      9.199
REMARK  5 active torsions:
REMARK  status: ('A' for Active; 'I' for Inactive)
REMARK    1  A    between atoms: C16_17  and  C17_18 
REMARK    2  A    between atoms: C17_18  and  C19_20 
REMARK    3  A    between atoms: C19_20  and  C20_21 
REMARK    4  A    between atoms: C20_21  and  C21_22 
REMARK       I    between atoms: C21_22  and  N1_24 
REMARK    5  A    between atoms: N1_24  and  S1_26 
ROOT
HETATM    1  C1  UNL     1     -26.678   8.947  -3.409  1.00  0.00     0.015 C 
HETATM    2  C2  UNL     1     -25.887   9.455  -4.358  1.00  0.00    -0.084 C 
HETATM    3  C3  UNL     1     -25.109  10.690  -4.175  1.00  0.00     0.034 C 
HETATM    4  C4  UNL     1     -25.543  11.609  -5.307  1.00  0.00     0.010 C 
HETATM    5  C5  UNL     1     -25.179  10.991  -6.626  1.00  0.00     0.007 C 
HETATM    6  C6  UNL     1     -25.588   9.580  -6.829  1.00  0.00     0.069 C 
HETATM    7  C7  UNL     1     -26.848   9.793  -7.661  1.00  0.00     0.137 C 
HETATM    8  O1  UNL     1     -27.914   9.226  -7.489  1.00  0.00    -0.297 OA
HETATM    9  C8  UNL     1     -26.395  10.789  -8.622  1.00  0.00     0.068 C 
HETATM   10  C9  UNL     1     -27.403  11.498  -9.446  1.00  0.00    -0.007 C 
HETATM   11  C10 UNL     1     -27.981  10.527 -10.450  1.00  0.00     0.011 C 
HETATM   12  C11 UNL     1     -26.708  12.566 -10.254  1.00  0.00     0.005 C 
HETATM   13  C12 UNL     1     -25.650  13.346  -9.574  1.00  0.00     0.001 C 
HETATM   14  C13 UNL     1     -24.854  12.628  -8.520  1.00  0.00     0.010 C 
HETATM   15  C14 UNL     1     -25.797  11.845  -7.684  1.00  0.00    -0.029 C 
HETATM   16  C15 UNL     1     -26.860  12.751  -7.126  1.00  0.00     0.016 C 
HETATM   17  C16 UNL     1     -25.796   8.712  -5.647  1.00  0.00     0.029 C 
ENDROOT
BRANCH  17  18
HETATM   18  C17 UNL     1     -24.736   7.657  -5.404  1.00  0.00    -0.009 C 
HETATM   19  C18 UNL     1     -24.368   6.865  -6.641  1.00  0.00     0.010 C 
BRANCH  18  20
HETATM   20  C19 UNL     1     -24.882   6.787  -4.239  1.00  0.00     0.014 C 
BRANCH  20  21
HETATM   21  C20 UNL     1     -23.765   6.549  -3.312  1.00  0.00     0.104 C 
BRANCH  21  22
HETATM   22  C21 UNL     1     -23.636   7.450  -2.142  1.00  0.00     0.233 C 
HETATM   23  O2  UNL     1     -23.150   8.617  -2.248  1.00  0.00    -0.273 OA
HETATM   24  N1  UNL     1     -24.038   7.058  -0.839  1.00  0.00    -0.235 N 
ATOM     25  H1  UNL     1     -24.436   6.130  -0.699  1.00  0.00     0.184 HD
BRANCH  24  26
HETATM   26  S1  UNL     1     -23.873   8.105   0.503  1.00  0.00     0.211 S 
HETATM   27  O3  UNL     1     -24.283   7.423   1.808  1.00  0.00    -0.578 OA
HETATM   28  O4  UNL     1     -24.775   9.303   0.409  1.00  0.00    -0.578 OA
HETATM   29  O5  UNL     1     -22.270   8.651   0.629  1.00  0.00    -0.578 OA
ENDBRANCH  24  26
ENDBRANCH  21  22
ENDBRANCH  20  21
ENDBRANCH  18  20
ENDBRANCH  17  18
TORSDOF 5
ENDMDL
