MODEL 1
REMARK VINA RESULT: -9.109649785      0.000      0.000
REMARK  8 active torsions:
REMARK  status: ('A' for Active; 'I' for Inactive)
REMARK    1  A    between atoms: C4_4  and  O1_5 
REMARK    2  A    between atoms: C13_16  and  O3_17 
REMARK    3  A    between atoms: C17_22  and  C19_24 
REMARK    4  A    between atoms: C19_24  and  C20_25 
REMARK    5  A    between atoms: C20_25  and  C21_26 
REMARK    6  A    between atoms: C21_26  and  C22_27 
REMARK    7  A    between atoms: C22_27  and  C23_28 
REMARK    8  A    between atoms: C23_28  and  C24_29 
ROOT
HETATM    1  C1  UNL     1     -27.705  10.449  -6.149  1.00  0.00     0.016 C 
HETATM    2  C2  UNL     1     -26.306  10.192  -6.636  1.00  0.00    -0.027 C 
HETATM    3  C3  UNL     1     -26.293  10.244  -8.160  1.00  0.00     0.042 C 
HETATM    4  C4  UNL     1     -26.978  11.486  -8.672  1.00  0.00     0.126 C 
HETATM    5  C5  UNL     1     -26.795  12.681  -7.801  1.00  0.00     0.110 C 
HETATM    6  C6  UNL     1     -25.780  12.539  -6.754  1.00  0.00     0.134 C 
HETATM    7  O2  UNL     1     -25.248  13.556  -6.289  1.00  0.00    -0.297 OA
HETATM    8  C7  UNL     1     -25.317  11.243  -6.182  1.00  0.00     0.064 C 
HETATM    9  C8  UNL     1     -25.274  11.346  -4.698  1.00  0.00     0.013 C 
HETATM   10  C9  UNL     1     -25.655  10.094  -3.983  1.00  0.00     0.006 C 
HETATM   11  C10 UNL     1     -25.308   8.833  -4.757  1.00  0.00    -0.004 C 
HETATM   12  C11 UNL     1     -25.870   8.849  -6.159  1.00  0.00     0.001 C 
HETATM   13  C12 UNL     1     -24.874   8.185  -7.077  1.00  0.00     0.037 C 
HETATM   14  C13 UNL     1     -24.960   6.671  -6.835  1.00  0.00     0.119 C 
HETATM   15  C14 UNL     1     -24.374   6.336  -5.472  1.00  0.00     0.037 C 
HETATM   16  C15 UNL     1     -25.375   6.355  -4.392  1.00  0.00     0.002 A 
HETATM   17  C16 UNL     1     -25.864   7.688  -3.984  1.00  0.00     0.003 A 
HETATM   18  C17 UNL     1     -25.081   6.901  -2.987  1.00  0.00    -0.035 A 
HETATM   19  C18 UNL     1     -23.657   7.236  -2.730  1.00  0.00     0.016 C 
ENDROOT
BRANCH  18  20
HETATM   20  C19 UNL     1     -25.911   6.209  -1.935  1.00  0.00     0.010 C 
BRANCH  20  21
HETATM   21  C20 UNL     1     -25.501   6.176  -0.543  1.00  0.00     0.001 C 
BRANCH  21  22
HETATM   22  C21 UNL     1     -26.267   6.994   0.455  1.00  0.00     0.001 C 
BRANCH  22  23
HETATM   23  C22 UNL     1     -25.354   7.885   1.267  1.00  0.00     0.010 C 
BRANCH  23  24
HETATM   24  C23 UNL     1     -24.588   8.891   0.467  1.00  0.00     0.113 C 
BRANCH  24  25
HETATM   25  C24 UNL     1     -23.133   8.872   0.650  1.00  0.00     0.172 C 
HETATM   26  O4  UNL     1     -22.277   9.454  -0.036  1.00  0.00    -0.648 OA
HETATM   27  O5  UNL     1     -22.652   8.112   1.718  1.00  0.00    -0.648 OA
ENDBRANCH  24  25
ENDBRANCH  23  24
ENDBRANCH  22  23
ENDBRANCH  21  22
ENDBRANCH  20  21
ENDBRANCH  18  20
BRANCH  14  28
HETATM   28  O3  UNL     1     -26.269   6.298  -6.973  1.00  0.00    -0.396 OA
ATOM     29  H3  UNL     1     -26.304   5.348  -6.972  1.00  0.00     0.210 HD
ENDBRANCH  14  28
BRANCH   4  30
HETATM   30  O1  UNL     1     -26.412  11.790  -9.932  1.00  0.00    -0.395 OA
ATOM     31  H1  UNL     1     -25.490  11.969  -9.792  1.00  0.00     0.210 HD
ENDBRANCH   4  30
TORSDOF 8
ENDMDL
MODEL 2
REMARK VINA RESULT: -8.897459132      1.298      1.633
REMARK  8 active torsions:
REMARK  status: ('A' for Active; 'I' for Inactive)
REMARK    1  A    between atoms: C4_4  and  O1_5 
REMARK    2  A    between atoms: C13_16  and  O3_17 
REMARK    3  A    between atoms: C17_22  and  C19_24 
REMARK    4  A    between atoms: C19_24  and  C20_25 
REMARK    5  A    between atoms: C20_25  and  C21_26 
REMARK    6  A    between atoms: C21_26  and  C22_27 
REMARK    7  A    between atoms: C22_27  and  C23_28 
REMARK    8  A    between atoms: C23_28  and  C24_29 
ROOT
HETATM    1  C1  UNL     1     -27.723  10.486  -6.307  1.00  0.00     0.016 C 
HETATM    2  C2  UNL     1     -26.323  10.254  -6.803  1.00  0.00    -0.027 C 
HETATM    3  C3  UNL     1     -26.300  10.415  -8.319  1.00  0.00     0.042 C 
HETATM    4  C4  UNL     1     -26.972  11.697  -8.745  1.00  0.00     0.126 C 
HETATM    5  C5  UNL     1     -26.786  12.824  -7.788  1.00  0.00     0.110 C 
HETATM    6  C6  UNL     1     -25.779  12.599  -6.748  1.00  0.00     0.134 C 
HETATM    7  O2  UNL     1     -25.242  13.575  -6.208  1.00  0.00    -0.297 OA
HETATM    8  C7  UNL     1     -25.329  11.262  -6.269  1.00  0.00     0.064 C 
HETATM    9  C8  UNL     1     -25.294  11.257  -4.780  1.00  0.00     0.013 C 
HETATM   10  C9  UNL     1     -25.689   9.959  -4.160  1.00  0.00     0.006 C 
HETATM   11  C10 UNL     1     -25.347   8.755  -5.021  1.00  0.00    -0.004 C 
HETATM   12  C11 UNL     1     -25.899   8.877  -6.421  1.00  0.00     0.001 C 
HETATM   13  C12 UNL     1     -24.902   8.273  -7.379  1.00  0.00     0.037 C 
HETATM   14  C13 UNL     1     -25.001   6.746  -7.247  1.00  0.00     0.119 C 
HETATM   15  C14 UNL     1     -24.426   6.309  -5.909  1.00  0.00     0.037 C 
HETATM   16  C15 UNL     1     -25.434   6.258  -4.836  1.00  0.00     0.002 A 
HETATM   17  C16 UNL     1     -25.916   7.562  -4.336  1.00  0.00     0.003 A 
HETATM   18  C17 UNL     1     -25.145   6.699  -3.394  1.00  0.00    -0.035 A 
HETATM   19  C18 UNL     1     -23.720   7.003  -3.105  1.00  0.00     0.016 C 
ENDROOT
BRANCH  18  20
HETATM   20  C19 UNL     1     -25.986   5.939  -2.399  1.00  0.00     0.010 C 
BRANCH  20  21
HETATM   21  C20 UNL     1     -26.035   6.317  -0.998  1.00  0.00     0.001 C 
BRANCH  21  22
HETATM   22  C21 UNL     1     -26.811   5.457  -0.045  1.00  0.00     0.001 C 
BRANCH  22  23
HETATM   23  C22 UNL     1     -27.578   6.286   0.960  1.00  0.00     0.010 C 
BRANCH  23  24
HETATM   24  C23 UNL     1     -26.782   7.373   1.611  1.00  0.00     0.113 C 
BRANCH  24  25
HETATM   25  C24 UNL     1     -25.770   6.928   2.575  1.00  0.00     0.172 C 
HETATM   26  O4  UNL     1     -25.941   6.205   3.571  1.00  0.00    -0.648 OA
HETATM   27  O5  UNL     1     -24.463   7.364   2.350  1.00  0.00    -0.648 OA
ENDBRANCH  24  25
ENDBRANCH  23  24
ENDBRANCH  22  23
ENDBRANCH  21  22
ENDBRANCH  20  21
ENDBRANCH  18  20
BRANCH  14  28
HETATM   28  O3  UNL     1     -26.312   6.393  -7.419  1.00  0.00    -0.396 OA
ATOM     29  H3  UNL     1     -26.480   5.625  -6.887  1.00  0.00     0.210 HD
ENDBRANCH  14  28
BRANCH   4  30
HETATM   30  O1  UNL     1     -26.395  12.085  -9.976  1.00  0.00    -0.395 OA
ATOM     31  H1  UNL     1     -27.054  11.960 -10.648  1.00  0.00     0.210 HD
ENDBRANCH   4  30
TORSDOF 8
ENDMDL
MODEL 3
REMARK VINA RESULT: -8.886065788      1.003      1.198
REMARK  8 active torsions:
REMARK  status: ('A' for Active; 'I' for Inactive)
REMARK    1  A    between atoms: C4_4  and  O1_5 
REMARK    2  A    between atoms: C13_16  and  O3_17 
REMARK    3  A    between atoms: C17_22  and  C19_24 
REMARK    4  A    between atoms: C19_24  and  C20_25 
REMARK    5  A    between atoms: C20_25  and  C21_26 
REMARK    6  A    between atoms: C21_26  and  C22_27 
REMARK    7  A    between atoms: C22_27  and  C23_28 
REMARK    8  A    between atoms: C23_28  and  C24_29 
ROOT
HETATM    1  C1  UNL     1     -27.709  10.485  -6.163  1.00  0.00     0.016 C 
HETATM    2  C2  UNL     1     -26.303  10.221  -6.624  1.00  0.00    -0.027 C 
HETATM    3  C3  UNL     1     -26.268  10.243  -8.149  1.00  0.00     0.042 C 
HETATM    4  C4  UNL     1     -26.948  11.473  -8.695  1.00  0.00     0.126 C 
HETATM    5  C5  UNL     1     -26.780  12.685  -7.846  1.00  0.00     0.110 C 
HETATM    6  C6  UNL     1     -25.780  12.567  -6.782  1.00  0.00     0.134 C 
HETATM    7  O2  UNL     1     -25.257  13.594  -6.330  1.00  0.00    -0.297 OA
HETATM    8  C7  UNL     1     -25.322  11.284  -6.178  1.00  0.00     0.064 C 
HETATM    9  C8  UNL     1     -25.300  11.417  -4.695  1.00  0.00     0.013 C 
HETATM   10  C9  UNL     1     -25.688  10.178  -3.960  1.00  0.00     0.006 C 
HETATM   11  C10 UNL     1     -25.328   8.903  -4.704  1.00  0.00    -0.004 C 
HETATM   12  C11 UNL     1     -25.870   8.890  -6.114  1.00  0.00     0.001 C 
HETATM   13  C12 UNL     1     -24.860   8.210  -7.004  1.00  0.00     0.037 C 
HETATM   14  C13 UNL     1     -24.946   6.700  -6.734  1.00  0.00     0.119 C 
HETATM   15  C14 UNL     1     -24.379   6.395  -5.356  1.00  0.00     0.037 C 
HETATM   16  C15 UNL     1     -25.395   6.433  -4.291  1.00  0.00     0.002 A 
HETATM   17  C16 UNL     1     -25.892   7.773  -3.917  1.00  0.00     0.003 A 
HETATM   18  C17 UNL     1     -25.122   7.007  -2.893  1.00  0.00    -0.035 A 
HETATM   19  C18 UNL     1     -23.702   7.351  -2.623  1.00  0.00     0.016 C 
ENDROOT
BRANCH  18  20
HETATM   20  C19 UNL     1     -25.965   6.335  -1.839  1.00  0.00     0.010 C 
BRANCH  20  21
HETATM   21  C20 UNL     1     -25.587   6.351  -0.438  1.00  0.00     0.001 C 
BRANCH  21  22
HETATM   22  C21 UNL     1     -26.667   6.419   0.601  1.00  0.00     0.001 C 
BRANCH  22  23
HETATM   23  C22 UNL     1     -26.309   7.370   1.720  1.00  0.00     0.010 C 
BRANCH  23  24
HETATM   24  C23 UNL     1     -25.579   6.742   2.865  1.00  0.00     0.113 C 
BRANCH  24  25
HETATM   25  C24 UNL     1     -24.192   7.183   3.052  1.00  0.00     0.172 C 
HETATM   26  O4  UNL     1     -23.473   7.781   2.234  1.00  0.00    -0.648 OA
HETATM   27  O5  UNL     1     -23.612   6.901   4.290  1.00  0.00    -0.648 OA
ENDBRANCH  24  25
ENDBRANCH  23  24
ENDBRANCH  22  23
ENDBRANCH  21  22
ENDBRANCH  20  21
ENDBRANCH  18  20
BRANCH  14  28
HETATM   28  O3  UNL     1     -26.252   6.321  -6.882  1.00  0.00    -0.396 OA
ATOM     29  H3  UNL     1     -26.263   5.478  -7.319  1.00  0.00     0.210 HD
ENDBRANCH  14  28
BRANCH   4  30
HETATM   30  O1  UNL     1     -26.365  11.753  -9.953  1.00  0.00    -0.395 OA
ATOM     31  H1  UNL     1     -26.990  11.491 -10.618  1.00  0.00     0.210 HD
ENDBRANCH   4  30
TORSDOF 8
ENDMDL
MODEL 4
REMARK VINA RESULT: -8.788377847      2.736      7.903
REMARK  8 active torsions:
REMARK  status: ('A' for Active; 'I' for Inactive)
REMARK    1  A    between atoms: C4_4  and  O1_5 
REMARK    2  A    between atoms: C13_16  and  O3_17 
REMARK    3  A    between atoms: C17_22  and  C19_24 
REMARK    4  A    between atoms: C19_24  and  C20_25 
REMARK    5  A    between atoms: C20_25  and  C21_26 
REMARK    6  A    between atoms: C21_26  and  C22_27 
REMARK    7  A    between atoms: C22_27  and  C23_28 
REMARK    8  A    between atoms: C23_28  and  C24_29 
ROOT
HETATM    1  C1  UNL     1     -23.485   5.694  -4.514  1.00  0.00     0.016 C 
HETATM    2  C2  UNL     1     -24.929   5.472  -4.870  1.00  0.00    -0.027 C 
HETATM    3  C3  UNL     1     -25.096   4.053  -5.404  1.00  0.00     0.042 C 
HETATM    4  C4  UNL     1     -24.455   3.042  -4.487  1.00  0.00     0.126 C 
HETATM    5  C5  UNL     1     -24.537   3.398  -3.043  1.00  0.00     0.110 C 
HETATM    6  C6  UNL     1     -25.441   4.506  -2.724  1.00  0.00     0.134 C 
HETATM    7  O2  UNL     1     -25.914   4.589  -1.583  1.00  0.00    -0.297 OA
HETATM    8  C7  UNL     1     -25.857   5.573  -3.679  1.00  0.00     0.064 C 
HETATM    9  C8  UNL     1     -25.748   6.900  -3.014  1.00  0.00     0.013 C 
HETATM   10  C9  UNL     1     -25.308   8.005  -3.914  1.00  0.00     0.006 C 
HETATM   11  C10 UNL     1     -25.744   7.812  -5.357  1.00  0.00    -0.004 C 
HETATM   12  C11 UNL     1     -25.328   6.467  -5.905  1.00  0.00     0.001 C 
HETATM   13  C12 UNL     1     -26.418   5.970  -6.822  1.00  0.00     0.037 C 
HETATM   14  C13 UNL     1     -26.322   6.768  -8.130  1.00  0.00     0.119 C 
HETATM   15  C14 UNL     1     -26.770   8.201  -7.890  1.00  0.00     0.037 C 
HETATM   16  C15 UNL     1     -25.664   9.096  -7.507  1.00  0.00     0.002 A 
HETATM   17  C16 UNL     1     -25.123   8.912  -6.144  1.00  0.00     0.003 A 
HETATM   18  C17 UNL     1     -25.808  10.202  -6.452  1.00  0.00    -0.035 A 
HETATM   19  C18 UNL     1     -27.196  10.437  -5.976  1.00  0.00     0.016 C 
ENDROOT
BRANCH  18  20
HETATM   20  C19 UNL     1     -24.883  11.360  -6.727  1.00  0.00     0.010 C 
BRANCH  20  21
HETATM   21  C20 UNL     1     -25.355  12.577  -7.361  1.00  0.00     0.001 C 
BRANCH  21  22
HETATM   22  C21 UNL     1     -24.543  13.175  -8.471  1.00  0.00     0.001 C 
BRANCH  22  23
HETATM   23  C22 UNL     1     -24.887  14.630  -8.696  1.00  0.00     0.010 C 
BRANCH  23  24
HETATM   24  C23 UNL     1     -25.908  15.184  -7.754  1.00  0.00     0.113 C 
BRANCH  24  25
HETATM   25  C24 UNL     1     -27.225  15.462  -8.338  1.00  0.00     0.172 C 
HETATM   26  O4  UNL     1     -27.955  16.443  -8.122  1.00  0.00    -0.648 OA
HETATM   27  O5  UNL     1     -27.715  14.517  -9.241  1.00  0.00    -0.648 OA
ENDBRANCH  24  25
ENDBRANCH  23  24
ENDBRANCH  22  23
ENDBRANCH  21  22
ENDBRANCH  20  21
ENDBRANCH  18  20
BRANCH  14  28
HETATM   28  O3  UNL     1     -25.037   6.667  -8.591  1.00  0.00    -0.396 OA
ATOM     29  H3  UNL     1     -25.073   6.558  -9.533  1.00  0.00     0.210 HD
ENDBRANCH  14  28
BRANCH   4  30
HETATM   30  O1  UNL     1     -25.143   1.820  -4.662  1.00  0.00    -0.395 OA
ATOM     31  H1  UNL     1     -26.033   1.950  -4.358  1.00  0.00     0.210 HD
ENDBRANCH   4  30
TORSDOF 8
ENDMDL
MODEL 5
REMARK VINA RESULT: -8.782986698      3.981      7.297
REMARK  8 active torsions:
REMARK  status: ('A' for Active; 'I' for Inactive)
REMARK    1  A    between atoms: C4_4  and  O1_5 
REMARK    2  A    between atoms: C13_16  and  O3_17 
REMARK    3  A    between atoms: C17_22  and  C19_24 
REMARK    4  A    between atoms: C19_24  and  C20_25 
REMARK    5  A    between atoms: C20_25  and  C21_26 
REMARK    6  A    between atoms: C21_26  and  C22_27 
REMARK    7  A    between atoms: C22_27  and  C23_28 
REMARK    8  A    between atoms: C23_28  and  C24_29 
ROOT
HETATM    1  C1  UNL     1     -23.832   2.396  -2.176  1.00  0.00     0.016 C 
HETATM    2  C2  UNL     1     -25.050   2.685  -3.008  1.00  0.00    -0.027 C 
HETATM    3  C3  UNL     1     -25.183   1.611  -4.083  1.00  0.00     0.042 C 
HETATM    4  C4  UNL     1     -25.070   0.228  -3.493  1.00  0.00     0.126 C 
HETATM    5  C5  UNL     1     -25.644   0.105  -2.124  1.00  0.00     0.110 C 
HETATM    6  C6  UNL     1     -26.453   1.245  -1.682  1.00  0.00     0.134 C 
HETATM    7  O2  UNL     1     -27.306   1.073  -0.802  1.00  0.00    -0.297 OA
HETATM    8  C7  UNL     1     -26.338   2.632  -2.215  1.00  0.00     0.064 C 
HETATM    9  C8  UNL     1     -26.319   3.596  -1.081  1.00  0.00     0.013 C 
HETATM   10  C9  UNL     1     -25.436   4.779  -1.293  1.00  0.00     0.006 C 
HETATM   11  C10 UNL     1     -25.315   5.183  -2.753  1.00  0.00    -0.004 C 
HETATM   12  C11 UNL     1     -24.899   4.029  -3.634  1.00  0.00     0.001 C 
HETATM   13  C12 UNL     1     -25.616   4.157  -4.954  1.00  0.00     0.037 C 
HETATM   14  C13 UNL     1     -24.933   5.282  -5.746  1.00  0.00     0.119 C 
HETATM   15  C14 UNL     1     -25.252   6.624  -5.106  1.00  0.00     0.037 C 
HETATM   16  C15 UNL     1     -24.268   7.027  -4.087  1.00  0.00     0.002 A 
HETATM   17  C16 UNL     1     -24.309   6.278  -2.813  1.00  0.00     0.003 A 
HETATM   18  C17 UNL     1     -24.657   7.729  -2.778  1.00  0.00    -0.035 A 
HETATM   19  C18 UNL     1     -26.079   8.149  -2.691  1.00  0.00     0.016 C 
ENDROOT
BRANCH  18  20
HETATM   20  C19 UNL     1     -23.556   8.632  -2.279  1.00  0.00     0.010 C 
BRANCH  20  21
HETATM   21  C20 UNL     1     -23.649   9.309  -1.000  1.00  0.00     0.001 C 
BRANCH  21  22
HETATM   22  C21 UNL     1     -22.840   8.789   0.152  1.00  0.00     0.001 C 
BRANCH  22  23
HETATM   23  C22 UNL     1     -23.715   8.417   1.328  1.00  0.00     0.010 C 
BRANCH  23  24
HETATM   24  C23 UNL     1     -24.736   7.363   1.038  1.00  0.00     0.113 C 
BRANCH  24  25
HETATM   25  C24 UNL     1     -25.753   7.162   2.077  1.00  0.00     0.172 C 
HETATM   26  O4  UNL     1     -25.775   6.281   2.952  1.00  0.00    -0.648 OA
HETATM   27  O5  UNL     1     -26.818   8.065   2.085  1.00  0.00    -0.648 OA
ENDBRANCH  24  25
ENDBRANCH  23  24
ENDBRANCH  22  23
ENDBRANCH  21  22
ENDBRANCH  20  21
ENDBRANCH  18  20
BRANCH  14  28
HETATM   28  O3  UNL     1     -23.594   5.006  -5.797  1.00  0.00    -0.396 OA
ATOM     29  H3  UNL     1     -23.193   5.614  -6.406  1.00  0.00     0.210 HD
ENDBRANCH  14  28
BRANCH   4  30
HETATM   30  O1  UNL     1     -25.791  -0.649  -4.335  1.00  0.00    -0.395 OA
ATOM     31  H1  UNL     1     -25.518  -1.534  -4.123  1.00  0.00     0.210 HD
ENDBRANCH   4  30
TORSDOF 8
ENDMDL
