MODEL 1
REMARK VINA RESULT: -8.054480314      0.000      0.000
REMARK  13 active torsions:
REMARK  status: ('A' for Active; 'I' for Inactive)
REMARK    1  A    between atoms: C2_2  and  C4_4 
REMARK    2  A    between atoms: C4_4  and  C5_5 
REMARK    3  A    between atoms: C5_5  and  C6_6 
REMARK    4  A    between atoms: C5_5  and  C8_10 
REMARK    5  A    between atoms: C6_6  and  C7_7 
REMARK    6  A    between atoms: C8_10  and  C9_11 
REMARK    7  A    between atoms: C8_10  and  N1_15 
REMARK    8  A    between atoms: C9_11  and  C10_12 
REMARK       I    between atoms: N1_15  and  C13_17 
REMARK    9  A    between atoms: C13_17  and  C14_19 
REMARK       I    between atoms: N3_26  and  C18_28 
REMARK       I    between atoms: C18_28  and  N4_30 
REMARK   10  A    between atoms: N4_30  and  C19_32 
REMARK   11  A    between atoms: C19_32  and  C20_33 
REMARK   12  A    between atoms: C20_33  and  C21_34 
REMARK   13  A    between atoms: C21_34  and  C22_35 
ROOT
HETATM    1  C14 UNL     1      21.704  12.155  23.136  1.00  0.00     0.306 C 
HETATM    2  N2  UNL     1      22.614  11.325  22.398  1.00  0.00    -0.301 N 
HETATM    3  C15 UNL     1      23.384  10.312  21.789  1.00  0.00     0.242 C 
HETATM    4  O4  UNL     1      23.224   9.076  21.903  1.00  0.00    -0.272 OA
HETATM    5  C16 UNL     1      24.475  10.875  20.946  1.00  0.00     0.198 C 
HETATM    6 BR1  UNL     1      24.074  10.590  19.076  1.00  0.00    -0.075 Br
HETATM    7  C17 UNL     1      24.457  12.293  21.315  1.00  0.00     0.052 C 
HETATM    8  N3  UNL     1      25.422  13.119  21.181  1.00  0.00    -0.312 N 
ATOM      9  H3  UNL     1      25.237  14.073  21.492  1.00  0.00     0.170 HD
HETATM   10  C18 UNL     1      26.695  12.884  20.664  1.00  0.00     0.320 C 
HETATM   11  O5  UNL     1      26.890  11.936  19.864  1.00  0.00    -0.247 OA
HETATM   12  N4  UNL     1      27.811  13.684  21.006  1.00  0.00    -0.343 N 
ATOM     13  H4  UNL     1      27.674  14.458  21.655  1.00  0.00     0.164 HD
HETATM   14  C23 UNL     1      23.146  12.599  21.865  1.00  0.00     0.262 C 
HETATM   15  S1  UNL     1      23.108  13.178  23.539  1.00  0.00     0.202 S 
HETATM   16  O6  UNL     1      22.808  14.612  23.723  1.00  0.00    -0.223 OA
HETATM   17  O7  UNL     1      24.138  12.569  24.404  1.00  0.00    -0.223 OA
ENDROOT
BRANCH   1  18
HETATM   18  C13 UNL     1      20.965  11.616  24.258  1.00  0.00     0.256 C 
HETATM   19  N1  UNL     1      19.894  12.270  24.894  1.00  0.00    -0.353 N 
ATOM     20  H1  UNL     1      19.607  13.185  24.546  1.00  0.00     0.163 HD
HETATM   21  O3  UNL     1      21.353  10.463  24.660  1.00  0.00    -0.270 OA
BRANCH  19  22
HETATM   22  C8  UNL     1      19.164  11.691  26.050  1.00  0.00     0.089 C 
BRANCH  22  23
HETATM   23  C5  UNL     1      17.765  11.373  25.677  1.00  0.00     0.018 C 
BRANCH  23  24
HETATM   24  C4  UNL     1      17.366  11.042  24.316  1.00  0.00     0.011 C 
BRANCH  24  25
HETATM   25  C2  UNL     1      16.666   9.785  23.966  1.00  0.00    -0.022 C 
HETATM   26  C1  UNL     1      15.522  10.244  22.991  1.00  0.00     0.009 C 
HETATM   27  C3  UNL     1      16.006   9.092  25.105  1.00  0.00     0.009 C 
ENDBRANCH  24  25
ENDBRANCH  23  24
BRANCH  23  28
HETATM   28  C6  UNL     1      16.834  12.524  26.130  1.00  0.00     0.119 C 
BRANCH  28  29
HETATM   29  C7  UNL     1      16.663  13.551  25.090  1.00  0.00     0.172 C 
HETATM   30  O1  UNL     1      15.613  13.679  24.443  1.00  0.00    -0.648 OA
HETATM   31  O2  UNL     1      17.721  14.405  24.830  1.00  0.00    -0.648 OA
ENDBRANCH  28  29
ENDBRANCH  23  28
ENDBRANCH  22  23
BRANCH  22  32
HETATM   32  C9  UNL     1      19.466  12.524  27.217  1.00  0.00     0.029 C 
BRANCH  32  33
HETATM   33  C10 UNL     1      19.841  11.726  28.459  1.00  0.00    -0.021 C 
HETATM   34  C11 UNL     1      21.297  12.024  28.742  1.00  0.00     0.009 C 
HETATM   35  C12 UNL     1      19.035  12.073  29.657  1.00  0.00     0.009 C 
ENDBRANCH  32  33
ENDBRANCH  22  32
ENDBRANCH  19  22
ENDBRANCH   1  18
BRANCH  12  36
HETATM   36  C19 UNL     1      29.136  13.455  20.478  1.00  0.00     0.124 C 
BRANCH  36  37
HETATM   37  C20 UNL     1      29.992  12.737  21.474  1.00  0.00     0.020 C 
BRANCH  37  38
HETATM   38  C21 UNL     1      30.056  11.268  21.203  1.00  0.00     0.012 C 
BRANCH  38  39
HETATM   39  C22 UNL     1      29.340  10.457  22.244  1.00  0.00     0.085 C 
HETATM   40 BR2  UNL     1      28.325   9.078  21.339  1.00  0.00    -0.097 Br
ENDBRANCH  38  39
ENDBRANCH  37  38
ENDBRANCH  36  37
ENDBRANCH  12  36
TORSDOF 13
ENDMDL
MODEL 2
REMARK VINA RESULT: -7.983551120      1.613      2.155
REMARK  13 active torsions:
REMARK  status: ('A' for Active; 'I' for Inactive)
REMARK    1  A    between atoms: C2_2  and  C4_4 
REMARK    2  A    between atoms: C4_4  and  C5_5 
REMARK    3  A    between atoms: C5_5  and  C6_6 
REMARK    4  A    between atoms: C5_5  and  C8_10 
REMARK    5  A    between atoms: C6_6  and  C7_7 
REMARK    6  A    between atoms: C8_10  and  C9_11 
REMARK    7  A    between atoms: C8_10  and  N1_15 
REMARK    8  A    between atoms: C9_11  and  C10_12 
REMARK       I    between atoms: N1_15  and  C13_17 
REMARK    9  A    between atoms: C13_17  and  C14_19 
REMARK       I    between atoms: N3_26  and  C18_28 
REMARK       I    between atoms: C18_28  and  N4_30 
REMARK   10  A    between atoms: N4_30  and  C19_32 
REMARK   11  A    between atoms: C19_32  and  C20_33 
REMARK   12  A    between atoms: C20_33  and  C21_34 
REMARK   13  A    between atoms: C21_34  and  C22_35 
ROOT
HETATM    1  C14 UNL     1      21.934  12.251  22.953  1.00  0.00     0.306 C 
HETATM    2  N2  UNL     1      22.833  11.394  22.233  1.00  0.00    -0.301 N 
HETATM    3  C15 UNL     1      23.575  10.359  21.627  1.00  0.00     0.242 C 
HETATM    4  O4  UNL     1      23.337   9.131  21.685  1.00  0.00    -0.272 OA
HETATM    5  C16 UNL     1      24.741  10.884  20.864  1.00  0.00     0.198 C 
HETATM    6 BR1  UNL     1      24.427  10.689  18.967  1.00  0.00    -0.075 Br
HETATM    7  C17 UNL     1      24.785  12.287  21.285  1.00  0.00     0.052 C 
HETATM    8  N3  UNL     1      25.803  13.058  21.233  1.00  0.00    -0.312 N 
ATOM      9  H3  UNL     1      25.657  14.010  21.570  1.00  0.00     0.170 HD
HETATM   10  C18 UNL     1      27.086  12.765  20.775  1.00  0.00     0.320 C 
HETATM   11  O5  UNL     1      27.269  11.835  19.952  1.00  0.00    -0.247 OA
HETATM   12  N4  UNL     1      28.226  13.484  21.205  1.00  0.00    -0.343 N 
ATOM     13  H4  UNL     1      28.099  14.242  21.875  1.00  0.00     0.164 HD
HETATM   14  C23 UNL     1      23.466  12.652  21.777  1.00  0.00     0.262 C 
HETATM   15  S1  UNL     1      23.370  13.174  23.468  1.00  0.00     0.202 S 
HETATM   16  O6  UNL     1      23.145  14.616  23.690  1.00  0.00    -0.223 OA
HETATM   17  O7  UNL     1      24.315  12.474  24.362  1.00  0.00    -0.223 OA
ENDROOT
BRANCH   1  18
HETATM   18  C13 UNL     1      21.104  11.719  24.014  1.00  0.00     0.256 C 
HETATM   19  N1  UNL     1      19.975  12.369  24.544  1.00  0.00    -0.353 N 
ATOM     20  H1  UNL     1      19.710  13.275  24.158  1.00  0.00     0.163 HD
HETATM   21  O3  UNL     1      21.468  10.576  24.465  1.00  0.00    -0.270 OA
BRANCH  19  22
HETATM   22  C8  UNL     1      19.152  11.797  25.640  1.00  0.00     0.089 C 
BRANCH  22  23
HETATM   23  C5  UNL     1      17.794  11.461  25.151  1.00  0.00     0.018 C 
BRANCH  23  24
HETATM   24  C4  UNL     1      17.551  10.475  24.107  1.00  0.00     0.011 C 
BRANCH  24  25
HETATM   25  C2  UNL     1      16.561   9.382  24.248  1.00  0.00    -0.022 C 
HETATM   26  C1  UNL     1      15.437   9.751  23.212  1.00  0.00     0.009 C 
HETATM   27  C3  UNL     1      15.904   9.293  25.580  1.00  0.00     0.009 C 
ENDBRANCH  24  25
ENDBRANCH  23  24
BRANCH  23  28
HETATM   28  C6  UNL     1      17.073  12.755  24.697  1.00  0.00     0.119 C 
BRANCH  28  29
HETATM   29  C7  UNL     1      15.738  12.895  25.299  1.00  0.00     0.172 C 
HETATM   30  O1  UNL     1      15.549  12.851  26.524  1.00  0.00    -0.648 OA
HETATM   31  O2  UNL     1      14.654  13.086  24.458  1.00  0.00    -0.648 OA
ENDBRANCH  28  29
ENDBRANCH  23  28
ENDBRANCH  22  23
BRANCH  22  32
HETATM   32  C9  UNL     1      19.345  12.647  26.817  1.00  0.00     0.029 C 
BRANCH  32  33
HETATM   33  C10 UNL     1      20.258  12.034  27.872  1.00  0.00    -0.021 C 
HETATM   34  C11 UNL     1      20.136  10.532  27.729  1.00  0.00     0.009 C 
HETATM   35  C12 UNL     1      21.684  12.418  27.723  1.00  0.00     0.009 C 
ENDBRANCH  32  33
ENDBRANCH  22  32
ENDBRANCH  19  22
ENDBRANCH   1  18
BRANCH  12  36
HETATM   36  C19 UNL     1      29.563  13.195  20.739  1.00  0.00     0.124 C 
BRANCH  36  37
HETATM   37  C20 UNL     1      30.215  14.424  20.189  1.00  0.00     0.020 C 
BRANCH  37  38
HETATM   38  C21 UNL     1      29.243  15.300  19.466  1.00  0.00     0.012 C 
BRANCH  38  39
HETATM   39  C22 UNL     1      29.800  15.845  18.182  1.00  0.00     0.085 C 
HETATM   40 BR2  UNL     1      31.678  15.379  18.095  1.00  0.00    -0.097 Br
ENDBRANCH  38  39
ENDBRANCH  37  38
ENDBRANCH  36  37
ENDBRANCH  12  36
TORSDOF 13
ENDMDL
MODEL 3
REMARK VINA RESULT: -7.975769763      1.574      2.061
REMARK  13 active torsions:
REMARK  status: ('A' for Active; 'I' for Inactive)
REMARK    1  A    between atoms: C2_2  and  C4_4 
REMARK    2  A    between atoms: C4_4  and  C5_5 
REMARK    3  A    between atoms: C5_5  and  C6_6 
REMARK    4  A    between atoms: C5_5  and  C8_10 
REMARK    5  A    between atoms: C6_6  and  C7_7 
REMARK    6  A    between atoms: C8_10  and  C9_11 
REMARK    7  A    between atoms: C8_10  and  N1_15 
REMARK    8  A    between atoms: C9_11  and  C10_12 
REMARK       I    between atoms: N1_15  and  C13_17 
REMARK    9  A    between atoms: C13_17  and  C14_19 
REMARK       I    between atoms: N3_26  and  C18_28 
REMARK       I    between atoms: C18_28  and  N4_30 
REMARK   10  A    between atoms: N4_30  and  C19_32 
REMARK   11  A    between atoms: C19_32  and  C20_33 
REMARK   12  A    between atoms: C20_33  and  C21_34 
REMARK   13  A    between atoms: C21_34  and  C22_35 
ROOT
HETATM    1  C14 UNL     1      21.983  12.213  22.860  1.00  0.00     0.306 C 
HETATM    2  N2  UNL     1      22.899  11.363  22.151  1.00  0.00    -0.301 N 
HETATM    3  C15 UNL     1      23.658  10.335  21.555  1.00  0.00     0.242 C 
HETATM    4  O4  UNL     1      23.433   9.105  21.614  1.00  0.00    -0.272 OA
HETATM    5  C16 UNL     1      24.825  10.871  20.802  1.00  0.00     0.198 C 
HETATM    6 BR1  UNL     1      24.532  10.668  18.902  1.00  0.00    -0.075 Br
HETATM    7  C17 UNL     1      24.850  12.276  21.220  1.00  0.00     0.052 C 
HETATM    8  N3  UNL     1      25.860  13.058  21.176  1.00  0.00    -0.312 N 
ATOM      9  H3  UNL     1      25.700  14.009  21.509  1.00  0.00     0.170 HD
HETATM   10  C18 UNL     1      27.151  12.778  20.731  1.00  0.00     0.320 C 
HETATM   11  O5  UNL     1      27.352  11.848  19.911  1.00  0.00    -0.247 OA
HETATM   12  N4  UNL     1      28.279  13.510  21.170  1.00  0.00    -0.343 N 
ATOM     13  H4  UNL     1      28.137  14.268  21.837  1.00  0.00     0.164 HD
HETATM   14  C23 UNL     1      23.523  12.627  21.698  1.00  0.00     0.262 C 
HETATM   15  S1  UNL     1      23.405  13.152  23.386  1.00  0.00     0.202 S 
HETATM   16  O6  UNL     1      23.162  14.592  23.602  1.00  0.00    -0.223 OA
HETATM   17  O7  UNL     1      24.348  12.465  24.291  1.00  0.00    -0.223 OA
ENDROOT
BRANCH   1  18
HETATM   18  C13 UNL     1      21.150  11.674  23.914  1.00  0.00     0.256 C 
HETATM   19  N1  UNL     1      20.266  12.437  24.698  1.00  0.00    -0.353 N 
ATOM     20  H1  UNL     1      20.194  13.438  24.516  1.00  0.00     0.163 HD
HETATM   21  O3  UNL     1      21.264  10.412  24.104  1.00  0.00    -0.270 OA
BRANCH  19  22
HETATM   22  C8  UNL     1      19.431  11.852  25.778  1.00  0.00     0.089 C 
BRANCH  22  23
HETATM   23  C5  UNL     1      18.046  11.626  25.303  1.00  0.00     0.018 C 
BRANCH  23  24
HETATM   24  C4  UNL     1      17.619  10.384  24.673  1.00  0.00     0.011 C 
BRANCH  24  25
HETATM   25  C2  UNL     1      16.233  10.155  24.204  1.00  0.00    -0.022 C 
HETATM   26  C1  UNL     1      15.748   8.914  25.038  1.00  0.00     0.009 C 
HETATM   27  C3  UNL     1      16.106   9.784  22.769  1.00  0.00     0.009 C 
ENDBRANCH  24  25
ENDBRANCH  23  24
BRANCH  23  28
HETATM   28  C6  UNL     1      17.640  12.762  24.332  1.00  0.00     0.119 C 
BRANCH  28  29
HETATM   29  C7  UNL     1      16.962  13.873  25.019  1.00  0.00     0.172 C 
HETATM   30  O1  UNL     1      15.825  13.767  25.501  1.00  0.00    -0.648 OA
HETATM   31  O2  UNL     1      17.628  15.083  25.127  1.00  0.00    -0.648 OA
ENDBRANCH  28  29
ENDBRANCH  23  28
ENDBRANCH  22  23
BRANCH  22  32
HETATM   32  C9  UNL     1      19.699  12.619  26.997  1.00  0.00     0.029 C 
BRANCH  32  33
HETATM   33  C10 UNL     1      20.000  11.752  28.213  1.00  0.00    -0.021 C 
HETATM   34  C11 UNL     1      21.436  12.034  28.601  1.00  0.00     0.009 C 
HETATM   35  C12 UNL     1      19.122  12.030  29.377  1.00  0.00     0.009 C 
ENDBRANCH  32  33
ENDBRANCH  22  32
ENDBRANCH  19  22
ENDBRANCH   1  18
BRANCH  12  36
HETATM   36  C19 UNL     1      29.623  13.234  20.718  1.00  0.00     0.124 C 
BRANCH  36  37
HETATM   37  C20 UNL     1      30.285  14.479  20.215  1.00  0.00     0.020 C 
BRANCH  37  38
HETATM   38  C21 UNL     1      29.296  15.462  19.677  1.00  0.00     0.012 C 
BRANCH  38  39
HETATM   39  C22 UNL     1      29.614  15.893  18.275  1.00  0.00     0.085 C 
HETATM   40 BR2  UNL     1      31.493  15.551  17.952  1.00  0.00    -0.097 Br
ENDBRANCH  38  39
ENDBRANCH  37  38
ENDBRANCH  36  37
ENDBRANCH  12  36
TORSDOF 13
ENDMDL
MODEL 4
REMARK VINA RESULT: -7.942665316      1.667      2.120
REMARK  13 active torsions:
REMARK  status: ('A' for Active; 'I' for Inactive)
REMARK    1  A    between atoms: C2_2  and  C4_4 
REMARK    2  A    between atoms: C4_4  and  C5_5 
REMARK    3  A    between atoms: C5_5  and  C6_6 
REMARK    4  A    between atoms: C5_5  and  C8_10 
REMARK    5  A    between atoms: C6_6  and  C7_7 
REMARK    6  A    between atoms: C8_10  and  C9_11 
REMARK    7  A    between atoms: C8_10  and  N1_15 
REMARK    8  A    between atoms: C9_11  and  C10_12 
REMARK       I    between atoms: N1_15  and  C13_17 
REMARK    9  A    between atoms: C13_17  and  C14_19 
REMARK       I    between atoms: N3_26  and  C18_28 
REMARK       I    between atoms: C18_28  and  N4_30 
REMARK   10  A    between atoms: N4_30  and  C19_32 
REMARK   11  A    between atoms: C19_32  and  C20_33 
REMARK   12  A    between atoms: C20_33  and  C21_34 
REMARK   13  A    between atoms: C21_34  and  C22_35 
ROOT
HETATM    1  C14 UNL     1      21.393  12.458  23.579  1.00  0.00     0.306 C 
HETATM    2  N2  UNL     1      22.193  11.794  22.589  1.00  0.00    -0.301 N 
HETATM    3  C15 UNL     1      22.803  10.953  21.636  1.00  0.00     0.242 C 
HETATM    4  O4  UNL     1      22.371   9.855  21.217  1.00  0.00    -0.272 OA
HETATM    5  C16 UNL     1      24.087  11.518  21.136  1.00  0.00     0.198 C 
HETATM    6 BR1  UNL     1      23.880  12.110  19.308  1.00  0.00    -0.075 Br
HETATM    7  C17 UNL     1      24.323  12.628  22.064  1.00  0.00     0.052 C 
HETATM    8  N3  UNL     1      25.451  13.173  22.316  1.00  0.00    -0.312 N 
ATOM      9  H3  UNL     1      25.434  13.937  22.992  1.00  0.00     0.170 HD
HETATM   10  C18 UNL     1      26.701  12.858  21.785  1.00  0.00     0.320 C 
HETATM   11  O5  UNL     1      26.792  12.291  20.669  1.00  0.00    -0.247 OA
HETATM   12  N4  UNL     1      27.907  13.154  22.463  1.00  0.00    -0.343 N 
ATOM     13  H4  UNL     1      27.855  13.613  23.372  1.00  0.00     0.164 HD
HETATM   14  C23 UNL     1      23.048  13.001  22.653  1.00  0.00     0.262 C 
HETATM   15  S1  UNL     1      22.918  12.855  24.414  1.00  0.00     0.202 S 
HETATM   16  O6  UNL     1      22.908  14.122  25.172  1.00  0.00    -0.223 OA
HETATM   17  O7  UNL     1      23.675  11.718  24.975  1.00  0.00    -0.223 OA
ENDROOT
BRANCH   1  18
HETATM   18  C13 UNL     1      20.418  11.716  24.351  1.00  0.00     0.256 C 
HETATM   19  N1  UNL     1      19.334  12.297  25.033  1.00  0.00    -0.353 N 
ATOM     20  H1  UNL     1      19.213  13.309  24.983  1.00  0.00     0.163 HD
HETATM   21  O3  UNL     1      20.601  10.449  24.383  1.00  0.00    -0.270 OA
BRANCH  19  22
HETATM   22  C8  UNL     1      18.357  11.506  25.825  1.00  0.00     0.089 C 
BRANCH  22  23
HETATM   23  C5  UNL     1      17.172  11.167  25.002  1.00  0.00     0.018 C 
BRANCH  23  24
HETATM   24  C4  UNL     1      17.020   9.886  24.325  1.00  0.00     0.011 C 
BRANCH  24  25
HETATM   25  C2  UNL     1      15.856   8.996  24.540  1.00  0.00    -0.022 C 
HETATM   26  C1  UNL     1      15.094   9.027  23.165  1.00  0.00     0.009 C 
HETATM   27  C3  UNL     1      14.893   9.456  25.575  1.00  0.00     0.009 C 
ENDBRANCH  24  25
ENDBRANCH  23  24
BRANCH  23  28
HETATM   28  C6  UNL     1      16.967  12.253  23.917  1.00  0.00     0.119 C 
BRANCH  28  29
HETATM   29  C7  UNL     1      16.028  13.303  24.344  1.00  0.00     0.172 C 
HETATM   30  O1  UNL     1      16.343  14.501  24.397  1.00  0.00    -0.648 OA
HETATM   31  O2  UNL     1      14.742  12.930  24.698  1.00  0.00    -0.648 OA
ENDBRANCH  28  29
ENDBRANCH  23  28
ENDBRANCH  22  23
BRANCH  22  32
HETATM   32  C9  UNL     1      18.214  12.167  27.124  1.00  0.00     0.029 C 
BRANCH  32  33
HETATM   33  C10 UNL     1      19.417  11.983  28.041  1.00  0.00    -0.021 C 
HETATM   34  C11 UNL     1      18.906  12.125  29.459  1.00  0.00     0.009 C 
HETATM   35  C12 UNL     1      20.081  10.664  27.896  1.00  0.00     0.009 C 
ENDBRANCH  32  33
ENDBRANCH  22  32
ENDBRANCH  19  22
ENDBRANCH   1  18
BRANCH  12  36
HETATM   36  C19 UNL     1      29.211  12.835  21.926  1.00  0.00     0.124 C 
BRANCH  36  37
HETATM   37  C20 UNL     1      29.961  14.080  21.569  1.00  0.00     0.020 C 
BRANCH  37  38
HETATM   38  C21 UNL     1      30.023  14.294  20.091  1.00  0.00     0.012 C 
BRANCH  38  39
HETATM   39  C22 UNL     1      28.932  15.195  19.591  1.00  0.00     0.085 C 
HETATM   40 BR2  UNL     1      29.563  16.069  17.982  1.00  0.00    -0.097 Br
ENDBRANCH  38  39
ENDBRANCH  37  38
ENDBRANCH  36  37
ENDBRANCH  12  36
TORSDOF 13
ENDMDL
MODEL 5
REMARK VINA RESULT: -7.917793171      1.806      2.234
REMARK  13 active torsions:
REMARK  status: ('A' for Active; 'I' for Inactive)
REMARK    1  A    between atoms: C2_2  and  C4_4 
REMARK    2  A    between atoms: C4_4  and  C5_5 
REMARK    3  A    between atoms: C5_5  and  C6_6 
REMARK    4  A    between atoms: C5_5  and  C8_10 
REMARK    5  A    between atoms: C6_6  and  C7_7 
REMARK    6  A    between atoms: C8_10  and  C9_11 
REMARK    7  A    between atoms: C8_10  and  N1_15 
REMARK    8  A    between atoms: C9_11  and  C10_12 
REMARK       I    between atoms: N1_15  and  C13_17 
REMARK    9  A    between atoms: C13_17  and  C14_19 
REMARK       I    between atoms: N3_26  and  C18_28 
REMARK       I    between atoms: C18_28  and  N4_30 
REMARK   10  A    between atoms: N4_30  and  C19_32 
REMARK   11  A    between atoms: C19_32  and  C20_33 
REMARK   12  A    between atoms: C20_33  and  C21_34 
REMARK   13  A    between atoms: C21_34  and  C22_35 
ROOT
HETATM    1  C14 UNL     1      22.076  11.759  22.670  1.00  0.00     0.306 C 
HETATM    2  N2  UNL     1      23.109  11.062  21.955  1.00  0.00    -0.301 N 
HETATM    3  C15 UNL     1      24.001  10.164  21.333  1.00  0.00     0.242 C 
HETATM    4  O4  UNL     1      23.909   8.916  21.302  1.00  0.00    -0.272 OA
HETATM    5  C16 UNL     1      25.134  10.872  20.675  1.00  0.00     0.198 C 
HETATM    6 BR1  UNL     1      24.946  10.770  18.754  1.00  0.00    -0.075 Br
HETATM    7  C17 UNL     1      24.987  12.239  21.183  1.00  0.00     0.052 C 
HETATM    8  N3  UNL     1      25.906  13.125  21.239  1.00  0.00    -0.312 N 
ATOM      9  H3  UNL     1      25.629  14.028  21.624  1.00  0.00     0.170 HD
HETATM   10  C18 UNL     1      27.238  13.015  20.843  1.00  0.00     0.320 C 
HETATM   11  O5  UNL     1      27.574  12.171  19.977  1.00  0.00    -0.247 OA
HETATM   12  N4  UNL     1      28.259  13.831  21.384  1.00  0.00    -0.343 N 
ATOM     13  H4  UNL     1      28.006  14.522  22.090  1.00  0.00     0.164 HD
HETATM   14  C23 UNL     1      23.610  12.413  21.615  1.00  0.00     0.262 C 
HETATM   15  S1  UNL     1      23.363  12.805  23.326  1.00  0.00     0.202 S 
HETATM   16  O6  UNL     1      22.954  14.193  23.621  1.00  0.00    -0.223 OA
HETATM   17  O7  UNL     1      24.336  12.161  24.231  1.00  0.00    -0.223 OA
ENDROOT
BRANCH   1  18
HETATM   18  C13 UNL     1      21.262  11.063  23.644  1.00  0.00     0.256 C 
HETATM   19  N1  UNL     1      20.291  11.677  24.455  1.00  0.00    -0.353 N 
ATOM     20  H1  UNL     1      20.137  12.681  24.353  1.00  0.00     0.163 HD
HETATM   21  O3  UNL     1      21.481   9.804  23.735  1.00  0.00    -0.270 OA
BRANCH  19  22
HETATM   22  C8  UNL     1      19.480  10.933  25.451  1.00  0.00     0.089 C 
BRANCH  22  23
HETATM   23  C5  UNL     1      18.033  11.113  25.185  1.00  0.00     0.018 C 
BRANCH  23  24
HETATM   24  C4  UNL     1      17.217  10.097  24.533  1.00  0.00     0.011 C 
BRANCH  24  25
HETATM   25  C2  UNL     1      15.752  10.229  24.361  1.00  0.00    -0.022 C 
HETATM   26  C1  UNL     1      15.155   9.524  25.633  1.00  0.00     0.009 C 
HETATM   27  C3  UNL     1      15.189   9.527  23.177  1.00  0.00     0.009 C 
ENDBRANCH  24  25
ENDBRANCH  23  24
BRANCH  23  28
HETATM   28  C6  UNL     1      17.812  12.420  24.384  1.00  0.00     0.119 C 
BRANCH  28  29
HETATM   29  C7  UNL     1      17.350  13.529  25.234  1.00  0.00     0.172 C 
HETATM   30  O1  UNL     1      17.663  14.709  25.022  1.00  0.00    -0.648 OA
HETATM   31  O2  UNL     1      16.531  13.233  26.311  1.00  0.00    -0.648 OA
ENDBRANCH  28  29
ENDBRANCH  23  28
ENDBRANCH  22  23
BRANCH  22  32
HETATM   32  C9  UNL     1      20.048  11.216  26.772  1.00  0.00     0.029 C 
BRANCH  32  33
HETATM   33  C10 UNL     1      20.526  12.654  26.938  1.00  0.00    -0.021 C 
HETATM   34  C11 UNL     1      19.696  13.260  28.049  1.00  0.00     0.009 C 
HETATM   35  C12 UNL     1      21.963  12.767  27.291  1.00  0.00     0.009 C 
ENDBRANCH  32  33
ENDBRANCH  22  32
ENDBRANCH  19  22
ENDBRANCH   1  18
BRANCH  12  36
HETATM   36  C19 UNL     1      29.643  13.732  20.983  1.00  0.00     0.124 C 
BRANCH  36  37
HETATM   37  C20 UNL     1      30.516  14.571  21.862  1.00  0.00     0.020 C 
BRANCH  37  38
HETATM   38  C21 UNL     1      29.731  15.295  22.907  1.00  0.00     0.012 C 
BRANCH  38  39
HETATM   39  C22 UNL     1      30.591  15.804  24.028  1.00  0.00     0.085 C 
HETATM   40 BR2  UNL     1      29.636  15.531  25.691  1.00  0.00    -0.097 Br
ENDBRANCH  38  39
ENDBRANCH  37  38
ENDBRANCH  36  37
ENDBRANCH  12  36
TORSDOF 13
ENDMDL
