MODEL 1
REMARK VINA RESULT: -8.298686117      0.000      0.000
REMARK  16 active torsions:
REMARK  status: ('A' for Active; 'I' for Inactive)
REMARK    1  A    between atoms: C2_2  and  C3_3 
REMARK    2  A    between atoms: C3_3  and  C5_5 
REMARK    3  A    between atoms: C5_5  and  C6_7 
REMARK    4  A    between atoms: C6_7  and  O2_8 
REMARK    5  A    between atoms: C6_7  and  N1_10 
REMARK    6  A    between atoms: N1_10  and  C8_12 
REMARK    7  A    between atoms: C8_12  and  C9_13 
REMARK    8  A    between atoms: C8_12  and  C15_20 
REMARK    9  A    between atoms: C9_13  and  C10_14 
REMARK   10  A    between atoms: C10_14  and  C11_15 
REMARK   11  A    between atoms: C11_15  and  C12_16 
REMARK   12  A    between atoms: C12_16  and  N2_17 
REMARK       I    between atoms: C15_20  and  N3_22 
REMARK   13  A    between atoms: N3_22  and  C16_24 
REMARK   14  A    between atoms: C17_28  and  C19_30 
REMARK   15  A    between atoms: C22_34  and  C23_35 
REMARK   16  A    between atoms: C29_42  and  O4_43 
ROOT
HETATM    1  C16 UNL     1      19.390  12.729  24.824  1.00  0.00     0.292 C 
HETATM    2  N4  UNL     1      19.681  11.972  26.043  1.00  0.00    -0.044 N 
ATOM      3  H41 UNL     1      20.577  12.254  26.441  1.00  0.00     0.280 HD
ATOM      4  H42 UNL     1      19.894  10.999  25.826  1.00  0.00     0.280 HD
HETATM    5  C17 UNL     1      18.636  12.062  27.018  1.00  0.00     0.141 C 
HETATM    6  C18 UNL     1      18.686  13.499  27.543  1.00  0.00     0.048 C 
HETATM    7  C20 UNL     1      17.326  11.679  26.417  1.00  0.00     0.033 C 
HETATM    8  C21 UNL     1      16.308  12.798  26.450  1.00  0.00     0.019 C 
HETATM    9  C22 UNL     1      15.835  12.900  25.020  1.00  0.00    -0.020 C 
HETATM   10  C24 UNL     1      17.046  13.517  24.282  1.00  0.00     0.020 C 
HETATM   11  C25 UNL     1      18.066  12.382  24.216  1.00  0.00     0.046 C 
HETATM   12  C26 UNL     1      17.386  11.306  24.954  1.00  0.00    -0.017 C 
HETATM   13  C27 UNL     1      17.563   9.924  24.597  1.00  0.00     0.014 C 
HETATM   14  C28 UNL     1      16.250   9.290  25.087  1.00  0.00     0.033 C 
HETATM   15  C29 UNL     1      15.225  10.423  25.069  1.00  0.00     0.128 C 
HETATM   16  C30 UNL     1      15.931  11.534  24.465  1.00  0.00    -0.001 C 
HETATM   17  C31 UNL     1      15.797  11.498  22.984  1.00  0.00     0.019 C 
ENDROOT
BRANCH   1  18
HETATM   18  N3  UNL     1      20.467  12.316  23.906  1.00  0.00    -0.331 N 
HETATM   19  C15 UNL     1      21.799  12.691  24.099  1.00  0.00     0.242 C 
HETATM   20  O3  UNL     1      22.076  13.412  25.093  1.00  0.00    -0.271 OA
ATOM     21  H3  UNL     1      20.232  11.735  23.102  1.00  0.00     0.164 HD
BRANCH  19  22
HETATM   22  C8  UNL     1      22.940  12.306  23.214  1.00  0.00     0.178 C 
BRANCH  22  23
HETATM   23  N1  UNL     1      22.871  10.886  23.019  1.00  0.00    -0.350 N 
HETATM   24  C7  UNL     1      22.682  10.107  24.264  1.00  0.00     0.152 C 
BRANCH  23  25
HETATM   25  C6  UNL     1      22.957  10.154  21.831  1.00  0.00     0.186 C 
BRANCH  25  26
HETATM   26  C5  UNL     1      23.941  10.270  20.783  1.00  0.00     0.203 C 
HETATM   27  O1  UNL     1      25.115   9.884  20.940  1.00  0.00    -0.288 OA
BRANCH  26  28
HETATM   28  C3  UNL     1      23.569  10.867  19.458  1.00  0.00     0.060 C 
HETATM   29  C4  UNL     1      24.688  10.807  18.459  1.00  0.00     0.018 C 
BRANCH  28  30
HETATM   30  C2  UNL     1      23.042  12.269  19.582  1.00  0.00     0.008 C 
HETATM   31  C1  UNL     1      23.604  13.137  18.470  1.00  0.00     0.006 C 
ENDBRANCH  28  30
ENDBRANCH  26  28
ENDBRANCH  25  26
BRANCH  25  32
HETATM   32  O2  UNL     1      22.033   9.252  21.648  1.00  0.00    -0.344 OA
ATOM     33  H2  UNL     1      21.881   8.660  22.375  1.00  0.00     0.219 HD
ENDBRANCH  25  32
ENDBRANCH  23  25
ENDBRANCH  22  23
BRANCH  22  34
HETATM   34  C9  UNL     1      24.282  12.695  23.806  1.00  0.00     0.035 C 
BRANCH  34  35
HETATM   35  C10 UNL     1      25.006  13.719  22.985  1.00  0.00     0.004 C 
BRANCH  35  36
HETATM   36  C11 UNL     1      26.007  13.083  22.037  1.00  0.00     0.030 C 
BRANCH  36  37
HETATM   37  C12 UNL     1      27.368  13.150  22.733  1.00  0.00     0.271 C 
BRANCH  37  38
HETATM   38  N2  UNL     1      28.345  12.568  21.817  1.00  0.00     0.080 N 
HETATM   39  C13 UNL     1      27.716  12.312  20.529  1.00  0.00     0.309 C 
HETATM   40  C14 UNL     1      28.856  11.313  22.378  1.00  0.00     0.309 C 
ENDBRANCH  37  38
ENDBRANCH  36  37
ENDBRANCH  35  36
ENDBRANCH  34  35
ENDBRANCH  22  34
ENDBRANCH  19  22
ENDBRANCH   1  18
BRANCH   5  41
HETATM   41  C19 UNL     1      19.035  11.231  28.224  1.00  0.00     0.153 C 
HETATM   42 CL1  UNL     1      18.959  12.042  29.763  1.00  0.00    -0.128 Cl
ENDBRANCH   5  41
BRANCH   9  43
HETATM   43  C23 UNL     1      14.599  13.661  24.828  1.00  0.00     0.095 C 
HETATM   44 BR1  UNL     1      15.033  15.468  24.261  1.00  0.00    -0.096 Br
ENDBRANCH   9  43
BRANCH  15  45
HETATM   45  O4  UNL     1      14.589  10.581  26.264  1.00  0.00    -0.395 OA
ATOM     46  H4  UNL     1      14.057  11.367  26.297  1.00  0.00     0.210 HD
ENDBRANCH  15  45
TORSDOF 16
ENDMDL
MODEL 2
REMARK VINA RESULT: -8.236359221      1.203      1.798
REMARK  16 active torsions:
REMARK  status: ('A' for Active; 'I' for Inactive)
REMARK    1  A    between atoms: C2_2  and  C3_3 
REMARK    2  A    between atoms: C3_3  and  C5_5 
REMARK    3  A    between atoms: C5_5  and  C6_7 
REMARK    4  A    between atoms: C6_7  and  O2_8 
REMARK    5  A    between atoms: C6_7  and  N1_10 
REMARK    6  A    between atoms: N1_10  and  C8_12 
REMARK    7  A    between atoms: C8_12  and  C9_13 
REMARK    8  A    between atoms: C8_12  and  C15_20 
REMARK    9  A    between atoms: C9_13  and  C10_14 
REMARK   10  A    between atoms: C10_14  and  C11_15 
REMARK   11  A    between atoms: C11_15  and  C12_16 
REMARK   12  A    between atoms: C12_16  and  N2_17 
REMARK       I    between atoms: C15_20  and  N3_22 
REMARK   13  A    between atoms: N3_22  and  C16_24 
REMARK   14  A    between atoms: C17_28  and  C19_30 
REMARK   15  A    between atoms: C22_34  and  C23_35 
REMARK   16  A    between atoms: C29_42  and  O4_43 
ROOT
HETATM    1  C16 UNL     1      19.406  12.759  24.814  1.00  0.00     0.292 C 
HETATM    2  N4  UNL     1      19.717  11.985  26.017  1.00  0.00    -0.044 N 
ATOM      3  H41 UNL     1      20.620  12.261  26.404  1.00  0.00     0.280 HD
ATOM      4  H42 UNL     1      19.926  11.015  25.783  1.00  0.00     0.280 HD
HETATM    5  C17 UNL     1      18.690  12.062  27.011  1.00  0.00     0.141 C 
HETATM    6  C18 UNL     1      18.749  13.492  27.555  1.00  0.00     0.048 C 
HETATM    7  C20 UNL     1      17.369  11.688  26.427  1.00  0.00     0.033 C 
HETATM    8  C21 UNL     1      16.352  12.806  26.493  1.00  0.00     0.019 C 
HETATM    9  C22 UNL     1      15.856  12.928  25.072  1.00  0.00    -0.020 C 
HETATM   10  C24 UNL     1      17.054  13.554  24.322  1.00  0.00     0.020 C 
HETATM   11  C25 UNL     1      18.072  12.420  24.223  1.00  0.00     0.046 C 
HETATM   12  C26 UNL     1      17.404  11.334  24.957  1.00  0.00    -0.017 C 
HETATM   13  C27 UNL     1      17.573   9.958  24.579  1.00  0.00     0.014 C 
HETATM   14  C28 UNL     1      16.269   9.317  25.083  1.00  0.00     0.033 C 
HETATM   15  C29 UNL     1      15.244  10.451  25.097  1.00  0.00     0.128 C 
HETATM   16  C30 UNL     1      15.941  11.570  24.497  1.00  0.00    -0.001 C 
HETATM   17  C31 UNL     1      15.782  11.555  23.018  1.00  0.00     0.019 C 
ENDROOT
BRANCH   1  18
HETATM   18  N3  UNL     1      20.467  12.358  23.872  1.00  0.00    -0.331 N 
HETATM   19  C15 UNL     1      21.802  12.735  24.044  1.00  0.00     0.242 C 
HETATM   20  O3  UNL     1      22.095  13.446  25.040  1.00  0.00    -0.271 OA
ATOM     21  H3  UNL     1      20.219  11.784  23.066  1.00  0.00     0.164 HD
BRANCH  19  22
HETATM   22  C8  UNL     1      22.927  12.361  23.134  1.00  0.00     0.178 C 
BRANCH  22  23
HETATM   23  N1  UNL     1      22.884  10.938  22.961  1.00  0.00    -0.350 N 
HETATM   24  C7  UNL     1      22.696  10.175  24.217  1.00  0.00     0.152 C 
BRANCH  23  25
HETATM   25  C6  UNL     1      22.995  10.189  21.786  1.00  0.00     0.186 C 
BRANCH  25  26
HETATM   26  C5  UNL     1      23.993  10.298  20.751  1.00  0.00     0.203 C 
HETATM   27  O1  UNL     1      25.169   9.929  20.932  1.00  0.00    -0.288 OA
BRANCH  26  28
HETATM   28  C3  UNL     1      23.635  10.867  19.410  1.00  0.00     0.060 C 
HETATM   29  C4  UNL     1      24.756  10.768  18.417  1.00  0.00     0.018 C 
BRANCH  28  30
HETATM   30  C2  UNL     1      23.125  12.279  19.496  1.00  0.00     0.008 C 
HETATM   31  C1  UNL     1      23.718  13.116  18.377  1.00  0.00     0.006 C 
ENDBRANCH  28  30
ENDBRANCH  26  28
ENDBRANCH  25  26
BRANCH  25  32
HETATM   32  O2  UNL     1      22.082   9.275  21.603  1.00  0.00    -0.344 OA
ATOM     33  H2  UNL     1      21.187   9.543  21.775  1.00  0.00     0.219 HD
ENDBRANCH  25  32
ENDBRANCH  23  25
ENDBRANCH  22  23
BRANCH  22  34
HETATM   34  C9  UNL     1      24.276  12.788  23.685  1.00  0.00     0.035 C 
BRANCH  34  35
HETATM   35  C10 UNL     1      25.246  13.176  22.612  1.00  0.00     0.004 C 
BRANCH  35  36
HETATM   36  C11 UNL     1      26.284  14.164  23.113  1.00  0.00     0.030 C 
BRANCH  36  37
HETATM   37  C12 UNL     1      25.895  14.511  24.552  1.00  0.00     0.271 C 
BRANCH  37  38
HETATM   38  N2  UNL     1      26.007  15.961  24.686  1.00  0.00     0.080 N 
HETATM   39  C13 UNL     1      26.246  16.308  26.080  1.00  0.00     0.309 C 
HETATM   40  C14 UNL     1      24.768  16.593  24.222  1.00  0.00     0.309 C 
ENDBRANCH  37  38
ENDBRANCH  36  37
ENDBRANCH  35  36
ENDBRANCH  34  35
ENDBRANCH  22  34
ENDBRANCH  19  22
ENDBRANCH   1  18
BRANCH   5  41
HETATM   41  C19 UNL     1      19.108  11.214  28.198  1.00  0.00     0.153 C 
HETATM   42 CL1  UNL     1      18.919  11.953  29.762  1.00  0.00    -0.128 Cl
ENDBRANCH   5  41
BRANCH   9  43
HETATM   43  C23 UNL     1      14.617  13.692  24.912  1.00  0.00     0.095 C 
HETATM   44 BR1  UNL     1      15.043  15.512  24.379  1.00  0.00    -0.096 Br
ENDBRANCH   9  43
BRANCH  15  45
HETATM   45  O4  UNL     1      14.629  10.593  26.305  1.00  0.00    -0.395 OA
ATOM     46  H4  UNL     1      15.185  10.345  27.033  1.00  0.00     0.210 HD
ENDBRANCH  15  45
TORSDOF 16
ENDMDL
MODEL 3
REMARK VINA RESULT: -7.516285797      4.063      9.489
REMARK  16 active torsions:
REMARK  status: ('A' for Active; 'I' for Inactive)
REMARK    1  A    between atoms: C2_2  and  C3_3 
REMARK    2  A    between atoms: C3_3  and  C5_5 
REMARK    3  A    between atoms: C5_5  and  C6_7 
REMARK    4  A    between atoms: C6_7  and  O2_8 
REMARK    5  A    between atoms: C6_7  and  N1_10 
REMARK    6  A    between atoms: N1_10  and  C8_12 
REMARK    7  A    between atoms: C8_12  and  C9_13 
REMARK    8  A    between atoms: C8_12  and  C15_20 
REMARK    9  A    between atoms: C9_13  and  C10_14 
REMARK   10  A    between atoms: C10_14  and  C11_15 
REMARK   11  A    between atoms: C11_15  and  C12_16 
REMARK   12  A    between atoms: C12_16  and  N2_17 
REMARK       I    between atoms: C15_20  and  N3_22 
REMARK   13  A    between atoms: N3_22  and  C16_24 
REMARK   14  A    between atoms: C17_28  and  C19_30 
REMARK   15  A    between atoms: C22_34  and  C23_35 
REMARK   16  A    between atoms: C29_42  and  O4_43 
ROOT
HETATM    1  C16 UNL     1      26.045  14.077  23.356  1.00  0.00     0.292 C 
HETATM    2  N4  UNL     1      27.193  13.258  22.962  1.00  0.00    -0.044 N 
ATOM      3  H41 UNL     1      26.902  12.486  22.363  1.00  0.00     0.280 HD
ATOM      4  H42 UNL     1      27.551  12.727  23.756  1.00  0.00     0.280 HD
HETATM    5  C17 UNL     1      28.236  14.021  22.345  1.00  0.00     0.141 C 
HETATM    6  C18 UNL     1      27.686  14.437  20.978  1.00  0.00     0.048 C 
HETATM    7  C20 UNL     1      28.631  15.165  23.215  1.00  0.00     0.033 C 
HETATM    8  C21 UNL     1      28.408  16.513  22.563  1.00  0.00     0.019 C 
HETATM    9  C22 UNL     1      27.596  17.277  23.581  1.00  0.00    -0.020 C 
HETATM   10  C24 UNL     1      26.209  16.597  23.523  1.00  0.00     0.020 C 
HETATM   11  C25 UNL     1      26.420  15.249  24.209  1.00  0.00     0.046 C 
HETATM   12  C26 UNL     1      27.860  15.273  24.510  1.00  0.00    -0.017 C 
HETATM   13  C27 UNL     1      28.390  14.641  25.688  1.00  0.00     0.014 C 
HETATM   14  C28 UNL     1      29.668  15.458  25.949  1.00  0.00     0.033 C 
HETATM   15  C29 UNL     1      29.403  16.828  25.325  1.00  0.00     0.128 C 
HETATM   16  C30 UNL     1      28.020  16.766  24.901  1.00  0.00    -0.001 C 
HETATM   17  C31 UNL     1      27.113  17.184  26.004  1.00  0.00     0.019 C 
ENDROOT
BRANCH   1  18
HETATM   18  N3  UNL     1      25.224  13.145  24.151  1.00  0.00    -0.331 N 
HETATM   19  C15 UNL     1      23.829  13.230  24.198  1.00  0.00     0.242 C 
HETATM   20  O3  UNL     1      23.267  14.141  23.539  1.00  0.00    -0.271 OA
ATOM     21  H3  UNL     1      25.690  12.411  24.684  1.00  0.00     0.164 HD
BRANCH  19  22
HETATM   22  C8  UNL     1      22.937  12.318  24.976  1.00  0.00     0.178 C 
BRANCH  22  23
HETATM   23  N1  UNL     1      22.192  11.536  24.031  1.00  0.00    -0.350 N 
HETATM   24  C7  UNL     1      20.755  11.884  23.949  1.00  0.00     0.152 C 
BRANCH  23  25
HETATM   25  C6  UNL     1      22.635  10.508  23.194  1.00  0.00     0.186 C 
BRANCH  25  26
HETATM   26  C5  UNL     1      22.809  10.538  21.763  1.00  0.00     0.203 C 
HETATM   27  O1  UNL     1      22.406   9.613  21.033  1.00  0.00    -0.288 OA
BRANCH  26  28
HETATM   28  C3  UNL     1      23.489  11.704  21.107  1.00  0.00     0.060 C 
HETATM   29  C4  UNL     1      22.828  12.117  19.824  1.00  0.00     0.018 C 
BRANCH  28  30
HETATM   30  C2  UNL     1      24.960  11.472  20.895  1.00  0.00     0.008 C 
HETATM   31  C1  UNL     1      25.350  11.859  19.480  1.00  0.00     0.006 C 
ENDBRANCH  28  30
ENDBRANCH  26  28
ENDBRANCH  25  26
BRANCH  25  32
HETATM   32  O2  UNL     1      22.929   9.381  23.781  1.00  0.00    -0.344 OA
ATOM     33  H2  UNL     1      22.539   8.602  23.403  1.00  0.00     0.219 HD
ENDBRANCH  25  32
ENDBRANCH  23  25
ENDBRANCH  22  23
BRANCH  22  34
HETATM   34  C9  UNL     1      21.996  13.081  25.891  1.00  0.00     0.035 C 
BRANCH  34  35
HETATM   35  C10 UNL     1      22.519  13.206  27.290  1.00  0.00     0.004 C 
BRANCH  35  36
HETATM   36  C11 UNL     1      21.433  12.980  28.326  1.00  0.00     0.030 C 
BRANCH  36  37
HETATM   37  C12 UNL     1      20.763  11.650  27.970  1.00  0.00     0.271 C 
BRANCH  37  38
HETATM   38  N2  UNL     1      19.375  11.739  28.418  1.00  0.00     0.080 N 
HETATM   39  C13 UNL     1      18.548  12.275  27.346  1.00  0.00     0.309 C 
HETATM   40  C14 UNL     1      19.294  12.613  29.592  1.00  0.00     0.309 C 
ENDBRANCH  37  38
ENDBRANCH  36  37
ENDBRANCH  35  36
ENDBRANCH  34  35
ENDBRANCH  22  34
ENDBRANCH  19  22
ENDBRANCH   1  18
BRANCH   5  41
HETATM   41  C19 UNL     1      29.374  13.080  21.997  1.00  0.00     0.153 C 
HETATM   42 CL1  UNL     1      29.010  11.852  20.818  1.00  0.00    -0.128 Cl
ENDBRANCH   5  41
BRANCH   9  43
HETATM   43  C23 UNL     1      27.534  18.724  23.365  1.00  0.00     0.095 C 
HETATM   44 BR1  UNL     1      25.763  19.208  22.728  1.00  0.00    -0.096 Br
ENDBRANCH   9  43
BRANCH  15  45
HETATM   45  O4  UNL     1      30.375  17.206  24.448  1.00  0.00    -0.395 OA
ATOM     46  H4  UNL     1      30.074  17.218  23.547  1.00  0.00     0.210 HD
ENDBRANCH  15  45
TORSDOF 16
ENDMDL
MODEL 4
REMARK VINA RESULT: -7.409678183      1.614      3.368
REMARK  16 active torsions:
REMARK  status: ('A' for Active; 'I' for Inactive)
REMARK    1  A    between atoms: C2_2  and  C3_3 
REMARK    2  A    between atoms: C3_3  and  C5_5 
REMARK    3  A    between atoms: C5_5  and  C6_7 
REMARK    4  A    between atoms: C6_7  and  O2_8 
REMARK    5  A    between atoms: C6_7  and  N1_10 
REMARK    6  A    between atoms: N1_10  and  C8_12 
REMARK    7  A    between atoms: C8_12  and  C9_13 
REMARK    8  A    between atoms: C8_12  and  C15_20 
REMARK    9  A    between atoms: C9_13  and  C10_14 
REMARK   10  A    between atoms: C10_14  and  C11_15 
REMARK   11  A    between atoms: C11_15  and  C12_16 
REMARK   12  A    between atoms: C12_16  and  N2_17 
REMARK       I    between atoms: C15_20  and  N3_22 
REMARK   13  A    between atoms: N3_22  and  C16_24 
REMARK   14  A    between atoms: C17_28  and  C19_30 
REMARK   15  A    between atoms: C22_34  and  C23_35 
REMARK   16  A    between atoms: C29_42  and  O4_43 
ROOT
HETATM    1  C16 UNL     1      19.454  12.454  24.795  1.00  0.00     0.292 C 
HETATM    2  N4  UNL     1      19.680  11.792  26.081  1.00  0.00    -0.044 N 
ATOM      3  H41 UNL     1      20.589  12.047  26.467  1.00  0.00     0.280 HD
ATOM      4  H42 UNL     1      19.828  10.791  25.955  1.00  0.00     0.280 HD
HETATM    5  C17 UNL     1      18.634  12.040  27.027  1.00  0.00     0.141 C 
HETATM    6  C18 UNL     1      18.777  13.511  27.423  1.00  0.00     0.048 C 
HETATM    7  C20 UNL     1      17.307  11.693  26.441  1.00  0.00     0.033 C 
HETATM    8  C21 UNL     1      16.367  12.876  26.358  1.00  0.00     0.019 C 
HETATM    9  C22 UNL     1      15.918  12.881  24.916  1.00  0.00    -0.020 C 
HETATM   10  C24 UNL     1      17.176  13.346  24.146  1.00  0.00     0.020 C 
HETATM   11  C25 UNL     1      18.116  12.144  24.198  1.00  0.00     0.046 C 
HETATM   12  C26 UNL     1      17.356  11.186  25.018  1.00  0.00    -0.017 C 
HETATM   13  C27 UNL     1      17.441   9.770  24.788  1.00  0.00     0.014 C 
HETATM   14  C28 UNL     1      16.083   9.272  25.312  1.00  0.00     0.033 C 
HETATM   15  C29 UNL     1      15.138  10.465  25.175  1.00  0.00     0.128 C 
HETATM   16  C30 UNL     1      15.925  11.467  24.487  1.00  0.00    -0.001 C 
HETATM   17  C31 UNL     1      15.804  11.308  23.013  1.00  0.00     0.019 C 
ENDROOT
BRANCH   1  18
HETATM   18  N3  UNL     1      20.509  11.888  23.935  1.00  0.00    -0.331 N 
HETATM   19  C15 UNL     1      21.869  12.050  24.216  1.00  0.00     0.242 C 
HETATM   20  O3  UNL     1      22.191  12.708  25.238  1.00  0.00    -0.271 OA
ATOM     21  H3  UNL     1      20.238  11.360  23.106  1.00  0.00     0.164 HD
BRANCH  19  22
HETATM   22  C8  UNL     1      22.989  11.502  23.393  1.00  0.00     0.178 C 
BRANCH  22  23
HETATM   23  N1  UNL     1      23.675  12.616  22.803  1.00  0.00    -0.350 N 
HETATM   24  C7  UNL     1      22.913  13.305  21.736  1.00  0.00     0.152 C 
BRANCH  23  25
HETATM   25  C6  UNL     1      24.942  13.127  23.095  1.00  0.00     0.186 C 
BRANCH  25  26
HETATM   26  C5  UNL     1      25.294  14.133  24.067  1.00  0.00     0.203 C 
HETATM   27  O1  UNL     1      25.095  13.967  25.285  1.00  0.00    -0.288 OA
BRANCH  26  28
HETATM   28  C3  UNL     1      25.919  15.424  23.627  1.00  0.00     0.060 C 
HETATM   29  C4  UNL     1      27.336  15.575  24.100  1.00  0.00     0.018 C 
BRANCH  28  30
HETATM   30  C2  UNL     1      25.101  16.625  24.011  1.00  0.00     0.008 C 
HETATM   31  C1  UNL     1      25.861  17.899  23.688  1.00  0.00     0.006 C 
ENDBRANCH  28  30
ENDBRANCH  26  28
ENDBRANCH  25  26
BRANCH  25  32
HETATM   32  O2  UNL     1      25.931  12.631  22.404  1.00  0.00    -0.344 OA
ATOM     33  H2  UNL     1      26.567  12.123  22.894  1.00  0.00     0.219 HD
ENDBRANCH  25  32
ENDBRANCH  23  25
ENDBRANCH  22  23
BRANCH  22  34
HETATM   34  C9  UNL     1      22.498  10.551  22.316  1.00  0.00     0.035 C 
BRANCH  34  35
HETATM   35  C10 UNL     1      23.571  10.169  21.342  1.00  0.00     0.004 C 
BRANCH  35  36
HETATM   36  C11 UNL     1      23.114  10.321  19.903  1.00  0.00     0.030 C 
BRANCH  36  37
HETATM   37  C12 UNL     1      24.380  10.332  19.043  1.00  0.00     0.271 C 
BRANCH  37  38
HETATM   38  N2  UNL     1      25.061  11.598  19.305  1.00  0.00     0.080 N 
HETATM   39  C13 UNL     1      24.517  12.635  18.440  1.00  0.00     0.309 C 
HETATM   40  C14 UNL     1      26.498  11.443  19.050  1.00  0.00     0.309 C 
ENDBRANCH  37  38
ENDBRANCH  36  37
ENDBRANCH  35  36
ENDBRANCH  34  35
ENDBRANCH  22  34
ENDBRANCH  19  22
ENDBRANCH   1  18
BRANCH   5  41
HETATM   41  C19 UNL     1      18.962  11.295  28.308  1.00  0.00     0.153 C 
HETATM   42 CL1  UNL     1      18.802  12.211  29.780  1.00  0.00    -0.128 Cl
ENDBRANCH   5  41
BRANCH   9  43
HETATM   43  C23 UNL     1      14.739  13.703  24.637  1.00  0.00     0.095 C 
HETATM   44 BR1  UNL     1      13.986  14.345  26.310  1.00  0.00    -0.096 Br
ENDBRANCH   9  43
BRANCH  15  45
HETATM   45  O4  UNL     1      14.503  10.772  26.341  1.00  0.00    -0.395 OA
ATOM     46  H4  UNL     1      13.556  10.768  26.257  1.00  0.00     0.210 HD
ENDBRANCH  15  45
TORSDOF 16
ENDMDL
MODEL 5
REMARK VINA RESULT: -7.221908776      3.961      9.715
REMARK  16 active torsions:
REMARK  status: ('A' for Active; 'I' for Inactive)
REMARK    1  A    between atoms: C2_2  and  C3_3 
REMARK    2  A    between atoms: C3_3  and  C5_5 
REMARK    3  A    between atoms: C5_5  and  C6_7 
REMARK    4  A    between atoms: C6_7  and  O2_8 
REMARK    5  A    between atoms: C6_7  and  N1_10 
REMARK    6  A    between atoms: N1_10  and  C8_12 
REMARK    7  A    between atoms: C8_12  and  C9_13 
REMARK    8  A    between atoms: C8_12  and  C15_20 
REMARK    9  A    between atoms: C9_13  and  C10_14 
REMARK   10  A    between atoms: C10_14  and  C11_15 
REMARK   11  A    between atoms: C11_15  and  C12_16 
REMARK   12  A    between atoms: C12_16  and  N2_17 
REMARK       I    between atoms: C15_20  and  N3_22 
REMARK   13  A    between atoms: N3_22  and  C16_24 
REMARK   14  A    between atoms: C17_28  and  C19_30 
REMARK   15  A    between atoms: C22_34  and  C23_35 
REMARK   16  A    between atoms: C29_42  and  O4_43 
ROOT
HETATM    1  C16 UNL     1      25.408  12.968  22.188  1.00  0.00     0.292 C 
HETATM    2  N4  UNL     1      25.383  11.782  21.329  1.00  0.00    -0.044 N 
ATOM      3  H41 UNL     1      24.424  11.491  21.138  1.00  0.00     0.280 HD
ATOM      4  H42 UNL     1      25.709  10.958  21.836  1.00  0.00     0.280 HD
HETATM    5  C17 UNL     1      26.118  11.958  20.113  1.00  0.00     0.141 C 
HETATM    6  C18 UNL     1      25.299  12.946  19.278  1.00  0.00     0.048 C 
HETATM    7  C20 UNL     1      27.507  12.415  20.404  1.00  0.00     0.033 C 
HETATM    8  C21 UNL     1      27.825  13.769  19.808  1.00  0.00     0.019 C 
HETATM    9  C22 UNL     1      28.356  14.563  20.978  1.00  0.00    -0.020 C 
HETATM   10  C24 UNL     1      27.100  14.818  21.842  1.00  0.00     0.020 C 
HETATM   11  C25 UNL     1      26.793  13.461  22.473  1.00  0.00     0.046 C 
HETATM   12  C26 UNL     1      27.821  12.596  21.871  1.00  0.00    -0.017 C 
HETATM   13  C27 UNL     1      28.397  11.499  22.599  1.00  0.00     0.014 C 
HETATM   14  C28 UNL     1      29.780  11.360  21.940  1.00  0.00     0.033 C 
HETATM   15  C29 UNL     1      30.102  12.748  21.388  1.00  0.00     0.128 C 
HETATM   16  C30 UNL     1      29.019  13.583  21.863  1.00  0.00    -0.001 C 
HETATM   17  C31 UNL     1      29.333  14.135  23.208  1.00  0.00     0.019 C 
ENDROOT
BRANCH   1  18
HETATM   18  N3  UNL     1      24.799  12.488  23.442  1.00  0.00    -0.331 N 
HETATM   19  C15 UNL     1      23.451  12.696  23.746  1.00  0.00     0.242 C 
HETATM   20  O3  UNL     1      22.743  13.320  22.915  1.00  0.00    -0.271 OA
ATOM     21  H3  UNL     1      25.382  11.986  24.112  1.00  0.00     0.164 HD
BRANCH  19  22
HETATM   22  C8  UNL     1      22.768  12.234  24.993  1.00  0.00     0.178 C 
BRANCH  22  23
HETATM   23  N1  UNL     1      21.576  11.541  24.598  1.00  0.00    -0.350 N 
HETATM   24  C7  UNL     1      21.816  10.219  23.974  1.00  0.00     0.152 C 
BRANCH  23  25
HETATM   25  C6  UNL     1      20.242  11.940  24.721  1.00  0.00     0.186 C 
BRANCH  25  26
HETATM   26  C5  UNL     1      19.149  11.220  25.327  1.00  0.00     0.203 C 
HETATM   27  O1  UNL     1      18.350  10.547  24.648  1.00  0.00    -0.288 OA
BRANCH  26  28
HETATM   28  C3  UNL     1      18.945  11.262  26.812  1.00  0.00     0.060 C 
HETATM   29  C4  UNL     1      18.502  12.611  27.301  1.00  0.00     0.018 C 
BRANCH  28  30
HETATM   30  C2  UNL     1      20.152  10.792  27.577  1.00  0.00     0.008 C 
HETATM   31  C1  UNL     1      20.598  11.862  28.557  1.00  0.00     0.006 C 
ENDBRANCH  28  30
ENDBRANCH  26  28
ENDBRANCH  25  26
BRANCH  25  32
HETATM   32  O2  UNL     1      19.949  13.111  24.227  1.00  0.00    -0.344 OA
ATOM     33  H2  UNL     1      20.479  13.836  24.536  1.00  0.00     0.219 HD
ENDBRANCH  25  32
ENDBRANCH  23  25
ENDBRANCH  22  23
BRANCH  22  34
HETATM   34  C9  UNL     1      22.429  13.387  25.921  1.00  0.00     0.035 C 
BRANCH  34  35
HETATM   35  C10 UNL     1      23.638  13.983  26.575  1.00  0.00     0.004 C 
BRANCH  35  36
HETATM   36  C11 UNL     1      24.037  15.302  25.938  1.00  0.00     0.030 C 
BRANCH  36  37
HETATM   37  C12 UNL     1      25.535  15.206  25.642  1.00  0.00     0.271 C 
BRANCH  37  38
HETATM   38  N2  UNL     1      25.932  16.474  25.034  1.00  0.00     0.080 N 
HETATM   39  C13 UNL     1      26.077  17.489  26.068  1.00  0.00     0.309 C 
HETATM   40  C14 UNL     1      24.913  16.893  24.066  1.00  0.00     0.309 C 
ENDBRANCH  37  38
ENDBRANCH  36  37
ENDBRANCH  35  36
ENDBRANCH  34  35
ENDBRANCH  22  34
ENDBRANCH  19  22
ENDBRANCH   1  18
BRANCH   5  41
HETATM   41  C19 UNL     1      26.039  10.670  19.316  1.00  0.00     0.153 C 
HETATM   42 CL1  UNL     1      24.476  10.281  18.655  1.00  0.00    -0.128 Cl
ENDBRANCH   5  41
BRANCH   9  43
HETATM   43  C23 UNL     1      29.066  15.793  20.621  1.00  0.00     0.095 C 
HETATM   44 BR1  UNL     1      29.348  15.843  18.699  1.00  0.00    -0.096 Br
ENDBRANCH   9  43
BRANCH  15  45
HETATM   45  O4  UNL     1      30.425  12.728  20.064  1.00  0.00    -0.395 OA
ATOM     46  H4  UNL     1      31.325  12.471  19.907  1.00  0.00     0.210 HD
ENDBRANCH  15  45
TORSDOF 16
ENDMDL
