MODEL 1
REMARK VINA RESULT: -7.891502277      0.000      0.000
REMARK  16 active torsions:
REMARK  status: ('A' for Active; 'I' for Inactive)
REMARK    1  A    between atoms: N1_5  and  C4_6 
REMARK    2  A    between atoms: C4_6  and  C5_7 
REMARK    3  A    between atoms: C5_7  and  C6_8 
REMARK    4  A    between atoms: C6_8  and  C7_9 
REMARK    5  A    between atoms: C7_9  and  C8_10 
REMARK    6  A    between atoms: C8_10  and  C9_11 
REMARK    7  A    between atoms: C9_11  and  N2_12 
REMARK    8  A    between atoms: C16_20  and  O3_21 
REMARK    9  A    between atoms: C17_25  and  C18_26 
REMARK   10  A    between atoms: C18_26  and  C19_27 
REMARK   11  A    between atoms: C19_27  and  C20_28 
REMARK   12  A    between atoms: C20_28  and  C21_29 
REMARK   13  A    between atoms: C21_29  and  N4_30 
REMARK   14  A    between atoms: C22_34  and  O4_35 
REMARK   15  A    between atoms: C23_39  and  C24_40 
REMARK   16  A    between atoms: C24_40  and  C25_41 
ROOT
HETATM    1  C1  UNL     1      22.888  12.591  19.924  1.00  0.00     0.042 C 
HETATM    2  C2  UNL     1      24.095  12.157  20.773  1.00  0.00     0.175 C 
HETATM    3  C3  UNL     1      23.602  11.286  21.859  1.00  0.00     0.249 C 
HETATM    4  O1  UNL     1      24.049  10.085  21.873  1.00  0.00    -0.271 OA
HETATM    5  N1  UNL     1      22.690  11.603  22.900  1.00  0.00    -0.280 N 
HETATM    6  C15 UNL     1      22.777  12.732  23.769  1.00  0.00     0.301 C 
HETATM    7  O2  UNL     1      21.732  13.501  23.796  1.00  0.00    -0.263 OA
HETATM    8  C16 UNL     1      23.854  13.176  24.646  1.00  0.00     0.210 C 
HETATM    9  N3  UNL     1      25.225  13.134  24.538  1.00  0.00    -0.332 N 
ATOM     10  H3  UNL     1      25.621  12.395  25.119  1.00  0.00     0.168 HD
HETATM   11  C17 UNL     1      26.249  13.851  23.828  1.00  0.00     0.062 C 
HETATM   12  C22 UNL     1      27.109  12.956  23.025  1.00  0.00     0.159 C 
HETATM   13  N5  UNL     1      27.011  12.310  21.820  1.00  0.00    -0.356 N 
ATOM     14  H5  UNL     1      26.760  11.332  21.961  1.00  0.00     0.162 HD
HETATM   15  C23 UNL     1      27.153  12.589  20.426  1.00  0.00     0.180 C 
HETATM   16  C31 UNL     1      26.292  11.674  19.589  1.00  0.00     0.243 C 
HETATM   17  O5  UNL     1      26.848  11.115  18.614  1.00  0.00    -0.271 OA
HETATM   18  N6  UNL     1      24.932  11.414  19.830  1.00  0.00    -0.342 N 
HETATM   19  C32 UNL     1      24.275  10.341  19.104  1.00  0.00     0.153 C 
ENDROOT
BRANCH   5  20
HETATM   20  C4  UNL     1      21.523  10.694  23.133  1.00  0.00     0.135 C 
BRANCH  20  21
HETATM   21  C5  UNL     1      21.751  10.025  24.472  1.00  0.00     0.020 C 
BRANCH  21  22
HETATM   22  C6  UNL     1      20.785  10.501  25.517  1.00  0.00     0.002 C 
BRANCH  22  23
HETATM   23  C7  UNL     1      19.486  11.005  24.970  1.00  0.00     0.002 C 
BRANCH  23  24
HETATM   24  C8  UNL     1      19.032  12.224  25.716  1.00  0.00     0.028 C 
BRANCH  24  25
HETATM   25  C9  UNL     1      18.461  11.919  27.064  1.00  0.00     0.237 C 
BRANCH  25  26
HETATM   26  N2  UNL     1      18.764  13.012  27.972  1.00  0.00    -0.071 N 
HETATM   27  C10 UNL     1      18.018  14.216  27.650  1.00  0.00     0.272 C 
HETATM   28  C11 UNL     1      20.154  13.344  27.995  1.00  0.00     0.237 C 
HETATM   29  C12 UNL     1      20.745  12.451  29.083  1.00  0.00     0.029 C 
HETATM   30  C13 UNL     1      19.648  12.518  30.127  1.00  0.00     0.029 C 
HETATM   31  C14 UNL     1      18.378  12.628  29.315  1.00  0.00     0.237 C 
ENDBRANCH  25  26
ENDBRANCH  24  25
ENDBRANCH  23  24
ENDBRANCH  22  23
ENDBRANCH  21  22
ENDBRANCH  20  21
ENDBRANCH   5  20
BRANCH   8  32
HETATM   32  O3  UNL     1      23.458  13.741  25.795  1.00  0.00    -0.342 OA
ATOM     33  H3  UNL     1      23.717  14.647  25.911  1.00  0.00     0.219 HD
ENDBRANCH   8  32
BRANCH  11  34
HETATM   34  C18 UNL     1      25.890  15.103  23.144  1.00  0.00     0.062 C 
BRANCH  34  35
HETATM   35  C19 UNL     1      26.542  16.362  23.650  1.00  0.00     0.008 C 
BRANCH  35  36
HETATM   36  C20 UNL     1      27.936  16.581  23.133  1.00  0.00     0.027 C 
BRANCH  36  37
HETATM   37  C21 UNL     1      28.919  16.487  24.311  1.00  0.00     0.229 C 
BRANCH  37  38
HETATM   38  N4  UNL     1      29.716  15.278  24.198  1.00  0.00    -0.079 N 
ATOM     39  H43 UNL     1      29.596  14.823  23.293  1.00  0.00     0.274 HD
ATOM     40  H42 UNL     1      30.714  15.482  24.131  1.00  0.00     0.274 HD
ATOM     41  H41 UNL     1      29.507  14.648  24.972  1.00  0.00     0.274 HD
ENDBRANCH  37  38
ENDBRANCH  36  37
ENDBRANCH  35  36
ENDBRANCH  34  35
ENDBRANCH  11  34
BRANCH  15  42
HETATM   42  C24 UNL     1      27.093  13.994  19.954  1.00  0.00     0.073 C 
BRANCH  42  43
HETATM   43  C25 UNL     1      28.485  14.492  19.734  1.00  0.00    -0.054 A 
HETATM   44  C26 UNL     1      29.415  14.254  20.700  1.00  0.00     0.009 A 
HETATM   45  C27 UNL     1      30.707  14.701  20.537  1.00  0.00     0.026 A 
HETATM   46  C28 UNL     1      31.081  15.391  19.403  1.00  0.00     0.055 A 
HETATM   47 CL1  UNL     1      32.747  15.960  19.204  1.00  0.00    -0.083 Cl
HETATM   48  C29 UNL     1      30.118  15.627  18.423  1.00  0.00     0.056 A 
HETATM   49 CL2  UNL     1      30.584  16.503  16.982  1.00  0.00    -0.083 Cl
HETATM   50  C30 UNL     1      28.809  15.167  18.603  1.00  0.00     0.032 A 
ENDBRANCH  42  43
ENDBRANCH  15  42
BRANCH  12  51
HETATM   51  O4  UNL     1      28.260  12.734  23.653  1.00  0.00    -0.345 OA
ATOM     52  H4  UNL     1      28.402  11.801  23.762  1.00  0.00     0.219 HD
ENDBRANCH  12  51
TORSDOF 16
ENDMDL
MODEL 2
REMARK VINA RESULT: -7.856839213      1.802      2.780
REMARK  16 active torsions:
REMARK  status: ('A' for Active; 'I' for Inactive)
REMARK    1  A    between atoms: N1_5  and  C4_6 
REMARK    2  A    between atoms: C4_6  and  C5_7 
REMARK    3  A    between atoms: C5_7  and  C6_8 
REMARK    4  A    between atoms: C6_8  and  C7_9 
REMARK    5  A    between atoms: C7_9  and  C8_10 
REMARK    6  A    between atoms: C8_10  and  C9_11 
REMARK    7  A    between atoms: C9_11  and  N2_12 
REMARK    8  A    between atoms: C16_20  and  O3_21 
REMARK    9  A    between atoms: C17_25  and  C18_26 
REMARK   10  A    between atoms: C18_26  and  C19_27 
REMARK   11  A    between atoms: C19_27  and  C20_28 
REMARK   12  A    between atoms: C20_28  and  C21_29 
REMARK   13  A    between atoms: C21_29  and  N4_30 
REMARK   14  A    between atoms: C22_34  and  O4_35 
REMARK   15  A    between atoms: C23_39  and  C24_40 
REMARK   16  A    between atoms: C24_40  and  C25_41 
ROOT
HETATM    1  C1  UNL     1      22.895  12.611  19.923  1.00  0.00     0.042 C 
HETATM    2  C2  UNL     1      24.095  12.174  20.779  1.00  0.00     0.175 C 
HETATM    3  C3  UNL     1      23.592  11.304  21.863  1.00  0.00     0.249 C 
HETATM    4  O1  UNL     1      24.035  10.101  21.880  1.00  0.00    -0.271 OA
HETATM    5  N1  UNL     1      22.675  11.625  22.898  1.00  0.00    -0.280 N 
HETATM    6  C15 UNL     1      22.760  12.753  23.767  1.00  0.00     0.301 C 
HETATM    7  O2  UNL     1      21.717  13.525  23.787  1.00  0.00    -0.263 OA
HETATM    8  C16 UNL     1      23.832  13.194  24.651  1.00  0.00     0.210 C 
HETATM    9  N3  UNL     1      25.204  13.148  24.552  1.00  0.00    -0.332 N 
ATOM     10  H3  UNL     1      25.594  12.408  25.135  1.00  0.00     0.168 HD
HETATM   11  C17 UNL     1      26.235  13.861  23.848  1.00  0.00     0.062 C 
HETATM   12  C22 UNL     1      27.097  12.963  23.051  1.00  0.00     0.159 C 
HETATM   13  N5  UNL     1      27.005  12.317  21.845  1.00  0.00    -0.356 N 
ATOM     14  H5  UNL     1      26.750  11.340  21.985  1.00  0.00     0.162 HD
HETATM   15  C23 UNL     1      27.157  12.596  20.452  1.00  0.00     0.180 C 
HETATM   16  C31 UNL     1      26.299  11.683  19.610  1.00  0.00     0.243 C 
HETATM   17  O5  UNL     1      26.859  11.122  18.638  1.00  0.00    -0.271 OA
HETATM   18  N6  UNL     1      24.936  11.428  19.842  1.00  0.00    -0.342 N 
HETATM   19  C32 UNL     1      24.280  10.357  19.112  1.00  0.00     0.153 C 
ENDROOT
BRANCH   5  20
HETATM   20  C4  UNL     1      21.503  10.719  23.124  1.00  0.00     0.135 C 
BRANCH  20  21
HETATM   21  C5  UNL     1      21.639  10.170  24.528  1.00  0.00     0.020 C 
BRANCH  21  22
HETATM   22  C6  UNL     1      20.480  10.551  25.401  1.00  0.00     0.002 C 
BRANCH  22  23
HETATM   23  C7  UNL     1      19.457  11.411  24.726  1.00  0.00     0.002 C 
BRANCH  23  24
HETATM   24  C8  UNL     1      18.074  11.035  25.165  1.00  0.00     0.028 C 
BRANCH  24  25
HETATM   25  C9  UNL     1      17.451   9.968  24.323  1.00  0.00     0.237 C 
BRANCH  25  26
HETATM   26  N2  UNL     1      16.014  10.180  24.264  1.00  0.00    -0.071 N 
HETATM   27  C10 UNL     1      15.455  10.513  25.562  1.00  0.00     0.272 C 
HETATM   28  C11 UNL     1      15.308   9.049  23.752  1.00  0.00     0.237 C 
HETATM   29  C12 UNL     1      15.270   9.269  22.242  1.00  0.00     0.029 C 
HETATM   30  C13 UNL     1      15.014  10.761  22.183  1.00  0.00     0.029 C 
HETATM   31  C14 UNL     1      15.742  11.304  23.391  1.00  0.00     0.237 C 
ENDBRANCH  25  26
ENDBRANCH  24  25
ENDBRANCH  23  24
ENDBRANCH  22  23
ENDBRANCH  21  22
ENDBRANCH  20  21
ENDBRANCH   5  20
BRANCH   8  32
HETATM   32  O3  UNL     1      23.431  13.760  25.797  1.00  0.00    -0.342 OA
ATOM     33  H3  UNL     1      23.965  14.486  26.098  1.00  0.00     0.219 HD
ENDBRANCH   8  32
BRANCH  11  34
HETATM   34  C18 UNL     1      25.885  15.114  23.161  1.00  0.00     0.062 C 
BRANCH  34  35
HETATM   35  C19 UNL     1      26.532  16.372  23.676  1.00  0.00     0.008 C 
BRANCH  35  36
HETATM   36  C20 UNL     1      27.947  16.568  23.210  1.00  0.00     0.027 C 
BRANCH  36  37
HETATM   37  C21 UNL     1      28.887  16.435  24.418  1.00  0.00     0.229 C 
BRANCH  37  38
HETATM   38  N4  UNL     1      29.745  15.273  24.256  1.00  0.00    -0.079 N 
ATOM     39  H43 UNL     1      29.209  14.406  24.213  1.00  0.00     0.274 HD
ATOM     40  H42 UNL     1      30.166  15.236  23.328  1.00  0.00     0.274 HD
ATOM     41  H41 UNL     1      30.447  15.252  24.996  1.00  0.00     0.274 HD
ENDBRANCH  37  38
ENDBRANCH  36  37
ENDBRANCH  35  36
ENDBRANCH  34  35
ENDBRANCH  11  34
BRANCH  15  42
HETATM   42  C24 UNL     1      27.104  14.000  19.980  1.00  0.00     0.073 C 
BRANCH  42  43
HETATM   43  C25 UNL     1      28.500  14.498  19.779  1.00  0.00    -0.054 A 
HETATM   44  C26 UNL     1      29.415  14.261  20.760  1.00  0.00     0.009 A 
HETATM   45  C27 UNL     1      30.710  14.707  20.616  1.00  0.00     0.026 A 
HETATM   46  C28 UNL     1      31.100  15.396  19.486  1.00  0.00     0.055 A 
HETATM   47 CL1  UNL     1      32.769  15.963  19.311  1.00  0.00    -0.083 Cl
HETATM   48  C29 UNL     1      30.152  15.630  18.491  1.00  0.00     0.056 A 
HETATM   49 CL2  UNL     1      30.640  16.503  17.055  1.00  0.00    -0.083 Cl
HETATM   50  C30 UNL     1      28.841  15.171  18.653  1.00  0.00     0.032 A 
ENDBRANCH  42  43
ENDBRANCH  15  42
BRANCH  12  51
HETATM   51  O4  UNL     1      28.243  12.737  23.686  1.00  0.00    -0.345 OA
ATOM     52  H4  UNL     1      28.979  12.966  23.131  1.00  0.00     0.219 HD
ENDBRANCH  12  51
TORSDOF 16
ENDMDL
MODEL 3
REMARK VINA RESULT: -7.813373609      1.872      2.917
REMARK  16 active torsions:
REMARK  status: ('A' for Active; 'I' for Inactive)
REMARK    1  A    between atoms: N1_5  and  C4_6 
REMARK    2  A    between atoms: C4_6  and  C5_7 
REMARK    3  A    between atoms: C5_7  and  C6_8 
REMARK    4  A    between atoms: C6_8  and  C7_9 
REMARK    5  A    between atoms: C7_9  and  C8_10 
REMARK    6  A    between atoms: C8_10  and  C9_11 
REMARK    7  A    between atoms: C9_11  and  N2_12 
REMARK    8  A    between atoms: C16_20  and  O3_21 
REMARK    9  A    between atoms: C17_25  and  C18_26 
REMARK   10  A    between atoms: C18_26  and  C19_27 
REMARK   11  A    between atoms: C19_27  and  C20_28 
REMARK   12  A    between atoms: C20_28  and  C21_29 
REMARK   13  A    between atoms: C21_29  and  N4_30 
REMARK   14  A    between atoms: C22_34  and  O4_35 
REMARK   15  A    between atoms: C23_39  and  C24_40 
REMARK   16  A    between atoms: C24_40  and  C25_41 
ROOT
HETATM    1  C1  UNL     1      23.232  12.842  19.699  1.00  0.00     0.042 C 
HETATM    2  C2  UNL     1      24.380  12.358  20.600  1.00  0.00     0.175 C 
HETATM    3  C3  UNL     1      23.808  11.467  21.631  1.00  0.00     0.249 C 
HETATM    4  O1  UNL     1      24.229  10.256  21.635  1.00  0.00    -0.271 OA
HETATM    5  N1  UNL     1      22.846  11.775  22.629  1.00  0.00    -0.280 N 
HETATM    6  C15 UNL     1      22.908  12.877  23.535  1.00  0.00     0.301 C 
HETATM    7  O2  UNL     1      21.879  13.667  23.526  1.00  0.00    -0.263 OA
HETATM    8  C16 UNL     1      23.942  13.272  24.482  1.00  0.00     0.210 C 
HETATM    9  N3  UNL     1      25.316  13.203  24.450  1.00  0.00    -0.332 N 
ATOM     10  H3  UNL     1      25.664  12.439  25.029  1.00  0.00     0.168 HD
HETATM   11  C17 UNL     1      26.394  13.916  23.819  1.00  0.00     0.062 C 
HETATM   12  C22 UNL     1      27.278  13.025  23.039  1.00  0.00     0.159 C 
HETATM   13  N5  UNL     1      27.235  12.416  21.811  1.00  0.00    -0.356 N 
ATOM     14  H5  UNL     1      26.956  11.439  21.910  1.00  0.00     0.162 HD
HETATM   15  C23 UNL     1      27.461  12.731  20.437  1.00  0.00     0.180 C 
HETATM   16  C31 UNL     1      26.630  11.859  19.527  1.00  0.00     0.243 C 
HETATM   17  O5  UNL     1      27.228  11.315  18.568  1.00  0.00    -0.271 OA
HETATM   18  N6  UNL     1      25.253  11.623  19.683  1.00  0.00    -0.342 N 
HETATM   19  C32 UNL     1      24.616  10.586  18.891  1.00  0.00     0.153 C 
ENDROOT
BRANCH   5  20
HETATM   20  C4  UNL     1      21.650  10.886  22.770  1.00  0.00     0.135 C 
BRANCH  20  21
HETATM   21  C5  UNL     1      21.655  10.368  24.193  1.00  0.00     0.020 C 
BRANCH  21  22
HETATM   22  C6  UNL     1      20.286  10.381  24.807  1.00  0.00     0.002 C 
BRANCH  22  23
HETATM   23  C7  UNL     1      19.711  11.750  25.001  1.00  0.00     0.002 C 
BRANCH  23  24
HETATM   24  C8  UNL     1      18.315  11.822  24.461  1.00  0.00     0.028 C 
BRANCH  24  25
HETATM   25  C9  UNL     1      17.699  10.480  24.220  1.00  0.00     0.237 C 
BRANCH  25  26
HETATM   26  N2  UNL     1      16.269  10.638  24.022  1.00  0.00    -0.071 N 
HETATM   27  C10 UNL     1      15.854  12.028  24.087  1.00  0.00     0.272 C 
HETATM   28  C11 UNL     1      15.494   9.898  24.968  1.00  0.00     0.237 C 
HETATM   29  C12 UNL     1      15.300   8.530  24.322  1.00  0.00     0.029 C 
HETATM   30  C13 UNL     1      15.063   8.931  22.880  1.00  0.00     0.029 C 
HETATM   31  C14 UNL     1      15.923  10.161  22.698  1.00  0.00     0.237 C 
ENDBRANCH  25  26
ENDBRANCH  24  25
ENDBRANCH  23  24
ENDBRANCH  22  23
ENDBRANCH  21  22
ENDBRANCH  20  21
ENDBRANCH   5  20
BRANCH   8  32
HETATM   32  O3  UNL     1      23.495  13.812  25.623  1.00  0.00    -0.342 OA
ATOM     33  H3  UNL     1      24.169  14.093  26.230  1.00  0.00     0.219 HD
ENDBRANCH   8  32
BRANCH  11  34
HETATM   34  C18 UNL     1      26.100  15.195  23.153  1.00  0.00     0.062 C 
BRANCH  34  35
HETATM   35  C19 UNL     1      27.128  16.284  23.297  1.00  0.00     0.008 C 
BRANCH  35  36
HETATM   36  C20 UNL     1      27.651  16.453  24.696  1.00  0.00     0.027 C 
BRANCH  36  37
HETATM   37  C21 UNL     1      29.159  16.157  24.696  1.00  0.00     0.229 C 
BRANCH  37  38
HETATM   38  N4  UNL     1      29.446  15.033  25.571  1.00  0.00    -0.079 N 
ATOM     39  H43 UNL     1      28.974  15.119  26.472  1.00  0.00     0.274 HD
ATOM     40  H42 UNL     1      28.999  14.175  25.249  1.00  0.00     0.274 HD
ATOM     41  H41 UNL     1      30.454  14.922  25.678  1.00  0.00     0.274 HD
ENDBRANCH  37  38
ENDBRANCH  36  37
ENDBRANCH  35  36
ENDBRANCH  34  35
ENDBRANCH  11  34
BRANCH  15  42
HETATM   42  C24 UNL     1      27.456  14.149  20.004  1.00  0.00     0.073 C 
BRANCH  42  43
HETATM   43  C25 UNL     1      28.864  14.652  19.973  1.00  0.00    -0.054 A 
HETATM   44  C26 UNL     1      29.369  15.081  18.784  1.00  0.00     0.009 A 
HETATM   45  C27 UNL     1      30.662  15.547  18.712  1.00  0.00     0.026 A 
HETATM   46  C28 UNL     1      31.464  15.589  19.834  1.00  0.00     0.055 A 
HETATM   47 CL1  UNL     1      33.126  16.193  19.730  1.00  0.00    -0.083 Cl
HETATM   48  C29 UNL     1      30.933  15.147  21.045  1.00  0.00     0.056 A 
HETATM   49 CL2  UNL     1      31.943  15.196  22.472  1.00  0.00    -0.083 Cl
HETATM   50  C30 UNL     1      29.617  14.675  21.101  1.00  0.00     0.032 A 
ENDBRANCH  42  43
ENDBRANCH  15  42
BRANCH  12  51
HETATM   51  O4  UNL     1      28.387  12.759  23.723  1.00  0.00    -0.345 OA
ATOM     52  H4  UNL     1      28.197  12.171  24.445  1.00  0.00     0.219 HD
ENDBRANCH  12  51
TORSDOF 16
ENDMDL
MODEL 4
REMARK VINA RESULT: -7.809191975      0.594      1.140
REMARK  16 active torsions:
REMARK  status: ('A' for Active; 'I' for Inactive)
REMARK    1  A    between atoms: N1_5  and  C4_6 
REMARK    2  A    between atoms: C4_6  and  C5_7 
REMARK    3  A    between atoms: C5_7  and  C6_8 
REMARK    4  A    between atoms: C6_8  and  C7_9 
REMARK    5  A    between atoms: C7_9  and  C8_10 
REMARK    6  A    between atoms: C8_10  and  C9_11 
REMARK    7  A    between atoms: C9_11  and  N2_12 
REMARK    8  A    between atoms: C16_20  and  O3_21 
REMARK    9  A    between atoms: C17_25  and  C18_26 
REMARK   10  A    between atoms: C18_26  and  C19_27 
REMARK   11  A    between atoms: C19_27  and  C20_28 
REMARK   12  A    between atoms: C20_28  and  C21_29 
REMARK   13  A    between atoms: C21_29  and  N4_30 
REMARK   14  A    between atoms: C22_34  and  O4_35 
REMARK   15  A    between atoms: C23_39  and  C24_40 
REMARK   16  A    between atoms: C24_40  and  C25_41 
ROOT
HETATM    1  C1  UNL     1      22.925  12.648  19.936  1.00  0.00     0.042 C 
HETATM    2  C2  UNL     1      24.124  12.211  20.795  1.00  0.00     0.175 C 
HETATM    3  C3  UNL     1      23.621  11.332  21.870  1.00  0.00     0.249 C 
HETATM    4  O1  UNL     1      24.071  10.131  21.881  1.00  0.00    -0.271 OA
HETATM    5  N1  UNL     1      22.697  11.640  22.903  1.00  0.00    -0.280 N 
HETATM    6  C15 UNL     1      22.773  12.764  23.781  1.00  0.00     0.301 C 
HETATM    7  O2  UNL     1      21.726  13.530  23.801  1.00  0.00    -0.263 OA
HETATM    8  C16 UNL     1      23.839  13.204  24.671  1.00  0.00     0.210 C 
HETATM    9  N3  UNL     1      25.211  13.166  24.578  1.00  0.00    -0.332 N 
ATOM     10  H3  UNL     1      25.603  12.424  25.158  1.00  0.00     0.168 HD
HETATM   11  C17 UNL     1      26.241  13.890  23.884  1.00  0.00     0.062 C 
HETATM   12  C22 UNL     1      27.112  13.002  23.085  1.00  0.00     0.159 C 
HETATM   13  N5  UNL     1      27.028  12.364  21.874  1.00  0.00    -0.356 N 
ATOM     14  H5  UNL     1      26.778  11.384  22.007  1.00  0.00     0.162 HD
HETATM   15  C23 UNL     1      27.185  12.652  20.484  1.00  0.00     0.180 C 
HETATM   16  C31 UNL     1      26.335  11.740  19.631  1.00  0.00     0.243 C 
HETATM   17  O5  UNL     1      26.903  11.189  18.659  1.00  0.00    -0.271 OA
HETATM   18  N6  UNL     1      24.973  11.476  19.856  1.00  0.00    -0.342 N 
HETATM   19  C32 UNL     1      24.326  10.406  19.116  1.00  0.00     0.153 C 
ENDROOT
BRANCH   5  20
HETATM   20  C4  UNL     1      21.530  10.727  23.118  1.00  0.00     0.135 C 
BRANCH  20  21
HETATM   21  C5  UNL     1      21.745  10.050  24.455  1.00  0.00     0.020 C 
BRANCH  21  22
HETATM   22  C6  UNL     1      20.768  10.521  25.493  1.00  0.00     0.002 C 
BRANCH  22  23
HETATM   23  C7  UNL     1      19.473  11.024  24.935  1.00  0.00     0.002 C 
BRANCH  23  24
HETATM   24  C8  UNL     1      18.999  12.226  25.695  1.00  0.00     0.028 C 
BRANCH  24  25
HETATM   25  C9  UNL     1      18.480  11.901  27.060  1.00  0.00     0.237 C 
BRANCH  25  26
HETATM   26  N2  UNL     1      18.784  12.998  27.963  1.00  0.00    -0.071 N 
HETATM   27  C10 UNL     1      18.035  14.200  27.639  1.00  0.00     0.272 C 
HETATM   28  C11 UNL     1      20.174  13.332  27.980  1.00  0.00     0.237 C 
HETATM   29  C12 UNL     1      20.769  12.444  29.069  1.00  0.00     0.029 C 
HETATM   30  C13 UNL     1      19.676  12.513  30.116  1.00  0.00     0.029 C 
HETATM   31  C14 UNL     1      18.403  12.619  29.308  1.00  0.00     0.237 C 
ENDBRANCH  25  26
ENDBRANCH  24  25
ENDBRANCH  23  24
ENDBRANCH  22  23
ENDBRANCH  21  22
ENDBRANCH  20  21
ENDBRANCH   5  20
BRANCH   8  32
HETATM   32  O3  UNL     1      23.430  13.761  25.819  1.00  0.00    -0.342 OA
ATOM     33  H3  UNL     1      24.108  13.888  26.472  1.00  0.00     0.219 HD
ENDBRANCH   8  32
BRANCH  11  34
HETATM   34  C18 UNL     1      25.887  15.146  23.204  1.00  0.00     0.062 C 
BRANCH  34  35
HETATM   35  C19 UNL     1      26.894  16.262  23.277  1.00  0.00     0.008 C 
BRANCH  35  36
HETATM   36  C20 UNL     1      27.524  16.431  24.631  1.00  0.00     0.027 C 
BRANCH  36  37
HETATM   37  C21 UNL     1      29.037  16.189  24.504  1.00  0.00     0.229 C 
BRANCH  37  38
HETATM   38  N4  UNL     1      29.432  15.062  25.330  1.00  0.00    -0.079 N 
ATOM     39  H43 UNL     1      28.667  14.733  25.920  1.00  0.00     0.274 HD
ATOM     40  H42 UNL     1      29.571  14.214  24.780  1.00  0.00     0.274 HD
ATOM     41  H41 UNL     1      30.259  15.302  25.876  1.00  0.00     0.274 HD
ENDBRANCH  37  38
ENDBRANCH  36  37
ENDBRANCH  35  36
ENDBRANCH  34  35
ENDBRANCH  11  34
BRANCH  15  42
HETATM   42  C24 UNL     1      27.126  14.059  20.021  1.00  0.00     0.073 C 
BRANCH  42  43
HETATM   43  C25 UNL     1      28.518  14.598  19.928  1.00  0.00    -0.054 A 
HETATM   44  C26 UNL     1      28.939  15.090  18.730  1.00  0.00     0.009 A 
HETATM   45  C27 UNL     1      30.215  15.592  18.601  1.00  0.00     0.026 A 
HETATM   46  C28 UNL     1      31.083  15.605  19.674  1.00  0.00     0.055 A 
HETATM   47 CL1  UNL     1      32.722  16.254  19.497  1.00  0.00    -0.083 Cl
HETATM   48  C29 UNL     1      30.637  15.098  20.893  1.00  0.00     0.056 A 
HETATM   49 CL2  UNL     1      31.731  15.111  22.258  1.00  0.00    -0.083 Cl
HETATM   50  C30 UNL     1      29.338  14.592  21.008  1.00  0.00     0.032 A 
ENDBRANCH  42  43
ENDBRANCH  15  42
BRANCH  12  51
HETATM   51  O4  UNL     1      28.256  12.778  23.723  1.00  0.00    -0.345 OA
ATOM     52  H4  UNL     1      28.993  13.046  23.186  1.00  0.00     0.219 HD
ENDBRANCH  12  51
TORSDOF 16
ENDMDL
MODEL 5
REMARK VINA RESULT: -7.738483861      4.094      9.904
REMARK  16 active torsions:
REMARK  status: ('A' for Active; 'I' for Inactive)
REMARK    1  A    between atoms: N1_5  and  C4_6 
REMARK    2  A    between atoms: C4_6  and  C5_7 
REMARK    3  A    between atoms: C5_7  and  C6_8 
REMARK    4  A    between atoms: C6_8  and  C7_9 
REMARK    5  A    between atoms: C7_9  and  C8_10 
REMARK    6  A    between atoms: C8_10  and  C9_11 
REMARK    7  A    between atoms: C9_11  and  N2_12 
REMARK    8  A    between atoms: C16_20  and  O3_21 
REMARK    9  A    between atoms: C17_25  and  C18_26 
REMARK   10  A    between atoms: C18_26  and  C19_27 
REMARK   11  A    between atoms: C19_27  and  C20_28 
REMARK   12  A    between atoms: C20_28  and  C21_29 
REMARK   13  A    between atoms: C21_29  and  N4_30 
REMARK   14  A    between atoms: C22_34  and  O4_35 
REMARK   15  A    between atoms: C23_39  and  C24_40 
REMARK   16  A    between atoms: C24_40  and  C25_41 
ROOT
HETATM    1  C1  UNL     1      27.341  17.812  23.129  1.00  0.00     0.042 C 
HETATM    2  C2  UNL     1      27.798  16.393  23.509  1.00  0.00     0.175 C 
HETATM    3  C3  UNL     1      29.252  16.434  23.768  1.00  0.00     0.249 C 
HETATM    4  O1  UNL     1      29.629  16.117  24.951  1.00  0.00    -0.271 OA
HETATM    5  N1  UNL     1      30.299  16.782  22.873  1.00  0.00    -0.280 N 
HETATM    6  C15 UNL     1      30.490  16.243  21.565  1.00  0.00     0.301 C 
HETATM    7  O2  UNL     1      30.550  17.114  20.604  1.00  0.00    -0.263 OA
HETATM    8  C16 UNL     1      30.632  14.865  21.116  1.00  0.00     0.210 C 
HETATM    9  N3  UNL     1      30.070  13.681  21.536  1.00  0.00    -0.332 N 
ATOM     10  H3  UNL     1      30.730  13.130  22.085  1.00  0.00     0.168 HD
HETATM   11  C17 UNL     1      28.804  13.012  21.411  1.00  0.00     0.062 C 
HETATM   12  C22 UNL     1      28.225  12.652  22.723  1.00  0.00     0.159 C 
HETATM   13  N5  UNL     1      27.549  13.308  23.719  1.00  0.00    -0.356 N 
ATOM     14  H5  UNL     1      28.184  13.547  24.481  1.00  0.00     0.162 HD
HETATM   15  C23 UNL     1      26.227  13.760  24.015  1.00  0.00     0.180 C 
HETATM   16  C31 UNL     1      26.246  14.964  24.927  1.00  0.00     0.243 C 
HETATM   17  O5  UNL     1      25.487  14.926  25.925  1.00  0.00    -0.271 OA
HETATM   18  N6  UNL     1      27.046  16.103  24.730  1.00  0.00    -0.342 N 
HETATM   19  C32 UNL     1      27.152  17.087  25.793  1.00  0.00     0.153 C 
ENDROOT
BRANCH   5  20
HETATM   20  C4  UNL     1      31.307  17.799  23.309  1.00  0.00     0.135 C 
BRANCH  20  21
HETATM   21  C5  UNL     1      32.616  17.063  23.501  1.00  0.00     0.020 C 
BRANCH  21  22
HETATM   22  C6  UNL     1      33.007  16.966  24.947  1.00  0.00     0.002 C 
BRANCH  22  23
HETATM   23  C7  UNL     1      33.977  18.014  25.393  1.00  0.00     0.002 C 
BRANCH  23  24
HETATM   24  C8  UNL     1      33.341  18.939  26.386  1.00  0.00     0.028 C 
BRANCH  24  25
HETATM   25  C9  UNL     1      32.481  19.989  25.757  1.00  0.00     0.237 C 
BRANCH  25  26
HETATM   26  N2  UNL     1      31.412  20.347  26.674  1.00  0.00    -0.071 N 
HETATM   27  C10 UNL     1      31.881  20.472  28.042  1.00  0.00     0.272 C 
HETATM   28  C11 UNL     1      30.332  19.410  26.658  1.00  0.00     0.237 C 
HETATM   29  C12 UNL     1      29.393  19.923  25.570  1.00  0.00     0.029 C 
HETATM   30  C13 UNL     1      29.463  21.416  25.820  1.00  0.00     0.029 C 
HETATM   31  C14 UNL     1      30.881  21.640  26.294  1.00  0.00     0.237 C 
ENDBRANCH  25  26
ENDBRANCH  24  25
ENDBRANCH  23  24
ENDBRANCH  22  23
ENDBRANCH  21  22
ENDBRANCH  20  21
ENDBRANCH   5  20
BRANCH   8  32
HETATM   32  O3  UNL     1      31.474  14.683  20.089  1.00  0.00    -0.342 OA
ATOM     33  H3  UNL     1      32.072  13.950  20.181  1.00  0.00     0.219 HD
ENDBRANCH   8  32
BRANCH  11  34
HETATM   34  C18 UNL     1      27.820  13.535  20.450  1.00  0.00     0.062 C 
BRANCH  34  35
HETATM   35  C19 UNL     1      26.857  12.541  19.858  1.00  0.00     0.008 C 
BRANCH  35  36
HETATM   36  C20 UNL     1      26.290  12.953  18.529  1.00  0.00     0.027 C 
BRANCH  36  37
HETATM   37  C21 UNL     1      24.779  12.674  18.530  1.00  0.00     0.229 C 
BRANCH  37  38
HETATM   38  N4  UNL     1      24.083  13.697  17.770  1.00  0.00    -0.079 N 
ATOM     39  H43 UNL     1      24.709  14.195  17.136  1.00  0.00     0.274 HD
ATOM     40  H42 UNL     1      23.454  13.296  17.074  1.00  0.00     0.274 HD
ATOM     41  H41 UNL     1      23.597  14.332  18.402  1.00  0.00     0.274 HD
ENDBRANCH  37  38
ENDBRANCH  36  37
ENDBRANCH  35  36
ENDBRANCH  34  35
ENDBRANCH  11  34
BRANCH  15  42
HETATM   42  C24 UNL     1      25.245  13.912  22.915  1.00  0.00     0.073 C 
BRANCH  42  43
HETATM   43  C25 UNL     1      24.175  12.878  23.072  1.00  0.00    -0.054 A 
HETATM   44  C26 UNL     1      23.461  12.862  24.231  1.00  0.00     0.009 A 
HETATM   45  C27 UNL     1      22.471  11.923  24.417  1.00  0.00     0.026 A 
HETATM   46  C28 UNL     1      22.187  10.991  23.441  1.00  0.00     0.055 A 
HETATM   47 CL1  UNL     1      20.909   9.789  23.690  1.00  0.00    -0.083 Cl
HETATM   48  C29 UNL     1      22.926  11.021  22.260  1.00  0.00     0.056 A 
HETATM   49 CL2  UNL     1      22.571   9.842  21.017  1.00  0.00    -0.083 Cl
HETATM   50  C30 UNL     1      23.929  11.981  22.086  1.00  0.00     0.032 A 
ENDBRANCH  42  43
ENDBRANCH  15  42
BRANCH  12  51
HETATM   51  O4  UNL     1      28.428  11.364  22.980  1.00  0.00    -0.345 OA
ATOM     52  H4  UNL     1      28.872  10.947  22.251  1.00  0.00     0.219 HD
ENDBRANCH  12  51
TORSDOF 16
ENDMDL
