MODEL 1
REMARK VINA RESULT: -9.096081711      0.000      0.000
REMARK  19 active torsions:
REMARK  status: ('A' for Active; 'I' for Inactive)
REMARK       I    between atoms: C2_2  and  N1_4 
REMARK    1  A    between atoms: N2_7  and  C5_8 
REMARK    2  A    between atoms: C5_8  and  O2_9 
REMARK    3  A    between atoms: C5_8  and  C6_11 
REMARK    4  A    between atoms: N3_18  and  C13_19 
REMARK    5  A    between atoms: C13_19  and  O3_20 
REMARK    6  A    between atoms: C13_19  and  C14_22 
REMARK    7  A    between atoms: C14_22  and  N4_23 
REMARK    8  A    between atoms: C14_22  and  C30_49 
REMARK       I    between atoms: N4_23  and  C15_25 
REMARK    9  A    between atoms: C15_25  and  C16_27 
REMARK   10  A    between atoms: C16_27  and  C17_28 
REMARK   11  A    between atoms: C16_27  and  N5_32 
REMARK   12  A    between atoms: C17_28  and  C18_29 
REMARK   13  A    between atoms: N5_32  and  C21_34 
REMARK   14  A    between atoms: C21_34  and  O5_35 
REMARK   15  A    between atoms: C21_34  and  C22_37 
REMARK   16  A    between atoms: C22_37  and  C23_38 
REMARK   17  A    between atoms: C22_37  and  N6_42 
REMARK   18  A    between atoms: C23_38  and  C24_39 
REMARK   19  A    between atoms: N6_42  and  C27_44 
ROOT
HETATM    1  C14 UNL     1      21.054  11.284  25.572  1.00  0.00     0.162 C 
ENDROOT
BRANCH   1   2
HETATM    2  C13 UNL     1      20.676  11.125  26.977  1.00  0.00     0.139 C 
BRANCH   2   3
HETATM    3  N3  UNL     1      20.256  12.011  27.965  1.00  0.00    -0.339 N 
HETATM    4  C6  UNL     1      18.835  11.845  28.410  1.00  0.00     0.184 C 
HETATM    5  C7  UNL     1      18.741  11.959  29.856  1.00  0.00     0.003 C 
HETATM    6  C8  UNL     1      19.608  12.585  30.620  1.00  0.00    -0.026 C 
HETATM    7  C9  UNL     1      20.785  13.246  30.080  1.00  0.00     0.057 C 
HETATM    8  C10 UNL     1      21.027  13.014  28.615  1.00  0.00     0.031 C 
HETATM    9  C11 UNL     1      20.826  14.363  27.897  1.00  0.00     0.038 C 
HETATM   10  C12 UNL     1      22.552  12.753  28.552  1.00  0.00     0.038 C 
BRANCH   4  11
HETATM   11  C5  UNL     1      17.876  12.533  27.583  1.00  0.00     0.141 C 
BRANCH  11  12
HETATM   12  N2  UNL     1      17.512  12.471  26.248  1.00  0.00    -0.360 N 
HETATM   13  C4  UNL     1      17.894  13.604  25.355  1.00  0.00     0.144 C 
HETATM   14  C3  UNL     1      16.773  13.880  24.386  1.00  0.00     0.145 C 
HETATM   15  N1  UNL     1      15.498  13.392  24.925  1.00  0.00    -0.349 N 
HETATM   16  C2  UNL     1      14.403  14.290  25.017  1.00  0.00     0.215 C 
HETATM   17  C34 UNL     1      15.366  12.040  25.359  1.00  0.00     0.145 C 
HETATM   18  C1  UNL     1      14.560  15.723  24.574  1.00  0.00     0.117 C 
HETATM   19  O1  UNL     1      13.267  13.973  25.454  1.00  0.00    -0.274 OA
HETATM   20  C33 UNL     1      16.764  11.461  25.544  1.00  0.00     0.144 C 
ENDBRANCH  11  12
BRANCH  11  21
HETATM   21  O2  UNL     1      17.166  13.439  28.253  1.00  0.00    -0.348 OA
ATOM     22  H2  UNL     1      17.689  13.893  28.903  1.00  0.00     0.219 HD
ENDBRANCH  11  21
ENDBRANCH   4  11
ENDBRANCH   2   3
BRANCH   2  23
HETATM   23  O3  UNL     1      20.755   9.860  27.369  1.00  0.00    -0.348 OA
ATOM     24  H3  UNL     1      21.330   9.318  26.841  1.00  0.00     0.219 HD
ENDBRANCH   2  23
ENDBRANCH   1   2
BRANCH   1  25
HETATM   25  N4  UNL     1      22.352  12.048  25.495  1.00  0.00    -0.347 N 
HETATM   26  C15 UNL     1      22.517  13.146  24.644  1.00  0.00     0.241 C 
HETATM   27  O4  UNL     1      21.564  13.554  23.902  1.00  0.00    -0.271 OA
ATOM     28  H4  UNL     1      23.134  11.755  26.082  1.00  0.00     0.163 HD
BRANCH  26  29
HETATM   29  C16 UNL     1      23.811  13.931  24.521  1.00  0.00     0.176 C 
BRANCH  29  30
HETATM   30  C17 UNL     1      24.004  14.717  25.741  1.00  0.00     0.038 C 
BRANCH  30  31
HETATM   31  C18 UNL     1      24.648  16.049  25.603  1.00  0.00    -0.020 C 
HETATM   32  C19 UNL     1      26.090  15.864  26.134  1.00  0.00     0.009 C 
HETATM   33  C20 UNL     1      24.767  16.589  24.225  1.00  0.00     0.009 C 
ENDBRANCH  30  31
ENDBRANCH  29  30
BRANCH  29  34
HETATM   34  N5  UNL     1      24.808  12.878  24.235  1.00  0.00    -0.356 N 
ATOM     35  H5  UNL     1      24.823  12.036  24.811  1.00  0.00     0.162 HD
BRANCH  34  36
HETATM   36  C21 UNL     1      25.733  13.010  23.193  1.00  0.00     0.163 C 
BRANCH  36  37
HETATM   37  O5  UNL     1      26.885  13.527  23.648  1.00  0.00    -0.345 OA
ATOM     38  H5  UNL     1      27.061  14.365  23.235  1.00  0.00     0.219 HD
ENDBRANCH  36  37
BRANCH  36  39
HETATM   39  C22 UNL     1      25.701  12.736  21.799  1.00  0.00     0.076 C 
BRANCH  39  40
HETATM   40  C23 UNL     1      26.727  12.439  20.848  1.00  0.00     0.011 C 
BRANCH  40  41
HETATM   41  C24 UNL     1      27.672  11.317  20.878  1.00  0.00     0.002 C 
HETATM   42  C25 UNL     1      29.100  11.993  20.883  1.00  0.00     0.013 C 
HETATM   43  C26 UNL     1      27.723  10.321  19.779  1.00  0.00     0.013 C 
ENDBRANCH  40  41
ENDBRANCH  39  40
BRANCH  39  44
HETATM   44  N6  UNL     1      24.494  11.840  21.555  1.00  0.00    -0.376 N 
ATOM     45  H6  UNL     1      23.990  11.343  22.289  1.00  0.00     0.160 HD
BRANCH  44  46
HETATM   46  C27 UNL     1      24.158  11.785  20.172  1.00  0.00     0.160 A 
HETATM   47  C28 UNL     1      22.856  11.460  19.602  1.00  0.00     0.112 A 
HETATM   48  C29 UNL     1      23.989  10.408  19.503  1.00  0.00     0.265 A 
HETATM   49  F1  UNL     1      23.900   9.330  20.379  1.00  0.00    -0.204 F 
HETATM   50  F2  UNL     1      24.578  10.204  18.291  1.00  0.00    -0.204 F 
ENDBRANCH  44  46
ENDBRANCH  39  44
ENDBRANCH  36  39
ENDBRANCH  34  36
ENDBRANCH  29  34
ENDBRANCH  26  29
ENDBRANCH   1  25
BRANCH   1  51
HETATM   51  C30 UNL     1      21.417   9.949  24.893  1.00  0.00     0.008 C 
HETATM   52  C31 UNL     1      20.393   9.725  23.778  1.00  0.00     0.012 C 
HETATM   53  C32 UNL     1      22.775  10.030  24.230  1.00  0.00     0.012 C 
ENDBRANCH   1  51
TORSDOF 19
ENDMDL
MODEL 2
REMARK VINA RESULT: -9.090409712      1.294      1.895
REMARK  19 active torsions:
REMARK  status: ('A' for Active; 'I' for Inactive)
REMARK       I    between atoms: C2_2  and  N1_4 
REMARK    1  A    between atoms: N2_7  and  C5_8 
REMARK    2  A    between atoms: C5_8  and  O2_9 
REMARK    3  A    between atoms: C5_8  and  C6_11 
REMARK    4  A    between atoms: N3_18  and  C13_19 
REMARK    5  A    between atoms: C13_19  and  O3_20 
REMARK    6  A    between atoms: C13_19  and  C14_22 
REMARK    7  A    between atoms: C14_22  and  N4_23 
REMARK    8  A    between atoms: C14_22  and  C30_49 
REMARK       I    between atoms: N4_23  and  C15_25 
REMARK    9  A    between atoms: C15_25  and  C16_27 
REMARK   10  A    between atoms: C16_27  and  C17_28 
REMARK   11  A    between atoms: C16_27  and  N5_32 
REMARK   12  A    between atoms: C17_28  and  C18_29 
REMARK   13  A    between atoms: N5_32  and  C21_34 
REMARK   14  A    between atoms: C21_34  and  O5_35 
REMARK   15  A    between atoms: C21_34  and  C22_37 
REMARK   16  A    between atoms: C22_37  and  C23_38 
REMARK   17  A    between atoms: C22_37  and  N6_42 
REMARK   18  A    between atoms: C23_38  and  C24_39 
REMARK   19  A    between atoms: N6_42  and  C27_44 
ROOT
HETATM    1  C14 UNL     1      20.983  11.301  25.476  1.00  0.00     0.162 C 
ENDROOT
BRANCH   1   2
HETATM    2  C13 UNL     1      20.585  11.196  26.880  1.00  0.00     0.139 C 
BRANCH   2   3
HETATM    3  N3  UNL     1      20.281  12.132  27.865  1.00  0.00    -0.339 N 
HETATM    4  C6  UNL     1      18.820  12.342  28.121  1.00  0.00     0.184 C 
HETATM    5  C7  UNL     1      18.564  12.433  29.548  1.00  0.00     0.003 C 
HETATM    6  C8  UNL     1      19.453  12.779  30.453  1.00  0.00    -0.026 C 
HETATM    7  C9  UNL     1      20.824  13.114  30.106  1.00  0.00     0.057 C 
HETATM    8  C10 UNL     1      21.194  12.871  28.669  1.00  0.00     0.031 C 
HETATM    9  C11 UNL     1      21.454  14.245  28.022  1.00  0.00     0.038 C 
HETATM   10  C12 UNL     1      22.590  12.210  28.777  1.00  0.00     0.038 C 
BRANCH   4  11
HETATM   11  C5  UNL     1      18.197  13.288  27.228  1.00  0.00     0.141 C 
BRANCH  11  12
HETATM   12  N2  UNL     1      17.368  13.191  26.124  1.00  0.00    -0.360 N 
HETATM   13  C4  UNL     1      15.892  13.200  26.342  1.00  0.00     0.144 C 
HETATM   14  C3  UNL     1      15.237  12.228  25.394  1.00  0.00     0.145 C 
HETATM   15  N1  UNL     1      16.198  11.205  24.966  1.00  0.00    -0.349 N 
HETATM   16  C2  UNL     1      15.864   9.836  25.137  1.00  0.00     0.215 C 
HETATM   17  C34 UNL     1      17.450  11.581  24.397  1.00  0.00     0.145 C 
HETATM   18  C1  UNL     1      14.545   9.450  25.759  1.00  0.00     0.117 C 
HETATM   19  O1  UNL     1      16.610   8.882  24.797  1.00  0.00    -0.274 OA
HETATM   20  C33 UNL     1      17.703  13.046  24.731  1.00  0.00     0.144 C 
ENDBRANCH  11  12
BRANCH  11  21
HETATM   21  O2  UNL     1      18.477  14.553  27.535  1.00  0.00    -0.348 OA
ATOM     22  H2  UNL     1      19.402  14.747  27.442  1.00  0.00     0.219 HD
ENDBRANCH  11  21
ENDBRANCH   4  11
ENDBRANCH   2   3
BRANCH   2  23
HETATM   23  O3  UNL     1      20.497   9.933  27.276  1.00  0.00    -0.348 OA
ATOM     24  H3  UNL     1      19.761   9.749  27.848  1.00  0.00     0.219 HD
ENDBRANCH   2  23
ENDBRANCH   1   2
BRANCH   1  25
HETATM   25  N4  UNL     1      22.291  12.047  25.390  1.00  0.00    -0.347 N 
HETATM   26  C15 UNL     1      22.472  13.130  24.522  1.00  0.00     0.241 C 
HETATM   27  O4  UNL     1      21.525  13.538  23.771  1.00  0.00    -0.271 OA
ATOM     28  H4  UNL     1      23.068  11.753  25.982  1.00  0.00     0.163 HD
BRANCH  26  29
HETATM   29  C16 UNL     1      23.775  13.895  24.389  1.00  0.00     0.176 C 
BRANCH  29  30
HETATM   30  C17 UNL     1      24.091  14.517  25.677  1.00  0.00     0.038 C 
BRANCH  30  31
HETATM   31  C18 UNL     1      24.592  15.916  25.657  1.00  0.00    -0.020 C 
HETATM   32  C19 UNL     1      26.069  15.828  26.111  1.00  0.00     0.009 C 
HETATM   33  C20 UNL     1      24.591  16.604  24.342  1.00  0.00     0.009 C 
ENDBRANCH  30  31
ENDBRANCH  29  30
BRANCH  29  34
HETATM   34  N5  UNL     1      24.713  12.867  23.893  1.00  0.00    -0.356 N 
ATOM     35  H5  UNL     1      24.773  11.971  24.378  1.00  0.00     0.162 HD
BRANCH  34  36
HETATM   36  C21 UNL     1      25.519  13.091  22.771  1.00  0.00     0.163 C 
BRANCH  36  37
HETATM   37  O5  UNL     1      26.437  14.034  23.032  1.00  0.00    -0.345 OA
ATOM     38  H5  UNL     1      26.617  14.549  22.254  1.00  0.00     0.219 HD
ENDBRANCH  36  37
BRANCH  36  39
HETATM   39  C22 UNL     1      25.555  12.558  21.454  1.00  0.00     0.076 C 
BRANCH  39  40
HETATM   40  C23 UNL     1      26.585  12.500  20.463  1.00  0.00     0.011 C 
BRANCH  40  41
HETATM   41  C24 UNL     1      27.842  11.745  20.528  1.00  0.00     0.002 C 
HETATM   42  C25 UNL     1      27.545  10.402  19.751  1.00  0.00     0.013 C 
HETATM   43  C26 UNL     1      28.419  11.318  21.826  1.00  0.00     0.013 C 
ENDBRANCH  40  41
ENDBRANCH  39  40
BRANCH  39  44
HETATM   44  N6  UNL     1      24.797  11.239  21.493  1.00  0.00    -0.376 N 
ATOM     45  H6  UNL     1      25.194  10.356  21.815  1.00  0.00     0.160 HD
BRANCH  44  46
HETATM   46  C27 UNL     1      23.461  11.394  21.022  1.00  0.00     0.160 A 
HETATM   47  C28 UNL     1      22.626  10.365  20.413  1.00  0.00     0.112 A 
HETATM   48  C29 UNL     1      23.214  11.473  19.503  1.00  0.00     0.265 A 
HETATM   49  F1  UNL     1      24.292  11.101  18.706  1.00  0.00    -0.204 F 
HETATM   50  F2  UNL     1      22.374  12.440  19.037  1.00  0.00    -0.204 F 
ENDBRANCH  44  46
ENDBRANCH  39  44
ENDBRANCH  36  39
ENDBRANCH  34  36
ENDBRANCH  29  34
ENDBRANCH  26  29
ENDBRANCH   1  25
BRANCH   1  51
HETATM   51  C30 UNL     1      21.339   9.939  24.850  1.00  0.00     0.008 C 
HETATM   52  C31 UNL     1      20.345   9.699  23.711  1.00  0.00     0.012 C 
HETATM   53  C32 UNL     1      22.718   9.973  24.227  1.00  0.00     0.012 C 
ENDBRANCH   1  51
TORSDOF 19
ENDMDL
MODEL 3
REMARK VINA RESULT: -8.926153109      1.482      2.745
REMARK  19 active torsions:
REMARK  status: ('A' for Active; 'I' for Inactive)
REMARK       I    between atoms: C2_2  and  N1_4 
REMARK    1  A    between atoms: N2_7  and  C5_8 
REMARK    2  A    between atoms: C5_8  and  O2_9 
REMARK    3  A    between atoms: C5_8  and  C6_11 
REMARK    4  A    between atoms: N3_18  and  C13_19 
REMARK    5  A    between atoms: C13_19  and  O3_20 
REMARK    6  A    between atoms: C13_19  and  C14_22 
REMARK    7  A    between atoms: C14_22  and  N4_23 
REMARK    8  A    between atoms: C14_22  and  C30_49 
REMARK       I    between atoms: N4_23  and  C15_25 
REMARK    9  A    between atoms: C15_25  and  C16_27 
REMARK   10  A    between atoms: C16_27  and  C17_28 
REMARK   11  A    between atoms: C16_27  and  N5_32 
REMARK   12  A    between atoms: C17_28  and  C18_29 
REMARK   13  A    between atoms: N5_32  and  C21_34 
REMARK   14  A    between atoms: C21_34  and  O5_35 
REMARK   15  A    between atoms: C21_34  and  C22_37 
REMARK   16  A    between atoms: C22_37  and  C23_38 
REMARK   17  A    between atoms: C22_37  and  N6_42 
REMARK   18  A    between atoms: C23_38  and  C24_39 
REMARK   19  A    between atoms: N6_42  and  C27_44 
ROOT
HETATM    1  C14 UNL     1      21.043  11.349  25.402  1.00  0.00     0.162 C 
ENDROOT
BRANCH   1   2
HETATM    2  C13 UNL     1      20.635  11.248  26.804  1.00  0.00     0.139 C 
BRANCH   2   3
HETATM    3  N3  UNL     1      20.303  12.184  27.779  1.00  0.00    -0.339 N 
HETATM    4  C6  UNL     1      18.836  12.352  28.032  1.00  0.00     0.184 C 
HETATM    5  C7  UNL     1      18.577  12.450  29.458  1.00  0.00     0.003 C 
HETATM    6  C8  UNL     1      19.455  12.833  30.359  1.00  0.00    -0.026 C 
HETATM    7  C9  UNL     1      20.815  13.207  30.008  1.00  0.00     0.057 C 
HETATM    8  C10 UNL     1      21.193  12.960  28.574  1.00  0.00     0.031 C 
HETATM    9  C11 UNL     1      21.410  14.334  27.912  1.00  0.00     0.038 C 
HETATM   10  C12 UNL     1      22.608  12.344  28.689  1.00  0.00     0.038 C 
BRANCH   4  11
HETATM   11  C5  UNL     1      18.184  13.267  27.130  1.00  0.00     0.141 C 
BRANCH  11  12
HETATM   12  N2  UNL     1      17.354  13.133  26.030  1.00  0.00    -0.360 N 
HETATM   13  C4  UNL     1      15.878  13.197  26.243  1.00  0.00     0.144 C 
HETATM   14  C3  UNL     1      15.197  12.193  25.349  1.00  0.00     0.145 C 
HETATM   15  N1  UNL     1      16.128  11.120  24.982  1.00  0.00    -0.349 N 
HETATM   16  C2  UNL     1      15.755   9.773  25.228  1.00  0.00     0.215 C 
HETATM   17  C34 UNL     1      17.392  11.427  24.396  1.00  0.00     0.145 C 
HETATM   18  C1  UNL     1      14.424   9.461  25.867  1.00  0.00     0.117 C 
HETATM   19  O1  UNL     1      16.473   8.780  24.945  1.00  0.00    -0.274 OA
HETATM   20  C33 UNL     1      17.687  12.901  24.648  1.00  0.00     0.144 C 
ENDBRANCH  11  12
BRANCH  11  21
HETATM   21  O2  UNL     1      18.430  14.544  27.418  1.00  0.00    -0.348 OA
ATOM     22  H2  UNL     1      19.055  14.932  26.817  1.00  0.00     0.219 HD
ENDBRANCH  11  21
ENDBRANCH   4  11
ENDBRANCH   2   3
BRANCH   2  23
HETATM   23  O3  UNL     1      20.571   9.986  27.209  1.00  0.00    -0.348 OA
ATOM     24  H3  UNL     1      20.971   9.360  26.615  1.00  0.00     0.219 HD
ENDBRANCH   2  23
ENDBRANCH   1   2
BRANCH   1  25
HETATM   25  N4  UNL     1      22.367  12.069  25.327  1.00  0.00    -0.347 N 
HETATM   26  C15 UNL     1      22.578  13.143  24.454  1.00  0.00     0.241 C 
HETATM   27  O4  UNL     1      21.648  13.565  23.690  1.00  0.00    -0.271 OA
ATOM     28  H4  UNL     1      23.131  11.765  25.930  1.00  0.00     0.163 HD
BRANCH  26  29
HETATM   29  C16 UNL     1      23.898  13.882  24.331  1.00  0.00     0.176 C 
BRANCH  29  30
HETATM   30  C17 UNL     1      24.224  14.484  25.626  1.00  0.00     0.038 C 
BRANCH  30  31
HETATM   31  C18 UNL     1      24.688  15.896  25.628  1.00  0.00    -0.020 C 
HETATM   32  C19 UNL     1      26.175  15.838  26.052  1.00  0.00     0.009 C 
HETATM   33  C20 UNL     1      24.642  16.612  24.329  1.00  0.00     0.009 C 
ENDBRANCH  30  31
ENDBRANCH  29  30
BRANCH  29  34
HETATM   34  N5  UNL     1      24.814  12.839  23.826  1.00  0.00    -0.356 N 
ATOM     35  H5  UNL     1      24.922  11.972  24.352  1.00  0.00     0.162 HD
BRANCH  34  36
HETATM   36  C21 UNL     1      25.539  13.013  22.641  1.00  0.00     0.163 C 
BRANCH  36  37
HETATM   37  O5  UNL     1      26.193  14.185  22.656  1.00  0.00    -0.345 OA
ATOM     38  H5  UNL     1      27.120  14.052  22.499  1.00  0.00     0.219 HD
ENDBRANCH  36  37
BRANCH  36  39
HETATM   39  C22 UNL     1      25.707  12.241  21.460  1.00  0.00     0.076 C 
BRANCH  39  40
HETATM   40  C23 UNL     1      24.853  11.990  20.340  1.00  0.00     0.011 C 
BRANCH  40  41
HETATM   41  C24 UNL     1      23.395  12.150  20.278  1.00  0.00     0.002 C 
HETATM   42  C25 UNL     1      22.828  10.675  20.288  1.00  0.00     0.013 C 
HETATM   43  C26 UNL     1      22.739  12.806  19.120  1.00  0.00     0.013 C 
ENDBRANCH  40  41
ENDBRANCH  39  40
BRANCH  39  44
HETATM   44  N6  UNL     1      27.134  12.470  20.983  1.00  0.00    -0.376 N 
ATOM     45  H6  UNL     1      27.433  13.271  20.427  1.00  0.00     0.160 HD
BRANCH  44  46
HETATM   46  C27 UNL     1      27.999  11.423  21.412  1.00  0.00     0.160 A 
HETATM   47  C28 UNL     1      29.274  11.045  20.814  1.00  0.00     0.112 A 
HETATM   48  C29 UNL     1      28.051  10.119  20.593  1.00  0.00     0.265 A 
HETATM   49  F1  UNL     1      27.456  10.184  19.337  1.00  0.00    -0.204 F 
HETATM   50  F2  UNL     1      28.007   8.935  21.265  1.00  0.00    -0.204 F 
ENDBRANCH  44  46
ENDBRANCH  39  44
ENDBRANCH  36  39
ENDBRANCH  34  36
ENDBRANCH  29  34
ENDBRANCH  26  29
ENDBRANCH   1  25
BRANCH   1  51
HETATM   51  C30 UNL     1      21.376   9.983  24.773  1.00  0.00     0.008 C 
HETATM   52  C31 UNL     1      20.367   9.756  23.643  1.00  0.00     0.012 C 
HETATM   53  C32 UNL     1      22.749   9.999  24.136  1.00  0.00     0.012 C 
ENDBRANCH   1  51
TORSDOF 19
ENDMDL
MODEL 4
REMARK VINA RESULT: -8.827733739      0.912      2.009
REMARK  19 active torsions:
REMARK  status: ('A' for Active; 'I' for Inactive)
REMARK       I    between atoms: C2_2  and  N1_4 
REMARK    1  A    between atoms: N2_7  and  C5_8 
REMARK    2  A    between atoms: C5_8  and  O2_9 
REMARK    3  A    between atoms: C5_8  and  C6_11 
REMARK    4  A    between atoms: N3_18  and  C13_19 
REMARK    5  A    between atoms: C13_19  and  O3_20 
REMARK    6  A    between atoms: C13_19  and  C14_22 
REMARK    7  A    between atoms: C14_22  and  N4_23 
REMARK    8  A    between atoms: C14_22  and  C30_49 
REMARK       I    between atoms: N4_23  and  C15_25 
REMARK    9  A    between atoms: C15_25  and  C16_27 
REMARK   10  A    between atoms: C16_27  and  C17_28 
REMARK   11  A    between atoms: C16_27  and  N5_32 
REMARK   12  A    between atoms: C17_28  and  C18_29 
REMARK   13  A    between atoms: N5_32  and  C21_34 
REMARK   14  A    between atoms: C21_34  and  O5_35 
REMARK   15  A    between atoms: C21_34  and  C22_37 
REMARK   16  A    between atoms: C22_37  and  C23_38 
REMARK   17  A    between atoms: C22_37  and  N6_42 
REMARK   18  A    between atoms: C23_38  and  C24_39 
REMARK   19  A    between atoms: N6_42  and  C27_44 
ROOT
HETATM    1  C14 UNL     1      21.054  11.247  25.525  1.00  0.00     0.162 C 
ENDROOT
BRANCH   1   2
HETATM    2  C13 UNL     1      20.705  11.118  26.940  1.00  0.00     0.139 C 
BRANCH   2   3
HETATM    3  N3  UNL     1      20.291  12.022  27.915  1.00  0.00    -0.339 N 
HETATM    4  C6  UNL     1      18.876  11.860  28.378  1.00  0.00     0.184 C 
HETATM    5  C7  UNL     1      18.796  12.003  29.822  1.00  0.00     0.003 C 
HETATM    6  C8  UNL     1      19.669  12.648  30.564  1.00  0.00    -0.026 C 
HETATM    7  C9  UNL     1      20.837  13.302  29.998  1.00  0.00     0.057 C 
HETATM    8  C10 UNL     1      21.065  13.042  28.535  1.00  0.00     0.031 C 
HETATM    9  C11 UNL     1      20.851  14.375  27.792  1.00  0.00     0.038 C 
HETATM   10  C12 UNL     1      22.590  12.785  28.462  1.00  0.00     0.038 C 
BRANCH   4  11
HETATM   11  C5  UNL     1      17.905  12.526  27.547  1.00  0.00     0.141 C 
BRANCH  11  12
HETATM   12  N2  UNL     1      17.514  12.422  26.223  1.00  0.00    -0.360 N 
HETATM   13  C4  UNL     1      17.908  13.507  25.278  1.00  0.00     0.144 C 
HETATM   14  C3  UNL     1      16.776  13.776  24.320  1.00  0.00     0.145 C 
HETATM   15  N1  UNL     1      15.500  13.344  24.902  1.00  0.00    -0.349 N 
HETATM   16  C2  UNL     1      14.431  14.276  24.978  1.00  0.00     0.215 C 
HETATM   17  C34 UNL     1      15.339  12.015  25.392  1.00  0.00     0.145 C 
HETATM   18  C1  UNL     1      14.618  15.685  24.475  1.00  0.00     0.117 C 
HETATM   19  O1  UNL     1      13.296  14.008  25.449  1.00  0.00    -0.274 OA
HETATM   20  C33 UNL     1      16.724  11.406  25.574  1.00  0.00     0.144 C 
ENDBRANCH  11  12
BRANCH  11  21
HETATM   21  O2  UNL     1      17.216  13.460  28.200  1.00  0.00    -0.348 OA
ATOM     22  H2  UNL     1      16.369  13.142  28.490  1.00  0.00     0.219 HD
ENDBRANCH  11  21
ENDBRANCH   4  11
ENDBRANCH   2   3
BRANCH   2  23
HETATM   23  O3  UNL     1      20.809   9.864  27.362  1.00  0.00    -0.348 OA
ATOM     24  H3  UNL     1      20.334   9.231  26.836  1.00  0.00     0.219 HD
ENDBRANCH   2  23
ENDBRANCH   1   2
BRANCH   1  25
HETATM   25  N4  UNL     1      22.366  11.984  25.408  1.00  0.00    -0.347 N 
HETATM   26  C15 UNL     1      22.522  13.090  24.565  1.00  0.00     0.241 C 
HETATM   27  O4  UNL     1      21.549  13.529  23.866  1.00  0.00    -0.271 OA
ATOM     28  H4  UNL     1      23.163  11.666  25.959  1.00  0.00     0.163 HD
BRANCH  26  29
HETATM   29  C16 UNL     1      23.827  13.848  24.401  1.00  0.00     0.176 C 
BRANCH  29  30
HETATM   30  C17 UNL     1      24.194  14.439  25.690  1.00  0.00     0.038 C 
BRANCH  30  31
HETATM   31  C18 UNL     1      24.659  15.850  25.688  1.00  0.00    -0.020 C 
HETATM   32  C19 UNL     1      26.149  15.791  26.099  1.00  0.00     0.009 C 
HETATM   33  C20 UNL     1      24.601  16.567  24.390  1.00  0.00     0.009 C 
ENDBRANCH  30  31
ENDBRANCH  29  30
BRANCH  29  34
HETATM   34  N5  UNL     1      24.736  12.822  23.849  1.00  0.00    -0.356 N 
ATOM     35  H5  UNL     1      24.790  11.909  24.300  1.00  0.00     0.162 HD
BRANCH  34  36
HETATM   36  C21 UNL     1      25.526  13.075  22.722  1.00  0.00     0.163 C 
BRANCH  36  37
HETATM   37  O5  UNL     1      26.293  14.158  22.917  1.00  0.00    -0.345 OA
ATOM     38  H5  UNL     1      26.614  14.494  22.088  1.00  0.00     0.219 HD
ENDBRANCH  36  37
BRANCH  36  39
HETATM   39  C22 UNL     1      25.666  12.453  21.451  1.00  0.00     0.076 C 
BRANCH  39  40
HETATM   40  C23 UNL     1      24.829  12.425  20.292  1.00  0.00     0.011 C 
BRANCH  40  41
HETATM   41  C24 UNL     1      23.805  11.430  19.957  1.00  0.00     0.002 C 
HETATM   42  C25 UNL     1      22.713  11.579  21.089  1.00  0.00     0.013 C 
HETATM   43  C26 UNL     1      24.121   9.980  19.918  1.00  0.00     0.013 C 
ENDBRANCH  40  41
ENDBRANCH  39  40
BRANCH  39  44
HETATM   44  N6  UNL     1      27.121  12.623  21.037  1.00  0.00    -0.376 N 
ATOM     45  H6  UNL     1      27.493  13.448  20.566  1.00  0.00     0.160 HD
BRANCH  44  46
HETATM   46  C27 UNL     1      27.899  11.483  21.391  1.00  0.00     0.160 A 
HETATM   47  C28 UNL     1      29.148  11.053  20.775  1.00  0.00     0.112 A 
HETATM   48  C29 UNL     1      27.860  10.244  20.476  1.00  0.00     0.265 A 
HETATM   49  F1  UNL     1      27.287  10.449  19.224  1.00  0.00    -0.204 F 
HETATM   50  F2  UNL     1      27.717   9.020  21.055  1.00  0.00    -0.204 F 
ENDBRANCH  44  46
ENDBRANCH  39  44
ENDBRANCH  36  39
ENDBRANCH  34  36
ENDBRANCH  29  34
ENDBRANCH  26  29
ENDBRANCH   1  25
BRANCH   1  51
HETATM   51  C30 UNL     1      21.375   9.895  24.860  1.00  0.00     0.008 C 
HETATM   52  C31 UNL     1      20.407   9.736  23.685  1.00  0.00     0.012 C 
HETATM   53  C32 UNL     1      22.773   9.896  24.277  1.00  0.00     0.012 C 
ENDBRANCH   1  51
TORSDOF 19
ENDMDL
MODEL 5
REMARK VINA RESULT: -8.751060995      3.803     10.100
REMARK  19 active torsions:
REMARK  status: ('A' for Active; 'I' for Inactive)
REMARK       I    between atoms: C2_2  and  N1_4 
REMARK    1  A    between atoms: N2_7  and  C5_8 
REMARK    2  A    between atoms: C5_8  and  O2_9 
REMARK    3  A    between atoms: C5_8  and  C6_11 
REMARK    4  A    between atoms: N3_18  and  C13_19 
REMARK    5  A    between atoms: C13_19  and  O3_20 
REMARK    6  A    between atoms: C13_19  and  C14_22 
REMARK    7  A    between atoms: C14_22  and  N4_23 
REMARK    8  A    between atoms: C14_22  and  C30_49 
REMARK       I    between atoms: N4_23  and  C15_25 
REMARK    9  A    between atoms: C15_25  and  C16_27 
REMARK   10  A    between atoms: C16_27  and  C17_28 
REMARK   11  A    between atoms: C16_27  and  N5_32 
REMARK   12  A    between atoms: C17_28  and  C18_29 
REMARK   13  A    between atoms: N5_32  and  C21_34 
REMARK   14  A    between atoms: C21_34  and  O5_35 
REMARK   15  A    between atoms: C21_34  and  C22_37 
REMARK   16  A    between atoms: C22_37  and  C23_38 
REMARK   17  A    between atoms: C22_37  and  N6_42 
REMARK   18  A    between atoms: C23_38  and  C24_39 
REMARK   19  A    between atoms: N6_42  and  C27_44 
ROOT
HETATM    1  C14 UNL     1      28.100  12.894  22.690  1.00  0.00     0.162 C 
ENDROOT
BRANCH   1   2
HETATM    2  C13 UNL     1      28.471  14.306  22.594  1.00  0.00     0.139 C 
BRANCH   2   3
HETATM    3  N3  UNL     1      29.073  15.204  23.471  1.00  0.00    -0.339 N 
HETATM    4  C6  UNL     1      28.303  15.488  24.725  1.00  0.00     0.184 C 
HETATM    5  C7  UNL     1      29.195  15.517  25.871  1.00  0.00     0.003 C 
HETATM    6  C8  UNL     1      30.487  15.758  25.815  1.00  0.00    -0.026 C 
HETATM    7  C9  UNL     1      31.173  16.027  24.562  1.00  0.00     0.057 C 
HETATM    8  C10 UNL     1      30.337  15.840  23.327  1.00  0.00     0.031 C 
HETATM    9  C11 UNL     1      30.144  17.230  22.688  1.00  0.00     0.038 C 
HETATM   10  C12 UNL     1      31.296  15.091  22.370  1.00  0.00     0.038 C 
BRANCH   4  11
HETATM   11  C5  UNL     1      27.304  16.517  24.580  1.00  0.00     0.141 C 
BRANCH  11  12
HETATM   12  N2  UNL     1      27.104  17.772  25.131  1.00  0.00    -0.360 N 
HETATM   13  C4  UNL     1      27.463  18.970  24.316  1.00  0.00     0.144 C 
HETATM   14  C3  UNL     1      28.077  20.018  25.207  1.00  0.00     0.145 C 
HETATM   15  N1  UNL     1      28.641  19.399  26.412  1.00  0.00    -0.349 N 
HETATM   16  C2  UNL     1      30.000  19.647  26.739  1.00  0.00     0.215 C 
HETATM   17  C34 UNL     1      27.840  18.555  27.235  1.00  0.00     0.145 C 
HETATM   18  C1  UNL     1      30.844  20.526  25.850  1.00  0.00     0.117 C 
HETATM   19  O1  UNL     1      30.578  19.175  27.751  1.00  0.00    -0.274 OA
HETATM   20  C33 UNL     1      26.612  18.137  26.434  1.00  0.00     0.144 C 
ENDBRANCH  11  12
BRANCH  11  21
HETATM   21  O2  UNL     1      26.348  16.195  23.711  1.00  0.00    -0.348 OA
ATOM     22  H2  UNL     1      26.515  15.359  23.290  1.00  0.00     0.219 HD
ENDBRANCH  11  21
ENDBRANCH   4  11
ENDBRANCH   2   3
BRANCH   2  23
HETATM   23  O3  UNL     1      28.161  14.818  21.410  1.00  0.00    -0.348 OA
ATOM     24  H3  UNL     1      27.488  15.489  21.434  1.00  0.00     0.219 HD
ENDBRANCH   2  23
ENDBRANCH   1   2
BRANCH   1  25
HETATM   25  N4  UNL     1      26.703  12.714  22.150  1.00  0.00    -0.347 N 
HETATM   26  C15 UNL     1      25.569  12.910  22.947  1.00  0.00     0.241 C 
HETATM   27  O4  UNL     1      25.674  13.261  24.168  1.00  0.00    -0.271 OA
ATOM     28  H4  UNL     1      26.581  12.442  21.174  1.00  0.00     0.163 HD
BRANCH  26  29
HETATM   29  C16 UNL     1      24.147  12.721  22.450  1.00  0.00     0.176 C 
BRANCH  29  30
HETATM   30  C17 UNL     1      24.181  11.960  21.199  1.00  0.00     0.038 C 
BRANCH  30  31
HETATM   31  C18 UNL     1      22.885  11.699  20.521  1.00  0.00    -0.020 C 
HETATM   32  C19 UNL     1      22.900  12.585  19.253  1.00  0.00     0.009 C 
HETATM   33  C20 UNL     1      22.641  10.307  20.067  1.00  0.00     0.009 C 
ENDBRANCH  30  31
ENDBRANCH  29  30
BRANCH  29  34
HETATM   34  N5  UNL     1      23.477  12.087  23.604  1.00  0.00    -0.356 N 
ATOM     35  H5  UNL     1      23.946  11.328  24.098  1.00  0.00     0.162 HD
BRANCH  34  36
HETATM   36  C21 UNL     1      22.212  12.504  24.036  1.00  0.00     0.163 C 
BRANCH  36  37
HETATM   37  O5  UNL     1      21.919  13.715  23.536  1.00  0.00    -0.345 OA
ATOM     38  H5  UNL     1      21.383  14.207  24.147  1.00  0.00     0.219 HD
ENDBRANCH  36  37
BRANCH  36  39
HETATM   39  C22 UNL     1      21.217  11.939  24.878  1.00  0.00     0.076 C 
BRANCH  39  40
HETATM   40  C23 UNL     1      20.173  10.991  24.639  1.00  0.00     0.011 C 
BRANCH  40  41
HETATM   41  C24 UNL     1      18.739  11.264  24.487  1.00  0.00     0.002 C 
HETATM   42  C25 UNL     1      18.602  12.824  24.700  1.00  0.00     0.013 C 
HETATM   43  C26 UNL     1      17.738  10.662  25.401  1.00  0.00     0.013 C 
ENDBRANCH  40  41
ENDBRANCH  39  40
BRANCH  39  44
HETATM   44  N6  UNL     1      21.886  11.648  26.215  1.00  0.00    -0.376 N 
ATOM     45  H6  UNL     1      22.723  11.076  26.326  1.00  0.00     0.160 HD
BRANCH  44  46
HETATM   46  C27 UNL     1      21.193  12.275  27.289  1.00  0.00     0.160 A 
HETATM   47  C28 UNL     1      21.432  12.079  28.714  1.00  0.00     0.112 A 
HETATM   48  C29 UNL     1      20.159  11.457  28.086  1.00  0.00     0.265 A 
HETATM   49  F1  UNL     1      20.195  10.082  27.868  1.00  0.00    -0.204 F 
HETATM   50  F2  UNL     1      18.955  12.032  28.360  1.00  0.00    -0.204 F 
ENDBRANCH  44  46
ENDBRANCH  39  44
ENDBRANCH  36  39
ENDBRANCH  34  36
ENDBRANCH  29  34
ENDBRANCH  26  29
ENDBRANCH   1  25
BRANCH   1  51
HETATM   51  C30 UNL     1      28.931  11.990  21.759  1.00  0.00     0.008 C 
HETATM   52  C31 UNL     1      29.219  10.700  22.532  1.00  0.00     0.012 C 
HETATM   53  C32 UNL     1      28.135  11.597  20.533  1.00  0.00     0.012 C 
ENDBRANCH   1  51
TORSDOF 19
ENDMDL
