MODEL 1
REMARK VINA RESULT: -9.696894316      0.000      0.000
REMARK  11 active torsions:
REMARK  status: ('A' for Active; 'I' for Inactive)
REMARK    1  A    between atoms: C5_5  and  S1_6 
REMARK    2  A    between atoms: S1_6  and  C6_7 
REMARK    3  A    between atoms: C8_9  and  C9_10 
REMARK    4  A    between atoms: C9_10  and  C10_11 
REMARK       I    between atoms: C10_11  and  N1_13 
REMARK    5  A    between atoms: C13_16  and  C14_17 
REMARK    6  A    between atoms: C16_25  and  C17_26 
REMARK    7  A    between atoms: C17_26  and  N5_27 
REMARK       I    between atoms: N5_27  and  C18_29 
REMARK    8  A    between atoms: C18_29  and  C19_31 
REMARK    9  A    between atoms: C19_31  and  N6_32 
REMARK       I    between atoms: N6_32  and  C21_34 
REMARK   10  A    between atoms: C21_34  and  C22_36 
REMARK   11  A    between atoms: C22_36  and  C23_37 
ROOT
HETATM    1  C1  UNL     1      28.807  14.485  19.923  1.00  0.00     0.014 C 
HETATM    2  C2  UNL     1      28.794  13.824  21.243  1.00  0.00     0.034 C 
HETATM    3  C3  UNL     1      29.266  12.395  21.337  1.00  0.00     0.016 C 
HETATM    4  C4  UNL     1      28.315  12.277  22.541  1.00  0.00     0.057 C 
HETATM    5  C5  UNL     1      27.520  13.362  21.844  1.00  0.00     0.180 C 
HETATM    6  N4  UNL     1      26.623  12.720  20.916  1.00  0.00    -0.049 N 
ATOM      7  H41 UNL     1      26.044  13.415  20.445  1.00  0.00     0.279 HD
ATOM      8  H42 UNL     1      25.904  12.201  21.420  1.00  0.00     0.279 HD
HETATM    9  C16 UNL     1      27.266  11.868  19.947  1.00  0.00     0.224 C 
HETATM   10  C29 UNL     1      28.672  11.530  20.263  1.00  0.00     0.119 C 
HETATM   11 CL1  UNL     1      28.896   9.835  20.789  1.00  0.00    -0.122 Cl
ENDROOT
BRANCH   9  12
HETATM   12  C17 UNL     1      26.362  10.706  19.639  1.00  0.00     0.157 C 
BRANCH  12  13
HETATM   13  N5  UNL     1      25.423  10.352  20.667  1.00  0.00    -0.358 N 
HETATM   14  C18 UNL     1      24.045  10.118  20.463  1.00  0.00     0.235 C 
HETATM   15  O3  UNL     1      23.577  10.202  19.309  1.00  0.00    -0.272 OA
ATOM     16  H5  UNL     1      25.779  10.263  21.619  1.00  0.00     0.162 HD
BRANCH  14  17
HETATM   17  C19 UNL     1      23.114   9.772  21.570  1.00  0.00     0.227 C 
BRANCH  17  18
HETATM   18  N6  UNL     1      22.866  10.919  22.421  1.00  0.00    -0.347 N 
HETATM   19  C20 UNL     1      22.880  12.286  21.947  1.00  0.00     0.153 C 
HETATM   20  C21 UNL     1      22.598  10.689  23.796  1.00  0.00     0.224 C 
HETATM   21  O4  UNL     1      22.603   9.520  24.237  1.00  0.00    -0.273 OA
BRANCH  20  22
HETATM   22  C22 UNL     1      22.314  11.835  24.724  1.00  0.00     0.141 C 
BRANCH  22  23
HETATM   23  C23 UNL     1      20.960  11.675  25.281  1.00  0.00    -0.048 A 
HETATM   24  C24 UNL     1      20.732  11.409  26.630  1.00  0.00     0.007 A 
HETATM   25  C25 UNL     1      19.462  11.267  27.127  1.00  0.00     0.002 A 
HETATM   26  C26 UNL     1      18.390  11.389  26.279  1.00  0.00     0.019 A 
HETATM   27  C27 UNL     1      18.595  11.654  24.926  1.00  0.00     0.011 A 
HETATM   28 BR1  UNL     1      17.113  11.821  23.761  1.00  0.00    -0.051 Br
HETATM   29  C28 UNL     1      19.869  11.793  24.444  1.00  0.00     0.026 A 
ENDBRANCH  22  23
ENDBRANCH  20  22
ENDBRANCH  17  18
ENDBRANCH  14  17
ENDBRANCH  12  13
ENDBRANCH   9  12
BRANCH   5  30
HETATM   30  S1  UNL     1      26.732  14.567  22.904  1.00  0.00    -0.094 SA
BRANCH  30  31
HETATM   31  C6  UNL     1      27.821  14.976  24.265  1.00  0.00     0.287 C 
HETATM   32  C7  UNL     1      29.009  15.823  23.822  1.00  0.00     0.054 C 
HETATM   33  C8  UNL     1      29.545  16.224  25.187  1.00  0.00     0.039 C 
HETATM   34  C13 UNL     1      28.341  16.202  26.045  1.00  0.00     0.316 C 
HETATM   35  N3  UNL     1      27.199  15.930  25.204  1.00  0.00     0.112 N 
HETATM   36  C15 UNL     1      26.058  15.362  25.800  1.00  0.00     0.312 C 
BRANCH  33  37
HETATM   37  C9  UNL     1      30.410  17.408  25.156  1.00  0.00     0.110 C 
BRANCH  37  38
HETATM   38  C10 UNL     1      31.849  17.239  25.170  1.00  0.00     0.219 C 
HETATM   39  O1  UNL     1      32.404  16.160  24.889  1.00  0.00    -0.273 OA
HETATM   40  N1  UNL     1      32.691  18.342  25.520  1.00  0.00    -0.361 N 
HETATM   41  C11 UNL     1      32.090  19.617  25.858  1.00  0.00     0.152 C 
HETATM   42  C12 UNL     1      34.140  18.193  25.538  1.00  0.00     0.152 C 
ENDBRANCH  37  38
ENDBRANCH  33  37
BRANCH  34  43
HETATM   43  C14 UNL     1      28.159  17.248  27.028  1.00  0.00     0.265 C 
HETATM   44  N2  UNL     1      27.334  18.404  26.929  1.00  0.00    -0.060 NA
HETATM   45  O2  UNL     1      28.784  17.166  28.123  1.00  0.00    -0.274 OA
ENDBRANCH  34  43
ENDBRANCH  30  31
ENDBRANCH   5  30
TORSDOF 11
ENDMDL
MODEL 2
REMARK VINA RESULT: -9.626881437      3.803      8.067
REMARK  11 active torsions:
REMARK  status: ('A' for Active; 'I' for Inactive)
REMARK    1  A    between atoms: C5_5  and  S1_6 
REMARK    2  A    between atoms: S1_6  and  C6_7 
REMARK    3  A    between atoms: C8_9  and  C9_10 
REMARK    4  A    between atoms: C9_10  and  C10_11 
REMARK       I    between atoms: C10_11  and  N1_13 
REMARK    5  A    between atoms: C13_16  and  C14_17 
REMARK    6  A    between atoms: C16_25  and  C17_26 
REMARK    7  A    between atoms: C17_26  and  N5_27 
REMARK       I    between atoms: N5_27  and  C18_29 
REMARK    8  A    between atoms: C18_29  and  C19_31 
REMARK    9  A    between atoms: C19_31  and  N6_32 
REMARK       I    between atoms: N6_32  and  C21_34 
REMARK   10  A    between atoms: C21_34  and  C22_36 
REMARK   11  A    between atoms: C22_36  and  C23_37 
ROOT
HETATM    1  C1  UNL     1      23.910   9.174  21.124  1.00  0.00     0.014 C 
HETATM    2  C2  UNL     1      23.323  10.403  20.558  1.00  0.00     0.034 C 
HETATM    3  C3  UNL     1      23.902  10.955  19.279  1.00  0.00     0.016 C 
HETATM    4  C4  UNL     1      23.427  12.328  19.787  1.00  0.00     0.057 C 
HETATM    5  C5  UNL     1      23.605  11.726  21.166  1.00  0.00     0.180 C 
HETATM    6  N4  UNL     1      24.980  11.920  21.554  1.00  0.00    -0.049 N 
ATOM      7  H41 UNL     1      25.137  11.555  22.494  1.00  0.00     0.279 HD
ATOM      8  H42 UNL     1      25.166  12.910  21.714  1.00  0.00     0.279 HD
HETATM    9  C16 UNL     1      25.949  11.371  20.638  1.00  0.00     0.224 C 
HETATM   10  C29 UNL     1      25.402  11.005  19.312  1.00  0.00     0.119 C 
HETATM   11 CL1  UNL     1      25.905  12.115  18.003  1.00  0.00    -0.122 Cl
ENDROOT
BRANCH   9  12
HETATM   12  C17 UNL     1      27.167  12.252  20.628  1.00  0.00     0.157 C 
BRANCH  12  13
HETATM   13  N5  UNL     1      27.198  13.294  21.617  1.00  0.00    -0.358 N 
HETATM   14  C18 UNL     1      27.982  13.277  22.791  1.00  0.00     0.235 C 
HETATM   15  O3  UNL     1      28.731  12.302  23.010  1.00  0.00    -0.272 OA
ATOM     16  H5  UNL     1      26.605  14.109  21.459  1.00  0.00     0.162 HD
BRANCH  14  17
HETATM   17  C19 UNL     1      27.959  14.377  23.792  1.00  0.00     0.227 C 
BRANCH  17  18
HETATM   18  N6  UNL     1      29.192  15.140  23.757  1.00  0.00    -0.347 N 
HETATM   19  C20 UNL     1      29.724  15.747  22.557  1.00  0.00     0.153 C 
HETATM   20  C21 UNL     1      29.918  15.297  24.967  1.00  0.00     0.224 C 
HETATM   21  O4  UNL     1      29.493  14.764  26.013  1.00  0.00    -0.273 OA
BRANCH  20  22
HETATM   22  C22 UNL     1      31.191  16.093  24.999  1.00  0.00     0.141 C 
BRANCH  22  23
HETATM   23  C23 UNL     1      30.881  17.476  25.395  1.00  0.00    -0.048 A 
HETATM   24  C24 UNL     1      29.913  17.783  26.349  1.00  0.00     0.007 A 
HETATM   25  C25 UNL     1      29.642  19.079  26.705  1.00  0.00     0.002 A 
HETATM   26  C26 UNL     1      30.338  20.100  26.107  1.00  0.00     0.019 A 
HETATM   27  C27 UNL     1      31.310  19.816  25.148  1.00  0.00     0.011 A 
HETATM   28 BR1  UNL     1      32.268  21.227  24.328  1.00  0.00    -0.051 Br
HETATM   29  C28 UNL     1      31.570  18.517  24.805  1.00  0.00     0.026 A 
ENDBRANCH  22  23
ENDBRANCH  20  22
ENDBRANCH  17  18
ENDBRANCH  14  17
ENDBRANCH  12  13
ENDBRANCH   9  12
BRANCH   5  30
HETATM   30  S1  UNL     1      22.420  12.228  22.406  1.00  0.00    -0.094 SA
BRANCH  30  31
HETATM   31  C6  UNL     1      23.279  12.724  23.896  1.00  0.00     0.287 C 
HETATM   32  C7  UNL     1      23.767  14.167  23.830  1.00  0.00     0.054 C 
HETATM   33  C8  UNL     1      24.169  14.355  25.284  1.00  0.00     0.039 C 
HETATM   34  C13 UNL     1      23.280  13.422  26.006  1.00  0.00     0.316 C 
HETATM   35  N3  UNL     1      22.366  12.844  25.048  1.00  0.00     0.112 N 
HETATM   36  C15 UNL     1      21.788  11.599  25.352  1.00  0.00     0.312 C 
BRANCH  33  37
HETATM   37  C9  UNL     1      24.258  15.761  25.695  1.00  0.00     0.110 C 
BRANCH  37  38
HETATM   38  C10 UNL     1      25.529  16.450  25.609  1.00  0.00     0.219 C 
HETATM   39  O1  UNL     1      26.461  16.246  26.409  1.00  0.00    -0.273 OA
HETATM   40  N1  UNL     1      25.748  17.412  24.572  1.00  0.00    -0.361 N 
HETATM   41  C11 UNL     1      24.689  17.686  23.620  1.00  0.00     0.152 C 
HETATM   42  C12 UNL     1      27.020  18.114  24.469  1.00  0.00     0.152 C 
ENDBRANCH  37  38
ENDBRANCH  33  37
BRANCH  34  43
HETATM   43  C14 UNL     1      22.689  13.840  27.260  1.00  0.00     0.265 C 
HETATM   44  N2  UNL     1      21.483  14.568  27.456  1.00  0.00    -0.060 NA
HETATM   45  O2  UNL     1      23.280  13.542  28.337  1.00  0.00    -0.274 OA
ENDBRANCH  34  43
ENDBRANCH  30  31
ENDBRANCH   5  30
TORSDOF 11
ENDMDL
MODEL 3
REMARK VINA RESULT: -9.569323859      0.878      1.136
REMARK  11 active torsions:
REMARK  status: ('A' for Active; 'I' for Inactive)
REMARK    1  A    between atoms: C5_5  and  S1_6 
REMARK    2  A    between atoms: S1_6  and  C6_7 
REMARK    3  A    between atoms: C8_9  and  C9_10 
REMARK    4  A    between atoms: C9_10  and  C10_11 
REMARK       I    between atoms: C10_11  and  N1_13 
REMARK    5  A    between atoms: C13_16  and  C14_17 
REMARK    6  A    between atoms: C16_25  and  C17_26 
REMARK    7  A    between atoms: C17_26  and  N5_27 
REMARK       I    between atoms: N5_27  and  C18_29 
REMARK    8  A    between atoms: C18_29  and  C19_31 
REMARK    9  A    between atoms: C19_31  and  N6_32 
REMARK       I    between atoms: N6_32  and  C21_34 
REMARK   10  A    between atoms: C21_34  and  C22_36 
REMARK   11  A    between atoms: C22_36  and  C23_37 
ROOT
HETATM    1  C1  UNL     1      28.779  14.457  19.865  1.00  0.00     0.014 C 
HETATM    2  C2  UNL     1      28.796  13.819  21.196  1.00  0.00     0.034 C 
HETATM    3  C3  UNL     1      29.290  12.398  21.307  1.00  0.00     0.016 C 
HETATM    4  C4  UNL     1      28.361  12.288  22.528  1.00  0.00     0.057 C 
HETATM    5  C5  UNL     1      27.539  13.350  21.826  1.00  0.00     0.180 C 
HETATM    6  N4  UNL     1      26.637  12.679  20.923  1.00  0.00    -0.049 N 
ATOM      7  H41 UNL     1      26.040  13.358  20.450  1.00  0.00     0.279 HD
ATOM      8  H42 UNL     1      25.933  12.160  21.448  1.00  0.00     0.279 HD
HETATM    9  C16 UNL     1      27.276  11.820  19.959  1.00  0.00     0.224 C 
HETATM   10  C29 UNL     1      28.692  11.507  20.258  1.00  0.00     0.119 C 
HETATM   11 CL1  UNL     1      28.948   9.825  20.809  1.00  0.00    -0.122 Cl
ENDROOT
BRANCH   9  12
HETATM   12  C17 UNL     1      26.384  10.641  19.685  1.00  0.00     0.157 C 
BRANCH  12  13
HETATM   13  N5  UNL     1      25.413  10.339  20.701  1.00  0.00    -0.358 N 
HETATM   14  C18 UNL     1      24.041  10.100  20.468  1.00  0.00     0.235 C 
HETATM   15  O3  UNL     1      23.607  10.131  19.298  1.00  0.00    -0.272 OA
ATOM     16  H5  UNL     1      25.741  10.294  21.666  1.00  0.00     0.162 HD
BRANCH  14  17
HETATM   17  C19 UNL     1      23.076   9.811  21.562  1.00  0.00     0.227 C 
BRANCH  17  18
HETATM   18  N6  UNL     1      22.875  10.975  22.403  1.00  0.00    -0.347 N 
HETATM   19  C20 UNL     1      22.885  12.333  21.905  1.00  0.00     0.153 C 
HETATM   20  C21 UNL     1      22.660  10.772  23.791  1.00  0.00     0.224 C 
HETATM   21  O4  UNL     1      22.669   9.611  24.252  1.00  0.00    -0.273 OA
BRANCH  20  22
HETATM   22  C22 UNL     1      22.425  11.937  24.709  1.00  0.00     0.141 C 
BRANCH  22  23
HETATM   23  C23 UNL     1      21.039  11.886  25.203  1.00  0.00    -0.048 A 
HETATM   24  C24 UNL     1      19.949  11.703  24.355  1.00  0.00     0.007 A 
HETATM   25  C25 UNL     1      18.666  11.656  24.837  1.00  0.00     0.002 A 
HETATM   26  C26 UNL     1      18.449  11.792  26.186  1.00  0.00     0.019 A 
HETATM   27  C27 UNL     1      19.525  11.977  27.052  1.00  0.00     0.011 A 
HETATM   28 BR1  UNL     1      19.220  12.163  28.911  1.00  0.00    -0.051 Br
HETATM   29  C28 UNL     1      20.800  12.021  26.555  1.00  0.00     0.026 A 
ENDBRANCH  22  23
ENDBRANCH  20  22
ENDBRANCH  17  18
ENDBRANCH  14  17
ENDBRANCH  12  13
ENDBRANCH   9  12
BRANCH   5  30
HETATM   30  S1  UNL     1      26.751  14.562  22.877  1.00  0.00    -0.094 SA
BRANCH  30  31
HETATM   31  C6  UNL     1      27.832  14.966  24.246  1.00  0.00     0.287 C 
HETATM   32  C7  UNL     1      29.019  15.821  23.814  1.00  0.00     0.054 C 
HETATM   33  C8  UNL     1      29.547  16.215  25.184  1.00  0.00     0.039 C 
HETATM   34  C13 UNL     1      28.340  16.182  26.037  1.00  0.00     0.316 C 
HETATM   35  N3  UNL     1      27.202  15.910  25.189  1.00  0.00     0.112 N 
HETATM   36  C15 UNL     1      26.061  15.333  25.776  1.00  0.00     0.312 C 
BRANCH  33  37
HETATM   37  C9  UNL     1      30.407  17.403  25.166  1.00  0.00     0.110 C 
BRANCH  37  38
HETATM   38  C10 UNL     1      31.847  17.240  25.162  1.00  0.00     0.219 C 
HETATM   39  O1  UNL     1      32.402  16.160  24.885  1.00  0.00    -0.273 OA
HETATM   40  N1  UNL     1      32.689  18.350  25.489  1.00  0.00    -0.361 N 
HETATM   41  C11 UNL     1      32.087  19.626  25.822  1.00  0.00     0.152 C 
HETATM   42  C12 UNL     1      34.138  18.206  25.489  1.00  0.00     0.152 C 
ENDBRANCH  37  38
ENDBRANCH  33  37
BRANCH  34  43
HETATM   43  C14 UNL     1      28.148  17.220  27.026  1.00  0.00     0.265 C 
HETATM   44  N2  UNL     1      27.302  18.361  26.941  1.00  0.00    -0.060 NA
HETATM   45  O2  UNL     1      28.786  17.144  28.115  1.00  0.00    -0.274 OA
ENDBRANCH  34  43
ENDBRANCH  30  31
ENDBRANCH   5  30
TORSDOF 11
ENDMDL
MODEL 4
REMARK VINA RESULT: -9.556022660      4.059      8.212
REMARK  11 active torsions:
REMARK  status: ('A' for Active; 'I' for Inactive)
REMARK    1  A    between atoms: C5_5  and  S1_6 
REMARK    2  A    between atoms: S1_6  and  C6_7 
REMARK    3  A    between atoms: C8_9  and  C9_10 
REMARK    4  A    between atoms: C9_10  and  C10_11 
REMARK       I    between atoms: C10_11  and  N1_13 
REMARK    5  A    between atoms: C13_16  and  C14_17 
REMARK    6  A    between atoms: C16_25  and  C17_26 
REMARK    7  A    between atoms: C17_26  and  N5_27 
REMARK       I    between atoms: N5_27  and  C18_29 
REMARK    8  A    between atoms: C18_29  and  C19_31 
REMARK    9  A    between atoms: C19_31  and  N6_32 
REMARK       I    between atoms: N6_32  and  C21_34 
REMARK   10  A    between atoms: C21_34  and  C22_36 
REMARK   11  A    between atoms: C22_36  and  C23_37 
ROOT
HETATM    1  C1  UNL     1      23.511   9.356  21.508  1.00  0.00     0.014 C 
HETATM    2  C2  UNL     1      22.954  10.510  20.776  1.00  0.00     0.034 C 
HETATM    3  C3  UNL     1      23.458  10.790  19.383  1.00  0.00     0.016 C 
HETATM    4  C4  UNL     1      23.110  12.261  19.672  1.00  0.00     0.057 C 
HETATM    5  C5  UNL     1      23.364  11.893  21.119  1.00  0.00     0.180 C 
HETATM    6  N4  UNL     1      24.776  12.049  21.369  1.00  0.00    -0.049 N 
ATOM      7  H41 UNL     1      24.987  11.841  22.345  1.00  0.00     0.279 HD
ATOM      8  H42 UNL     1      25.033  13.035  21.339  1.00  0.00     0.279 HD
HETATM    9  C16 UNL     1      25.631  11.282  20.499  1.00  0.00     0.224 C 
HETATM   10  C29 UNL     1      24.956  10.735  19.300  1.00  0.00     0.119 C 
HETATM   11 CL1  UNL     1      25.415  11.564  17.783  1.00  0.00    -0.122 Cl
ENDROOT
BRANCH   9  12
HETATM   12  C17 UNL     1      26.895  12.056  20.247  1.00  0.00     0.157 C 
BRANCH  12  13
HETATM   13  N5  UNL     1      27.284  12.977  21.279  1.00  0.00    -0.358 N 
HETATM   14  C18 UNL     1      28.131  12.670  22.366  1.00  0.00     0.235 C 
HETATM   15  O3  UNL     1      28.610  11.520  22.459  1.00  0.00    -0.272 OA
ATOM     16  H5  UNL     1      26.918  13.928  21.222  1.00  0.00     0.162 HD
BRANCH  14  17
HETATM   17  C19 UNL     1      28.485  13.660  23.418  1.00  0.00     0.227 C 
BRANCH  17  18
HETATM   18  N6  UNL     1      28.935  14.907  22.831  1.00  0.00    -0.347 N 
HETATM   19  C20 UNL     1      28.186  16.142  22.903  1.00  0.00     0.153 C 
HETATM   20  C21 UNL     1      30.178  14.915  22.144  1.00  0.00     0.224 C 
HETATM   21  O4  UNL     1      30.834  13.857  22.047  1.00  0.00    -0.273 OA
BRANCH  20  22
HETATM   22  C22 UNL     1      30.707  16.180  21.533  1.00  0.00     0.141 C 
BRANCH  22  23
HETATM   23  C23 UNL     1      30.718  16.036  20.068  1.00  0.00    -0.048 A 
HETATM   24  C24 UNL     1      29.549  15.993  19.311  1.00  0.00     0.007 A 
HETATM   25  C25 UNL     1      29.582  15.861  17.946  1.00  0.00     0.002 A 
HETATM   26  C26 UNL     1      30.795  15.768  17.310  1.00  0.00     0.019 A 
HETATM   27  C27 UNL     1      31.977  15.808  18.047  1.00  0.00     0.011 A 
HETATM   28 BR1  UNL     1      33.646  15.680  17.164  1.00  0.00    -0.051 Br
HETATM   29  C28 UNL     1      31.927  15.941  19.409  1.00  0.00     0.026 A 
ENDBRANCH  22  23
ENDBRANCH  20  22
ENDBRANCH  17  18
ENDBRANCH  14  17
ENDBRANCH  12  13
ENDBRANCH   9  12
BRANCH   5  30
HETATM   30  S1  UNL     1      22.317  12.686  22.332  1.00  0.00    -0.094 SA
BRANCH  30  31
HETATM   31  C6  UNL     1      23.255  13.004  23.824  1.00  0.00     0.287 C 
HETATM   32  C7  UNL     1      23.843  14.411  23.849  1.00  0.00     0.054 C 
HETATM   33  C8  UNL     1      24.302  14.457  25.298  1.00  0.00     0.039 C 
HETATM   34  C13 UNL     1      23.370  13.534  25.979  1.00  0.00     0.316 C 
HETATM   35  N3  UNL     1      22.389  13.097  25.014  1.00  0.00     0.112 N 
HETATM   36  C15 UNL     1      21.732  11.874  25.243  1.00  0.00     0.312 C 
BRANCH  33  37
HETATM   37  C9  UNL     1      24.503  15.817  25.810  1.00  0.00     0.110 C 
BRANCH  37  38
HETATM   38  C10 UNL     1      25.850  16.325  25.974  1.00  0.00     0.219 C 
HETATM   39  O1  UNL     1      26.838  15.579  26.116  1.00  0.00    -0.273 OA
HETATM   40  N1  UNL     1      26.082  17.736  25.978  1.00  0.00    -0.361 N 
HETATM   41  C11 UNL     1      24.961  18.642  25.820  1.00  0.00     0.152 C 
HETATM   42  C12 UNL     1      27.429  18.266  26.141  1.00  0.00     0.152 C 
ENDBRANCH  37  38
ENDBRANCH  33  37
BRANCH  34  43
HETATM   43  C14 UNL     1      22.850  13.893  27.281  1.00  0.00     0.265 C 
HETATM   44  N2  UNL     1      21.661  14.615  27.576  1.00  0.00    -0.060 NA
HETATM   45  O2  UNL     1      23.495  13.540  28.309  1.00  0.00    -0.274 OA
ENDBRANCH  34  43
ENDBRANCH  30  31
ENDBRANCH   5  30
TORSDOF 11
ENDMDL
MODEL 5
REMARK VINA RESULT: -9.529388868      3.961      8.426
REMARK  11 active torsions:
REMARK  status: ('A' for Active; 'I' for Inactive)
REMARK    1  A    between atoms: C5_5  and  S1_6 
REMARK    2  A    between atoms: S1_6  and  C6_7 
REMARK    3  A    between atoms: C8_9  and  C9_10 
REMARK    4  A    between atoms: C9_10  and  C10_11 
REMARK       I    between atoms: C10_11  and  N1_13 
REMARK    5  A    between atoms: C13_16  and  C14_17 
REMARK    6  A    between atoms: C16_25  and  C17_26 
REMARK    7  A    between atoms: C17_26  and  N5_27 
REMARK       I    between atoms: N5_27  and  C18_29 
REMARK    8  A    between atoms: C18_29  and  C19_31 
REMARK    9  A    between atoms: C19_31  and  N6_32 
REMARK       I    between atoms: N6_32  and  C21_34 
REMARK   10  A    between atoms: C21_34  and  C22_36 
REMARK   11  A    between atoms: C22_36  and  C23_37 
ROOT
HETATM    1  C1  UNL     1      23.495   9.352  21.597  1.00  0.00     0.014 C 
HETATM    2  C2  UNL     1      22.919  10.469  20.823  1.00  0.00     0.034 C 
HETATM    3  C3  UNL     1      23.381  10.673  19.403  1.00  0.00     0.016 C 
HETATM    4  C4  UNL     1      23.047  12.159  19.625  1.00  0.00     0.057 C 
HETATM    5  C5  UNL     1      23.344  11.865  21.082  1.00  0.00     0.180 C 
HETATM    6  N4  UNL     1      24.764  12.027  21.279  1.00  0.00    -0.049 N 
ATOM      7  H41 UNL     1      25.004  11.869  22.258  1.00  0.00     0.279 HD
ATOM      8  H42 UNL     1      25.023  13.009  21.189  1.00  0.00     0.279 HD
HETATM    9  C16 UNL     1      25.589  11.211  20.424  1.00  0.00     0.224 C 
HETATM   10  C29 UNL     1      24.875  10.606  19.276  1.00  0.00     0.119 C 
HETATM   11 CL1  UNL     1      25.290  11.353  17.705  1.00  0.00    -0.122 Cl
ENDROOT
BRANCH   9  12
HETATM   12  C17 UNL     1      26.847  11.965  20.093  1.00  0.00     0.157 C 
BRANCH  12  13
HETATM   13  N5  UNL     1      27.052  13.191  20.814  1.00  0.00    -0.358 N 
HETATM   14  C18 UNL     1      28.029  13.393  21.813  1.00  0.00     0.235 C 
HETATM   15  O3  UNL     1      28.802  12.457  22.108  1.00  0.00    -0.272 OA
ATOM     16  H5  UNL     1      26.444  13.978  20.585  1.00  0.00     0.162 HD
BRANCH  14  17
HETATM   17  C19 UNL     1      28.185  14.680  22.542  1.00  0.00     0.227 C 
BRANCH  17  18
HETATM   18  N6  UNL     1      29.404  15.359  22.147  1.00  0.00    -0.347 N 
HETATM   19  C20 UNL     1      29.624  15.906  20.827  1.00  0.00     0.153 C 
HETATM   20  C21 UNL     1      30.440  15.491  23.109  1.00  0.00     0.224 C 
HETATM   21  O4  UNL     1      30.285  15.007  24.250  1.00  0.00    -0.273 OA
BRANCH  20  22
HETATM   22  C22 UNL     1      31.718  16.201  22.767  1.00  0.00     0.141 C 
BRANCH  22  23
HETATM   23  C23 UNL     1      31.999  17.207  23.804  1.00  0.00    -0.048 A 
HETATM   24  C24 UNL     1      31.148  18.282  24.054  1.00  0.00     0.007 A 
HETATM   25  C25 UNL     1      31.429  19.206  25.028  1.00  0.00     0.002 A 
HETATM   26  C26 UNL     1      32.573  19.071  25.774  1.00  0.00     0.019 A 
HETATM   27  C27 UNL     1      33.439  18.004  25.540  1.00  0.00     0.011 A 
HETATM   28 BR1  UNL     1      35.015  17.822  26.572  1.00  0.00    -0.051 Br
HETATM   29  C28 UNL     1      33.144  17.089  24.565  1.00  0.00     0.026 A 
ENDBRANCH  22  23
ENDBRANCH  20  22
ENDBRANCH  17  18
ENDBRANCH  14  17
ENDBRANCH  12  13
ENDBRANCH   9  12
BRANCH   5  30
HETATM   30  S1  UNL     1      22.338  12.726  22.283  1.00  0.00    -0.094 SA
BRANCH  30  31
HETATM   31  C6  UNL     1      23.290  13.011  23.773  1.00  0.00     0.287 C 
HETATM   32  C7  UNL     1      23.933  14.394  23.792  1.00  0.00     0.054 C 
HETATM   33  C8  UNL     1      24.394  14.427  25.241  1.00  0.00     0.039 C 
HETATM   34  C13 UNL     1      23.427  13.544  25.926  1.00  0.00     0.316 C 
HETATM   35  N3  UNL     1      22.428  13.144  24.963  1.00  0.00     0.112 N 
HETATM   36  C15 UNL     1      21.723  11.949  25.197  1.00  0.00     0.312 C 
BRANCH  33  37
HETATM   37  C9  UNL     1      24.650  15.779  25.748  1.00  0.00     0.110 C 
BRANCH  37  38
HETATM   38  C10 UNL     1      25.954  16.380  25.550  1.00  0.00     0.219 C 
HETATM   39  O1  UNL     1      26.960  16.033  26.197  1.00  0.00    -0.273 OA
HETATM   40  N1  UNL     1      26.119  17.418  24.580  1.00  0.00    -0.361 N 
HETATM   41  C11 UNL     1      24.974  17.858  23.806  1.00  0.00     0.152 C 
HETATM   42  C12 UNL     1      27.422  18.033  24.366  1.00  0.00     0.152 C 
ENDBRANCH  37  38
ENDBRANCH  33  37
BRANCH  34  43
HETATM   43  C14 UNL     1      22.922  13.929  27.227  1.00  0.00     0.265 C 
HETATM   44  N2  UNL     1      21.749  14.678  27.521  1.00  0.00    -0.060 NA
HETATM   45  O2  UNL     1      23.567  13.576  28.255  1.00  0.00    -0.274 OA
ENDBRANCH  34  43
ENDBRANCH  30  31
ENDBRANCH   5  30
TORSDOF 11
ENDMDL
