MODEL 1
REMARK VINA RESULT: -8.272601619      0.000      0.000
REMARK  13 active torsions:
REMARK  status: ('A' for Active; 'I' for Inactive)
REMARK    1  A    between atoms: C2_2  and  C3_3 
REMARK    2  A    between atoms: C5_5  and  C6_6 
REMARK       I    between atoms: C6_6  and  N1_8 
REMARK       I    between atoms: N2_11  and  C9_12 
REMARK    3  A    between atoms: C9_12  and  C10_14 
REMARK    4  A    between atoms: C10_14  and  C11_17 
REMARK    5  A    between atoms: C11_17  and  C12_18 
REMARK    6  A    between atoms: C12_18  and  N3_19 
REMARK       I    between atoms: N4_25  and  C15_26 
REMARK    7  A    between atoms: C15_26  and  C16_28 
REMARK    8  A    between atoms: C19_31  and  C20_32 
REMARK    9  A    between atoms: C20_32  and  N5_33 
REMARK   10  A    between atoms: C20_32  and  C27_42 
REMARK       I    between atoms: N5_33  and  C21_35 
REMARK   11  A    between atoms: C21_35  and  C22_37 
REMARK   12  A    between atoms: C22_37  and  C23_38 
REMARK       I    between atoms: C27_42  and  N6_44 
REMARK   13  A    between atoms: N6_44  and  C28_46 
ROOT
HETATM    1  C3  UNL     1      21.295  12.043  27.454  1.00  0.00     0.112 C 
HETATM    2  C4  UNL     1      19.963  11.311  27.377  1.00  0.00     0.064 C 
HETATM    3  C5  UNL     1      19.630  12.429  26.410  1.00  0.00     0.182 C 
HETATM    4  N4  UNL     1      21.033  12.654  26.148  1.00  0.00    -0.330 N 
HETATM    5  C15 UNL     1      21.847  13.200  25.128  1.00  0.00     0.225 C 
HETATM    6  O3  UNL     1      21.307  13.659  24.091  1.00  0.00    -0.273 OA
ENDROOT
BRANCH   1   7
HETATM    7  C2  UNL     1      21.271  13.002  28.595  1.00  0.00    -0.012 C 
HETATM    8  C1  UNL     1      20.506  12.839  29.649  1.00  0.00     0.009 C 
ENDBRANCH   1   7
BRANCH   3   9
HETATM    9  C6  UNL     1      18.844  11.879  25.280  1.00  0.00     0.243 C 
HETATM   10  O1  UNL     1      19.240  10.953  24.528  1.00  0.00    -0.271 OA
HETATM   11  N1  UNL     1      17.561  12.433  25.031  1.00  0.00    -0.347 N 
HETATM   12  C7  UNL     1      16.993  13.487  25.839  1.00  0.00     0.145 C 
HETATM   13  C14 UNL     1      16.780  11.918  23.898  1.00  0.00     0.145 C 
HETATM   14  C8  UNL     1      16.403  14.516  24.859  1.00  0.00     0.146 C 
HETATM   15  N2  UNL     1      15.347  13.828  24.170  1.00  0.00    -0.345 N 
HETATM   16  C9  UNL     1      14.279  14.477  23.530  1.00  0.00     0.271 C 
HETATM   17  C13 UNL     1      15.355  12.359  24.114  1.00  0.00     0.146 C 
HETATM   18  O2  UNL     1      13.387  13.774  22.931  1.00  0.00    -0.269 OA
BRANCH  16  19
HETATM   19  C10 UNL     1      14.088  15.920  23.484  1.00  0.00     0.241 C 
HETATM   20  F1  UNL     1      14.180  16.416  24.791  1.00  0.00    -0.220 F 
HETATM   21 BR1  UNL     1      12.243  16.325  22.954  1.00  0.00    -0.038 Br
BRANCH  19  22
HETATM   22  C11 UNL     1      15.039  16.654  22.591  1.00  0.00     0.093 C 
BRANCH  22  23
HETATM   23  C12 UNL     1      15.745  17.783  23.299  1.00  0.00     0.234 C 
BRANCH  23  24
HETATM   24  N3  UNL     1      16.742  18.405  22.453  1.00  0.00    -0.079 N 
ATOM     25  H33 UNL     1      16.401  18.520  21.498  1.00  0.00     0.274 HD
ATOM     26  H32 UNL     1      16.875  19.387  22.694  1.00  0.00     0.274 HD
ATOM     27  H31 UNL     1      17.625  17.894  22.472  1.00  0.00     0.274 HD
ENDBRANCH  23  24
ENDBRANCH  22  23
ENDBRANCH  19  22
ENDBRANCH  16  19
ENDBRANCH   3   9
BRANCH   5  28
HETATM   28  C16 UNL     1      23.325  13.276  25.189  1.00  0.00     0.084 C 
HETATM   29  C17 UNL     1      23.797  14.395  26.090  1.00  0.00     0.015 C 
HETATM   30  C18 UNL     1      24.039  15.235  24.829  1.00  0.00     0.009 C 
HETATM   31  C19 UNL     1      23.960  14.019  24.023  1.00  0.00     0.030 C 
BRANCH  31  32
HETATM   32  C20 UNL     1      25.154  13.349  23.429  1.00  0.00     0.181 C 
BRANCH  32  33
HETATM   33  N5  UNL     1      26.098  14.472  23.183  1.00  0.00    -0.347 N 
HETATM   34  C21 UNL     1      27.452  14.439  23.557  1.00  0.00     0.218 C 
HETATM   35  O4  UNL     1      27.918  13.412  24.137  1.00  0.00    -0.274 OA
ATOM     36  H5  UNL     1      25.745  15.309  22.718  1.00  0.00     0.163 HD
BRANCH  34  37
HETATM   37  C22 UNL     1      28.289  15.621  23.256  1.00  0.00     0.111 C 
BRANCH  37  38
HETATM   38  C23 UNL     1      28.686  16.424  24.452  1.00  0.00    -0.043 C 
HETATM   39  C24 UNL     1      28.859  17.865  23.961  1.00  0.00     0.015 C 
HETATM   40  C25 UNL     1      27.568  16.478  25.478  1.00  0.00     0.015 C 
HETATM   41  C26 UNL     1      29.977  15.967  25.039  1.00  0.00     0.015 C 
ENDBRANCH  37  38
ENDBRANCH  34  37
ENDBRANCH  32  33
BRANCH  32  42
HETATM   42  C27 UNL     1      24.950  12.597  22.202  1.00  0.00     0.241 C 
HETATM   43  O5  UNL     1      25.836  12.744  21.286  1.00  0.00    -0.271 OA
HETATM   44  N6  UNL     1      23.893  11.724  21.907  1.00  0.00    -0.351 N 
ATOM     45  H6  UNL     1      23.167  11.566  22.606  1.00  0.00     0.163 HD
BRANCH  44  46
HETATM   46  C28 UNL     1      23.808  11.040  20.628  1.00  0.00     0.022 C 
HETATM   47  C29 UNL     1      25.139  10.533  20.144  1.00  0.00     0.037 C 
HETATM   48  C30 UNL     1      23.238  11.938  19.535  1.00  0.00     0.037 C 
HETATM   49  C31 UNL     1      22.848   9.850  20.699  1.00  0.00     0.037 C 
ENDBRANCH  44  46
ENDBRANCH  32  42
ENDBRANCH  31  32
ENDBRANCH   5  28
TORSDOF 13
ENDMDL
MODEL 2
REMARK VINA RESULT: -8.185676263      1.011      1.535
REMARK  13 active torsions:
REMARK  status: ('A' for Active; 'I' for Inactive)
REMARK    1  A    between atoms: C2_2  and  C3_3 
REMARK    2  A    between atoms: C5_5  and  C6_6 
REMARK       I    between atoms: C6_6  and  N1_8 
REMARK       I    between atoms: N2_11  and  C9_12 
REMARK    3  A    between atoms: C9_12  and  C10_14 
REMARK    4  A    between atoms: C10_14  and  C11_17 
REMARK    5  A    between atoms: C11_17  and  C12_18 
REMARK    6  A    between atoms: C12_18  and  N3_19 
REMARK       I    between atoms: N4_25  and  C15_26 
REMARK    7  A    between atoms: C15_26  and  C16_28 
REMARK    8  A    between atoms: C19_31  and  C20_32 
REMARK    9  A    between atoms: C20_32  and  N5_33 
REMARK   10  A    between atoms: C20_32  and  C27_42 
REMARK       I    between atoms: N5_33  and  C21_35 
REMARK   11  A    between atoms: C21_35  and  C22_37 
REMARK   12  A    between atoms: C22_37  and  C23_38 
REMARK       I    between atoms: C27_42  and  N6_44 
REMARK   13  A    between atoms: N6_44  and  C28_46 
ROOT
HETATM    1  C3  UNL     1      21.309  11.982  27.391  1.00  0.00     0.112 C 
HETATM    2  C4  UNL     1      19.967  11.264  27.353  1.00  0.00     0.064 C 
HETATM    3  C5  UNL     1      19.618  12.386  26.398  1.00  0.00     0.182 C 
HETATM    4  N4  UNL     1      21.014  12.597  26.094  1.00  0.00    -0.330 N 
HETATM    5  C15 UNL     1      21.803  13.137  25.051  1.00  0.00     0.225 C 
HETATM    6  O3  UNL     1      21.236  13.603  24.032  1.00  0.00    -0.273 OA
ENDROOT
BRANCH   1   7
HETATM    7  C2  UNL     1      21.328  12.939  28.534  1.00  0.00    -0.012 C 
HETATM    8  C1  UNL     1      20.518  12.841  29.561  1.00  0.00     0.009 C 
ENDBRANCH   1   7
BRANCH   3   9
HETATM    9  C6  UNL     1      18.792  11.846  25.291  1.00  0.00     0.243 C 
HETATM   10  O1  UNL     1      19.142  10.895  24.547  1.00  0.00    -0.271 OA
HETATM   11  N1  UNL     1      17.525  12.441  25.056  1.00  0.00    -0.347 N 
HETATM   12  C7  UNL     1      17.009  13.527  25.855  1.00  0.00     0.145 C 
HETATM   13  C14 UNL     1      16.707  11.936  23.944  1.00  0.00     0.145 C 
HETATM   14  C8  UNL     1      16.438  14.561  24.869  1.00  0.00     0.146 C 
HETATM   15  N2  UNL     1      15.346  13.900  24.210  1.00  0.00    -0.345 N 
HETATM   16  C9  UNL     1      14.289  14.575  23.579  1.00  0.00     0.271 C 
HETATM   17  C13 UNL     1      15.302  12.430  24.179  1.00  0.00     0.146 C 
HETATM   18  O2  UNL     1      13.363  13.894  23.007  1.00  0.00    -0.269 OA
BRANCH  16  19
HETATM   19  C10 UNL     1      14.148  16.023  23.512  1.00  0.00     0.241 C 
HETATM   20  F1  UNL     1      14.258  16.534  24.811  1.00  0.00    -0.220 F 
HETATM   21 BR1  UNL     1      12.318  16.484  22.976  1.00  0.00    -0.038 Br
BRANCH  19  22
HETATM   22  C11 UNL     1      15.124  16.711  22.609  1.00  0.00     0.093 C 
BRANCH  22  23
HETATM   23  C12 UNL     1      15.694  17.967  23.220  1.00  0.00     0.234 C 
BRANCH  23  24
HETATM   24  N3  UNL     1      16.812  18.475  22.452  1.00  0.00    -0.079 N 
ATOM     25  H33 UNL     1      16.630  19.419  22.111  1.00  0.00     0.274 HD
ATOM     26  H32 UNL     1      17.614  18.674  23.050  1.00  0.00     0.274 HD
ATOM     27  H31 UNL     1      17.063  17.846  21.689  1.00  0.00     0.274 HD
ENDBRANCH  23  24
ENDBRANCH  22  23
ENDBRANCH  19  22
ENDBRANCH  16  19
ENDBRANCH   3   9
BRANCH   5  28
HETATM   28  C16 UNL     1      23.283  13.198  25.068  1.00  0.00     0.084 C 
HETATM   29  C17 UNL     1      23.792  14.333  25.927  1.00  0.00     0.015 C 
HETATM   30  C18 UNL     1      24.006  15.140  24.640  1.00  0.00     0.009 C 
HETATM   31  C19 UNL     1      23.891  13.905  23.866  1.00  0.00     0.030 C 
BRANCH  31  32
HETATM   32  C20 UNL     1      25.061  13.208  23.255  1.00  0.00     0.181 C 
BRANCH  32  33
HETATM   33  N5  UNL     1      26.011  14.313  22.960  1.00  0.00    -0.347 N 
HETATM   34  C21 UNL     1      27.377  14.266  23.288  1.00  0.00     0.218 C 
HETATM   35  O4  UNL     1      27.848  13.240  23.866  1.00  0.00    -0.274 OA
ATOM     36  H5  UNL     1      25.654  15.149  22.495  1.00  0.00     0.163 HD
BRANCH  34  37
HETATM   37  C22 UNL     1      28.219  15.431  22.941  1.00  0.00     0.111 C 
BRANCH  37  38
HETATM   38  C23 UNL     1      29.188  15.189  21.828  1.00  0.00    -0.043 C 
HETATM   39  C24 UNL     1      29.533  16.567  21.254  1.00  0.00     0.015 C 
HETATM   40  C25 UNL     1      30.499  14.628  22.348  1.00  0.00     0.015 C 
HETATM   41  C26 UNL     1      28.604  14.357  20.738  1.00  0.00     0.015 C 
ENDBRANCH  37  38
ENDBRANCH  34  37
ENDBRANCH  32  33
BRANCH  32  42
HETATM   42  C27 UNL     1      24.814  12.433  22.050  1.00  0.00     0.241 C 
HETATM   43  O5  UNL     1      23.597  12.094  21.827  1.00  0.00    -0.271 OA
HETATM   44  N6  UNL     1      25.758  12.015  21.101  1.00  0.00    -0.351 N 
ATOM     45  H6  UNL     1      26.738  12.266  21.228  1.00  0.00     0.163 HD
BRANCH  44  46
HETATM   46  C28 UNL     1      25.370  11.232  19.940  1.00  0.00     0.022 C 
HETATM   47  C29 UNL     1      24.575  12.023  18.938  1.00  0.00     0.037 C 
HETATM   48  C30 UNL     1      24.538  10.013  20.323  1.00  0.00     0.037 C 
HETATM   49  C31 UNL     1      26.596  10.662  19.223  1.00  0.00     0.037 C 
ENDBRANCH  44  46
ENDBRANCH  32  42
ENDBRANCH  31  32
ENDBRANCH   5  28
TORSDOF 13
ENDMDL
MODEL 3
REMARK VINA RESULT: -8.185424098      0.919      1.291
REMARK  13 active torsions:
REMARK  status: ('A' for Active; 'I' for Inactive)
REMARK    1  A    between atoms: C2_2  and  C3_3 
REMARK    2  A    between atoms: C5_5  and  C6_6 
REMARK       I    between atoms: C6_6  and  N1_8 
REMARK       I    between atoms: N2_11  and  C9_12 
REMARK    3  A    between atoms: C9_12  and  C10_14 
REMARK    4  A    between atoms: C10_14  and  C11_17 
REMARK    5  A    between atoms: C11_17  and  C12_18 
REMARK    6  A    between atoms: C12_18  and  N3_19 
REMARK       I    between atoms: N4_25  and  C15_26 
REMARK    7  A    between atoms: C15_26  and  C16_28 
REMARK    8  A    between atoms: C19_31  and  C20_32 
REMARK    9  A    between atoms: C20_32  and  N5_33 
REMARK   10  A    between atoms: C20_32  and  C27_42 
REMARK       I    between atoms: N5_33  and  C21_35 
REMARK   11  A    between atoms: C21_35  and  C22_37 
REMARK   12  A    between atoms: C22_37  and  C23_38 
REMARK       I    between atoms: C27_42  and  N6_44 
REMARK   13  A    between atoms: N6_44  and  C28_46 
ROOT
HETATM    1  C3  UNL     1      21.621  12.386  27.199  1.00  0.00     0.112 C 
HETATM    2  C4  UNL     1      20.273  11.681  27.159  1.00  0.00     0.064 C 
HETATM    3  C5  UNL     1      19.967  12.751  26.131  1.00  0.00     0.182 C 
HETATM    4  N4  UNL     1      21.375  12.929  25.860  1.00  0.00    -0.330 N 
HETATM    5  C15 UNL     1      22.202  13.400  24.814  1.00  0.00     0.225 C 
HETATM    6  O3  UNL     1      21.673  13.814  23.752  1.00  0.00    -0.273 OA
ENDROOT
BRANCH   1   7
HETATM    7  C2  UNL     1      21.617  13.406  28.285  1.00  0.00    -0.012 C 
HETATM    8  C1  UNL     1      20.990  13.234  29.425  1.00  0.00     0.009 C 
ENDBRANCH   1   7
BRANCH   3   9
HETATM    9  C6  UNL     1      19.170  12.158  25.031  1.00  0.00     0.243 C 
HETATM   10  O1  UNL     1      19.602  11.285  24.235  1.00  0.00    -0.271 OA
HETATM   11  N1  UNL     1      17.831  12.602  24.866  1.00  0.00    -0.347 N 
HETATM   12  C7  UNL     1      17.220  13.585  25.729  1.00  0.00     0.145 C 
HETATM   13  C14 UNL     1      17.037  12.044  23.762  1.00  0.00     0.145 C 
HETATM   14  C8  UNL     1      16.490  14.578  24.809  1.00  0.00     0.146 C 
HETATM   15  N2  UNL     1      15.461  13.815  24.160  1.00  0.00    -0.345 N 
HETATM   16  C9  UNL     1      14.306  14.380  23.595  1.00  0.00     0.271 C 
HETATM   17  C13 UNL     1      15.593  12.353  24.066  1.00  0.00     0.146 C 
HETATM   18  O2  UNL     1      13.447  13.614  23.027  1.00  0.00    -0.269 OA
BRANCH  16  19
HETATM   19  C10 UNL     1      13.989  15.802  23.596  1.00  0.00     0.241 C 
HETATM   20  F1  UNL     1      14.071  16.268  24.914  1.00  0.00    -0.220 F 
HETATM   21 BR1  UNL     1      12.103  16.057  23.120  1.00  0.00    -0.038 Br
BRANCH  19  22
HETATM   22  C11 UNL     1      14.849  16.640  22.704  1.00  0.00     0.093 C 
BRANCH  22  23
HETATM   23  C12 UNL     1      15.414  17.848  23.410  1.00  0.00     0.234 C 
BRANCH  23  24
HETATM   24  N3  UNL     1      16.803  18.068  23.067  1.00  0.00    -0.079 N 
ATOM     25  H33 UNL     1      17.403  18.010  23.890  1.00  0.00     0.274 HD
ATOM     26  H32 UNL     1      17.184  17.284  22.536  1.00  0.00     0.274 HD
ATOM     27  H31 UNL     1      16.935  18.951  22.573  1.00  0.00     0.274 HD
ENDBRANCH  23  24
ENDBRANCH  22  23
ENDBRANCH  19  22
ENDBRANCH  16  19
ENDBRANCH   3   9
BRANCH   5  28
HETATM   28  C16 UNL     1      23.681  13.446  24.874  1.00  0.00     0.084 C 
HETATM   29  C17 UNL     1      24.177  14.561  25.768  1.00  0.00     0.015 C 
HETATM   30  C18 UNL     1      24.435  15.388  24.502  1.00  0.00     0.009 C 
HETATM   31  C19 UNL     1      24.331  14.168  23.703  1.00  0.00     0.030 C 
BRANCH  31  32
HETATM   32  C20 UNL     1      25.511  13.470  23.113  1.00  0.00     0.181 C 
BRANCH  32  33
HETATM   33  N5  UNL     1      26.445  14.580  22.785  1.00  0.00    -0.347 N 
HETATM   34  C21 UNL     1      27.783  14.616  23.215  1.00  0.00     0.218 C 
HETATM   35  O4  UNL     1      28.242  13.667  23.919  1.00  0.00    -0.274 OA
ATOM     36  H5  UNL     1      26.098  15.356  22.220  1.00  0.00     0.163 HD
BRANCH  34  37
HETATM   37  C22 UNL     1      28.612  15.776  22.822  1.00  0.00     0.111 C 
BRANCH  37  38
HETATM   38  C23 UNL     1      29.558  15.512  21.694  1.00  0.00    -0.043 C 
HETATM   39  C24 UNL     1      29.829  16.870  21.037  1.00  0.00     0.015 C 
HETATM   40  C25 UNL     1      30.905  15.033  22.205  1.00  0.00     0.015 C 
HETATM   41  C26 UNL     1      28.978  14.599  20.670  1.00  0.00     0.015 C 
ENDBRANCH  37  38
ENDBRANCH  34  37
ENDBRANCH  32  33
BRANCH  32  42
HETATM   42  C27 UNL     1      25.276  12.656  21.932  1.00  0.00     0.241 C 
HETATM   43  O5  UNL     1      26.170  12.711  21.012  1.00  0.00    -0.271 OA
HETATM   44  N6  UNL     1      24.183  11.814  21.684  1.00  0.00    -0.351 N 
ATOM     45  H6  UNL     1      23.450  11.729  22.388  1.00  0.00     0.163 HD
BRANCH  44  46
HETATM   46  C28 UNL     1      24.072  11.060  20.448  1.00  0.00     0.022 C 
HETATM   47  C29 UNL     1      25.373  10.440  20.018  1.00  0.00     0.037 C 
HETATM   48  C30 UNL     1      23.574  11.923  19.293  1.00  0.00     0.037 C 
HETATM   49  C31 UNL     1      23.036   9.940  20.574  1.00  0.00     0.037 C 
ENDBRANCH  44  46
ENDBRANCH  32  42
ENDBRANCH  31  32
ENDBRANCH   5  28
TORSDOF 13
ENDMDL
MODEL 4
REMARK VINA RESULT: -7.502223744      5.613     11.667
REMARK  13 active torsions:
REMARK  status: ('A' for Active; 'I' for Inactive)
REMARK    1  A    between atoms: C2_2  and  C3_3 
REMARK    2  A    between atoms: C5_5  and  C6_6 
REMARK       I    between atoms: C6_6  and  N1_8 
REMARK       I    between atoms: N2_11  and  C9_12 
REMARK    3  A    between atoms: C9_12  and  C10_14 
REMARK    4  A    between atoms: C10_14  and  C11_17 
REMARK    5  A    between atoms: C11_17  and  C12_18 
REMARK    6  A    between atoms: C12_18  and  N3_19 
REMARK       I    between atoms: N4_25  and  C15_26 
REMARK    7  A    between atoms: C15_26  and  C16_28 
REMARK    8  A    between atoms: C19_31  and  C20_32 
REMARK    9  A    between atoms: C20_32  and  N5_33 
REMARK   10  A    between atoms: C20_32  and  C27_42 
REMARK       I    between atoms: N5_33  and  C21_35 
REMARK   11  A    between atoms: C21_35  and  C22_37 
REMARK   12  A    between atoms: C22_37  and  C23_38 
REMARK       I    between atoms: C27_42  and  N6_44 
REMARK   13  A    between atoms: N6_44  and  C28_46 
ROOT
HETATM    1  C3  UNL     1      26.981  13.638  23.075  1.00  0.00     0.112 C 
HETATM    2  C4  UNL     1      28.428  13.239  23.326  1.00  0.00     0.064 C 
HETATM    3  C5  UNL     1      28.628  14.740  23.363  1.00  0.00     0.182 C 
HETATM    4  N4  UNL     1      27.236  14.943  23.691  1.00  0.00    -0.330 N 
HETATM    5  C15 UNL     1      26.424  15.919  24.316  1.00  0.00     0.225 C 
HETATM    6  O3  UNL     1      26.956  16.967  24.760  1.00  0.00    -0.273 OA
ENDROOT
BRANCH   1   7
HETATM    7  C2  UNL     1      26.728  13.692  21.607  1.00  0.00    -0.012 C 
HETATM    8  C1  UNL     1      27.627  13.349  20.714  1.00  0.00     0.009 C 
ENDBRANCH   1   7
BRANCH   3   9
HETATM    9  C6  UNL     1      29.597  15.078  24.434  1.00  0.00     0.243 C 
HETATM   10  O1  UNL     1      29.569  14.590  25.592  1.00  0.00    -0.271 OA
HETATM   11  N1  UNL     1      30.623  16.011  24.130  1.00  0.00    -0.347 N 
HETATM   12  C7  UNL     1      30.767  16.622  22.830  1.00  0.00     0.145 C 
HETATM   13  C14 UNL     1      31.575  16.377  25.189  1.00  0.00     0.145 C 
HETATM   14  C8  UNL     1      31.008  18.121  23.078  1.00  0.00     0.146 C 
HETATM   15  N2  UNL     1      32.261  18.198  23.777  1.00  0.00    -0.345 N 
HETATM   16  C9  UNL     1      33.068  19.346  23.812  1.00  0.00     0.271 C 
HETATM   17  C13 UNL     1      32.756  17.022  24.508  1.00  0.00     0.146 C 
HETATM   18  O2  UNL     1      34.168  19.320  24.473  1.00  0.00    -0.269 OA
BRANCH  16  19
HETATM   19  C10 UNL     1      32.757  20.603  23.144  1.00  0.00     0.241 C 
HETATM   20  F1  UNL     1      32.423  20.321  21.813  1.00  0.00    -0.220 F 
HETATM   21 BR1  UNL     1      34.381  21.694  23.002  1.00  0.00    -0.038 Br
BRANCH  19  22
HETATM   22  C11 UNL     1      31.668  21.405  23.784  1.00  0.00     0.093 C 
BRANCH  22  23
HETATM   23  C12 UNL     1      32.198  22.458  24.726  1.00  0.00     0.234 C 
BRANCH  23  24
HETATM   24  N3  UNL     1      32.155  22.014  26.103  1.00  0.00    -0.079 N 
ATOM     25  H33 UNL     1      31.869  21.037  26.171  1.00  0.00     0.274 HD
ATOM     26  H32 UNL     1      33.092  21.934  26.498  1.00  0.00     0.274 HD
ATOM     27  H31 UNL     1      31.561  22.616  26.674  1.00  0.00     0.274 HD
ENDBRANCH  23  24
ENDBRANCH  22  23
ENDBRANCH  19  22
ENDBRANCH  16  19
ENDBRANCH   3   9
BRANCH   5  28
HETATM   28  C16 UNL     1      24.959  15.799  24.492  1.00  0.00     0.084 C 
HETATM   29  C17 UNL     1      24.507  16.309  25.842  1.00  0.00     0.015 C 
HETATM   30  C18 UNL     1      24.448  14.850  26.313  1.00  0.00     0.009 C 
HETATM   31  C19 UNL     1      24.493  14.415  24.918  1.00  0.00     0.030 C 
BRANCH  31  32
HETATM   32  C20 UNL     1      23.302  13.900  24.180  1.00  0.00     0.181 C 
BRANCH  32  33
HETATM   33  N5  UNL     1      22.374  13.480  25.265  1.00  0.00    -0.347 N 
HETATM   34  C21 UNL     1      21.028  13.141  25.042  1.00  0.00     0.218 C 
HETATM   35  O4  UNL     1      20.556  13.188  23.866  1.00  0.00    -0.274 OA
ATOM     36  H5  UNL     1      22.733  13.435  26.219  1.00  0.00     0.163 HD
BRANCH  34  37
HETATM   37  C22 UNL     1      20.209  12.738  26.204  1.00  0.00     0.111 C 
BRANCH  37  38
HETATM   38  C23 UNL     1      19.913  11.274  26.280  1.00  0.00    -0.043 C 
HETATM   39  C24 UNL     1      20.124  10.871  27.744  1.00  0.00     0.015 C 
HETATM   40  C25 UNL     1      18.450  10.991  25.989  1.00  0.00     0.015 C 
HETATM   41  C26 UNL     1      20.831  10.465  25.431  1.00  0.00     0.015 C 
ENDBRANCH  37  38
ENDBRANCH  34  37
ENDBRANCH  32  33
BRANCH  32  42
HETATM   42  C27 UNL     1      23.520  12.795  23.260  1.00  0.00     0.241 C 
HETATM   43  O5  UNL     1      24.273  11.844  23.677  1.00  0.00    -0.271 OA
HETATM   44  N6  UNL     1      22.996  12.651  21.968  1.00  0.00    -0.351 N 
ATOM     45  H6  UNL     1      22.384  13.376  21.594  1.00  0.00     0.163 HD
BRANCH  44  46
HETATM   46  C28 UNL     1      23.306  11.491  21.149  1.00  0.00     0.022 C 
HETATM   47  C29 UNL     1      22.771  10.208  21.723  1.00  0.00     0.037 C 
HETATM   48  C30 UNL     1      24.808  11.313  20.954  1.00  0.00     0.037 C 
HETATM   49  C31 UNL     1      22.741  11.646  19.735  1.00  0.00     0.037 C 
ENDBRANCH  44  46
ENDBRANCH  32  42
ENDBRANCH  31  32
ENDBRANCH   5  28
TORSDOF 13
ENDMDL
MODEL 5
REMARK VINA RESULT: -7.458976754      5.652     11.982
REMARK  13 active torsions:
REMARK  status: ('A' for Active; 'I' for Inactive)
REMARK    1  A    between atoms: C2_2  and  C3_3 
REMARK    2  A    between atoms: C5_5  and  C6_6 
REMARK       I    between atoms: C6_6  and  N1_8 
REMARK       I    between atoms: N2_11  and  C9_12 
REMARK    3  A    between atoms: C9_12  and  C10_14 
REMARK    4  A    between atoms: C10_14  and  C11_17 
REMARK    5  A    between atoms: C11_17  and  C12_18 
REMARK    6  A    between atoms: C12_18  and  N3_19 
REMARK       I    between atoms: N4_25  and  C15_26 
REMARK    7  A    between atoms: C15_26  and  C16_28 
REMARK    8  A    between atoms: C19_31  and  C20_32 
REMARK    9  A    between atoms: C20_32  and  N5_33 
REMARK   10  A    between atoms: C20_32  and  C27_42 
REMARK       I    between atoms: N5_33  and  C21_35 
REMARK   11  A    between atoms: C21_35  and  C22_37 
REMARK   12  A    between atoms: C22_37  and  C23_38 
REMARK       I    between atoms: C27_42  and  N6_44 
REMARK   13  A    between atoms: N6_44  and  C28_46 
ROOT
HETATM    1  C3  UNL     1      27.412  13.227  22.368  1.00  0.00     0.112 C 
HETATM    2  C4  UNL     1      28.884  13.048  22.714  1.00  0.00     0.064 C 
HETATM    3  C5  UNL     1      28.820  14.551  22.893  1.00  0.00     0.182 C 
HETATM    4  N4  UNL     1      27.393  14.490  23.110  1.00  0.00    -0.330 N 
HETATM    5  C15 UNL     1      26.383  15.255  23.740  1.00  0.00     0.225 C 
HETATM    6  O3  UNL     1      26.693  16.328  24.314  1.00  0.00    -0.273 OA
ENDROOT
BRANCH   1   7
HETATM    7  C2  UNL     1      27.263  13.380  20.893  1.00  0.00    -0.012 C 
HETATM    8  C1  UNL     1      27.806  12.553  20.030  1.00  0.00     0.009 C 
ENDBRANCH   1   7
BRANCH   3   9
HETATM    9  C6  UNL     1      29.635  14.937  24.070  1.00  0.00     0.243 C 
HETATM   10  O1  UNL     1      29.357  14.625  25.255  1.00  0.00    -0.271 OA
HETATM   11  N1  UNL     1      30.805  15.709  23.843  1.00  0.00    -0.347 N 
HETATM   12  C7  UNL     1      31.235  16.112  22.524  1.00  0.00     0.145 C 
HETATM   13  C14 UNL     1      31.608  16.124  25.001  1.00  0.00     0.145 C 
HETATM   14  C8  UNL     1      31.615  17.599  22.626  1.00  0.00     0.146 C 
HETATM   15  N2  UNL     1      32.736  17.647  23.523  1.00  0.00    -0.345 N 
HETATM   16  C9  UNL     1      33.663  18.701  23.560  1.00  0.00     0.271 C 
HETATM   17  C13 UNL     1      32.955  16.543  24.469  1.00  0.00     0.146 C 
HETATM   18  O2  UNL     1      34.628  18.658  24.405  1.00  0.00    -0.269 OA
BRANCH  16  19
HETATM   19  C10 UNL     1      33.625  19.875  22.698  1.00  0.00     0.241 C 
HETATM   20  F1  UNL     1      32.284  20.178  22.430  1.00  0.00    -0.220 F 
HETATM   21 BR1  UNL     1      34.369  19.427  20.939  1.00  0.00    -0.038 Br
BRANCH  19  22
HETATM   22  C11 UNL     1      34.320  21.082  23.245  1.00  0.00     0.093 C 
BRANCH  22  23
HETATM   23  C12 UNL     1      33.365  22.196  23.591  1.00  0.00     0.234 C 
BRANCH  23  24
HETATM   24  N3  UNL     1      32.884  22.086  24.952  1.00  0.00    -0.079 N 
ATOM     25  H33 UNL     1      33.517  21.531  25.527  1.00  0.00     0.274 HD
ATOM     26  H32 UNL     1      32.959  22.976  25.446  1.00  0.00     0.274 HD
ATOM     27  H31 UNL     1      31.932  21.721  24.988  1.00  0.00     0.274 HD
ENDBRANCH  23  24
ENDBRANCH  22  23
ENDBRANCH  19  22
ENDBRANCH  16  19
ENDBRANCH   3   9
BRANCH   5  28
HETATM   28  C16 UNL     1      24.950  14.880  23.773  1.00  0.00     0.084 C 
HETATM   29  C17 UNL     1      24.116  15.900  24.515  1.00  0.00     0.015 C 
HETATM   30  C18 UNL     1      24.148  14.965  25.730  1.00  0.00     0.009 C 
HETATM   31  C19 UNL     1      24.593  13.877  24.860  1.00  0.00     0.030 C 
BRANCH  31  32
HETATM   32  C20 UNL     1      23.703  12.764  24.417  1.00  0.00     0.181 C 
BRANCH  32  33
HETATM   33  N5  UNL     1      23.595  12.967  22.948  1.00  0.00    -0.347 N 
HETATM   34  C21 UNL     1      23.156  11.969  22.060  1.00  0.00     0.218 C 
HETATM   35  O4  UNL     1      22.831  10.829  22.509  1.00  0.00    -0.274 OA
ATOM     36  H5  UNL     1      23.852  13.877  22.564  1.00  0.00     0.163 HD
BRANCH  34  37
HETATM   37  C22 UNL     1      23.092  12.296  20.620  1.00  0.00     0.111 C 
BRANCH  37  38
HETATM   38  C23 UNL     1      23.668  11.252  19.718  1.00  0.00    -0.043 C 
HETATM   39  C24 UNL     1      24.195  11.995  18.485  1.00  0.00     0.015 C 
HETATM   40  C25 UNL     1      24.884  10.591  20.343  1.00  0.00     0.015 C 
HETATM   41  C26 UNL     1      22.648  10.262  19.272  1.00  0.00     0.015 C 
ENDBRANCH  37  38
ENDBRANCH  34  37
ENDBRANCH  32  33
BRANCH  32  42
HETATM   42  C27 UNL     1      22.375  12.703  25.007  1.00  0.00     0.241 C 
HETATM   43  O5  UNL     1      21.479  13.455  24.478  1.00  0.00    -0.271 OA
HETATM   44  N6  UNL     1      21.962  11.914  26.089  1.00  0.00    -0.351 N 
ATOM     45  H6  UNL     1      22.635  11.292  26.539  1.00  0.00     0.163 HD
BRANCH  44  46
HETATM   46  C28 UNL     1      20.597  11.959  26.584  1.00  0.00     0.022 C 
HETATM   47  C29 UNL     1      20.294  13.213  27.358  1.00  0.00     0.037 C 
HETATM   48  C30 UNL     1      20.276  10.775  27.490  1.00  0.00     0.037 C 
HETATM   49  C31 UNL     1      19.589  11.860  25.436  1.00  0.00     0.037 C 
ENDBRANCH  44  46
ENDBRANCH  32  42
ENDBRANCH  31  32
ENDBRANCH   5  28
TORSDOF 13
ENDMDL
