MODEL 1
REMARK VINA RESULT: -7.335155741      0.000      0.000
REMARK  12 active torsions:
REMARK  status: ('A' for Active; 'I' for Inactive)
REMARK    1  A    between atoms: C2_2  and  C3_3 
REMARK       I    between atoms: N1_10  and  C8_11 
REMARK    2  A    between atoms: C8_11  and  C9_13 
REMARK    3  A    between atoms: C9_13  and  N2_14 
REMARK    4  A    between atoms: C9_13  and  C22_34 
REMARK       I    between atoms: N2_14  and  C10_16 
REMARK    5  A    between atoms: C10_16  and  C11_18 
REMARK    6  A    between atoms: C12_19  and  C13_20 
REMARK       I    between atoms: C13_20  and  N3_22 
REMARK    7  A    between atoms: N3_22  and  C14_24 
REMARK       I    between atoms: N4_30  and  C20_31 
REMARK    8  A    between atoms: C23_37  and  C24_38 
REMARK       I    between atoms: C24_38  and  N5_40 
REMARK    9  A    between atoms: N5_40  and  C25_41 
REMARK   10  A    between atoms: N5_40  and  C29_45 
REMARK   11  A    between atoms: C25_41  and  C26_42 
REMARK   12  A    between atoms: C29_45  and  C30_46 
ROOT
HETATM    1  C3  UNL     1      23.721  12.904  22.991  1.00  0.00     0.018 C 
HETATM    2  C4  UNL     1      22.939  12.827  21.724  1.00  0.00     0.019 C 
HETATM    3  C5  UNL     1      23.645  12.168  20.607  1.00  0.00     0.078 C 
HETATM    4  C6  UNL     1      23.021  10.814  20.348  1.00  0.00     0.018 C 
HETATM    5  C7  UNL     1      25.126  12.090  20.725  1.00  0.00     0.330 C 
HETATM    6  F1  UNL     1      25.664  12.574  19.491  1.00  0.00    -0.182 F 
HETATM    7  F2  UNL     1      25.490  10.781  20.742  1.00  0.00    -0.182 F 
HETATM    8  N1  UNL     1      25.767  12.861  21.731  1.00  0.00    -0.273 N 
HETATM    9  C8  UNL     1      27.168  12.907  21.774  1.00  0.00     0.258 C 
HETATM   10  O1  UNL     1      27.732  13.705  22.568  1.00  0.00    -0.270 OA
HETATM   11  C23 UNL     1      25.008  13.626  22.699  1.00  0.00     0.190 C 
ENDROOT
BRANCH   9  12
HETATM   12  C9  UNL     1      28.128  12.109  20.976  1.00  0.00     0.279 C 
BRANCH  12  13
HETATM   13  N2  UNL     1      29.310  12.958  20.756  1.00  0.00    -0.337 N 
HETATM   14  C10 UNL     1      29.354  14.030  19.861  1.00  0.00     0.242 C 
HETATM   15  O2  UNL     1      28.294  14.270  19.205  1.00  0.00    -0.271 OA
ATOM     16  H2  UNL     1      30.152  12.750  21.293  1.00  0.00     0.163 HD
BRANCH  14  17
HETATM   17  C11 UNL     1      30.519  14.893  19.625  1.00  0.00     0.192 C 
HETATM   18  C12 UNL     1      30.713  15.202  18.147  1.00  0.00     0.111 C 
HETATM   19  C18 UNL     1      29.752  16.381  17.970  1.00  0.00     0.036 C 
HETATM   20  C19 UNL     1      29.810  17.125  19.261  1.00  0.00     0.127 C 
HETATM   21  N4  UNL     1      30.304  16.196  20.237  1.00  0.00    -0.338 N 
HETATM   22  C20 UNL     1      30.550  16.480  21.600  1.00  0.00     0.216 C 
HETATM   23  C21 UNL     1      31.061  15.447  22.531  1.00  0.00     0.117 C 
HETATM   24  O4  UNL     1      30.340  17.633  22.067  1.00  0.00    -0.274 OA
BRANCH  18  25
HETATM   25  C13 UNL     1      32.095  15.664  17.850  1.00  0.00     0.225 C 
HETATM   26  O3  UNL     1      32.268  16.580  16.973  1.00  0.00    -0.273 OA
HETATM   27  N3  UNL     1      33.213  15.115  18.517  1.00  0.00    -0.353 N 
ATOM     28  H3  UNL     1      33.087  14.386  19.219  1.00  0.00     0.163 HD
BRANCH  27  29
HETATM   29  C14 UNL     1      34.552  15.604  18.192  1.00  0.00     0.022 C 
HETATM   30  C15 UNL     1      34.619  17.051  18.646  1.00  0.00     0.037 C 
HETATM   31  C16 UNL     1      34.854  15.473  16.723  1.00  0.00     0.037 C 
HETATM   32  C17 UNL     1      35.544  14.755  18.959  1.00  0.00     0.037 C 
ENDBRANCH  27  29
ENDBRANCH  18  25
ENDBRANCH  14  17
ENDBRANCH  12  13
BRANCH  12  33
HETATM   33  C22 UNL     1      28.654  10.954  21.792  1.00  0.00     0.206 C 
HETATM   34  O5  UNL     1      28.477   9.774  21.438  1.00  0.00    -0.646 OA
HETATM   35  O6  UNL     1      29.338  11.205  22.940  1.00  0.00    -0.646 OA
ENDBRANCH  12  33
ENDBRANCH   9  12
BRANCH  11  36
HETATM   36  C24 UNL     1      25.709  14.022  23.914  1.00  0.00     0.250 C 
HETATM   37  O7  UNL     1      26.269  13.081  24.585  1.00  0.00    -0.270 OA
HETATM   38  N5  UNL     1      25.844  15.364  24.439  1.00  0.00    -0.308 N 
BRANCH  38  39
HETATM   39  C25 UNL     1      26.608  15.446  25.647  1.00  0.00     0.076 C 
BRANCH  39  40
HETATM   40  C26 UNL     1      27.991  15.880  25.656  1.00  0.00     0.016 C 
HETATM   41  C27 UNL     1      28.224  16.887  26.815  1.00  0.00     0.015 C 
HETATM   42  C28 UNL     1      29.136  14.979  25.653  1.00  0.00     0.015 C 
ENDBRANCH  39  40
ENDBRANCH  38  39
BRANCH  38  43
HETATM   43  C29 UNL     1      25.368  16.484  23.718  1.00  0.00     0.080 C 
BRANCH  43  44
HETATM   44  C30 UNL     1      25.579  17.886  24.020  1.00  0.00    -0.019 C 
HETATM   45  C31 UNL     1      25.150  18.469  25.312  1.00  0.00     0.020 C 
HETATM   46  C32 UNL     1      24.543  18.609  23.018  1.00  0.00     0.020 C 
HETATM   47  C33 UNL     1      26.904  18.449  23.547  1.00  0.00     0.020 C 
ENDBRANCH  43  44
ENDBRANCH  38  43
ENDBRANCH  11  36
BRANCH   1  48
HETATM   48  C2  UNL     1      23.791  11.640  23.756  1.00  0.00     0.002 C 
HETATM   49  C1  UNL     1      22.318  11.237  24.023  1.00  0.00     0.005 C 
ENDBRANCH   1  48
TORSDOF 12
ENDMDL
MODEL 2
REMARK VINA RESULT: -7.261894381      3.134      8.018
REMARK  12 active torsions:
REMARK  status: ('A' for Active; 'I' for Inactive)
REMARK    1  A    between atoms: C2_2  and  C3_3 
REMARK       I    between atoms: N1_10  and  C8_11 
REMARK    2  A    between atoms: C8_11  and  C9_13 
REMARK    3  A    between atoms: C9_13  and  N2_14 
REMARK    4  A    between atoms: C9_13  and  C22_34 
REMARK       I    between atoms: N2_14  and  C10_16 
REMARK    5  A    between atoms: C10_16  and  C11_18 
REMARK    6  A    between atoms: C12_19  and  C13_20 
REMARK       I    between atoms: C13_20  and  N3_22 
REMARK    7  A    between atoms: N3_22  and  C14_24 
REMARK       I    between atoms: N4_30  and  C20_31 
REMARK    8  A    between atoms: C23_37  and  C24_38 
REMARK       I    between atoms: C24_38  and  N5_40 
REMARK    9  A    between atoms: N5_40  and  C25_41 
REMARK   10  A    between atoms: N5_40  and  C29_45 
REMARK   11  A    between atoms: C25_41  and  C26_42 
REMARK   12  A    between atoms: C29_45  and  C30_46 
ROOT
HETATM    1  C3  UNL     1      31.221  19.720  24.526  1.00  0.00     0.018 C 
HETATM    2  C4  UNL     1      31.978  19.168  25.687  1.00  0.00     0.019 C 
HETATM    3  C5  UNL     1      32.490  17.797  25.489  1.00  0.00     0.078 C 
HETATM    4  C6  UNL     1      33.994  17.843  25.324  1.00  0.00     0.018 C 
HETATM    5  C7  UNL     1      31.832  17.002  24.417  1.00  0.00     0.330 C 
HETATM    6  F1  UNL     1      31.487  15.739  24.995  1.00  0.00    -0.182 F 
HETATM    7  F2  UNL     1      32.763  16.682  23.482  1.00  0.00    -0.182 F 
HETATM    8  N1  UNL     1      30.622  17.491  23.857  1.00  0.00    -0.273 N 
HETATM    9  C8  UNL     1      29.915  16.694  22.945  1.00  0.00     0.258 C 
HETATM   10  O1  UNL     1      28.773  17.062  22.564  1.00  0.00    -0.270 OA
HETATM   11  C23 UNL     1      30.083  18.783  24.227  1.00  0.00     0.190 C 
ENDROOT
BRANCH   9  12
HETATM   12  C9  UNL     1      30.345  15.414  22.334  1.00  0.00     0.279 C 
BRANCH  12  13
HETATM   13  N2  UNL     1      29.140  14.579  22.203  1.00  0.00    -0.337 N 
HETATM   14  C10 UNL     1      29.159  13.205  21.943  1.00  0.00     0.242 C 
HETATM   15  O2  UNL     1      30.300  12.664  21.816  1.00  0.00    -0.271 OA
ATOM     16  H2  UNL     1      28.233  15.032  22.308  1.00  0.00     0.163 HD
BRANCH  14  17
HETATM   17  C11 UNL     1      27.973  12.349  21.809  1.00  0.00     0.192 C 
HETATM   18  C12 UNL     1      26.820  13.071  21.126  1.00  0.00     0.111 C 
HETATM   19  C18 UNL     1      27.185  12.867  19.653  1.00  0.00     0.036 C 
HETATM   20  C19 UNL     1      27.823  11.521  19.594  1.00  0.00     0.127 C 
HETATM   21  N4  UNL     1      28.268  11.229  20.927  1.00  0.00    -0.338 N 
HETATM   22  C20 UNL     1      28.903  10.038  21.345  1.00  0.00     0.216 C 
HETATM   23  C21 UNL     1      29.327   9.833  22.750  1.00  0.00     0.117 C 
HETATM   24  O4  UNL     1      29.129   9.105  20.527  1.00  0.00    -0.274 OA
BRANCH  18  25
HETATM   25  C13 UNL     1      25.514  12.410  21.389  1.00  0.00     0.225 C 
HETATM   26  O3  UNL     1      25.023  12.453  22.571  1.00  0.00    -0.273 OA
HETATM   27  N3  UNL     1      24.809  11.741  20.364  1.00  0.00    -0.353 N 
ATOM     28  H3  UNL     1      25.190  11.701  19.418  1.00  0.00     0.163 HD
BRANCH  27  29
HETATM   29  C14 UNL     1      23.528  11.107  20.671  1.00  0.00     0.022 C 
HETATM   30  C15 UNL     1      22.712  11.110  19.390  1.00  0.00     0.037 C 
HETATM   31  C16 UNL     1      22.806  11.816  21.785  1.00  0.00     0.037 C 
HETATM   32  C17 UNL     1      23.819   9.690  21.118  1.00  0.00     0.037 C 
ENDBRANCH  27  29
ENDBRANCH  18  25
ENDBRANCH  14  17
ENDBRANCH  12  13
BRANCH  12  33
HETATM   33  C22 UNL     1      30.791  15.637  20.910  1.00  0.00     0.206 C 
HETATM   34  O5  UNL     1      29.972  15.705  19.975  1.00  0.00    -0.646 OA
HETATM   35  O6  UNL     1      32.117  15.769  20.639  1.00  0.00    -0.646 OA
ENDBRANCH  12  33
ENDBRANCH   9  12
BRANCH  11  36
HETATM   36  C24 UNL     1      29.109  19.371  23.316  1.00  0.00     0.250 C 
HETATM   37  O7  UNL     1      29.537  19.691  22.148  1.00  0.00    -0.270 OA
HETATM   38  N5  UNL     1      27.710  19.625  23.587  1.00  0.00    -0.308 N 
BRANCH  38  39
HETATM   39  C25 UNL     1      26.994  20.196  22.486  1.00  0.00     0.076 C 
BRANCH  39  40
HETATM   40  C26 UNL     1      25.591  20.548  22.580  1.00  0.00     0.016 C 
HETATM   41  C27 UNL     1      25.415  22.080  22.397  1.00  0.00     0.015 C 
HETATM   42  C28 UNL     1      24.530  19.914  21.808  1.00  0.00     0.015 C 
ENDBRANCH  39  40
ENDBRANCH  38  39
BRANCH  38  43
HETATM   43  C29 UNL     1      27.111  19.203  24.797  1.00  0.00     0.080 C 
BRANCH  43  44
HETATM   44  C30 UNL     1      26.511  17.915  25.085  1.00  0.00    -0.019 C 
HETATM   45  C31 UNL     1      25.866  17.110  24.023  1.00  0.00     0.020 C 
HETATM   46  C32 UNL     1      25.219  18.330  25.957  1.00  0.00     0.020 C 
HETATM   47  C33 UNL     1      27.281  17.058  26.069  1.00  0.00     0.020 C 
ENDBRANCH  43  44
ENDBRANCH  38  43
ENDBRANCH  11  36
BRANCH   1  48
HETATM   48  C2  UNL     1      32.062  20.176  23.398  1.00  0.00     0.002 C 
HETATM   49  C1  UNL     1      32.910  21.345  23.961  1.00  0.00     0.005 C 
ENDBRANCH   1  48
TORSDOF 12
ENDMDL
MODEL 3
REMARK VINA RESULT: -7.235265058      2.725      8.024
REMARK  12 active torsions:
REMARK  status: ('A' for Active; 'I' for Inactive)
REMARK    1  A    between atoms: C2_2  and  C3_3 
REMARK       I    between atoms: N1_10  and  C8_11 
REMARK    2  A    between atoms: C8_11  and  C9_13 
REMARK    3  A    between atoms: C9_13  and  N2_14 
REMARK    4  A    between atoms: C9_13  and  C22_34 
REMARK       I    between atoms: N2_14  and  C10_16 
REMARK    5  A    between atoms: C10_16  and  C11_18 
REMARK    6  A    between atoms: C12_19  and  C13_20 
REMARK       I    between atoms: C13_20  and  N3_22 
REMARK    7  A    between atoms: N3_22  and  C14_24 
REMARK       I    between atoms: N4_30  and  C20_31 
REMARK    8  A    between atoms: C23_37  and  C24_38 
REMARK       I    between atoms: C24_38  and  N5_40 
REMARK    9  A    between atoms: N5_40  and  C25_41 
REMARK   10  A    between atoms: N5_40  and  C29_45 
REMARK   11  A    between atoms: C25_41  and  C26_42 
REMARK   12  A    between atoms: C29_45  and  C30_46 
ROOT
HETATM    1  C3  UNL     1      31.986  19.244  22.397  1.00  0.00     0.018 C 
HETATM    2  C4  UNL     1      33.363  18.743  22.677  1.00  0.00     0.019 C 
HETATM    3  C5  UNL     1      33.766  17.574  21.870  1.00  0.00     0.078 C 
HETATM    4  C6  UNL     1      34.798  18.001  20.848  1.00  0.00     0.018 C 
HETATM    5  C7  UNL     1      32.659  16.790  21.257  1.00  0.00     0.330 C 
HETATM    6  F1  UNL     1      32.898  15.418  21.581  1.00  0.00    -0.182 F 
HETATM    7  F2  UNL     1      32.799  16.829  19.906  1.00  0.00    -0.182 F 
HETATM    8  N1  UNL     1      31.330  17.043  21.689  1.00  0.00    -0.273 N 
HETATM    9  C8  UNL     1      30.289  16.227  21.225  1.00  0.00     0.258 C 
HETATM   10  O1  UNL     1      29.139  16.355  21.721  1.00  0.00    -0.270 OA
HETATM   11  C23 UNL     1      31.026  18.108  22.622  1.00  0.00     0.190 C 
ENDROOT
BRANCH   9  12
HETATM   12  C9  UNL     1      30.354  15.178  20.179  1.00  0.00     0.279 C 
BRANCH  12  13
HETATM   13  N2  UNL     1      29.159  14.336  20.344  1.00  0.00    -0.337 N 
HETATM   14  C10 UNL     1      29.144  13.116  21.025  1.00  0.00     0.242 C 
HETATM   15  O2  UNL     1      30.243  12.728  21.527  1.00  0.00    -0.271 OA
ATOM     16  H2  UNL     1      28.284  14.665  19.934  1.00  0.00     0.163 HD
BRANCH  14  17
HETATM   17  C11 UNL     1      27.965  12.257  21.205  1.00  0.00     0.192 C 
HETATM   18  C12 UNL     1      26.762  12.765  20.422  1.00  0.00     0.111 C 
HETATM   19  C18 UNL     1      27.041  12.163  19.042  1.00  0.00     0.036 C 
HETATM   20  C19 UNL     1      27.696  10.851  19.316  1.00  0.00     0.127 C 
HETATM   21  N4  UNL     1      28.224  10.937  20.647  1.00  0.00    -0.338 N 
HETATM   22  C20 UNL     1      28.901   9.907  21.338  1.00  0.00     0.216 C 
HETATM   23  C21 UNL     1      29.411  10.095  22.716  1.00  0.00     0.117 C 
HETATM   24  O4  UNL     1      29.093   8.784  20.794  1.00  0.00    -0.274 OA
BRANCH  18  25
HETATM   25  C13 UNL     1      25.485  12.204  20.937  1.00  0.00     0.225 C 
HETATM   26  O3  UNL     1      25.162  12.412  22.157  1.00  0.00    -0.273 OA
HETATM   27  N3  UNL     1      24.625  11.450  20.106  1.00  0.00    -0.353 N 
ATOM     28  H3  UNL     1      24.872  11.278  19.131  1.00  0.00     0.163 HD
BRANCH  27  29
HETATM   29  C14 UNL     1      23.379  10.920  20.657  1.00  0.00     0.022 C 
HETATM   30  C15 UNL     1      22.779  12.010  21.526  1.00  0.00     0.037 C 
HETATM   31  C16 UNL     1      23.607   9.655  21.440  1.00  0.00     0.037 C 
HETATM   32  C17 UNL     1      22.467  10.600  19.492  1.00  0.00     0.037 C 
ENDBRANCH  27  29
ENDBRANCH  18  25
ENDBRANCH  14  17
ENDBRANCH  12  13
BRANCH  12  33
HETATM   33  C22 UNL     1      30.183  15.792  18.811  1.00  0.00     0.206 C 
HETATM   34  O5  UNL     1      29.288  16.627  18.581  1.00  0.00    -0.646 OA
HETATM   35  O6  UNL     1      31.023  15.428  17.806  1.00  0.00    -0.646 OA
ENDBRANCH  12  33
ENDBRANCH   9  12
BRANCH  11  36
HETATM   36  C24 UNL     1      29.640  18.558  22.672  1.00  0.00     0.250 C 
HETATM   37  O7  UNL     1      29.158  19.050  21.587  1.00  0.00    -0.270 OA
HETATM   38  N5  UNL     1      28.750  18.502  23.812  1.00  0.00    -0.308 N 
BRANCH  38  39
HETATM   39  C25 UNL     1      27.434  19.004  23.553  1.00  0.00     0.076 C 
BRANCH  39  40
HETATM   40  C26 UNL     1      26.404  19.026  24.573  1.00  0.00     0.016 C 
HETATM   41  C27 UNL     1      26.311  20.444  25.201  1.00  0.00     0.015 C 
HETATM   42  C28 UNL     1      25.034  18.573  24.369  1.00  0.00     0.015 C 
ENDBRANCH  39  40
ENDBRANCH  38  39
BRANCH  38  43
HETATM   43  C29 UNL     1      29.142  17.873  25.017  1.00  0.00     0.080 C 
BRANCH  43  44
HETATM   44  C30 UNL     1      29.023  16.470  25.362  1.00  0.00    -0.019 C 
HETATM   45  C31 UNL     1      27.897  15.647  24.864  1.00  0.00     0.020 C 
HETATM   46  C32 UNL     1      28.662  16.537  26.932  1.00  0.00     0.020 C 
HETATM   47  C33 UNL     1      30.331  15.705  25.382  1.00  0.00     0.020 C 
ENDBRANCH  43  44
ENDBRANCH  38  43
ENDBRANCH  11  36
BRANCH   1  48
HETATM   48  C2  UNL     1      31.853  20.032  21.153  1.00  0.00     0.002 C 
HETATM   49  C1  UNL     1      32.840  21.218  21.308  1.00  0.00     0.005 C 
ENDBRANCH   1  48
TORSDOF 12
ENDMDL
MODEL 4
REMARK VINA RESULT: -7.119382520      2.554      8.239
REMARK  12 active torsions:
REMARK  status: ('A' for Active; 'I' for Inactive)
REMARK    1  A    between atoms: C2_2  and  C3_3 
REMARK       I    between atoms: N1_10  and  C8_11 
REMARK    2  A    between atoms: C8_11  and  C9_13 
REMARK    3  A    between atoms: C9_13  and  N2_14 
REMARK    4  A    between atoms: C9_13  and  C22_34 
REMARK       I    between atoms: N2_14  and  C10_16 
REMARK    5  A    between atoms: C10_16  and  C11_18 
REMARK    6  A    between atoms: C12_19  and  C13_20 
REMARK       I    between atoms: C13_20  and  N3_22 
REMARK    7  A    between atoms: N3_22  and  C14_24 
REMARK       I    between atoms: N4_30  and  C20_31 
REMARK    8  A    between atoms: C23_37  and  C24_38 
REMARK       I    between atoms: C24_38  and  N5_40 
REMARK    9  A    between atoms: N5_40  and  C25_41 
REMARK   10  A    between atoms: N5_40  and  C29_45 
REMARK   11  A    between atoms: C25_41  and  C26_42 
REMARK   12  A    between atoms: C29_45  and  C30_46 
ROOT
HETATM    1  C3  UNL     1      33.364  18.302  20.291  1.00  0.00     0.018 C 
HETATM    2  C4  UNL     1      34.469  17.337  20.020  1.00  0.00     0.019 C 
HETATM    3  C5  UNL     1      34.175  16.348  18.963  1.00  0.00     0.078 C 
HETATM    4  C6  UNL     1      34.990  16.674  17.730  1.00  0.00     0.018 C 
HETATM    5  C7  UNL     1      32.736  16.139  18.646  1.00  0.00     0.330 C 
HETATM    6  F1  UNL     1      32.511  14.727  18.668  1.00  0.00    -0.182 F 
HETATM    7  F2  UNL     1      32.527  16.477  17.347  1.00  0.00    -0.182 F 
HETATM    8  N1  UNL     1      31.763  16.680  19.527  1.00  0.00    -0.273 N 
HETATM    9  C8  UNL     1      30.408  16.381  19.323  1.00  0.00     0.258 C 
HETATM   10  O1  UNL     1      29.563  16.735  20.187  1.00  0.00    -0.270 OA
HETATM   11  C23 UNL     1      32.137  17.510  20.654  1.00  0.00     0.190 C 
ENDROOT
BRANCH   9  12
HETATM   12  C9  UNL     1      29.798  15.671  18.174  1.00  0.00     0.279 C 
BRANCH  12  13
HETATM   13  N2  UNL     1      28.625  14.950  18.692  1.00  0.00    -0.337 N 
HETATM   14  C10 UNL     1      28.693  13.861  19.566  1.00  0.00     0.242 C 
HETATM   15  O2  UNL     1      29.852  13.486  19.923  1.00  0.00    -0.271 OA
ATOM     16  H2  UNL     1      27.702  15.265  18.394  1.00  0.00     0.163 HD
BRANCH  14  17
HETATM   17  C11 UNL     1      27.538  13.125  20.098  1.00  0.00     0.192 C 
HETATM   18  C12 UNL     1      27.191  11.910  19.249  1.00  0.00     0.111 C 
HETATM   19  C18 UNL     1      28.166  10.874  19.815  1.00  0.00     0.036 C 
HETATM   20  C19 UNL     1      28.278  11.200  21.267  1.00  0.00     0.127 C 
HETATM   21  N4  UNL     1      27.865  12.567  21.403  1.00  0.00    -0.338 N 
HETATM   22  C20 UNL     1      27.781  13.290  22.615  1.00  0.00     0.216 C 
HETATM   23  C21 UNL     1      27.343  14.704  22.651  1.00  0.00     0.117 C 
HETATM   24  O4  UNL     1      28.081  12.745  23.713  1.00  0.00    -0.274 OA
BRANCH  18  25
HETATM   25  C13 UNL     1      25.802  11.440  19.490  1.00  0.00     0.225 C 
HETATM   26  O3  UNL     1      25.345  10.469  18.791  1.00  0.00    -0.273 OA
HETATM   27  N3  UNL     1      24.982  12.040  20.472  1.00  0.00    -0.353 N 
ATOM     28  H3  UNL     1      25.336  12.813  21.036  1.00  0.00     0.163 HD
BRANCH  27  29
HETATM   29  C14 UNL     1      23.623  11.541  20.673  1.00  0.00     0.022 C 
HETATM   30  C15 UNL     1      23.066  12.249  21.895  1.00  0.00     0.037 C 
HETATM   31  C16 UNL     1      23.594  10.046  20.843  1.00  0.00     0.037 C 
HETATM   32  C17 UNL     1      22.822  11.895  19.438  1.00  0.00     0.037 C 
ENDBRANCH  27  29
ENDBRANCH  18  25
ENDBRANCH  14  17
ENDBRANCH  12  13
BRANCH  12  33
HETATM   33  C22 UNL     1      29.215  16.661  17.196  1.00  0.00     0.206 C 
HETATM   34  O5  UNL     1      29.670  17.815  17.090  1.00  0.00    -0.646 OA
HETATM   35  O6  UNL     1      28.170  16.287  16.411  1.00  0.00    -0.646 OA
ENDBRANCH  12  33
ENDBRANCH   9  12
BRANCH  11  36
HETATM   36  C24 UNL     1      31.090  18.346  21.227  1.00  0.00     0.250 C 
HETATM   37  O7  UNL     1      30.741  19.376  20.544  1.00  0.00    -0.270 OA
HETATM   38  N5  UNL     1      30.399  18.133  22.481  1.00  0.00    -0.308 N 
BRANCH  38  39
HETATM   39  C25 UNL     1      29.400  19.117  22.774  1.00  0.00     0.076 C 
BRANCH  39  40
HETATM   40  C26 UNL     1      28.348  18.881  23.743  1.00  0.00     0.016 C 
HETATM   41  C27 UNL     1      28.546  19.804  24.976  1.00  0.00     0.015 C 
HETATM   42  C28 UNL     1      26.924  18.902  23.433  1.00  0.00     0.015 C 
ENDBRANCH  39  40
ENDBRANCH  38  39
BRANCH  38  43
HETATM   43  C29 UNL     1      30.623  16.968  23.252  1.00  0.00     0.080 C 
BRANCH  43  44
HETATM   44  C30 UNL     1      31.240  16.879  24.561  1.00  0.00    -0.019 C 
HETATM   45  C31 UNL     1      31.875  18.056  25.196  1.00  0.00     0.020 C 
HETATM   46  C32 UNL     1      32.541  15.975  24.261  1.00  0.00     0.020 C 
HETATM   47  C33 UNL     1      30.494  16.018  25.560  1.00  0.00     0.020 C 
ENDBRANCH  43  44
ENDBRANCH  38  43
ENDBRANCH  11  36
BRANCH   1  48
HETATM   48  C2  UNL     1      33.224  19.382  19.291  1.00  0.00     0.002 C 
HETATM   49  C1  UNL     1      34.589  20.118  19.284  1.00  0.00     0.005 C 
ENDBRANCH   1  48
TORSDOF 12
ENDMDL
MODEL 5
REMARK VINA RESULT: -7.036968943      3.375      5.756
REMARK  12 active torsions:
REMARK  status: ('A' for Active; 'I' for Inactive)
REMARK    1  A    between atoms: C2_2  and  C3_3 
REMARK       I    between atoms: N1_10  and  C8_11 
REMARK    2  A    between atoms: C8_11  and  C9_13 
REMARK    3  A    between atoms: C9_13  and  N2_14 
REMARK    4  A    between atoms: C9_13  and  C22_34 
REMARK       I    between atoms: N2_14  and  C10_16 
REMARK    5  A    between atoms: C10_16  and  C11_18 
REMARK    6  A    between atoms: C12_19  and  C13_20 
REMARK       I    between atoms: C13_20  and  N3_22 
REMARK    7  A    between atoms: N3_22  and  C14_24 
REMARK       I    between atoms: N4_30  and  C20_31 
REMARK    8  A    between atoms: C23_37  and  C24_38 
REMARK       I    between atoms: C24_38  and  N5_40 
REMARK    9  A    between atoms: N5_40  and  C25_41 
REMARK   10  A    between atoms: N5_40  and  C29_45 
REMARK   11  A    between atoms: C25_41  and  C26_42 
REMARK   12  A    between atoms: C29_45  and  C30_46 
ROOT
HETATM    1  C3  UNL     1      28.506  16.837  25.235  1.00  0.00     0.018 C 
HETATM    2  C4  UNL     1      27.287  16.339  24.533  1.00  0.00     0.019 C 
HETATM    3  C5  UNL     1      27.555  15.364  23.457  1.00  0.00     0.078 C 
HETATM    4  C6  UNL     1      27.104  13.989  23.904  1.00  0.00     0.018 C 
HETATM    5  C7  UNL     1      28.941  15.351  22.916  1.00  0.00     0.330 C 
HETATM    6  F1  UNL     1      28.827  15.415  21.492  1.00  0.00    -0.182 F 
HETATM    7  F2  UNL     1      29.481  14.125  23.140  1.00  0.00    -0.182 F 
HETATM    8  N1  UNL     1      29.813  16.417  23.262  1.00  0.00    -0.273 N 
HETATM    9  C8  UNL     1      31.076  16.497  22.658  1.00  0.00     0.258 C 
HETATM   10  O1  UNL     1      31.786  17.519  22.851  1.00  0.00    -0.270 OA
HETATM   11  C23 UNL     1      29.418  17.444  24.205  1.00  0.00     0.190 C 
ENDROOT
BRANCH   9  12
HETATM   12  C9  UNL     1      31.726  15.498  21.778  1.00  0.00     0.279 C 
BRANCH  12  13
HETATM   13  N2  UNL     1      31.724  16.060  20.419  1.00  0.00    -0.337 N 
HETATM   14  C10 UNL     1      31.103  15.460  19.319  1.00  0.00     0.242 C 
HETATM   15  O2  UNL     1      30.508  14.359  19.530  1.00  0.00    -0.271 OA
ATOM     16  H2  UNL     1      32.208  16.946  20.269  1.00  0.00     0.163 HD
BRANCH  14  17
HETATM   17  C11 UNL     1      31.086  16.001  17.954  1.00  0.00     0.192 C 
HETATM   18  C12 UNL     1      29.870  16.882  17.701  1.00  0.00     0.111 C 
HETATM   19  C18 UNL     1      30.358  18.218  18.269  1.00  0.00     0.036 C 
HETATM   20  C19 UNL     1      31.819  18.255  17.969  1.00  0.00     0.127 C 
HETATM   21  N4  UNL     1      32.220  16.893  17.759  1.00  0.00    -0.338 N 
HETATM   22  C20 UNL     1      33.520  16.457  17.415  1.00  0.00     0.216 C 
HETATM   23  C21 UNL     1      33.834  15.022  17.221  1.00  0.00     0.117 C 
HETATM   24  O4  UNL     1      34.459  17.285  17.263  1.00  0.00    -0.274 OA
BRANCH  18  25
HETATM   25  C13 UNL     1      29.596  17.052  16.250  1.00  0.00     0.225 C 
HETATM   26  O3  UNL     1      30.006  16.158  15.431  1.00  0.00    -0.273 OA
HETATM   27  N3  UNL     1      28.892  18.177  15.762  1.00  0.00    -0.353 N 
ATOM     28  H3  UNL     1      28.560  18.895  16.405  1.00  0.00     0.163 HD
BRANCH  27  29
HETATM   29  C14 UNL     1      28.646  18.300  14.326  1.00  0.00     0.022 C 
HETATM   30  C15 UNL     1      27.711  17.168  13.938  1.00  0.00     0.037 C 
HETATM   31  C16 UNL     1      29.924  18.254  13.533  1.00  0.00     0.037 C 
HETATM   32  C17 UNL     1      27.988  19.643  14.092  1.00  0.00     0.037 C 
ENDBRANCH  27  29
ENDBRANCH  18  25
ENDBRANCH  14  17
ENDBRANCH  12  13
BRANCH  12  33
HETATM   33  C22 UNL     1      33.191  15.374  22.120  1.00  0.00     0.206 C 
HETATM   34  O5  UNL     1      34.077  15.741  21.327  1.00  0.00    -0.646 OA
HETATM   35  O6  UNL     1      33.553  14.852  23.322  1.00  0.00    -0.646 OA
ENDBRANCH  12  33
ENDBRANCH   9  12
BRANCH  11  36
HETATM   36  C24 UNL     1      30.491  18.226  24.808  1.00  0.00     0.250 C 
HETATM   37  O7  UNL     1      31.324  17.582  25.544  1.00  0.00    -0.270 OA
HETATM   38  N5  UNL     1      30.718  19.647  24.659  1.00  0.00    -0.308 N 
BRANCH  38  39
HETATM   39  C25 UNL     1      31.869  20.133  25.360  1.00  0.00     0.076 C 
BRANCH  39  40
HETATM   40  C26 UNL     1      31.756  20.968  26.540  1.00  0.00     0.016 C 
HETATM   41  C27 UNL     1      31.749  22.466  26.131  1.00  0.00     0.015 C 
HETATM   42  C28 UNL     1      30.730  20.812  27.563  1.00  0.00     0.015 C 
ENDBRANCH  39  40
ENDBRANCH  38  39
BRANCH  38  43
HETATM   43  C29 UNL     1      29.932  20.426  23.778  1.00  0.00     0.080 C 
BRANCH  43  44
HETATM   44  C30 UNL     1      28.681  21.098  24.069  1.00  0.00    -0.019 C 
HETATM   45  C31 UNL     1      27.859  20.724  25.244  1.00  0.00     0.020 C 
HETATM   46  C32 UNL     1      27.731  20.578  22.875  1.00  0.00     0.020 C 
HETATM   47  C33 UNL     1      28.687  22.594  23.825  1.00  0.00     0.020 C 
ENDBRANCH  43  44
ENDBRANCH  38  43
ENDBRANCH  11  36
BRANCH   1  48
HETATM   48  C2  UNL     1      29.090  15.892  26.211  1.00  0.00     0.002 C 
HETATM   49  C1  UNL     1      28.648  16.412  27.604  1.00  0.00     0.005 C 
ENDBRANCH   1  48
TORSDOF 12
ENDMDL
