MODEL 1
REMARK VINA RESULT: -6.812230617      0.000      0.000
REMARK  6 active torsions:
REMARK  status: ('A' for Active; 'I' for Inactive)
REMARK    1  A    between atoms: N1_1  and  C1_4 
REMARK    2  A    between atoms: C2_10  and  C3_11 
REMARK    3  A    between atoms: C3_11  and  N4_12 
REMARK    4  A    between atoms: C3_11  and  N5_16 
REMARK    5  A    between atoms: N5_16  and  N6_18 
REMARK    6  A    between atoms: C4_20  and  C5_21 
ROOT
HETATM    1  C3  UNL     1      17.353 -65.580   1.444  1.00  0.00     0.352 C 
ENDROOT
BRANCH   1   2
HETATM    2  C2  UNL     1      16.180 -65.767   0.574  1.00  0.00     0.130 A 
HETATM    3  C1  UNL     1      15.139 -66.611   0.819  1.00  0.00     0.150 A 
HETATM    4  N2  UNL     1      14.279 -66.494  -0.200  1.00  0.00    -0.224 N 
HETATM    5  O1  UNL     1      14.772 -65.620  -1.023  1.00  0.00    -0.155 OA
ATOM      6  H2  UNL     1      13.399 -66.997  -0.309  1.00  0.00     0.198 HD
HETATM    7  N3  UNL     1      15.895 -65.164  -0.607  1.00  0.00    -0.238 N 
ATOM      8  H3  UNL     1      16.473 -64.470  -1.080  1.00  0.00     0.196 HD
BRANCH   3   9
HETATM    9  N1  UNL     1      14.950 -67.405   1.821  1.00  0.00    -0.382 N 
ATOM     10  H12 UNL     1      15.055 -68.418   1.869  1.00  0.00     0.157 HD
ATOM     11  H11 UNL     1      14.652 -67.085   2.742  1.00  0.00     0.157 HD
ENDBRANCH   3   9
ENDBRANCH   1   2
BRANCH   1  12
HETATM   12  N4  UNL     1      17.190 -64.338   2.157  1.00  0.00    -0.051 N 
ATOM     13  H43 UNL     1      16.759 -63.610   1.587  1.00  0.00     0.277 HD
ATOM     14  H42 UNL     1      16.471 -64.390   2.879  1.00  0.00     0.277 HD
ATOM     15  H41 UNL     1      18.100 -64.062   2.526  1.00  0.00     0.277 HD
ENDBRANCH   1  12
BRANCH   1  16
HETATM   16  N5  UNL     1      18.574 -65.663   0.700  1.00  0.00    -0.301 N 
ATOM     17  H5  UNL     1      18.562 -66.174  -0.183  1.00  0.00     0.183 HD
BRANCH  16  18
HETATM   18  N6  UNL     1      19.776 -65.090   1.105  1.00  0.00    -0.311 N 
HETATM   19  C4  UNL     1      20.402 -64.326   0.294  1.00  0.00     0.143 C 
ATOM     20  H6  UNL     1      20.151 -65.276   2.035  1.00  0.00     0.185 HD
BRANCH  19  21
HETATM   21  C5  UNL     1      21.678 -63.705   0.696  1.00  0.00     0.091 A 
HETATM   22  C6  UNL     1      22.396 -63.896   1.857  1.00  0.00     0.040 A 
HETATM   23  C7  UNL     1      23.530 -63.108   1.806  1.00  0.00     0.027 A 
HETATM   24  C8  UNL     1      23.450 -62.460   0.591  1.00  0.00     0.142 A 
HETATM   25  O2  UNL     1      22.358 -62.836  -0.022  1.00  0.00    -0.321 OA
ENDBRANCH  19  21
ENDBRANCH  16  18
ENDBRANCH   1  16
TORSDOF 6
ENDMDL
MODEL 2
REMARK VINA RESULT: -6.789781576      1.155      1.858
REMARK  6 active torsions:
REMARK  status: ('A' for Active; 'I' for Inactive)
REMARK    1  A    between atoms: N1_1  and  C1_4 
REMARK    2  A    between atoms: C2_10  and  C3_11 
REMARK    3  A    between atoms: C3_11  and  N4_12 
REMARK    4  A    between atoms: C3_11  and  N5_16 
REMARK    5  A    between atoms: N5_16  and  N6_18 
REMARK    6  A    between atoms: C4_20  and  C5_21 
ROOT
HETATM    1  C3  UNL     1      17.752 -66.395   0.434  1.00  0.00     0.352 C 
ENDROOT
BRANCH   1   2
HETATM    2  C2  UNL     1      16.286 -66.258   0.449  1.00  0.00     0.130 A 
HETATM    3  C1  UNL     1      15.525 -65.779  -0.574  1.00  0.00     0.150 A 
HETATM    4  N2  UNL     1      14.249 -65.813  -0.174  1.00  0.00    -0.224 N 
HETATM    5  O1  UNL     1      14.234 -66.290   1.033  1.00  0.00    -0.155 OA
ATOM      6  H2  UNL     1      13.437 -65.519  -0.717  1.00  0.00     0.198 HD
HETATM    7  N3  UNL     1      15.416 -66.566   1.443  1.00  0.00    -0.238 N 
ATOM      8  H3  UNL     1      15.660 -66.951   2.355  1.00  0.00     0.196 HD
BRANCH   3   9
HETATM    9  N1  UNL     1      15.894 -65.354  -1.737  1.00  0.00    -0.382 N 
ATOM     10  H12 UNL     1      16.687 -65.646  -2.308  1.00  0.00     0.157 HD
ATOM     11  H11 UNL     1      15.399 -64.626  -2.251  1.00  0.00     0.157 HD
ENDBRANCH   3   9
ENDBRANCH   1   2
BRANCH   1  12
HETATM   12  N4  UNL     1      18.072 -67.799   0.496  1.00  0.00    -0.051 N 
ATOM     13  H43 UNL     1      17.451 -68.370  -0.076  1.00  0.00     0.277 HD
ATOM     14  H42 UNL     1      18.945 -68.025   0.019  1.00  0.00     0.277 HD
ATOM     15  H41 UNL     1      18.075 -68.081   1.477  1.00  0.00     0.277 HD
ENDBRANCH   1  12
BRANCH   1  16
HETATM   16  N5  UNL     1      18.361 -65.617   1.471  1.00  0.00    -0.301 N 
ATOM     17  H5  UNL     1      17.805 -65.406   2.300  1.00  0.00     0.183 HD
BRANCH  16  18
HETATM   18  N6  UNL     1      19.664 -65.131   1.420  1.00  0.00    -0.311 N 
HETATM   19  C4  UNL     1      20.018 -64.413   0.424  1.00  0.00     0.143 C 
ATOM     20  H6  UNL     1      20.327 -65.345   2.165  1.00  0.00     0.185 HD
BRANCH  19  21
HETATM   21  C5  UNL     1      21.393 -63.884   0.342  1.00  0.00     0.091 A 
HETATM   22  C6  UNL     1      22.300 -63.694   1.362  1.00  0.00     0.040 A 
HETATM   23  C7  UNL     1      23.463 -63.178   0.824  1.00  0.00     0.027 A 
HETATM   24  C8  UNL     1      23.207 -63.076  -0.528  1.00  0.00     0.142 A 
HETATM   25  O2  UNL     1      21.992 -63.497  -0.764  1.00  0.00    -0.321 OA
ENDBRANCH  19  21
ENDBRANCH  16  18
ENDBRANCH   1  16
TORSDOF 6
ENDMDL
MODEL 3
REMARK VINA RESULT: -6.734610301      0.900      1.494
REMARK  6 active torsions:
REMARK  status: ('A' for Active; 'I' for Inactive)
REMARK    1  A    between atoms: N1_1  and  C1_4 
REMARK    2  A    between atoms: C2_10  and  C3_11 
REMARK    3  A    between atoms: C3_11  and  N4_12 
REMARK    4  A    between atoms: C3_11  and  N5_16 
REMARK    5  A    between atoms: N5_16  and  N6_18 
REMARK    6  A    between atoms: C4_20  and  C5_21 
ROOT
HETATM    1  C3  UNL     1      17.168 -65.354   1.467  1.00  0.00     0.352 C 
ENDROOT
BRANCH   1   2
HETATM    2  C2  UNL     1      16.078 -66.229   1.005  1.00  0.00     0.130 A 
HETATM    3  C1  UNL     1      15.601 -66.295  -0.269  1.00  0.00     0.150 A 
HETATM    4  N2  UNL     1      14.619 -67.203  -0.283  1.00  0.00    -0.224 N 
HETATM    5  O1  UNL     1      14.504 -67.668   0.922  1.00  0.00    -0.155 OA
ATOM      6  H2  UNL     1      14.063 -67.479  -1.093  1.00  0.00     0.198 HD
HETATM    7  N3  UNL     1      15.346 -67.120   1.719  1.00  0.00    -0.238 N 
ATOM      8  H3  UNL     1      15.448 -67.320   2.713  1.00  0.00     0.196 HD
BRANCH   3   9
HETATM    9  N1  UNL     1      15.975 -65.636  -1.316  1.00  0.00    -0.382 N 
ATOM     10  H12 UNL     1      16.892 -65.599  -1.761  1.00  0.00     0.157 HD
ATOM     11  H11 UNL     1      15.351 -65.033  -1.852  1.00  0.00     0.157 HD
ENDBRANCH   3   9
ENDBRANCH   1   2
BRANCH   1  12
HETATM   12  N4  UNL     1      16.751 -63.986   1.285  1.00  0.00    -0.051 N 
ATOM     13  H43 UNL     1      17.354 -63.322   1.773  1.00  0.00     0.277 HD
ATOM     14  H42 UNL     1      16.914 -63.647   0.337  1.00  0.00     0.277 HD
ATOM     15  H41 UNL     1      15.774 -63.911   1.568  1.00  0.00     0.277 HD
ENDBRANCH   1  12
BRANCH   1  16
HETATM   16  N5  UNL     1      18.405 -65.672   0.819  1.00  0.00    -0.301 N 
ATOM     17  H5  UNL     1      18.388 -66.363   0.069  1.00  0.00     0.183 HD
BRANCH  16  18
HETATM   18  N6  UNL     1      19.629 -65.097   1.148  1.00  0.00    -0.311 N 
HETATM   19  C4  UNL     1      20.250 -64.416   0.263  1.00  0.00     0.143 C 
ATOM     20  H6  UNL     1      20.024 -65.216   2.080  1.00  0.00     0.185 HD
BRANCH  19  21
HETATM   21  C5  UNL     1      21.550 -63.795   0.582  1.00  0.00     0.091 A 
HETATM   22  C6  UNL     1      22.294 -63.910   1.736  1.00  0.00     0.040 A 
HETATM   23  C7  UNL     1      23.442 -63.156   1.595  1.00  0.00     0.027 A 
HETATM   24  C8  UNL     1      23.345 -62.604   0.334  1.00  0.00     0.142 A 
HETATM   25  O2  UNL     1      22.229 -63.002  -0.220  1.00  0.00    -0.321 OA
ENDBRANCH  19  21
ENDBRANCH  16  18
ENDBRANCH   1  16
TORSDOF 6
ENDMDL
MODEL 4
REMARK VINA RESULT: -6.598386297      3.461      7.258
REMARK  6 active torsions:
REMARK  status: ('A' for Active; 'I' for Inactive)
REMARK    1  A    between atoms: N1_1  and  C1_4 
REMARK    2  A    between atoms: C2_10  and  C3_11 
REMARK    3  A    between atoms: C3_11  and  N4_12 
REMARK    4  A    between atoms: C3_11  and  N5_16 
REMARK    5  A    between atoms: N5_16  and  N6_18 
REMARK    6  A    between atoms: C4_20  and  C5_21 
ROOT
HETATM    1  C3  UNL     1      23.088 -63.271   1.742  1.00  0.00     0.352 C 
ENDROOT
BRANCH   1   2
HETATM    2  C2  UNL     1      23.768 -63.266   0.436  1.00  0.00     0.130 A 
HETATM    3  C1  UNL     1      24.266 -62.165  -0.193  1.00  0.00     0.150 A 
HETATM    4  N2  UNL     1      24.803 -62.572  -1.349  1.00  0.00    -0.224 N 
HETATM    5  O1  UNL     1      24.641 -63.858  -1.419  1.00  0.00    -0.155 OA
ATOM      6  H2  UNL     1      25.257 -61.981  -2.046  1.00  0.00     0.198 HD
HETATM    7  N3  UNL     1      24.033 -64.311  -0.387  1.00  0.00    -0.238 N 
ATOM      8  H3  UNL     1      23.790 -65.287  -0.213  1.00  0.00     0.196 HD
BRANCH   3   9
HETATM    9  N1  UNL     1      24.258 -60.931   0.191  1.00  0.00    -0.382 N 
ATOM     10  H12 UNL     1      24.397 -60.546   1.125  1.00  0.00     0.157 HD
ATOM     11  H11 UNL     1      24.098 -60.147  -0.442  1.00  0.00     0.157 HD
ENDBRANCH   3   9
ENDBRANCH   1   2
BRANCH   1  12
HETATM   12  N4  UNL     1      24.052 -62.907   2.750  1.00  0.00    -0.051 N 
ATOM     13  H43 UNL     1      23.660 -62.300   3.469  1.00  0.00     0.277 HD
ATOM     14  H42 UNL     1      24.304 -63.690   3.354  1.00  0.00     0.277 HD
ATOM     15  H41 UNL     1      24.860 -62.494   2.284  1.00  0.00     0.277 HD
ENDBRANCH   1  12
BRANCH   1  16
HETATM   16  N5  UNL     1      22.438 -64.523   1.988  1.00  0.00    -0.301 N 
ATOM     17  H5  UNL     1      23.012 -65.305   2.304  1.00  0.00     0.183 HD
BRANCH  16  18
HETATM   18  N6  UNL     1      21.073 -64.739   1.826  1.00  0.00    -0.311 N 
HETATM   19  C4  UNL     1      20.518 -64.391   0.729  1.00  0.00     0.143 C 
ATOM     20  H6  UNL     1      20.524 -65.169   2.571  1.00  0.00     0.185 HD
BRANCH  19  21
HETATM   21  C5  UNL     1      19.072 -64.607   0.529  1.00  0.00     0.091 A 
HETATM   22  C6  UNL     1      18.274 -65.601   1.052  1.00  0.00     0.040 A 
HETATM   23  C7  UNL     1      16.983 -65.412   0.597  1.00  0.00     0.027 A 
HETATM   24  C8  UNL     1      17.055 -64.288  -0.200  1.00  0.00     0.142 A 
HETATM   25  O2  UNL     1      18.288 -63.852  -0.211  1.00  0.00    -0.321 OA
ENDBRANCH  19  21
ENDBRANCH  16  18
ENDBRANCH   1  16
TORSDOF 6
ENDMDL
MODEL 5
REMARK VINA RESULT: -6.583537615      1.552      2.065
REMARK  6 active torsions:
REMARK  status: ('A' for Active; 'I' for Inactive)
REMARK    1  A    between atoms: N1_1  and  C1_4 
REMARK    2  A    between atoms: C2_10  and  C3_11 
REMARK    3  A    between atoms: C3_11  and  N4_12 
REMARK    4  A    between atoms: C3_11  and  N5_16 
REMARK    5  A    between atoms: N5_16  and  N6_18 
REMARK    6  A    between atoms: C4_20  and  C5_21 
ROOT
HETATM    1  C3  UNL     1      16.811 -65.132  -0.376  1.00  0.00     0.352 C 
ENDROOT
BRANCH   1   2
HETATM    2  C2  UNL     1      16.189 -64.739   0.899  1.00  0.00     0.130 A 
HETATM    3  C1  UNL     1      15.611 -65.590   1.793  1.00  0.00     0.150 A 
HETATM    4  N2  UNL     1      15.165 -64.852   2.817  1.00  0.00    -0.224 N 
HETATM    5  O1  UNL     1      15.458 -63.615   2.559  1.00  0.00    -0.155 OA
ATOM      6  H2  UNL     1      14.683 -65.199   3.647  1.00  0.00     0.198 HD
HETATM    7  N3  UNL     1      16.064 -63.500   1.436  1.00  0.00    -0.238 N 
ATOM      8  H3  UNL     1      16.394 -62.630   1.018  1.00  0.00     0.196 HD
BRANCH   3   9
HETATM    9  N1  UNL     1      15.479 -66.873   1.731  1.00  0.00    -0.382 N 
ATOM     10  H12 UNL     1      16.141 -67.574   1.397  1.00  0.00     0.157 HD
ATOM     11  H11 UNL     1      14.637 -67.366   2.030  1.00  0.00     0.157 HD
ENDBRANCH   3   9
ENDBRANCH   1   2
BRANCH   1  12
HETATM   12  N4  UNL     1      15.828 -65.844  -1.154  1.00  0.00    -0.051 N 
ATOM     13  H43 UNL     1      16.009 -66.847  -1.195  1.00  0.00     0.277 HD
ATOM     14  H42 UNL     1      14.918 -65.888  -0.694  1.00  0.00     0.277 HD
ATOM     15  H41 UNL     1      15.781 -65.414  -2.078  1.00  0.00     0.277 HD
ENDBRANCH   1  12
BRANCH   1  16
HETATM   16  N5  UNL     1      18.022 -65.867  -0.164  1.00  0.00    -0.301 N 
ATOM     17  H5  UNL     1      17.945 -66.848   0.105  1.00  0.00     0.183 HD
BRANCH  16  18
HETATM   18  N6  UNL     1      19.297 -65.327  -0.301  1.00  0.00    -0.311 N 
HETATM   19  C4  UNL     1      19.766 -64.601   0.640  1.00  0.00     0.143 C 
ATOM     20  H6  UNL     1      19.849 -65.508  -1.140  1.00  0.00     0.185 HD
BRANCH  19  21
HETATM   21  C5  UNL     1      21.115 -64.014   0.522  1.00  0.00     0.091 A 
HETATM   22  C6  UNL     1      22.069 -63.857   1.502  1.00  0.00     0.040 A 
HETATM   23  C7  UNL     1      23.182 -63.261   0.940  1.00  0.00     0.027 A 
HETATM   24  C8  UNL     1      22.847 -63.078  -0.386  1.00  0.00     0.142 A 
HETATM   25  O2  UNL     1      21.637 -63.531  -0.586  1.00  0.00    -0.321 OA
ENDBRANCH  19  21
ENDBRANCH  16  18
ENDBRANCH   1  16
TORSDOF 6
ENDMDL
