MODEL 1
REMARK VINA RESULT: -6.641175740      0.000      0.000
REMARK  5 active torsions:
REMARK  status: ('A' for Active; 'I' for Inactive)
REMARK    1  A    between atoms: C1_4  and  C2_6 
REMARK    2  A    between atoms: C4_8  and  N3_9 
REMARK    3  A    between atoms: N3_9  and  N4_11 
REMARK    4  A    between atoms: N4_11  and  C5_12 
REMARK    5  A    between atoms: C8_15  and  N5_16 
ROOT
HETATM    1  C2  UNL     1      16.142 -65.279   0.556  1.00  0.00     0.143 A 
HETATM    2  C3  UNL     1      17.377 -65.408   1.166  1.00  0.00     0.094 A 
HETATM    3  C4  UNL     1      18.253 -64.527   0.571  1.00  0.00     0.140 A 
HETATM    4  N6  UNL     1      17.514 -63.901  -0.375  1.00  0.00    -0.243 N 
ATOM      5  H6  UNL     1      17.861 -63.179  -1.006  1.00  0.00     0.196 HD
HETATM    6  O1  UNL     1      16.301 -64.354  -0.359  1.00  0.00    -0.233 OA
ENDROOT
BRANCH   3   7
HETATM    7  N3  UNL     1      19.616 -64.358   0.914  1.00  0.00    -0.288 N 
ATOM      8  H3  UNL     1      19.914 -64.435   1.886  1.00  0.00     0.184 HD
BRANCH   7   9
HETATM    9  N4  UNL     1      20.537 -64.088  -0.073  1.00  0.00    -0.133 NA
BRANCH   9  10
HETATM   10  C5  UNL     1      21.883 -64.502   0.271  1.00  0.00     0.129 C 
HETATM   11  C6  UNL     1      22.459 -63.707   1.452  1.00  0.00     0.027 C 
HETATM   12  C7  UNL     1      22.770 -62.614   0.422  1.00  0.00     0.036 C 
HETATM   13  C8  UNL     1      22.887 -63.760  -0.594  1.00  0.00     0.204 C 
BRANCH  13  14
HETATM   14  N5  UNL     1      24.230 -64.316  -0.530  1.00  0.00    -0.073 N 
ATOM     15  H53 UNL     1      24.869 -63.785  -1.122  1.00  0.00     0.274 HD
ATOM     16  H52 UNL     1      24.653 -64.136   0.380  1.00  0.00     0.274 HD
ATOM     17  H51 UNL     1      24.270 -65.309  -0.758  1.00  0.00     0.274 HD
ENDBRANCH  13  14
ENDBRANCH   9  10
ENDBRANCH   7   9
ENDBRANCH   3   7
BRANCH   1  18
HETATM   18  C1  UNL     1      14.910 -66.003   0.851  1.00  0.00     0.146 C 
HETATM   19  N1  UNL     1      14.919 -66.914   1.763  1.00  0.00    -0.385 N 
ATOM     20  H12 UNL     1      14.058 -67.421   1.969  1.00  0.00     0.157 HD
ATOM     21  H11 UNL     1      15.770 -67.137   2.280  1.00  0.00     0.157 HD
HETATM   22  N2  UNL     1      13.724 -65.692   0.130  1.00  0.00    -0.080 NA
ENDBRANCH   1  18
TORSDOF 5
ENDMDL
MODEL 2
REMARK VINA RESULT: -6.621388704      1.005      1.005
REMARK  5 active torsions:
REMARK  status: ('A' for Active; 'I' for Inactive)
REMARK    1  A    between atoms: C1_4  and  C2_6 
REMARK    2  A    between atoms: C4_8  and  N3_9 
REMARK    3  A    between atoms: N3_9  and  N4_11 
REMARK    4  A    between atoms: N4_11  and  C5_12 
REMARK    5  A    between atoms: C8_15  and  N5_16 
ROOT
HETATM    1  C2  UNL     1      16.514 -66.180   0.737  1.00  0.00     0.143 A 
HETATM    2  C3  UNL     1      17.311 -65.188   1.281  1.00  0.00     0.094 A 
HETATM    3  C4  UNL     1      18.515 -65.180   0.613  1.00  0.00     0.140 A 
HETATM    4  N6  UNL     1      18.400 -66.167  -0.306  1.00  0.00    -0.243 N 
ATOM      5  H6  UNL     1      19.123 -66.432  -0.975  1.00  0.00     0.196 HD
HETATM    6  O1  UNL     1      17.235 -66.725  -0.211  1.00  0.00    -0.233 OA
ENDROOT
BRANCH   3   7
HETATM    7  N3  UNL     1      19.601 -64.310   0.875  1.00  0.00    -0.288 N 
ATOM      8  H3  UNL     1      19.682 -63.850   1.781  1.00  0.00     0.184 HD
BRANCH   7   9
HETATM    9  N4  UNL     1      20.545 -64.087  -0.102  1.00  0.00    -0.133 NA
BRANCH   9  10
HETATM   10  C5  UNL     1      21.878 -64.504   0.285  1.00  0.00     0.129 C 
HETATM   11  C6  UNL     1      22.433 -63.686   1.460  1.00  0.00     0.027 C 
HETATM   12  C7  UNL     1      22.778 -62.620   0.412  1.00  0.00     0.036 C 
HETATM   13  C8  UNL     1      22.910 -63.791  -0.573  1.00  0.00     0.204 C 
BRANCH  13  14
HETATM   14  N5  UNL     1      24.245 -64.356  -0.464  1.00  0.00    -0.073 N 
ATOM     15  H53 UNL     1      24.743 -64.281  -1.351  1.00  0.00     0.274 HD
ATOM     16  H52 UNL     1      24.842 -63.766   0.116  1.00  0.00     0.274 HD
ATOM     17  H51 UNL     1      24.253 -65.319  -0.127  1.00  0.00     0.274 HD
ENDBRANCH  13  14
ENDBRANCH   9  10
ENDBRANCH   7   9
ENDBRANCH   3   7
BRANCH   1  18
HETATM   18  C1  UNL     1      15.157 -66.557   1.119  1.00  0.00     0.146 C 
HETATM   19  N1  UNL     1      14.986 -67.501   1.982  1.00  0.00    -0.385 N 
ATOM     20  H12 UNL     1      14.038 -67.764   2.250  1.00  0.00     0.157 HD
ATOM     21  H11 UNL     1      15.781 -67.986   2.400  1.00  0.00     0.157 HD
HETATM   22  N2  UNL     1      14.050 -65.881   0.537  1.00  0.00    -0.080 NA
ENDBRANCH   1  18
TORSDOF 5
ENDMDL
MODEL 3
REMARK VINA RESULT: -6.440138971      1.620      1.946
REMARK  5 active torsions:
REMARK  status: ('A' for Active; 'I' for Inactive)
REMARK    1  A    between atoms: C1_4  and  C2_6 
REMARK    2  A    between atoms: C4_8  and  N3_9 
REMARK    3  A    between atoms: N3_9  and  N4_11 
REMARK    4  A    between atoms: N4_11  and  C5_12 
REMARK    5  A    between atoms: C8_15  and  N5_16 
ROOT
HETATM    1  C2  UNL     1      17.263 -64.866   1.245  1.00  0.00     0.143 A 
HETATM    2  C3  UNL     1      18.550 -65.183   1.640  1.00  0.00     0.094 A 
HETATM    3  C4  UNL     1      19.435 -64.574   0.777  1.00  0.00     0.140 A 
HETATM    4  N6  UNL     1      18.648 -63.915  -0.106  1.00  0.00    -0.243 N 
ATOM      5  H6  UNL     1      18.987 -63.354  -0.888  1.00  0.00     0.196 HD
HETATM    6  O1  UNL     1      17.401 -64.101   0.190  1.00  0.00    -0.233 OA
ENDROOT
BRANCH   3   7
HETATM    7  N3  UNL     1      20.846 -64.656   0.846  1.00  0.00    -0.288 N 
ATOM      8  H3  UNL     1      21.292 -65.436   1.328  1.00  0.00     0.184 HD
BRANCH   7   9
HETATM    9  N4  UNL     1      21.614 -63.675   0.259  1.00  0.00    -0.133 NA
BRANCH   9  10
HETATM   10  C5  UNL     1      22.284 -62.821   1.220  1.00  0.00     0.129 C 
HETATM   11  C6  UNL     1      23.391 -61.971   0.579  1.00  0.00     0.027 C 
HETATM   12  C7  UNL     1      24.264 -63.228   0.685  1.00  0.00     0.036 C 
HETATM   13  C8  UNL     1      23.401 -63.590   1.902  1.00  0.00     0.204 C 
BRANCH  13  14
HETATM   14  N5  UNL     1      23.934 -62.919   3.078  1.00  0.00    -0.073 N 
ATOM     15  H53 UNL     1      24.084 -61.928   2.892  1.00  0.00     0.274 HD
ATOM     16  H52 UNL     1      23.223 -62.848   3.807  1.00  0.00     0.274 HD
ATOM     17  H51 UNL     1      24.783 -63.350   3.443  1.00  0.00     0.274 HD
ENDBRANCH  13  14
ENDBRANCH   9  10
ENDBRANCH   7   9
ENDBRANCH   3   7
BRANCH   1  18
HETATM   18  C1  UNL     1      16.004 -65.281   1.855  1.00  0.00     0.146 C 
HETATM   19  N1  UNL     1      15.661 -66.523   1.805  1.00  0.00    -0.385 N 
ATOM     20  H12 UNL     1      14.781 -66.813   2.232  1.00  0.00     0.157 HD
ATOM     21  H11 UNL     1      16.251 -67.218   1.347  1.00  0.00     0.157 HD
HETATM   22  N2  UNL     1      15.181 -64.313   2.493  1.00  0.00    -0.080 NA
ENDBRANCH   1  18
TORSDOF 5
ENDMDL
MODEL 4
REMARK VINA RESULT: -6.428190579      0.986      1.028
REMARK  5 active torsions:
REMARK  status: ('A' for Active; 'I' for Inactive)
REMARK    1  A    between atoms: C1_4  and  C2_6 
REMARK    2  A    between atoms: C4_8  and  N3_9 
REMARK    3  A    between atoms: N3_9  and  N4_11 
REMARK    4  A    between atoms: N4_11  and  C5_12 
REMARK    5  A    between atoms: C8_15  and  N5_16 
ROOT
HETATM    1  C2  UNL     1      16.568 -64.691   0.985  1.00  0.00     0.143 A 
HETATM    2  C3  UNL     1      17.902 -65.012   1.160  1.00  0.00     0.094 A 
HETATM    3  C4  UNL     1      18.642 -64.330   0.220  1.00  0.00     0.140 A 
HETATM    4  N6  UNL     1      17.728 -63.625  -0.486  1.00  0.00    -0.243 N 
ATOM      5  H6  UNL     1      17.942 -63.006  -1.268  1.00  0.00     0.196 HD
HETATM    6  O1  UNL     1      16.541 -63.853  -0.021  1.00  0.00    -0.233 OA
ENDROOT
BRANCH   3   7
HETATM    7  N3  UNL     1      20.049 -64.392   0.071  1.00  0.00    -0.288 N 
ATOM      8  H3  UNL     1      20.461 -64.943  -0.682  1.00  0.00     0.184 HD
BRANCH   7   9
HETATM    9  N4  UNL     1      20.857 -63.705   0.949  1.00  0.00    -0.133 NA
BRANCH   9  10
HETATM   10  C5  UNL     1      22.222 -64.195   0.973  1.00  0.00     0.129 C 
HETATM   11  C6  UNL     1      23.144 -63.321   1.835  1.00  0.00     0.027 C 
HETATM   12  C7  UNL     1      23.216 -62.389   0.618  1.00  0.00     0.036 C 
HETATM   13  C8  UNL     1      22.985 -63.653  -0.223  1.00  0.00     0.204 C 
BRANCH  13  14
HETATM   14  N5  UNL     1      24.261 -64.315  -0.446  1.00  0.00    -0.073 N 
ATOM     15  H53 UNL     1      24.666 -64.624   0.438  1.00  0.00     0.274 HD
ATOM     16  H52 UNL     1      24.124 -65.221  -0.895  1.00  0.00     0.274 HD
ATOM     17  H51 UNL     1      24.927 -63.749  -0.970  1.00  0.00     0.274 HD
ENDBRANCH  13  14
ENDBRANCH   9  10
ENDBRANCH   7   9
ENDBRANCH   3   7
BRANCH   1  18
HETATM   18  C1  UNL     1      15.418 -65.169   1.746  1.00  0.00     0.146 C 
HETATM   19  N1  UNL     1      15.248 -64.755   2.955  1.00  0.00    -0.385 N 
ATOM     20  H12 UNL     1      14.443 -65.089   3.487  1.00  0.00     0.157 HD
ATOM     21  H11 UNL     1      15.901 -64.102   3.388  1.00  0.00     0.157 HD
HETATM   22  N2  UNL     1      14.507 -66.080   1.143  1.00  0.00    -0.080 NA
ENDBRANCH   1  18
TORSDOF 5
ENDMDL
MODEL 5
REMARK VINA RESULT: -6.229773163      1.012      1.284
REMARK  5 active torsions:
REMARK  status: ('A' for Active; 'I' for Inactive)
REMARK    1  A    between atoms: C1_4  and  C2_6 
REMARK    2  A    between atoms: C4_8  and  N3_9 
REMARK    3  A    between atoms: N3_9  and  N4_11 
REMARK    4  A    between atoms: N4_11  and  C5_12 
REMARK    5  A    between atoms: C8_15  and  N5_16 
ROOT
HETATM    1  C2  UNL     1      16.551 -65.478   0.736  1.00  0.00     0.143 A 
HETATM    2  C3  UNL     1      17.839 -65.761   1.155  1.00  0.00     0.094 A 
HETATM    3  C4  UNL     1      18.683 -64.792   0.657  1.00  0.00     0.140 A 
HETATM    4  N6  UNL     1      17.873 -63.964  -0.044  1.00  0.00    -0.243 N 
ATOM      5  H6  UNL     1      18.181 -63.132  -0.548  1.00  0.00     0.196 HD
HETATM    6  O1  UNL     1      16.650 -64.384   0.021  1.00  0.00    -0.233 OA
ENDROOT
BRANCH   3   7
HETATM    7  N3  UNL     1      20.082 -64.729   0.863  1.00  0.00    -0.288 N 
ATOM      8  H3  UNL     1      20.484 -65.035   1.749  1.00  0.00     0.184 HD
BRANCH   7   9
HETATM    9  N4  UNL     1      20.897 -64.251  -0.138  1.00  0.00    -0.133 NA
BRANCH   9  10
HETATM   10  C5  UNL     1      21.728 -63.140   0.281  1.00  0.00     0.129 C 
HETATM   11  C6  UNL     1      22.727 -62.711  -0.805  1.00  0.00     0.027 C 
HETATM   12  C7  UNL     1      23.587 -63.887  -0.322  1.00  0.00     0.036 C 
HETATM   13  C8  UNL     1      22.933 -63.659   1.048  1.00  0.00     0.204 C 
BRANCH  13  14
HETATM   14  N5  UNL     1      23.662 -62.618   1.756  1.00  0.00    -0.073 N 
ATOM     15  H53 UNL     1      23.951 -61.880   1.115  1.00  0.00     0.274 HD
ATOM     16  H52 UNL     1      23.035 -62.084   2.358  1.00  0.00     0.274 HD
ATOM     17  H51 UNL     1      24.460 -62.969   2.285  1.00  0.00     0.274 HD
ENDBRANCH  13  14
ENDBRANCH   9  10
ENDBRANCH   7   9
ENDBRANCH   3   7
BRANCH   1  18
HETATM   18  C1  UNL     1      15.328 -66.221   1.018  1.00  0.00     0.146 C 
HETATM   19  N1  UNL     1      15.382 -67.252   1.791  1.00  0.00    -0.385 N 
ATOM     20  H12 UNL     1      14.527 -67.772   1.988  1.00  0.00     0.157 HD
ATOM     21  H11 UNL     1      16.263 -67.555   2.207  1.00  0.00     0.157 HD
HETATM   22  N2  UNL     1      14.100 -65.798   0.437  1.00  0.00    -0.080 NA
ENDBRANCH   1  18
TORSDOF 5
ENDMDL
