MODEL 1
REMARK VINA RESULT: -7.223694725      0.000      0.000
REMARK  4 active torsions:
REMARK  status: ('A' for Active; 'I' for Inactive)
REMARK       I    between atoms: N1_1  and  C1_4 
REMARK       I    between atoms: C1_4  and  N3_6 
REMARK    1  A    between atoms: N3_6  and  N4_8 
REMARK    2  A    between atoms: N4_8  and  N5_10 
REMARK    3  A    between atoms: N5_10  and  C2_12 
REMARK    4  A    between atoms: C3_15  and  N7_16 
ROOT
HETATM    1  C2  UNL     1      23.919 -61.999  -0.354  1.00  0.00     0.166 A 
HETATM    2  N6  UNL     1      24.257 -60.957   0.417  1.00  0.00    -0.305 N 
ATOM      3  H6  UNL     1      24.447 -61.005   1.418  1.00  0.00     0.170 HD
HETATM    4  C3  UNL     1      24.308 -59.823  -0.336  1.00  0.00     0.253 A 
HETATM    5  N8  UNL     1      23.991 -60.205  -1.586  1.00  0.00    -0.308 N 
ATOM      6  H8  UNL     1      23.942 -59.578  -2.388  1.00  0.00     0.170 HD
HETATM    7  C4  UNL     1      23.750 -61.518  -1.632  1.00  0.00     0.165 A 
HETATM    8  N9  UNL     1      23.382 -62.303  -2.789  1.00  0.00    -0.078 NA
ENDROOT
BRANCH   1   9
HETATM    9  N5  UNL     1      23.760 -63.352   0.048  1.00  0.00    -0.268 N 
ATOM     10  H5  UNL     1      23.224 -63.556   0.891  1.00  0.00     0.190 HD
BRANCH   9  11
HETATM   11  N4  UNL     1      24.263 -64.315  -0.609  1.00  0.00    -0.239 N 
ATOM     12  H4  UNL     1      25.278 -64.403  -0.642  1.00  0.00     0.208 HD
BRANCH  11  13
HETATM   13  N3  UNL     1      23.494 -65.253  -1.286  1.00  0.00    -0.259 N 
HETATM   14  C1  UNL     1      23.907 -65.839  -2.503  1.00  0.00     0.201 C 
HETATM   15  N1  UNL     1      24.451 -65.105  -3.397  1.00  0.00    -0.372 N 
HETATM   16  N2  UNL     1      23.729 -67.217  -2.747  1.00  0.00    -0.062 NA
ATOM     17  H12 UNL     1      24.749 -65.528  -4.276  1.00  0.00     0.158 HD
ATOM     18  H11 UNL     1      24.580 -64.109  -3.220  1.00  0.00     0.158 HD
ATOM     19  H3  UNL     1      22.596 -65.530  -0.889  1.00  0.00     0.191 HD
ENDBRANCH  11  13
ENDBRANCH   9  11
ENDBRANCH   1   9
BRANCH   4  20
HETATM   20  N7  UNL     1      24.632 -58.525   0.138  1.00  0.00    -0.079 N 
HETATM   21  O1  UNL     1      24.393 -57.546  -0.574  1.00  0.00    -0.529 OA
HETATM   22  O2  UNL     1      25.199 -58.342   1.363  1.00  0.00    -0.529 OA
ENDBRANCH   4  20
TORSDOF 4
ENDMDL
MODEL 2
REMARK VINA RESULT: -7.223095910      8.367      9.556
REMARK  4 active torsions:
REMARK  status: ('A' for Active; 'I' for Inactive)
REMARK       I    between atoms: N1_1  and  C1_4 
REMARK       I    between atoms: C1_4  and  N3_6 
REMARK    1  A    between atoms: N3_6  and  N4_8 
REMARK    2  A    between atoms: N4_8  and  N5_10 
REMARK    3  A    between atoms: N5_10  and  C2_12 
REMARK    4  A    between atoms: C3_15  and  N7_16 
ROOT
HETATM    1  C2  UNL     1      16.525 -65.768   0.837  1.00  0.00     0.166 A 
HETATM    2  N6  UNL     1      15.325 -65.190   0.688  1.00  0.00    -0.305 N 
ATOM      3  H6  UNL     1      15.063 -64.278   1.060  1.00  0.00     0.170 HD
HETATM    4  C3  UNL     1      14.509 -66.005  -0.036  1.00  0.00     0.253 A 
HETATM    5  N8  UNL     1      15.244 -67.094  -0.321  1.00  0.00    -0.308 N 
ATOM      6  H8  UNL     1      14.910 -67.895  -0.857  1.00  0.00     0.170 HD
HETATM    7  C4  UNL     1      16.472 -66.982   0.193  1.00  0.00     0.165 A 
HETATM    8  N9  UNL     1      17.552 -67.939   0.102  1.00  0.00    -0.078 NA
ENDROOT
BRANCH   1   9
HETATM    9  N5  UNL     1      17.653 -65.246   1.526  1.00  0.00    -0.268 N 
ATOM     10  H5  UNL     1      17.507 -64.742   2.401  1.00  0.00     0.190 HD
BRANCH   9  11
HETATM   11  N4  UNL     1      18.836 -65.387   1.087  1.00  0.00    -0.239 N 
ATOM     12  H4  UNL     1      19.252 -66.317   1.102  1.00  0.00     0.208 HD
BRANCH  11  13
HETATM   13  N3  UNL     1      19.589 -64.331   0.588  1.00  0.00    -0.259 N 
HETATM   14  C1  UNL     1      20.999 -64.315   0.637  1.00  0.00     0.201 C 
HETATM   15  N1  UNL     1      21.594 -64.712   1.697  1.00  0.00    -0.372 N 
HETATM   16  N2  UNL     1      21.763 -63.868  -0.463  1.00  0.00    -0.062 NA
ATOM     17  H12 UNL     1      22.613 -64.700   1.732  1.00  0.00     0.158 HD
ATOM     18  H11 UNL     1      21.041 -65.035   2.491  1.00  0.00     0.158 HD
ATOM     19  H3  UNL     1      19.104 -63.537   0.170  1.00  0.00     0.191 HD
ENDBRANCH  11  13
ENDBRANCH   9  11
ENDBRANCH   1   9
BRANCH   4  20
HETATM   20  N7  UNL     1      13.163 -65.727  -0.393  1.00  0.00    -0.079 N 
HETATM   21  O1  UNL     1      12.650 -64.666  -0.026  1.00  0.00    -0.529 OA
HETATM   22  O2  UNL     1      12.432 -66.607  -1.132  1.00  0.00    -0.529 OA
ENDBRANCH   4  20
TORSDOF 4
ENDMDL
MODEL 3
REMARK VINA RESULT: -6.979797923      3.480      6.452
REMARK  4 active torsions:
REMARK  status: ('A' for Active; 'I' for Inactive)
REMARK       I    between atoms: N1_1  and  C1_4 
REMARK       I    between atoms: C1_4  and  N3_6 
REMARK    1  A    between atoms: N3_6  and  N4_8 
REMARK    2  A    between atoms: N4_8  and  N5_10 
REMARK    3  A    between atoms: N5_10  and  C2_12 
REMARK    4  A    between atoms: C3_15  and  N7_16 
ROOT
HETATM    1  C2  UNL     1      24.598 -62.452  -0.804  1.00  0.00     0.166 A 
HETATM    2  N6  UNL     1      24.497 -63.132  -1.954  1.00  0.00    -0.305 N 
ATOM      3  H6  UNL     1      24.711 -62.757  -2.878  1.00  0.00     0.170 HD
HETATM    4  C3  UNL     1      24.066 -64.400  -1.704  1.00  0.00     0.253 A 
HETATM    5  N8  UNL     1      23.908 -64.472  -0.371  1.00  0.00    -0.308 N 
ATOM      6  H8  UNL     1      23.591 -65.301   0.131  1.00  0.00     0.170 HD
HETATM    7  C4  UNL     1      24.222 -63.308   0.206  1.00  0.00     0.165 A 
HETATM    8  N9  UNL     1      24.182 -62.988   1.614  1.00  0.00    -0.078 NA
ENDROOT
BRANCH   1   9
HETATM    9  N5  UNL     1      25.012 -61.104  -0.633  1.00  0.00    -0.268 N 
ATOM     10  H5  UNL     1      25.620 -60.682  -1.335  1.00  0.00     0.190 HD
BRANCH   9  11
HETATM   11  N4  UNL     1      24.649 -60.408   0.365  1.00  0.00    -0.239 N 
ATOM     12  H4  UNL     1      24.790 -60.790   1.300  1.00  0.00     0.208 HD
BRANCH  11  13
HETATM   13  N3  UNL     1      24.069 -59.152   0.241  1.00  0.00    -0.259 N 
HETATM   14  C1  UNL     1      24.724 -57.970   0.647  1.00  0.00     0.201 C 
HETATM   15  N1  UNL     1      25.374 -57.960   1.748  1.00  0.00    -0.372 N 
HETATM   16  N2  UNL     1      24.675 -56.800  -0.141  1.00  0.00    -0.062 NA
ATOM     17  H12 UNL     1      25.848 -57.106   2.041  1.00  0.00     0.158 HD
ATOM     18  H11 UNL     1      25.410 -58.806   2.317  1.00  0.00     0.158 HD
ATOM     19  H3  UNL     1      23.133 -59.081  -0.159  1.00  0.00     0.191 HD
ENDBRANCH  11  13
ENDBRANCH   9  11
ENDBRANCH   1   9
BRANCH   4  20
HETATM   20  N7  UNL     1      23.842 -65.408  -2.679  1.00  0.00    -0.079 N 
HETATM   21  O1  UNL     1      24.624 -65.513  -3.627  1.00  0.00    -0.529 OA
HETATM   22  O2  UNL     1      22.782 -66.257  -2.584  1.00  0.00    -0.529 OA
ENDBRANCH   4  20
TORSDOF 4
ENDMDL
MODEL 4
REMARK VINA RESULT: -6.875735117      8.175      9.163
REMARK  4 active torsions:
REMARK  status: ('A' for Active; 'I' for Inactive)
REMARK       I    between atoms: N1_1  and  C1_4 
REMARK       I    between atoms: C1_4  and  N3_6 
REMARK    1  A    between atoms: N3_6  and  N4_8 
REMARK    2  A    between atoms: N4_8  and  N5_10 
REMARK    3  A    between atoms: N5_10  and  C2_12 
REMARK    4  A    between atoms: C3_15  and  N7_16 
ROOT
HETATM    1  C2  UNL     1      16.951 -65.093   1.354  1.00  0.00     0.166 A 
HETATM    2  N6  UNL     1      16.235 -65.988   0.660  1.00  0.00    -0.305 N 
ATOM      3  H6  UNL     1      16.576 -66.897   0.346  1.00  0.00     0.170 HD
HETATM    4  C3  UNL     1      14.982 -65.503   0.437  1.00  0.00     0.253 A 
HETATM    5  N8  UNL     1      14.957 -64.288   1.013  1.00  0.00    -0.308 N 
ATOM      6  H8  UNL     1      14.149 -63.665   1.017  1.00  0.00     0.170 HD
HETATM    7  C4  UNL     1      16.135 -64.009   1.578  1.00  0.00     0.165 A 
HETATM    8  N9  UNL     1      16.502 -62.808   2.293  1.00  0.00    -0.078 NA
ENDROOT
BRANCH   1   9
HETATM    9  N5  UNL     1      18.299 -65.217   1.786  1.00  0.00    -0.268 N 
ATOM     10  H5  UNL     1      18.502 -65.181   2.785  1.00  0.00     0.190 HD
BRANCH   9  11
HETATM   11  N4  UNL     1      19.257 -65.372   0.968  1.00  0.00    -0.239 N 
ATOM     12  H4  UNL     1      19.492 -66.318   0.668  1.00  0.00     0.208 HD
BRANCH  11  13
HETATM   13  N3  UNL     1      20.001 -64.313   0.464  1.00  0.00    -0.259 N 
HETATM   14  C1  UNL     1      21.406 -64.244   0.588  1.00  0.00     0.201 C 
HETATM   15  N1  UNL     1      21.954 -64.575   1.696  1.00  0.00    -0.372 N 
HETATM   16  N2  UNL     1      22.214 -63.817  -0.487  1.00  0.00    -0.062 NA
ATOM     17  H12 UNL     1      22.968 -64.525   1.785  1.00  0.00     0.158 HD
ATOM     18  H11 UNL     1      21.369 -64.884   2.473  1.00  0.00     0.158 HD
ATOM     19  H3  UNL     1      19.514 -63.555  -0.014  1.00  0.00     0.191 HD
ENDBRANCH  11  13
ENDBRANCH   9  11
ENDBRANCH   1   9
BRANCH   4  20
HETATM   20  N7  UNL     1      13.945 -66.172  -0.266  1.00  0.00    -0.079 N 
HETATM   21  O1  UNL     1      14.020 -67.392  -0.430  1.00  0.00    -0.529 OA
HETATM   22  O2  UNL     1      12.873 -65.491  -0.758  1.00  0.00    -0.529 OA
ENDBRANCH   4  20
TORSDOF 4
ENDMDL
MODEL 5
REMARK VINA RESULT: -6.830600937      8.977     10.360
REMARK  4 active torsions:
REMARK  status: ('A' for Active; 'I' for Inactive)
REMARK       I    between atoms: N1_1  and  C1_4 
REMARK       I    between atoms: C1_4  and  N3_6 
REMARK    1  A    between atoms: N3_6  and  N4_8 
REMARK    2  A    between atoms: N4_8  and  N5_10 
REMARK    3  A    between atoms: N5_10  and  C2_12 
REMARK    4  A    between atoms: C3_15  and  N7_16 
ROOT
HETATM    1  C2  UNL     1      15.523 -66.241   1.155  1.00  0.00     0.166 A 
HETATM    2  N6  UNL     1      16.558 -67.068   0.952  1.00  0.00    -0.305 N 
ATOM      3  H6  UNL     1      17.302 -67.252   1.625  1.00  0.00     0.170 HD
HETATM    4  C3  UNL     1      16.467 -67.626  -0.287  1.00  0.00     0.253 A 
HETATM    5  N8  UNL     1      15.349 -67.115  -0.832  1.00  0.00    -0.308 N 
ATOM      6  H8  UNL     1      15.004 -67.340  -1.765  1.00  0.00     0.170 HD
HETATM    7  C4  UNL     1      14.753 -66.272   0.015  1.00  0.00     0.165 A 
HETATM    8  N9  UNL     1      13.534 -65.526  -0.201  1.00  0.00    -0.078 NA
ENDROOT
BRANCH   1   9
HETATM    9  N5  UNL     1      15.252 -65.468   2.316  1.00  0.00    -0.268 N 
ATOM     10  H5  UNL     1      14.374 -65.615   2.812  1.00  0.00     0.190 HD
BRANCH   9  11
HETATM   11  N4  UNL     1      16.070 -64.602   2.754  1.00  0.00    -0.239 N 
ATOM     12  H4  UNL     1      16.665 -64.851   3.545  1.00  0.00     0.208 HD
BRANCH  11  13
HETATM   13  N3  UNL     1      16.191 -63.330   2.208  1.00  0.00    -0.259 N 
HETATM   14  C1  UNL     1      16.913 -63.079   1.021  1.00  0.00     0.201 C 
HETATM   15  N1  UNL     1      18.038 -63.660   0.838  1.00  0.00    -0.372 N 
HETATM   16  N2  UNL     1      16.416 -62.201   0.035  1.00  0.00    -0.062 NA
ATOM     17  H12 UNL     1      18.559 -63.478  -0.020  1.00  0.00     0.158 HD
ATOM     18  H11 UNL     1      18.397 -64.295   1.550  1.00  0.00     0.158 HD
ATOM     19  H3  UNL     1      15.742 -62.547   2.683  1.00  0.00     0.191 HD
ENDBRANCH  11  13
ENDBRANCH   9  11
ENDBRANCH   1   9
BRANCH   4  20
HETATM   20  N7  UNL     1      17.384 -68.552  -0.850  1.00  0.00    -0.079 N 
HETATM   21  O1  UNL     1      18.330 -68.953  -0.167  1.00  0.00    -0.529 OA
HETATM   22  O2  UNL     1      17.237 -69.003  -2.127  1.00  0.00    -0.529 OA
ENDBRANCH   4  20
TORSDOF 4
ENDMDL
