MODEL 1
REMARK VINA RESULT: -6.512969971      0.000      0.000
REMARK  7 active torsions:
REMARK  status: ('A' for Active; 'I' for Inactive)
REMARK    1  A    between atoms: N2_3  and  N3_4 
REMARK    2  A    between atoms: N2_3  and  C3_8 
REMARK    3  A    between atoms: N3_4  and  C2_6 
REMARK    4  A    between atoms: C4_11  and  N5_12 
REMARK    5  A    between atoms: C5_17  and  N7_18 
REMARK    6  A    between atoms: C6_21  and  N8_22 
REMARK    7  A    between atoms: N8_22  and  O2_24 
ROOT
HETATM    1  N1  UNL     1      16.354 -61.778  -0.031  1.00  0.00    -0.170 NA
HETATM    2  C1  UNL     1      16.928 -62.767   0.246  1.00  0.00     0.207 C 
HETATM    3  N2  UNL     1      17.588 -63.952   0.591  1.00  0.00    -0.168 N 
ENDROOT
BRANCH   3   4
HETATM    4  N3  UNL     1      18.847 -63.869   1.169  1.00  0.00    -0.260 N 
ATOM      5  H3  UNL     1      18.988 -63.315   2.013  1.00  0.00     0.190 HD
BRANCH   4   6
HETATM    6  C2  UNL     1      19.928 -64.554   0.585  1.00  0.00     0.369 C 
HETATM    7  O1  UNL     1      20.618 -63.939  -0.290  1.00  0.00    -0.282 OA
ENDBRANCH   4   6
ENDBRANCH   3   4
BRANCH   3   8
HETATM    8  C3  UNL     1      17.029 -65.231   0.386  1.00  0.00     0.185 A 
HETATM    9  N4  UNL     1      17.322 -65.923  -0.730  1.00  0.00    -0.172 N 
HETATM   10  C4  UNL     1      16.771 -67.161  -0.901  1.00  0.00     0.679 A 
ATOM     11  H4  UNL     1      17.945 -65.530  -1.436  1.00  0.00     0.186 HD
HETATM   12  N6  UNL     1      15.959 -67.656   0.029  1.00  0.00    -0.175 N 
HETATM   13  C5  UNL     1      15.642 -66.992   1.156  1.00  0.00     0.147 A 
ATOM     14  H6  UNL     1      15.557 -68.582  -0.118  1.00  0.00     0.186 HD
HETATM   15  C6  UNL     1      16.187 -65.744   1.351  1.00  0.00     0.145 A 
BRANCH  10  16
HETATM   16  N5  UNL     1      17.069 -67.815  -1.986  1.00  0.00    -0.234 N 
ATOM     17  H52 UNL     1      17.296 -67.345  -2.862  1.00  0.00     0.174 HD
ATOM     18  H51 UNL     1      17.071 -68.834  -1.942  1.00  0.00     0.174 HD
ENDBRANCH  10  16
BRANCH  13  19
HETATM   19  N7  UNL     1      14.856 -67.526   2.008  1.00  0.00    -0.383 N 
ATOM     20  H72 UNL     1      14.448 -68.450   1.861  1.00  0.00     0.157 HD
ATOM     21  H71 UNL     1      14.620 -67.025   2.864  1.00  0.00     0.157 HD
ENDBRANCH  13  19
BRANCH  15  22
HETATM   22  N8  UNL     1      15.864 -65.024   2.541  1.00  0.00    -0.262 N 
ATOM     23  H8  UNL     1      16.564 -64.978   3.283  1.00  0.00     0.194 HD
BRANCH  22  24
HETATM   24  O2  UNL     1      14.768 -64.445   2.723  1.00  0.00    -0.289 OA
ATOM     25  H2  UNL     1      14.642 -63.748   3.356  1.00  0.00     0.244 HD
ENDBRANCH  22  24
ENDBRANCH  15  22
ENDBRANCH   3   8
TORSDOF 7
ENDMDL
MODEL 2
REMARK VINA RESULT: -6.459147097      1.478      2.181
REMARK  7 active torsions:
REMARK  status: ('A' for Active; 'I' for Inactive)
REMARK    1  A    between atoms: N2_3  and  N3_4 
REMARK    2  A    between atoms: N2_3  and  C3_8 
REMARK    3  A    between atoms: N3_4  and  C2_6 
REMARK    4  A    between atoms: C4_11  and  N5_12 
REMARK    5  A    between atoms: C5_17  and  N7_18 
REMARK    6  A    between atoms: C6_21  and  N8_22 
REMARK    7  A    between atoms: N8_22  and  O2_24 
ROOT
HETATM    1  N1  UNL     1      20.275 -64.167   0.723  1.00  0.00    -0.170 NA
HETATM    2  C1  UNL     1      19.118 -64.264   0.524  1.00  0.00     0.207 C 
HETATM    3  N2  UNL     1      17.750 -64.398   0.265  1.00  0.00    -0.168 N 
ENDROOT
BRANCH   3   4
HETATM    4  N3  UNL     1      16.987 -63.250   0.103  1.00  0.00    -0.260 N 
ATOM      5  H3  UNL     1      16.405 -63.136  -0.726  1.00  0.00     0.190 HD
BRANCH   4   6
HETATM    6  C2  UNL     1      17.021 -62.246   1.087  1.00  0.00     0.369 C 
HETATM    7  O1  UNL     1      16.376 -62.449   2.166  1.00  0.00    -0.282 OA
ENDBRANCH   4   6
ENDBRANCH   3   4
BRANCH   3   8
HETATM    8  C3  UNL     1      17.107 -65.650   0.154  1.00  0.00     0.185 A 
HETATM    9  N4  UNL     1      17.343 -66.435  -0.912  1.00  0.00    -0.172 N 
HETATM   10  C4  UNL     1      16.710 -67.644  -0.991  1.00  0.00     0.679 A 
ATOM     11  H4  UNL     1      17.982 -66.135  -1.648  1.00  0.00     0.186 HD
HETATM   12  N6  UNL     1      15.878 -68.018  -0.023  1.00  0.00    -0.175 N 
HETATM   13  C5  UNL     1      15.618 -67.258   1.056  1.00  0.00     0.147 A 
ATOM     14  H6  UNL     1      15.415 -68.923  -0.102  1.00  0.00     0.186 HD
HETATM   15  C6  UNL     1      16.245 -66.037   1.158  1.00  0.00     0.145 A 
BRANCH  10  16
HETATM   16  N5  UNL     1      16.952 -68.390  -2.030  1.00  0.00    -0.234 N 
ATOM     17  H52 UNL     1      17.709 -68.189  -2.683  1.00  0.00     0.174 HD
ATOM     18  H51 UNL     1      16.355 -69.203  -2.181  1.00  0.00     0.174 HD
ENDBRANCH  10  16
BRANCH  13  19
HETATM   19  N7  UNL     1      14.808 -67.678   1.949  1.00  0.00    -0.383 N 
ATOM     20  H72 UNL     1      14.211 -68.492   1.796  1.00  0.00     0.157 HD
ATOM     21  H71 UNL     1      14.745 -67.195   2.845  1.00  0.00     0.157 HD
ENDBRANCH  13  19
BRANCH  15  22
HETATM   22  N8  UNL     1      15.983 -65.216   2.297  1.00  0.00    -0.262 N 
ATOM     23  H8  UNL     1      16.773 -64.918   2.871  1.00  0.00     0.194 HD
BRANCH  22  24
HETATM   24  O2  UNL     1      14.835 -64.841   2.629  1.00  0.00    -0.289 OA
ATOM     25  H2  UNL     1      14.130 -65.441   2.846  1.00  0.00     0.244 HD
ENDBRANCH  22  24
ENDBRANCH  15  22
ENDBRANCH   3   8
TORSDOF 7
ENDMDL
MODEL 3
REMARK VINA RESULT: -6.392377210      2.161      2.384
REMARK  7 active torsions:
REMARK  status: ('A' for Active; 'I' for Inactive)
REMARK    1  A    between atoms: N2_3  and  N3_4 
REMARK    2  A    between atoms: N2_3  and  C3_8 
REMARK    3  A    between atoms: N3_4  and  C2_6 
REMARK    4  A    between atoms: C4_11  and  N5_12 
REMARK    5  A    between atoms: C5_17  and  N7_18 
REMARK    6  A    between atoms: C6_21  and  N8_22 
REMARK    7  A    between atoms: N8_22  and  O2_24 
ROOT
HETATM    1  N1  UNL     1      17.153 -62.667  -1.390  1.00  0.00    -0.170 NA
HETATM    2  C1  UNL     1      17.197 -63.607  -0.682  1.00  0.00     0.207 C 
HETATM    3  N2  UNL     1      17.222 -64.731   0.150  1.00  0.00    -0.168 N 
ENDROOT
BRANCH   3   4
HETATM    4  N3  UNL     1      17.470 -64.552   1.504  1.00  0.00    -0.260 N 
ATOM      5  H3  UNL     1      18.180 -65.114   1.973  1.00  0.00     0.190 HD
BRANCH   4   6
HETATM    6  C2  UNL     1      16.739 -63.592   2.227  1.00  0.00     0.369 C 
HETATM    7  O1  UNL     1      15.578 -63.916   2.638  1.00  0.00    -0.282 OA
ENDBRANCH   4   6
ENDBRANCH   3   4
BRANCH   3   8
HETATM    8  C3  UNL     1      17.001 -66.042  -0.321  1.00  0.00     0.185 A 
HETATM    9  N4  UNL     1      17.989 -66.710  -0.944  1.00  0.00    -0.172 N 
HETATM   10  C4  UNL     1      17.748 -67.980  -1.386  1.00  0.00     0.679 A 
ATOM     11  H4  UNL     1      18.901 -66.276  -1.084  1.00  0.00     0.186 HD
HETATM   12  N6  UNL     1      16.551 -68.529  -1.197  1.00  0.00    -0.175 N 
HETATM   13  C5  UNL     1      15.540 -67.891  -0.580  1.00  0.00     0.147 A 
ATOM     14  H6  UNL     1      16.392 -69.477  -1.536  1.00  0.00     0.186 HD
HETATM   15  C6  UNL     1      15.760 -66.611  -0.125  1.00  0.00     0.145 A 
BRANCH  10  16
HETATM   16  N5  UNL     1      18.717 -68.610  -1.984  1.00  0.00    -0.234 N 
ATOM     17  H52 UNL     1      19.698 -68.433  -1.770  1.00  0.00     0.174 HD
ATOM     18  H51 UNL     1      18.470 -69.303  -2.690  1.00  0.00     0.174 HD
ENDBRANCH  10  16
BRANCH  13  19
HETATM   19  N7  UNL     1      14.415 -68.476  -0.432  1.00  0.00    -0.383 N 
ATOM     20  H72 UNL     1      14.342 -69.490  -0.343  1.00  0.00     0.157 HD
ATOM     21  H71 UNL     1      13.557 -67.926  -0.400  1.00  0.00     0.157 HD
ENDBRANCH  13  19
BRANCH  15  22
HETATM   22  N8  UNL     1      14.699 -65.917   0.534  1.00  0.00    -0.262 N 
ATOM     23  H8  UNL     1      14.279 -65.116   0.061  1.00  0.00     0.194 HD
BRANCH  22  24
HETATM   24  O2  UNL     1      14.258 -66.239   1.661  1.00  0.00    -0.289 OA
ATOM     25  H2  UNL     1      14.202 -65.637   2.394  1.00  0.00     0.244 HD
ENDBRANCH  22  24
ENDBRANCH  15  22
ENDBRANCH   3   8
TORSDOF 7
ENDMDL
MODEL 4
REMARK VINA RESULT: -6.098995329      4.951      8.071
REMARK  7 active torsions:
REMARK  status: ('A' for Active; 'I' for Inactive)
REMARK    1  A    between atoms: N2_3  and  N3_4 
REMARK    2  A    between atoms: N2_3  and  C3_8 
REMARK    3  A    between atoms: N3_4  and  C2_6 
REMARK    4  A    between atoms: C4_11  and  N5_12 
REMARK    5  A    between atoms: C5_17  and  N7_18 
REMARK    6  A    between atoms: C6_21  and  N8_22 
REMARK    7  A    between atoms: N8_22  and  O2_24 
ROOT
HETATM    1  N1  UNL     1      19.891 -64.379   0.695  1.00  0.00    -0.170 NA
HETATM    2  C1  UNL     1      20.997 -64.093   0.977  1.00  0.00     0.207 C 
HETATM    3  N2  UNL     1      22.321 -63.765   1.288  1.00  0.00    -0.168 N 
ENDROOT
BRANCH   3   4
HETATM    4  N3  UNL     1      22.829 -64.144   2.523  1.00  0.00    -0.260 N 
ATOM      5  H3  UNL     1      22.309 -64.793   3.113  1.00  0.00     0.190 HD
BRANCH   4   6
HETATM    6  C2  UNL     1      24.064 -63.630   2.957  1.00  0.00     0.369 C 
HETATM    7  O1  UNL     1      24.053 -62.556   3.641  1.00  0.00    -0.282 OA
ENDBRANCH   4   6
ENDBRANCH   3   4
BRANCH   3   8
HETATM    8  C3  UNL     1      23.171 -63.071   0.401  1.00  0.00     0.185 A 
HETATM    9  N4  UNL     1      23.485 -61.784   0.638  1.00  0.00    -0.172 N 
HETATM   10  C4  UNL     1      24.314 -61.138  -0.236  1.00  0.00     0.679 A 
ATOM     11  H4  UNL     1      23.113 -61.300   1.454  1.00  0.00     0.186 HD
HETATM   12  N6  UNL     1      24.789 -61.785  -1.297  1.00  0.00    -0.175 N 
HETATM   13  C5  UNL     1      24.495 -63.070  -1.566  1.00  0.00     0.147 A 
ATOM     14  H6  UNL     1      25.405 -61.284  -1.937  1.00  0.00     0.186 HD
HETATM   15  C6  UNL     1      23.663 -63.742  -0.699  1.00  0.00     0.145 A 
BRANCH  10  16
HETATM   16  N5  UNL     1      24.608 -59.895   0.012  1.00  0.00    -0.234 N 
ATOM     17  H52 UNL     1      25.526 -59.499  -0.190  1.00  0.00     0.174 HD
ATOM     18  H51 UNL     1      23.883 -59.307   0.422  1.00  0.00     0.174 HD
ENDBRANCH  10  16
BRANCH  13  19
HETATM   19  N7  UNL     1      24.985 -63.631  -2.602  1.00  0.00    -0.383 N 
ATOM     20  H72 UNL     1      25.759 -64.293  -2.542  1.00  0.00     0.157 HD
ATOM     21  H71 UNL     1      24.602 -63.419  -3.523  1.00  0.00     0.157 HD
ENDBRANCH  13  19
BRANCH  15  22
HETATM   22  N8  UNL     1      23.340 -65.108  -0.966  1.00  0.00    -0.262 N 
ATOM     23  H8  UNL     1      22.360 -65.391  -0.915  1.00  0.00     0.194 HD
BRANCH  22  24
HETATM   24  O2  UNL     1      24.194 -65.975  -1.260  1.00  0.00    -0.289 OA
ATOM     25  H2  UNL     1      25.040 -65.770  -1.641  1.00  0.00     0.244 HD
ENDBRANCH  22  24
ENDBRANCH  15  22
ENDBRANCH   3   8
TORSDOF 7
ENDMDL
MODEL 5
REMARK VINA RESULT: -5.861751977      5.455      8.188
REMARK  7 active torsions:
REMARK  status: ('A' for Active; 'I' for Inactive)
REMARK    1  A    between atoms: N2_3  and  N3_4 
REMARK    2  A    between atoms: N2_3  and  C3_8 
REMARK    3  A    between atoms: N3_4  and  C2_6 
REMARK    4  A    between atoms: C4_11  and  N5_12 
REMARK    5  A    between atoms: C5_17  and  N7_18 
REMARK    6  A    between atoms: C6_21  and  N8_22 
REMARK    7  A    between atoms: N8_22  and  O2_24 
ROOT
HETATM    1  N1  UNL     1      24.193 -62.907   3.607  1.00  0.00    -0.170 NA
HETATM    2  C1  UNL     1      23.718 -63.190   2.567  1.00  0.00     0.207 C 
HETATM    3  N2  UNL     1      23.149 -63.498   1.327  1.00  0.00    -0.168 N 
ENDROOT
BRANCH   3   4
HETATM    4  N3  UNL     1      22.105 -64.411   1.281  1.00  0.00    -0.260 N 
ATOM      5  H3  UNL     1      22.206 -65.327   1.717  1.00  0.00     0.190 HD
BRANCH   4   6
HETATM    6  C2  UNL     1      20.906 -64.067   0.630  1.00  0.00     0.369 C 
HETATM    7  O1  UNL     1      20.660 -64.619  -0.491  1.00  0.00    -0.282 OA
ENDBRANCH   4   6
ENDBRANCH   3   4
BRANCH   3   8
HETATM    8  C3  UNL     1      23.583 -62.917   0.116  1.00  0.00     0.185 A 
HETATM    9  N4  UNL     1      23.567 -61.581  -0.034  1.00  0.00    -0.172 N 
HETATM   10  C4  UNL     1      23.998 -61.046  -1.215  1.00  0.00     0.679 A 
ATOM     11  H4  UNL     1      23.239 -60.977   0.720  1.00  0.00     0.186 HD
HETATM   12  N6  UNL     1      24.420 -61.849  -2.189  1.00  0.00    -0.175 N 
HETATM   13  C5  UNL     1      24.449 -63.189  -2.074  1.00  0.00     0.147 A 
ATOM     14  H6  UNL     1      24.736 -61.429  -3.063  1.00  0.00     0.186 HD
HETATM   15  C6  UNL     1      24.022 -63.750  -0.892  1.00  0.00     0.145 A 
BRANCH  10  16
HETATM   16  N5  UNL     1      23.976 -59.751  -1.340  1.00  0.00    -0.234 N 
ATOM     17  H52 UNL     1      24.465 -59.131  -0.695  1.00  0.00     0.174 HD
ATOM     18  H51 UNL     1      23.446 -59.357  -2.117  1.00  0.00     0.174 HD
ENDBRANCH  10  16
BRANCH  13  19
HETATM   19  N7  UNL     1      24.866 -63.901  -3.048  1.00  0.00    -0.383 N 
ATOM     20  H72 UNL     1      25.860 -64.065  -3.209  1.00  0.00     0.157 HD
ATOM     21  H71 UNL     1      24.197 -64.323  -3.691  1.00  0.00     0.157 HD
ENDBRANCH  13  19
BRANCH  15  22
HETATM   22  N8  UNL     1      24.046 -65.172  -0.751  1.00  0.00    -0.262 N 
ATOM     23  H8  UNL     1      24.724 -65.582  -0.108  1.00  0.00     0.194 HD
BRANCH  22  24
HETATM   24  O2  UNL     1      23.278 -65.941  -1.373  1.00  0.00    -0.289 OA
ATOM     25  H2  UNL     1      23.280 -66.885  -1.264  1.00  0.00     0.244 HD
ENDBRANCH  22  24
ENDBRANCH  15  22
ENDBRANCH   3   8
TORSDOF 7
ENDMDL
