MODEL 1
REMARK VINA RESULT: -6.593042649      0.000      0.000
REMARK  4 active torsions:
REMARK  status: ('A' for Active; 'I' for Inactive)
REMARK       I    between atoms: C1_4  and  N2_5 
REMARK       I    between atoms: C1_4  and  N7_20 
REMARK    1  A    between atoms: N2_5  and  C2_7 
REMARK    2  A    between atoms: C5_14  and  N5_15 
REMARK    3  A    between atoms: N5_15  and  N6_17 
REMARK    4  A    between atoms: N7_20  and  N8_22 
ROOT
HETATM    1  C2  UNL     1      23.443 -62.942   0.685  1.00  0.00     0.110 A 
HETATM    2  C3  UNL     1      22.421 -63.096  -0.230  1.00  0.00     0.122 A 
HETATM    3  N3  UNL     1      21.371 -63.867   0.059  1.00  0.00    -0.360 N 
ATOM      4  H3  UNL     1      20.624 -63.969  -0.628  1.00  0.00     0.166 HD
HETATM    5  C4  UNL     1      21.276 -64.510   1.232  1.00  0.00     0.182 A 
HETATM    6  N4  UNL     1      22.256 -64.376   2.135  1.00  0.00    -0.336 N 
ATOM      7  H4  UNL     1      22.185 -64.865   3.028  1.00  0.00     0.168 HD
HETATM    8  C5  UNL     1      23.335 -63.607   1.886  1.00  0.00     0.149 A 
ENDROOT
BRANCH   1   9
HETATM    9  N2  UNL     1      24.578 -62.133   0.430  1.00  0.00    -0.186 N 
HETATM   10  C1  UNL     1      24.772 -61.451  -0.798  1.00  0.00     0.695 C 
HETATM   11  N1  UNL     1      25.503 -61.988  -1.702  1.00  0.00    -0.233 N 
HETATM   12  N7  UNL     1      24.184 -60.194  -1.060  1.00  0.00    -0.072 N 
ATOM     13  H12 UNL     1      25.928 -62.896  -1.513  1.00  0.00     0.174 HD
ATOM     14  H11 UNL     1      25.643 -61.498  -2.586  1.00  0.00     0.174 HD
ATOM     15  H7  UNL     1      23.698 -60.038  -1.943  1.00  0.00     0.212 HD
ATOM     16  H2  UNL     1      25.284 -62.037   1.159  1.00  0.00     0.184 HD
BRANCH  12  17
HETATM   17  N8  UNL     1      24.261 -59.161  -0.121  1.00  0.00    -0.024 N 
HETATM   18  O1  UNL     1      24.177 -59.382   1.082  1.00  0.00    -0.516 OA
HETATM   19  O2  UNL     1      24.437 -57.870  -0.577  1.00  0.00    -0.516 OA
ENDBRANCH  12  17
ENDBRANCH   1   9
BRANCH   8  20
HETATM   20  N5  UNL     1      24.361 -63.493   2.880  1.00  0.00    -0.290 N 
ATOM     21  H5  UNL     1      25.215 -64.037   2.757  1.00  0.00     0.188 HD
BRANCH  20  22
HETATM   22  N6  UNL     1      24.253 -62.683   3.996  1.00  0.00    -0.344 N 
ATOM     23  H62 UNL     1      24.129 -61.683   3.838  1.00  0.00     0.176 HD
ATOM     24  H61 UNL     1      24.290 -63.037   4.952  1.00  0.00     0.176 HD
ENDBRANCH  20  22
ENDBRANCH   8  20
TORSDOF 4
ENDMDL
MODEL 2
REMARK VINA RESULT: -6.268458954      6.359      8.444
REMARK  4 active torsions:
REMARK  status: ('A' for Active; 'I' for Inactive)
REMARK       I    between atoms: C1_4  and  N2_5 
REMARK       I    between atoms: C1_4  and  N7_20 
REMARK    1  A    between atoms: N2_5  and  C2_7 
REMARK    2  A    between atoms: C5_14  and  N5_15 
REMARK    3  A    between atoms: N5_15  and  N6_17 
REMARK    4  A    between atoms: N7_20  and  N8_22 
ROOT
HETATM    1  C2  UNL     1      17.517 -67.106  -0.054  1.00  0.00     0.110 A 
HETATM    2  C3  UNL     1      18.482 -67.659  -0.873  1.00  0.00     0.122 A 
HETATM    3  N3  UNL     1      18.156 -68.621  -1.738  1.00  0.00    -0.360 N 
ATOM      4  H3  UNL     1      18.880 -69.019  -2.337  1.00  0.00     0.166 HD
HETATM    5  C4  UNL     1      16.898 -69.077  -1.839  1.00  0.00     0.182 A 
HETATM    6  N4  UNL     1      15.946 -68.555  -1.054  1.00  0.00    -0.336 N 
ATOM      7  H4  UNL     1      14.990 -68.901  -1.130  1.00  0.00     0.168 HD
HETATM    8  C5  UNL     1      16.230 -67.582  -0.165  1.00  0.00     0.149 A 
ENDROOT
BRANCH   1   9
HETATM    9  N2  UNL     1      17.809 -66.081   0.880  1.00  0.00    -0.186 N 
HETATM   10  C1  UNL     1      18.033 -64.735   0.495  1.00  0.00     0.695 C 
HETATM   11  N1  UNL     1      19.235 -64.322   0.338  1.00  0.00    -0.233 N 
HETATM   12  N7  UNL     1      16.971 -63.829   0.279  1.00  0.00    -0.072 N 
ATOM     13  H12 UNL     1      20.003 -64.976   0.494  1.00  0.00     0.174 HD
ATOM     14  H11 UNL     1      19.397 -63.353   0.061  1.00  0.00     0.174 HD
ATOM     15  H7  UNL     1      16.962 -63.254  -0.564  1.00  0.00     0.212 HD
ATOM     16  H2  UNL     1      17.860 -66.321   1.870  1.00  0.00     0.184 HD
BRANCH  12  17
HETATM   17  N8  UNL     1      15.932 -63.713   1.207  1.00  0.00    -0.024 N 
HETATM   18  O1  UNL     1      14.866 -64.296   1.051  1.00  0.00    -0.516 OA
HETATM   19  O2  UNL     1      16.130 -62.919   2.319  1.00  0.00    -0.516 OA
ENDBRANCH  12  17
ENDBRANCH   1   9
BRANCH   8  20
HETATM   20  N5  UNL     1      15.182 -67.053   0.657  1.00  0.00    -0.290 N 
ATOM     21  H5  UNL     1      14.572 -66.338   0.261  1.00  0.00     0.188 HD
BRANCH  20  22
HETATM   22  N6  UNL     1      14.955 -67.463   1.959  1.00  0.00    -0.344 N 
ATOM     23  H62 UNL     1      15.335 -68.368   2.237  1.00  0.00     0.176 HD
ATOM     24  H61 UNL     1      14.434 -66.910   2.639  1.00  0.00     0.176 HD
ENDBRANCH  20  22
ENDBRANCH   8  20
TORSDOF 4
ENDMDL
MODEL 3
REMARK VINA RESULT: -6.263309284      7.904      9.460
REMARK  4 active torsions:
REMARK  status: ('A' for Active; 'I' for Inactive)
REMARK       I    between atoms: C1_4  and  N2_5 
REMARK       I    between atoms: C1_4  and  N7_20 
REMARK    1  A    between atoms: N2_5  and  C2_7 
REMARK    2  A    between atoms: C5_14  and  N5_15 
REMARK    3  A    between atoms: N5_15  and  N6_17 
REMARK    4  A    between atoms: N7_20  and  N8_22 
ROOT
HETATM    1  C2  UNL     1      16.085 -67.336  -0.832  1.00  0.00     0.110 A 
HETATM    2  C3  UNL     1      16.410 -68.670  -0.977  1.00  0.00     0.122 A 
HETATM    3  N3  UNL     1      17.408 -69.034  -1.784  1.00  0.00    -0.360 N 
ATOM      4  H3  UNL     1      17.635 -70.024  -1.879  1.00  0.00     0.166 HD
HETATM    5  C4  UNL     1      18.119 -68.129  -2.472  1.00  0.00     0.182 A 
HETATM    6  N4  UNL     1      17.821 -66.828  -2.348  1.00  0.00    -0.336 N 
ATOM      7  H4  UNL     1      18.361 -66.139  -2.871  1.00  0.00     0.168 HD
HETATM    8  C5  UNL     1      16.820 -66.415  -1.544  1.00  0.00     0.149 A 
ENDROOT
BRANCH   1   9
HETATM    9  N2  UNL     1      15.036 -66.895   0.013  1.00  0.00    -0.186 N 
HETATM   10  C1  UNL     1      15.162 -66.838   1.424  1.00  0.00     0.695 C 
HETATM   11  N1  UNL     1      14.725 -67.812   2.131  1.00  0.00    -0.233 N 
HETATM   12  N7  UNL     1      15.757 -65.737   2.080  1.00  0.00    -0.072 N 
ATOM     13  H12 UNL     1      14.296 -68.607   1.657  1.00  0.00     0.174 HD
ATOM     14  H11 UNL     1      14.815 -67.770   3.147  1.00  0.00     0.174 HD
ATOM     15  H7  UNL     1      16.460 -65.898   2.800  1.00  0.00     0.212 HD
ATOM     16  H2  UNL     1      14.154 -66.608  -0.411  1.00  0.00     0.184 HD
BRANCH  12  17
HETATM   17  N8  UNL     1      15.390 -64.428   1.752  1.00  0.00    -0.024 N 
HETATM   18  O1  UNL     1      14.656 -64.189   0.800  1.00  0.00    -0.516 OA
HETATM   19  O2  UNL     1      15.876 -63.395   2.528  1.00  0.00    -0.516 OA
ENDBRANCH  12  17
ENDBRANCH   1   9
BRANCH   8  20
HETATM   20  N5  UNL     1      16.534 -65.015  -1.442  1.00  0.00    -0.290 N 
ATOM     21  H5  UNL     1      15.692 -64.659  -1.892  1.00  0.00     0.188 HD
BRANCH  20  22
HETATM   22  N6  UNL     1      17.343 -64.120  -0.762  1.00  0.00    -0.344 N 
ATOM     23  H62 UNL     1      16.952 -63.673   0.067  1.00  0.00     0.176 HD
ATOM     24  H61 UNL     1      18.295 -63.895  -1.049  1.00  0.00     0.176 HD
ENDBRANCH  20  22
ENDBRANCH   8  20
TORSDOF 4
ENDMDL
MODEL 4
REMARK VINA RESULT: -6.030090827      6.277      8.470
REMARK  4 active torsions:
REMARK  status: ('A' for Active; 'I' for Inactive)
REMARK       I    between atoms: C1_4  and  N2_5 
REMARK       I    between atoms: C1_4  and  N7_20 
REMARK    1  A    between atoms: N2_5  and  C2_7 
REMARK    2  A    between atoms: C5_14  and  N5_15 
REMARK    3  A    between atoms: N5_15  and  N6_17 
REMARK    4  A    between atoms: N7_20  and  N8_22 
ROOT
HETATM    1  C2  UNL     1      17.242 -67.279   0.293  1.00  0.00     0.110 A 
HETATM    2  C3  UNL     1      18.237 -68.081  -0.230  1.00  0.00     0.122 A 
HETATM    3  N3  UNL     1      17.950 -68.971  -1.181  1.00  0.00    -0.360 N 
ATOM      4  H3  UNL     1      18.696 -69.556  -1.557  1.00  0.00     0.166 HD
HETATM    5  C4  UNL     1      16.703 -69.115  -1.654  1.00  0.00     0.182 A 
HETATM    6  N4  UNL     1      15.722 -68.347  -1.161  1.00  0.00    -0.336 N 
ATOM      7  H4  UNL     1      14.773 -68.455  -1.520  1.00  0.00     0.168 HD
HETATM    8  C5  UNL     1      15.965 -67.435  -0.199  1.00  0.00     0.149 A 
ENDROOT
BRANCH   1   9
HETATM    9  N2  UNL     1      17.493 -66.316   1.302  1.00  0.00    -0.186 N 
HETATM   10  C1  UNL     1      18.308 -65.176   1.088  1.00  0.00     0.695 C 
HETATM   11  N1  UNL     1      19.539 -65.213   1.439  1.00  0.00    -0.233 N 
HETATM   12  N7  UNL     1      17.806 -63.994   0.498  1.00  0.00    -0.072 N 
ATOM     13  H12 UNL     1      19.902 -66.066   1.864  1.00  0.00     0.174 HD
ATOM     14  H11 UNL     1      20.126 -64.393   1.284  1.00  0.00     0.174 HD
ATOM     15  H7  UNL     1      18.327 -63.547  -0.257  1.00  0.00     0.212 HD
ATOM     16  H2  UNL     1      17.070 -66.448   2.220  1.00  0.00     0.184 HD
BRANCH  12  17
HETATM   17  N8  UNL     1      16.604 -63.432   0.938  1.00  0.00    -0.024 N 
HETATM   18  O1  UNL     1      15.525 -63.789   0.479  1.00  0.00    -0.516 OA
HETATM   19  O2  UNL     1      16.653 -62.454   1.911  1.00  0.00    -0.516 OA
ENDBRANCH  12  17
ENDBRANCH   1   9
BRANCH   8  20
HETATM   20  N5  UNL     1      14.887 -66.635   0.301  1.00  0.00    -0.290 N 
ATOM     21  H5  UNL     1      14.768 -66.561   1.311  1.00  0.00     0.188 HD
BRANCH  20  22
HETATM   22  N6  UNL     1      13.998 -65.958  -0.516  1.00  0.00    -0.344 N 
ATOM     23  H62 UNL     1      14.318 -65.084  -0.932  1.00  0.00     0.176 HD
ATOM     24  H61 UNL     1      13.056 -66.292  -0.717  1.00  0.00     0.176 HD
ENDBRANCH  20  22
ENDBRANCH   8  20
TORSDOF 4
ENDMDL
MODEL 5
REMARK VINA RESULT: -5.858322703      1.582      2.636
REMARK  4 active torsions:
REMARK  status: ('A' for Active; 'I' for Inactive)
REMARK       I    between atoms: C1_4  and  N2_5 
REMARK       I    between atoms: C1_4  and  N7_20 
REMARK    1  A    between atoms: N2_5  and  C2_7 
REMARK    2  A    between atoms: C5_14  and  N5_15 
REMARK    3  A    between atoms: N5_15  and  N6_17 
REMARK    4  A    between atoms: N7_20  and  N8_22 
ROOT
HETATM    1  C2  UNL     1      23.899 -62.282  -0.028  1.00  0.00     0.110 A 
HETATM    2  C3  UNL     1      23.181 -61.983   1.113  1.00  0.00     0.122 A 
HETATM    3  N3  UNL     1      22.418 -62.914   1.689  1.00  0.00    -0.360 N 
ATOM      4  H3  UNL     1      21.894 -62.677   2.532  1.00  0.00     0.166 HD
HETATM    5  C4  UNL     1      22.324 -64.154   1.186  1.00  0.00     0.182 A 
HETATM    6  N4  UNL     1      23.012 -64.466   0.079  1.00  0.00    -0.336 N 
ATOM      7  H4  UNL     1      22.942 -65.409  -0.304  1.00  0.00     0.168 HD
HETATM    8  C5  UNL     1      23.795 -63.558  -0.537  1.00  0.00     0.149 A 
ENDROOT
BRANCH   1   9
HETATM    9  N2  UNL     1      24.725 -61.332  -0.678  1.00  0.00    -0.186 N 
HETATM   10  C1  UNL     1      24.206 -60.308  -1.511  1.00  0.00     0.695 C 
HETATM   11  N1  UNL     1      24.176 -60.488  -2.778  1.00  0.00    -0.233 N 
HETATM   12  N7  UNL     1      23.720 -59.089  -0.987  1.00  0.00    -0.072 N 
ATOM     13  H12 UNL     1      24.527 -61.369  -3.156  1.00  0.00     0.174 HD
ATOM     14  H11 UNL     1      23.803 -59.752  -3.378  1.00  0.00     0.174 HD
ATOM     15  H7  UNL     1      22.818 -58.730  -1.300  1.00  0.00     0.212 HD
ATOM     16  H2  UNL     1      25.734 -61.386  -0.542  1.00  0.00     0.184 HD
BRANCH  12  17
HETATM   17  N8  UNL     1      24.462 -58.371  -0.045  1.00  0.00    -0.024 N 
HETATM   18  O1  UNL     1      24.960 -58.920   0.931  1.00  0.00    -0.516 OA
HETATM   19  O2  UNL     1      24.627 -57.013  -0.235  1.00  0.00    -0.516 OA
ENDBRANCH  12  17
ENDBRANCH   1   9
BRANCH   8  20
HETATM   20  N5  UNL     1      24.511 -63.933  -1.719  1.00  0.00    -0.290 N 
ATOM     21  H5  UNL     1      25.372 -63.434  -1.942  1.00  0.00     0.188 HD
BRANCH  20  22
HETATM   22  N6  UNL     1      24.096 -64.939  -2.574  1.00  0.00    -0.344 N 
ATOM     23  H62 UNL     1      23.404 -64.694  -3.283  1.00  0.00     0.176 HD
ATOM     24  H61 UNL     1      24.446 -65.896  -2.527  1.00  0.00     0.176 HD
ENDBRANCH  20  22
ENDBRANCH   8  20
TORSDOF 4
ENDMDL
