MODEL 1
REMARK VINA RESULT: -6.376791329      0.000      0.000
REMARK  12 active torsions:
REMARK  status: ('A' for Active; 'I' for Inactive)
REMARK    1  A    between atoms: N1_2  and  C2_3 
REMARK    2  A    between atoms: N1_2  and  C4_9 
REMARK    3  A    between atoms: N1_2  and  C8_17 
REMARK    4  A    between atoms: C2_3  and  C3_4 
REMARK    5  A    between atoms: C3_4  and  N2_5 
REMARK    6  A    between atoms: C4_9  and  C5_10 
REMARK    7  A    between atoms: C5_10  and  C6_11 
REMARK    8  A    between atoms: C6_11  and  N3_12 
REMARK    9  A    between atoms: C10_22  and  C11_23 
REMARK   10  A    between atoms: C10_22  and  C12_26 
REMARK   11  A    between atoms: C11_23  and  O1_24 
REMARK   12  A    between atoms: C12_26  and  O2_27 
ROOT
HETATM    1  C1  UNL     1      -3.138  31.156 -19.290  1.00  0.00     0.273 C 
HETATM    2  N1  UNL     1      -2.113  31.864 -18.523  1.00  0.00    -0.063 N 
ENDROOT
BRANCH   2   3
HETATM    3  C2  UNL     1      -2.566  33.168 -18.190  1.00  0.00     0.264 C 
BRANCH   3   4
HETATM    4  C3  UNL     1      -3.893  33.242 -17.516  1.00  0.00     0.257 C 
BRANCH   4   5
HETATM    5  N2  UNL     1      -4.040  34.445 -16.699  1.00  0.00    -0.078 N 
ATOM      6  H23 UNL     1      -3.132  34.787 -16.383  1.00  0.00     0.274 HD
ATOM      7  H22 UNL     1      -4.326  35.242 -17.268  1.00  0.00     0.274 HD
ATOM      8  H21 UNL     1      -4.674  34.308 -15.912  1.00  0.00     0.274 HD
ENDBRANCH   4   5
ENDBRANCH   3   4
ENDBRANCH   2   3
BRANCH   2   9
HETATM    9  C4  UNL     1      -0.976  31.985 -19.437  1.00  0.00     0.239 C 
BRANCH   9  10
HETATM   10  C5  UNL     1      -0.399  33.373 -19.456  1.00  0.00     0.048 C 
BRANCH  10  11
HETATM   11  C6  UNL     1       0.401  33.506 -20.736  1.00  0.00     0.123 C 
BRANCH  11  12
HETATM   12  N3  UNL     1      -0.478  33.997 -21.772  1.00  0.00    -0.367 N 
HETATM   13  C7  UNL     1      -0.301  35.068 -22.432  1.00  0.00     0.196 C 
HETATM   14  N4  UNL     1       0.799  35.919 -22.225  1.00  0.00    -0.067 NA
HETATM   15  N5  UNL     1      -1.257  35.419 -23.422  1.00  0.00    -0.067 NA
ATOM     16  H3  UNL     1      -1.305  33.441 -21.990  1.00  0.00     0.161 HD
ENDBRANCH  11  12
ENDBRANCH  10  11
ENDBRANCH   9  10
ENDBRANCH   2   9
BRANCH   2  17
HETATM   17  C8  UNL     1      -1.700  31.048 -17.437  1.00  0.00     0.218 C 
HETATM   18  C9  UNL     1      -0.223  30.788 -17.364  1.00  0.00     0.266 C 
HETATM   19  N6  UNL     1      -0.171  29.739 -16.344  1.00  0.00    -0.060 N 
HETATM   20  C10 UNL     1      -1.336  28.930 -16.498  1.00  0.00     0.169 C 
ATOM     21  H62 UNL     1       0.694  29.199 -16.372  1.00  0.00     0.278 HD
ATOM     22  H61 UNL     1      -0.066  30.108 -15.398  1.00  0.00     0.278 HD
HETATM   23  C13 UNL     1      -2.227  29.607 -17.539  1.00  0.00     0.078 C 
BRANCH  20  24
HETATM   24  C11 UNL     1      -2.043  28.868 -15.157  1.00  0.00     0.205 C 
BRANCH  24  25
HETATM   25  O1  UNL     1      -2.817  27.708 -15.161  1.00  0.00    -0.398 OA
ATOM     26  H1  UNL     1      -2.573  27.211 -14.390  1.00  0.00     0.209 HD
ENDBRANCH  24  25
ENDBRANCH  20  24
BRANCH  20  27
HETATM   27  C12 UNL     1      -1.041  27.547 -16.975  1.00  0.00     0.205 C 
BRANCH  27  28
HETATM   28  O2  UNL     1      -2.020  27.095 -17.847  1.00  0.00    -0.398 OA
ATOM     29  H2  UNL     1      -2.190  26.168 -17.725  1.00  0.00     0.209 HD
ENDBRANCH  27  28
ENDBRANCH  20  27
ENDBRANCH   2  17
TORSDOF 12
ENDMDL
MODEL 2
REMARK VINA RESULT: -6.239568707      4.014      6.396
REMARK  12 active torsions:
REMARK  status: ('A' for Active; 'I' for Inactive)
REMARK    1  A    between atoms: N1_2  and  C2_3 
REMARK    2  A    between atoms: N1_2  and  C4_9 
REMARK    3  A    between atoms: N1_2  and  C8_17 
REMARK    4  A    between atoms: C2_3  and  C3_4 
REMARK    5  A    between atoms: C3_4  and  N2_5 
REMARK    6  A    between atoms: C4_9  and  C5_10 
REMARK    7  A    between atoms: C5_10  and  C6_11 
REMARK    8  A    between atoms: C6_11  and  N3_12 
REMARK    9  A    between atoms: C10_22  and  C11_23 
REMARK   10  A    between atoms: C10_22  and  C12_26 
REMARK   11  A    between atoms: C11_23  and  O1_24 
REMARK   12  A    between atoms: C12_26  and  O2_27 
ROOT
HETATM    1  C1  UNL     1      -6.160  29.329 -14.159  1.00  0.00     0.273 C 
HETATM    2  N1  UNL     1      -5.133  29.417 -15.198  1.00  0.00    -0.063 N 
ENDROOT
BRANCH   2   3
HETATM    3  C2  UNL     1      -5.398  28.475 -16.228  1.00  0.00     0.264 C 
BRANCH   3   4
HETATM    4  C3  UNL     1      -4.317  27.487 -16.499  1.00  0.00     0.257 C 
BRANCH   4   5
HETATM    5  N2  UNL     1      -3.721  27.656 -17.822  1.00  0.00    -0.078 N 
ATOM      6  H23 UNL     1      -4.440  27.746 -18.539  1.00  0.00     0.274 HD
ATOM      7  H22 UNL     1      -3.284  28.574 -17.913  1.00  0.00     0.274 HD
ATOM      8  H21 UNL     1      -3.062  26.912 -18.052  1.00  0.00     0.274 HD
ENDBRANCH   4   5
ENDBRANCH   3   4
ENDBRANCH   2   3
BRANCH   2   9
HETATM    9  C4  UNL     1      -3.888  29.037 -14.530  1.00  0.00     0.239 C 
BRANCH   9  10
HETATM   10  C5  UNL     1      -2.945  30.195 -14.366  1.00  0.00     0.048 C 
BRANCH  10  11
HETATM   11  C6  UNL     1      -1.610  29.770 -14.941  1.00  0.00     0.123 C 
BRANCH  11  12
HETATM   12  N3  UNL     1      -1.389  30.501 -16.167  1.00  0.00    -0.367 N 
HETATM   13  C7  UNL     1      -1.028  29.986 -17.271  1.00  0.00     0.196 C 
HETATM   14  N4  UNL     1      -0.798  28.608 -17.429  1.00  0.00    -0.067 NA
HETATM   15  N5  UNL     1      -0.852  30.840 -18.392  1.00  0.00    -0.067 NA
ATOM     16  H3  UNL     1      -1.534  31.511 -16.145  1.00  0.00     0.161 HD
ENDBRANCH  11  12
ENDBRANCH  10  11
ENDBRANCH   9  10
ENDBRANCH   2   9
BRANCH   2  17
HETATM   17  C8  UNL     1      -5.000  30.771 -15.606  1.00  0.00     0.218 C 
HETATM   18  C9  UNL     1      -6.044  31.703 -15.060  1.00  0.00     0.266 C 
HETATM   19  N6  UNL     1      -5.794  32.905 -15.857  1.00  0.00    -0.060 N 
HETATM   20  C10 UNL     1      -5.394  32.482 -17.160  1.00  0.00     0.169 C 
ATOM     21  H62 UNL     1      -6.589  33.544 -15.874  1.00  0.00     0.278 HD
ATOM     22  H61 UNL     1      -5.123  33.539 -15.421  1.00  0.00     0.278 HD
HETATM   23  C13 UNL     1      -5.223  30.965 -17.115  1.00  0.00     0.078 C 
BRANCH  20  24
HETATM   24  C11 UNL     1      -4.072  33.155 -17.484  1.00  0.00     0.205 C 
BRANCH  24  25
HETATM   25  O1  UNL     1      -4.018  34.324 -16.727  1.00  0.00    -0.398 OA
ATOM     26  H1  UNL     1      -3.200  34.301 -16.244  1.00  0.00     0.209 HD
ENDBRANCH  24  25
ENDBRANCH  20  24
BRANCH  20  27
HETATM   27  C12 UNL     1      -6.393  32.801 -18.222  1.00  0.00     0.205 C 
BRANCH  27  28
HETATM   28  O2  UNL     1      -5.798  32.859 -19.473  1.00  0.00    -0.398 OA
ATOM     29  H2  UNL     1      -6.439  33.026 -20.153  1.00  0.00     0.209 HD
ENDBRANCH  27  28
ENDBRANCH  20  27
ENDBRANCH   2  17
TORSDOF 12
ENDMDL
MODEL 3
REMARK VINA RESULT: -6.163660157      1.635      2.035
REMARK  12 active torsions:
REMARK  status: ('A' for Active; 'I' for Inactive)
REMARK    1  A    between atoms: N1_2  and  C2_3 
REMARK    2  A    between atoms: N1_2  and  C4_9 
REMARK    3  A    between atoms: N1_2  and  C8_17 
REMARK    4  A    between atoms: C2_3  and  C3_4 
REMARK    5  A    between atoms: C3_4  and  N2_5 
REMARK    6  A    between atoms: C4_9  and  C5_10 
REMARK    7  A    between atoms: C5_10  and  C6_11 
REMARK    8  A    between atoms: C6_11  and  N3_12 
REMARK    9  A    between atoms: C10_22  and  C11_23 
REMARK   10  A    between atoms: C10_22  and  C12_26 
REMARK   11  A    between atoms: C11_23  and  O1_24 
REMARK   12  A    between atoms: C12_26  and  O2_27 
ROOT
HETATM    1  C1  UNL     1      -3.560  30.302 -18.803  1.00  0.00     0.273 C 
HETATM    2  N1  UNL     1      -2.841  31.418 -18.188  1.00  0.00    -0.063 N 
ENDROOT
BRANCH   2   3
HETATM    3  C2  UNL     1      -3.528  32.637 -18.435  1.00  0.00     0.264 C 
BRANCH   3   4
HETATM    4  C3  UNL     1      -4.394  33.131 -17.328  1.00  0.00     0.257 C 
BRANCH   4   5
HETATM    5  N2  UNL     1      -3.936  34.409 -16.787  1.00  0.00    -0.078 N 
ATOM      6  H23 UNL     1      -3.301  34.875 -17.435  1.00  0.00     0.274 HD
ATOM      7  H22 UNL     1      -4.691  35.095 -16.776  1.00  0.00     0.274 HD
ATOM      8  H21 UNL     1      -3.513  34.314 -15.864  1.00  0.00     0.274 HD
ENDBRANCH   4   5
ENDBRANCH   3   4
ENDBRANCH   2   3
BRANCH   2   9
HETATM    9  C4  UNL     1      -1.552  31.462 -18.878  1.00  0.00     0.239 C 
BRANCH   9  10
HETATM   10  C5  UNL     1      -1.251  32.819 -19.449  1.00  0.00     0.048 C 
BRANCH  10  11
HETATM   11  C6  UNL     1      -0.326  32.611 -20.631  1.00  0.00     0.123 C 
BRANCH  11  12
HETATM   12  N3  UNL     1       0.349  33.858 -20.905  1.00  0.00    -0.367 N 
HETATM   13  C7  UNL     1       0.026  34.678 -21.820  1.00  0.00     0.196 C 
HETATM   14  N4  UNL     1      -1.056  34.460 -22.691  1.00  0.00    -0.067 NA
HETATM   15  N5  UNL     1       0.790  35.867 -21.965  1.00  0.00    -0.067 NA
ATOM     16  H3  UNL     1       1.148  34.099 -20.319  1.00  0.00     0.161 HD
ENDBRANCH  11  12
ENDBRANCH  10  11
ENDBRANCH   9  10
ENDBRANCH   2   9
BRANCH   2  17
HETATM   17  C8  UNL     1      -2.585  31.110 -16.826  1.00  0.00     0.218 C 
HETATM   18  C9  UNL     1      -1.250  30.474 -16.559  1.00  0.00     0.266 C 
HETATM   19  N6  UNL     1      -1.412  30.052 -15.167  1.00  0.00    -0.060 N 
HETATM   20  C10 UNL     1      -2.773  29.662 -14.991  1.00  0.00     0.169 C 
ATOM     21  H62 UNL     1      -0.751  29.323 -14.893  1.00  0.00     0.278 HD
ATOM     22  H61 UNL     1      -1.111  30.762 -14.498  1.00  0.00     0.278 HD
HETATM   23  C13 UNL     1      -3.520  30.022 -16.273  1.00  0.00     0.078 C 
BRANCH  20  24
HETATM   24  C11 UNL     1      -3.333  30.442 -13.815  1.00  0.00     0.205 C 
BRANCH  24  25
HETATM   25  O1  UNL     1      -2.242  30.886 -13.068  1.00  0.00    -0.398 OA
ATOM     26  H1  UNL     1      -1.941  30.146 -12.554  1.00  0.00     0.209 HD
ENDBRANCH  24  25
ENDBRANCH  20  24
BRANCH  20  27
HETATM   27  C12 UNL     1      -2.947  28.199 -14.751  1.00  0.00     0.205 C 
BRANCH  27  28
HETATM   28  O2  UNL     1      -3.099  27.924 -13.401  1.00  0.00    -0.398 OA
ATOM     29  H2  UNL     1      -3.754  27.250 -13.258  1.00  0.00     0.209 HD
ENDBRANCH  27  28
ENDBRANCH  20  27
ENDBRANCH   2  17
TORSDOF 12
ENDMDL
MODEL 4
REMARK VINA RESULT: -6.040370563      3.563      6.205
REMARK  12 active torsions:
REMARK  status: ('A' for Active; 'I' for Inactive)
REMARK    1  A    between atoms: N1_2  and  C2_3 
REMARK    2  A    between atoms: N1_2  and  C4_9 
REMARK    3  A    between atoms: N1_2  and  C8_17 
REMARK    4  A    between atoms: C2_3  and  C3_4 
REMARK    5  A    between atoms: C3_4  and  N2_5 
REMARK    6  A    between atoms: C4_9  and  C5_10 
REMARK    7  A    between atoms: C5_10  and  C6_11 
REMARK    8  A    between atoms: C6_11  and  N3_12 
REMARK    9  A    between atoms: C10_22  and  C11_23 
REMARK   10  A    between atoms: C10_22  and  C12_26 
REMARK   11  A    between atoms: C11_23  and  O1_24 
REMARK   12  A    between atoms: C12_26  and  O2_27 
ROOT
HETATM    1  C1  UNL     1      -3.907  31.157 -16.770  1.00  0.00     0.273 C 
HETATM    2  N1  UNL     1      -3.872  31.062 -18.230  1.00  0.00    -0.063 N 
ENDROOT
BRANCH   2   3
HETATM    3  C2  UNL     1      -4.910  31.851 -18.795  1.00  0.00     0.264 C 
BRANCH   3   4
HETATM    4  C3  UNL     1      -5.867  32.456 -17.826  1.00  0.00     0.257 C 
BRANCH   4   5
HETATM    5  N2  UNL     1      -6.805  33.375 -18.465  1.00  0.00    -0.078 N 
ATOM      6  H23 UNL     1      -7.383  32.890 -19.152  1.00  0.00     0.274 HD
ATOM      7  H22 UNL     1      -7.534  33.667 -17.814  1.00  0.00     0.274 HD
ATOM      8  H21 UNL     1      -6.340  34.182 -18.882  1.00  0.00     0.274 HD
ENDBRANCH   4   5
ENDBRANCH   3   4
ENDBRANCH   2   3
BRANCH   2   9
HETATM    9  C4  UNL     1      -4.146  29.655 -18.522  1.00  0.00     0.239 C 
BRANCH   9  10
HETATM   10  C5  UNL     1      -4.772  28.937 -17.360  1.00  0.00     0.048 C 
BRANCH  10  11
HETATM   11  C6  UNL     1      -4.088  27.590 -17.246  1.00  0.00     0.123 C 
BRANCH  11  12
HETATM   12  N3  UNL     1      -2.701  27.752 -17.614  1.00  0.00    -0.367 N 
HETATM   13  C7  UNL     1      -1.736  27.867 -16.795  1.00  0.00     0.196 C 
HETATM   14  N4  UNL     1      -1.914  27.847 -15.400  1.00  0.00    -0.067 NA
HETATM   15  N5  UNL     1      -0.422  28.020 -17.314  1.00  0.00    -0.067 NA
ATOM     16  H3  UNL     1      -2.478  27.777 -18.609  1.00  0.00     0.161 HD
ENDBRANCH  11  12
ENDBRANCH  10  11
ENDBRANCH   9  10
ENDBRANCH   2   9
BRANCH   2  17
HETATM   17  C8  UNL     1      -2.556  31.342 -18.682  1.00  0.00     0.218 C 
HETATM   18  C9  UNL     1      -1.494  31.279 -17.621  1.00  0.00     0.266 C 
HETATM   19  N6  UNL     1      -0.353  31.863 -18.329  1.00  0.00    -0.060 N 
HETATM   20  C10 UNL     1      -0.858  32.875 -19.198  1.00  0.00     0.169 C 
ATOM     21  H62 UNL     1       0.372  32.206 -17.699  1.00  0.00     0.278 HD
ATOM     22  H61 UNL     1       0.212  31.166 -18.816  1.00  0.00     0.278 HD
HETATM   23  C13 UNL     1      -2.383  32.795 -19.155  1.00  0.00     0.078 C 
BRANCH  20  24
HETATM   24  C11 UNL     1      -0.352  32.583 -20.599  1.00  0.00     0.205 C 
BRANCH  24  25
HETATM   25  O1  UNL     1      -0.855  33.585 -21.428  1.00  0.00    -0.398 OA
ATOM     26  H1  UNL     1      -0.596  33.364 -22.315  1.00  0.00     0.209 HD
ENDBRANCH  24  25
ENDBRANCH  20  24
BRANCH  20  27
HETATM   27  C12 UNL     1      -0.459  34.257 -18.799  1.00  0.00     0.205 C 
BRANCH  27  28
HETATM   28  O2  UNL     1      -1.475  35.166 -19.046  1.00  0.00    -0.398 OA
ATOM     29  H2  UNL     1      -1.197  35.836 -19.660  1.00  0.00     0.209 HD
ENDBRANCH  27  28
ENDBRANCH  20  27
ENDBRANCH   2  17
TORSDOF 12
ENDMDL
MODEL 5
REMARK VINA RESULT: -6.024371169      1.820      2.380
REMARK  12 active torsions:
REMARK  status: ('A' for Active; 'I' for Inactive)
REMARK    1  A    between atoms: N1_2  and  C2_3 
REMARK    2  A    between atoms: N1_2  and  C4_9 
REMARK    3  A    between atoms: N1_2  and  C8_17 
REMARK    4  A    between atoms: C2_3  and  C3_4 
REMARK    5  A    between atoms: C3_4  and  N2_5 
REMARK    6  A    between atoms: C4_9  and  C5_10 
REMARK    7  A    between atoms: C5_10  and  C6_11 
REMARK    8  A    between atoms: C6_11  and  N3_12 
REMARK    9  A    between atoms: C10_22  and  C11_23 
REMARK   10  A    between atoms: C10_22  and  C12_26 
REMARK   11  A    between atoms: C11_23  and  O1_24 
REMARK   12  A    between atoms: C12_26  and  O2_27 
ROOT
HETATM    1  C1  UNL     1      -3.980  30.980 -19.443  1.00  0.00     0.273 C 
HETATM    2  N1  UNL     1      -3.647  31.471 -18.105  1.00  0.00    -0.063 N 
ENDROOT
BRANCH   2   3
HETATM    3  C2  UNL     1      -4.784  32.081 -17.513  1.00  0.00     0.264 C 
BRANCH   3   4
HETATM    4  C3  UNL     1      -6.027  32.076 -18.335  1.00  0.00     0.257 C 
BRANCH   4   5
HETATM    5  N2  UNL     1      -6.670  33.387 -18.387  1.00  0.00    -0.078 N 
ATOM      6  H23 UNL     1      -7.102  33.619 -17.493  1.00  0.00     0.274 HD
ATOM      7  H22 UNL     1      -5.977  34.134 -18.433  1.00  0.00     0.274 HD
ATOM      8  H21 UNL     1      -7.343  33.463 -19.150  1.00  0.00     0.274 HD
ENDBRANCH   4   5
ENDBRANCH   3   4
ENDBRANCH   2   3
BRANCH   2   9
HETATM    9  C4  UNL     1      -2.629  32.498 -18.325  1.00  0.00     0.239 C 
BRANCH   9  10
HETATM   10  C5  UNL     1      -1.232  31.945 -18.269  1.00  0.00     0.048 C 
BRANCH  10  11
HETATM   11  C6  UNL     1      -0.315  32.987 -18.876  1.00  0.00     0.123 C 
BRANCH  11  12
HETATM   12  N3  UNL     1      -0.869  33.397 -20.145  1.00  0.00    -0.367 N 
HETATM   13  C7  UNL     1      -0.205  33.894 -21.107  1.00  0.00     0.196 C 
HETATM   14  N4  UNL     1       1.184  34.107 -21.043  1.00  0.00    -0.067 NA
HETATM   15  N5  UNL     1      -0.895  34.248 -22.296  1.00  0.00    -0.067 NA
ATOM     16  H3  UNL     1      -1.873  33.278 -20.280  1.00  0.00     0.161 HD
ENDBRANCH  11  12
ENDBRANCH  10  11
ENDBRANCH   9  10
ENDBRANCH   2   9
BRANCH   2  17
HETATM   17  C8  UNL     1      -3.042  30.422 -17.364  1.00  0.00     0.218 C 
HETATM   18  C9  UNL     1      -3.342  29.037 -17.862  1.00  0.00     0.266 C 
HETATM   19  N6  UNL     1      -2.818  28.222 -16.765  1.00  0.00    -0.060 N 
HETATM   20  C10 UNL     1      -3.050  28.935 -15.551  1.00  0.00     0.169 C 
ATOM     21  H62 UNL     1      -3.204  27.278 -16.751  1.00  0.00     0.278 HD
ATOM     22  H61 UNL     1      -1.839  27.964 -16.893  1.00  0.00     0.278 HD
HETATM   23  C13 UNL     1      -3.579  30.318 -15.928  1.00  0.00     0.078 C 
BRANCH  20  24
HETATM   24  C11 UNL     1      -1.725  29.057 -14.820  1.00  0.00     0.205 C 
BRANCH  24  25
HETATM   25  O1  UNL     1      -1.110  27.807 -14.888  1.00  0.00    -0.398 OA
ATOM     26  H1  UNL     1      -0.564  27.727 -14.115  1.00  0.00     0.209 HD
ENDBRANCH  24  25
ENDBRANCH  20  24
BRANCH  20  27
HETATM   27  C12 UNL     1      -4.056  28.284 -14.661  1.00  0.00     0.205 C 
BRANCH  27  28
HETATM   28  O2  UNL     1      -4.099  26.914 -14.867  1.00  0.00    -0.398 OA
ATOM     29  H2  UNL     1      -3.507  26.458 -14.281  1.00  0.00     0.209 HD
ENDBRANCH  27  28
ENDBRANCH  20  27
ENDBRANCH   2  17
TORSDOF 12
ENDMDL
