MODEL 1
REMARK VINA RESULT: -6.377844091      0.000      0.000
REMARK  10 active torsions:
REMARK  status: ('A' for Active; 'I' for Inactive)
REMARK       I    between atoms: C1_4  and  N3_6 
REMARK    1  A    between atoms: N3_6  and  C2_8 
REMARK    2  A    between atoms: C2_8  and  C3_9 
REMARK    3  A    between atoms: C3_9  and  O1_10 
REMARK    4  A    between atoms: O1_10  and  C4_11 
REMARK    5  A    between atoms: C4_11  and  C5_12 
REMARK    6  A    between atoms: C5_12  and  O2_13 
REMARK    7  A    between atoms: O2_13  and  C6_14 
REMARK    8  A    between atoms: C6_14  and  C7_15 
REMARK    9  A    between atoms: C7_15  and  N4_16 
REMARK   10  A    between atoms: C11_21  and  N6_22 
ROOT
HETATM    1  C6  UNL     1      -3.760  27.795 -15.050  1.00  0.00     0.212 C 
ENDROOT
BRANCH   1   2
HETATM    2  O2  UNL     1      -2.530  28.205 -14.641  1.00  0.00    -0.384 OA
BRANCH   2   3
HETATM    3  C5  UNL     1      -1.546  28.371 -15.558  1.00  0.00     0.194 C 
BRANCH   3   4
HETATM    4  C4  UNL     1      -0.951  29.723 -15.723  1.00  0.00     0.193 C 
BRANCH   4   5
HETATM    5  O1  UNL     1      -1.504  30.525 -16.677  1.00  0.00    -0.387 OA
BRANCH   5   6
HETATM    6  C3  UNL     1      -0.768  30.776 -17.795  1.00  0.00     0.187 C 
BRANCH   6   7
HETATM    7  C2  UNL     1      -0.529  32.222 -18.106  1.00  0.00     0.148 C 
BRANCH   7   8
HETATM    8  N3  UNL     1      -0.985  32.599 -19.413  1.00  0.00    -0.363 N 
HETATM    9  C1  UNL     1      -0.839  33.929 -19.879  1.00  0.00     0.181 C 
HETATM   10  N1  UNL     1      -0.711  34.921 -19.067  1.00  0.00    -0.374 N 
HETATM   11  N2  UNL     1      -0.831  34.184 -21.272  1.00  0.00    -0.064 NA
ATOM     12  H12 UNL     1      -0.605  35.879 -19.403  1.00  0.00     0.158 HD
ATOM     13  H11 UNL     1      -0.716  34.736 -18.064  1.00  0.00     0.158 HD
ATOM     14  H3  UNL     1      -1.422  31.900 -20.014  1.00  0.00     0.162 HD
ENDBRANCH   7   8
ENDBRANCH   6   7
ENDBRANCH   5   6
ENDBRANCH   4   5
ENDBRANCH   3   4
ENDBRANCH   2   3
ENDBRANCH   1   2
BRANCH   1  15
HETATM   15  C7  UNL     1      -4.771  28.880 -14.849  1.00  0.00     0.100 C 
BRANCH  15  16
HETATM   16  N4  UNL     1      -4.797  29.949 -15.765  1.00  0.00    -0.287 N 
HETATM   17  C8  UNL     1      -4.976  29.705 -17.087  1.00  0.00     0.103 C 
HETATM   18  C9  UNL     1      -4.693  30.511 -18.179  1.00  0.00     0.048 C 
HETATM   19  C10 UNL     1      -4.379  31.862 -18.216  1.00  0.00     0.091 C 
HETATM   20  N5  UNL     1      -4.110  32.423 -19.492  1.00  0.00    -0.098 NA
HETATM   21  C11 UNL     1      -4.314  32.682 -17.096  1.00  0.00     0.127 C 
HETATM   22  N7  UNL     1      -4.642  32.398 -15.820  1.00  0.00    -0.293 N 
HETATM   23  C12 UNL     1      -4.639  31.171 -15.221  1.00  0.00     0.331 C 
ATOM     24  H7  UNL     1      -4.923  33.187 -15.237  1.00  0.00     0.172 HD
HETATM   25  O3  UNL     1      -4.458  31.228 -13.971  1.00  0.00    -0.246 OA
BRANCH  21  26
HETATM   26  N6  UNL     1      -3.874  33.872 -17.337  1.00  0.00    -0.384 N 
ATOM     27  H62 UNL     1      -3.902  34.188 -18.306  1.00  0.00     0.157 HD
ATOM     28  H61 UNL     1      -3.543  34.370 -16.511  1.00  0.00     0.157 HD
ENDBRANCH  21  26
ENDBRANCH  15  16
ENDBRANCH   1  15
TORSDOF 10
ENDMDL
MODEL 2
REMARK VINA RESULT: -6.280411597      2.108      2.768
REMARK  10 active torsions:
REMARK  status: ('A' for Active; 'I' for Inactive)
REMARK       I    between atoms: C1_4  and  N3_6 
REMARK    1  A    between atoms: N3_6  and  C2_8 
REMARK    2  A    between atoms: C2_8  and  C3_9 
REMARK    3  A    between atoms: C3_9  and  O1_10 
REMARK    4  A    between atoms: O1_10  and  C4_11 
REMARK    5  A    between atoms: C4_11  and  C5_12 
REMARK    6  A    between atoms: C5_12  and  O2_13 
REMARK    7  A    between atoms: O2_13  and  C6_14 
REMARK    8  A    between atoms: C6_14  and  C7_15 
REMARK    9  A    between atoms: C7_15  and  N4_16 
REMARK   10  A    between atoms: C11_21  and  N6_22 
ROOT
HETATM    1  C6  UNL     1      -2.726  27.940 -17.349  1.00  0.00     0.212 C 
ENDROOT
BRANCH   1   2
HETATM    2  O2  UNL     1      -1.424  28.125 -17.693  1.00  0.00    -0.384 OA
BRANCH   2   3
HETATM    3  C5  UNL     1      -0.608  28.816 -16.860  1.00  0.00     0.194 C 
BRANCH   3   4
HETATM    4  C4  UNL     1      -0.092  30.136 -17.307  1.00  0.00     0.193 C 
BRANCH   4   5
HETATM    5  O1  UNL     1      -0.675  30.682 -18.412  1.00  0.00    -0.387 OA
BRANCH   5   6
HETATM    6  C3  UNL     1      -1.158  31.951 -18.308  1.00  0.00     0.187 C 
BRANCH   6   7
HETATM    7  C2  UNL     1      -0.273  33.031 -18.853  1.00  0.00     0.148 C 
BRANCH   7   8
HETATM    8  N3  UNL     1      -0.882  33.772 -19.920  1.00  0.00    -0.363 N 
HETATM    9  C1  UNL     1      -0.158  34.074 -21.100  1.00  0.00     0.181 C 
HETATM   10  N1  UNL     1       1.130  34.102 -21.117  1.00  0.00    -0.374 N 
HETATM   11  N2  UNL     1      -0.860  34.355 -22.298  1.00  0.00    -0.064 NA
ATOM     12  H12 UNL     1       1.651  34.320 -21.967  1.00  0.00     0.158 HD
ATOM     13  H11 UNL     1       1.635  33.900 -20.254  1.00  0.00     0.158 HD
ATOM     14  H3  UNL     1      -1.848  34.085 -19.828  1.00  0.00     0.162 HD
ENDBRANCH   7   8
ENDBRANCH   6   7
ENDBRANCH   5   6
ENDBRANCH   4   5
ENDBRANCH   3   4
ENDBRANCH   2   3
ENDBRANCH   1   2
BRANCH   1  15
HETATM   15  C7  UNL     1      -3.630  28.651 -18.306  1.00  0.00     0.100 C 
BRANCH  15  16
HETATM   16  N4  UNL     1      -4.263  29.834 -17.877  1.00  0.00    -0.287 N 
HETATM   17  C8  UNL     1      -4.571  30.002 -16.567  1.00  0.00     0.103 C 
HETATM   18  C9  UNL     1      -5.474  30.873 -15.978  1.00  0.00     0.048 C 
HETATM   19  C10 UNL     1      -6.129  31.965 -16.529  1.00  0.00     0.091 C 
HETATM   20  N5  UNL     1      -7.028  32.667 -15.683  1.00  0.00    -0.098 NA
HETATM   21  C11 UNL     1      -5.959  32.402 -17.836  1.00  0.00     0.127 C 
HETATM   22  N7  UNL     1      -5.083  31.970 -18.766  1.00  0.00    -0.293 N 
HETATM   23  C12 UNL     1      -4.514  30.732 -18.850  1.00  0.00     0.331 C 
ATOM     24  H7  UNL     1      -4.817  32.642 -19.486  1.00  0.00     0.172 HD
HETATM   25  O3  UNL     1      -4.187  30.414 -20.028  1.00  0.00    -0.246 OA
BRANCH  21  26
HETATM   26  N6  UNL     1      -6.762  33.352 -18.185  1.00  0.00    -0.384 N 
ATOM     27  H62 UNL     1      -7.655  33.076 -18.594  1.00  0.00     0.157 HD
ATOM     28  H61 UNL     1      -6.404  34.289 -18.006  1.00  0.00     0.157 HD
ENDBRANCH  21  26
ENDBRANCH  15  16
ENDBRANCH   1  15
TORSDOF 10
ENDMDL
MODEL 3
REMARK VINA RESULT: -6.244348060      2.539      5.949
REMARK  10 active torsions:
REMARK  status: ('A' for Active; 'I' for Inactive)
REMARK       I    between atoms: C1_4  and  N3_6 
REMARK    1  A    between atoms: N3_6  and  C2_8 
REMARK    2  A    between atoms: C2_8  and  C3_9 
REMARK    3  A    between atoms: C3_9  and  O1_10 
REMARK    4  A    between atoms: O1_10  and  C4_11 
REMARK    5  A    between atoms: C4_11  and  C5_12 
REMARK    6  A    between atoms: C5_12  and  O2_13 
REMARK    7  A    between atoms: O2_13  and  C6_14 
REMARK    8  A    between atoms: C6_14  and  C7_15 
REMARK    9  A    between atoms: C7_15  and  N4_16 
REMARK   10  A    between atoms: C11_21  and  N6_22 
ROOT
HETATM    1  C6  UNL     1      -1.098  31.440 -18.140  1.00  0.00     0.212 C 
ENDROOT
BRANCH   1   2
HETATM    2  O2  UNL     1      -0.651  30.171 -18.330  1.00  0.00    -0.384 OA
BRANCH   2   3
HETATM    3  C5  UNL     1       0.040  29.553 -17.341  1.00  0.00     0.194 C 
BRANCH   3   4
HETATM    4  C4  UNL     1      -0.313  28.151 -16.998  1.00  0.00     0.193 C 
BRANCH   4   5
HETATM    5  O1  UNL     1      -1.546  27.716 -17.384  1.00  0.00    -0.387 OA
BRANCH   5   6
HETATM    6  C3  UNL     1      -2.610  28.067 -16.609  1.00  0.00     0.187 C 
BRANCH   6   7
HETATM    7  C2  UNL     1      -3.958  27.903 -17.241  1.00  0.00     0.148 C 
BRANCH   7   8
HETATM    8  N3  UNL     1      -4.029  28.451 -18.565  1.00  0.00    -0.363 N 
HETATM    9  C1  UNL     1      -4.398  29.803 -18.773  1.00  0.00     0.181 C 
HETATM   10  N1  UNL     1      -5.080  30.461 -17.901  1.00  0.00    -0.374 N 
HETATM   11  N2  UNL     1      -4.010  30.457 -19.968  1.00  0.00    -0.064 NA
ATOM     12  H12 UNL     1      -5.346  31.435 -18.051  1.00  0.00     0.158 HD
ATOM     13  H11 UNL     1      -5.360  29.990 -17.040  1.00  0.00     0.158 HD
ATOM     14  H3  UNL     1      -3.811  27.860 -19.367  1.00  0.00     0.162 HD
ENDBRANCH   7   8
ENDBRANCH   6   7
ENDBRANCH   5   6
ENDBRANCH   4   5
ENDBRANCH   3   4
ENDBRANCH   2   3
ENDBRANCH   1   2
BRANCH   1  15
HETATM   15  C7  UNL     1       0.044  32.364 -17.856  1.00  0.00     0.100 C 
BRANCH  15  16
HETATM   16  N4  UNL     1       0.223  33.485 -18.689  1.00  0.00    -0.287 N 
HETATM   17  C8  UNL     1      -0.373  33.526 -19.907  1.00  0.00     0.103 C 
HETATM   18  C9  UNL     1      -0.076  34.315 -21.008  1.00  0.00     0.048 C 
HETATM   19  C10 UNL     1       0.743  35.432 -21.093  1.00  0.00     0.091 C 
HETATM   20  N5  UNL     1       0.879  36.029 -22.374  1.00  0.00    -0.098 NA
HETATM   21  C11 UNL     1       1.423  35.989 -20.018  1.00  0.00     0.127 C 
HETATM   22  N7  UNL     1       1.347  35.667 -18.711  1.00  0.00    -0.293 N 
HETATM   23  C12 UNL     1       1.001  34.458 -18.178  1.00  0.00     0.331 C 
ATOM     24  H7  UNL     1       1.573  36.408 -18.046  1.00  0.00     0.172 HD
HETATM   25  O3  UNL     1       1.504  34.256 -17.036  1.00  0.00    -0.246 OA
BRANCH  21  26
HETATM   26  N6  UNL     1       2.233  36.942 -20.340  1.00  0.00    -0.384 N 
ATOM     27  H62 UNL     1       2.387  37.101 -21.335  1.00  0.00     0.157 HD
ATOM     28  H61 UNL     1       2.633  37.438 -19.544  1.00  0.00     0.157 HD
ENDBRANCH  21  26
ENDBRANCH  15  16
ENDBRANCH   1  15
TORSDOF 10
ENDMDL
MODEL 4
REMARK VINA RESULT: -6.118689748      2.016      5.810
REMARK  10 active torsions:
REMARK  status: ('A' for Active; 'I' for Inactive)
REMARK       I    between atoms: C1_4  and  N3_6 
REMARK    1  A    between atoms: N3_6  and  C2_8 
REMARK    2  A    between atoms: C2_8  and  C3_9 
REMARK    3  A    between atoms: C3_9  and  O1_10 
REMARK    4  A    between atoms: O1_10  and  C4_11 
REMARK    5  A    between atoms: C4_11  and  C5_12 
REMARK    6  A    between atoms: C5_12  and  O2_13 
REMARK    7  A    between atoms: O2_13  and  C6_14 
REMARK    8  A    between atoms: C6_14  and  C7_15 
REMARK    9  A    between atoms: C7_15  and  N4_16 
REMARK   10  A    between atoms: C11_21  and  N6_22 
ROOT
HETATM    1  C6  UNL     1      -0.304  30.787 -17.451  1.00  0.00     0.212 C 
ENDROOT
BRANCH   1   2
HETATM    2  O2  UNL     1      -0.984  29.651 -17.760  1.00  0.00    -0.384 OA
BRANCH   2   3
HETATM    3  C5  UNL     1      -0.806  28.542 -17.002  1.00  0.00     0.194 C 
BRANCH   3   4
HETATM    4  C4  UNL     1      -1.449  28.488 -15.662  1.00  0.00     0.193 C 
BRANCH   4   5
HETATM    5  O1  UNL     1      -2.810  28.420 -15.636  1.00  0.00    -0.387 OA
BRANCH   5   6
HETATM    6  C3  UNL     1      -3.493  29.555 -15.318  1.00  0.00     0.187 C 
BRANCH   6   7
HETATM    7  C2  UNL     1      -4.623  29.914 -16.234  1.00  0.00     0.148 C 
BRANCH   7   8
HETATM    8  N3  UNL     1      -4.184  30.531 -17.453  1.00  0.00    -0.363 N 
HETATM    9  C1  UNL     1      -4.094  29.785 -18.654  1.00  0.00     0.181 C 
HETATM   10  N1  UNL     1      -3.971  28.502 -18.647  1.00  0.00    -0.374 N 
HETATM   11  N2  UNL     1      -4.138  30.457 -19.899  1.00  0.00    -0.064 NA
ATOM     12  H12 UNL     1      -3.907  27.965 -19.512  1.00  0.00     0.158 HD
ATOM     13  H11 UNL     1      -3.939  28.018 -17.749  1.00  0.00     0.158 HD
ATOM     14  H3  UNL     1      -3.933  31.519 -17.454  1.00  0.00     0.162 HD
ENDBRANCH   7   8
ENDBRANCH   6   7
ENDBRANCH   5   6
ENDBRANCH   4   5
ENDBRANCH   3   4
ENDBRANCH   2   3
ENDBRANCH   1   2
BRANCH   1  15
HETATM   15  C7  UNL     1      -0.986  31.984 -18.034  1.00  0.00     0.100 C 
BRANCH  15  16
HETATM   16  N4  UNL     1      -0.207  32.920 -18.742  1.00  0.00    -0.287 N 
HETATM   17  C8  UNL     1       0.599  33.779 -18.070  1.00  0.00     0.103 C 
HETATM   18  C9  UNL     1       1.162  34.973 -18.492  1.00  0.00     0.048 C 
HETATM   19  C10 UNL     1       1.255  35.497 -19.774  1.00  0.00     0.091 C 
HETATM   20  N5  UNL     1       1.871  36.769 -19.903  1.00  0.00    -0.098 NA
HETATM   21  C11 UNL     1       0.788  34.859 -20.916  1.00  0.00     0.127 C 
HETATM   22  N7  UNL     1       0.286  33.614 -21.045  1.00  0.00    -0.293 N 
HETATM   23  C12 UNL     1      -0.338  32.873 -20.082  1.00  0.00     0.331 C 
ATOM     24  H7  UNL     1       0.383  33.178 -21.962  1.00  0.00     0.172 HD
HETATM   25  O3  UNL     1      -1.152  32.030 -20.554  1.00  0.00    -0.246 OA
BRANCH  21  26
HETATM   26  N6  UNL     1       0.852  35.578 -21.987  1.00  0.00    -0.384 N 
ATOM     27  H62 UNL     1      -0.030  35.809 -22.443  1.00  0.00     0.157 HD
ATOM     28  H61 UNL     1       1.800  35.839 -22.259  1.00  0.00     0.157 HD
ENDBRANCH  21  26
ENDBRANCH  15  16
ENDBRANCH   1  15
TORSDOF 10
ENDMDL
MODEL 5
REMARK VINA RESULT: -6.035626753      2.022      2.800
REMARK  10 active torsions:
REMARK  status: ('A' for Active; 'I' for Inactive)
REMARK       I    between atoms: C1_4  and  N3_6 
REMARK    1  A    between atoms: N3_6  and  C2_8 
REMARK    2  A    between atoms: C2_8  and  C3_9 
REMARK    3  A    between atoms: C3_9  and  O1_10 
REMARK    4  A    between atoms: O1_10  and  C4_11 
REMARK    5  A    between atoms: C4_11  and  C5_12 
REMARK    6  A    between atoms: C5_12  and  O2_13 
REMARK    7  A    between atoms: O2_13  and  C6_14 
REMARK    8  A    between atoms: C6_14  and  C7_15 
REMARK    9  A    between atoms: C7_15  and  N4_16 
REMARK   10  A    between atoms: C11_21  and  N6_22 
ROOT
HETATM    1  C6  UNL     1      -2.733  27.988 -17.332  1.00  0.00     0.212 C 
ENDROOT
BRANCH   1   2
HETATM    2  O2  UNL     1      -1.402  28.007 -17.607  1.00  0.00    -0.384 OA
BRANCH   2   3
HETATM    3  C5  UNL     1      -0.560  28.665 -16.773  1.00  0.00     0.194 C 
BRANCH   3   4
HETATM    4  C4  UNL     1       0.035  29.947 -17.232  1.00  0.00     0.193 C 
BRANCH   4   5
HETATM    5  O1  UNL     1      -0.811  31.011 -17.345  1.00  0.00    -0.387 OA
BRANCH   5   6
HETATM    6  C3  UNL     1      -0.806  31.698 -18.521  1.00  0.00     0.187 C 
BRANCH   6   7
HETATM    7  C2  UNL     1      -1.378  33.083 -18.468  1.00  0.00     0.148 C 
BRANCH   7   8
HETATM    8  N3  UNL     1      -0.634  34.028 -19.250  1.00  0.00    -0.363 N 
HETATM    9  C1  UNL     1       0.568  34.593 -18.757  1.00  0.00     0.181 C 
HETATM   10  N1  UNL     1       0.825  34.644 -17.496  1.00  0.00    -0.374 N 
HETATM   11  N2  UNL     1       1.519  35.116 -19.667  1.00  0.00    -0.064 NA
ATOM     12  H12 UNL     1       1.692  35.051 -17.141  1.00  0.00     0.158 HD
ATOM     13  H11 UNL     1       0.141  34.268 -16.840  1.00  0.00     0.158 HD
ATOM     14  H3  UNL     1      -0.976  34.298 -20.172  1.00  0.00     0.162 HD
ENDBRANCH   7   8
ENDBRANCH   6   7
ENDBRANCH   5   6
ENDBRANCH   4   5
ENDBRANCH   3   4
ENDBRANCH   2   3
ENDBRANCH   1   2
BRANCH   1  15
HETATM   15  C7  UNL     1      -3.491  28.794 -18.339  1.00  0.00     0.100 C 
BRANCH  15  16
HETATM   16  N4  UNL     1      -4.151  29.959 -17.905  1.00  0.00    -0.287 N 
HETATM   17  C8  UNL     1      -4.435  30.128 -16.590  1.00  0.00     0.103 C 
HETATM   18  C9  UNL     1      -5.352  30.975 -15.987  1.00  0.00     0.048 C 
HETATM   19  C10 UNL     1      -6.054  32.041 -16.531  1.00  0.00     0.091 C 
HETATM   20  N5  UNL     1      -6.955  32.721 -15.671  1.00  0.00    -0.098 NA
HETATM   21  C11 UNL     1      -5.927  32.473 -17.845  1.00  0.00     0.127 C 
HETATM   22  N7  UNL     1      -5.059  32.061 -18.791  1.00  0.00    -0.293 N 
HETATM   23  C12 UNL     1      -4.452  30.841 -18.878  1.00  0.00     0.331 C 
ATOM     24  H7  UNL     1      -4.829  32.735 -19.522  1.00  0.00     0.172 HD
HETATM   25  O3  UNL     1      -4.141  30.524 -20.061  1.00  0.00    -0.246 OA
BRANCH  21  26
HETATM   26  N6  UNL     1      -6.767  33.394 -18.183  1.00  0.00    -0.384 N 
ATOM     27  H62 UNL     1      -6.461  34.361 -18.078  1.00  0.00     0.157 HD
ATOM     28  H61 UNL     1      -7.660  33.039 -18.525  1.00  0.00     0.157 HD
ENDBRANCH  21  26
ENDBRANCH  15  16
ENDBRANCH   1  15
TORSDOF 10
ENDMDL
