MODEL 1
REMARK VINA RESULT: -7.380164943      0.000      0.000
REMARK  3 active torsions:
REMARK  status: ('A' for Active; 'I' for Inactive)
REMARK    1  A    between atoms: C2_2  and  N1_3 
REMARK    2  A    between atoms: C8_12  and  N3_13 
REMARK    3  A    between atoms: C13_23  and  N6_24 
ROOT
HETATM    1  C1  UNL     1     -15.691  35.168  43.024  1.00  0.00     0.097 A 
HETATM    2  C2  UNL     1     -17.023  35.108  42.759  1.00  0.00     0.122 A 
HETATM    3  N2  UNL     1     -17.874  35.021  43.818  1.00  0.00    -0.177 N 
ATOM      4  H2  UNL     1     -18.875  34.975  43.625  1.00  0.00     0.186 HD
HETATM    5  C8  UNL     1     -17.477  34.991  45.100  1.00  0.00     0.683 A 
HETATM    6  N5  UNL     1     -16.144  35.054  45.309  1.00  0.00    -0.177 N 
ATOM      7  H5  UNL     1     -15.813  35.035  46.274  1.00  0.00     0.186 HD
HETATM    8  C13 UNL     1     -15.236  35.139  44.351  1.00  0.00     0.122 A 
ENDROOT
BRANCH   5   9
HETATM    9  N3  UNL     1     -18.398  34.901  46.180  1.00  0.00    -0.214 N 
HETATM   10  C9  UNL     1     -17.991  35.115  47.548  1.00  0.00     0.168 C 
HETATM   11  C10 UNL     1     -18.794  34.295  48.501  1.00  0.00     0.252 C 
HETATM   12  N4  UNL     1     -20.202  34.246  48.234  1.00  0.00    -0.072 N 
HETATM   13  C11 UNL     1     -20.573  35.089  47.125  1.00  0.00     0.252 C 
ATOM     14  H42 UNL     1     -20.518  33.287  48.092  1.00  0.00     0.277 HD
ATOM     15  H41 UNL     1     -20.744  34.473  49.067  1.00  0.00     0.277 HD
HETATM   16  C12 UNL     1     -19.781  34.588  45.908  1.00  0.00     0.168 C 
ENDBRANCH   5   9
BRANCH   2  17
HETATM   17  N1  UNL     1     -17.519  35.141  41.434  1.00  0.00    -0.365 N 
HETATM   18  C3  UNL     1     -18.378  36.232  41.045  1.00  0.00     0.126 C 
HETATM   19  C4  UNL     1     -17.429  37.259  40.407  1.00  0.00     0.046 C 
HETATM   20  C5  UNL     1     -16.774  36.521  39.240  1.00  0.00     0.169 C 
HETATM   21  O1  UNL     1     -17.621  35.582  38.719  1.00  0.00    -0.389 OA
HETATM   22  C6  UNL     1     -17.488  34.298  39.142  1.00  0.00     0.187 C 
HETATM   23  C7  UNL     1     -17.109  34.055  40.550  1.00  0.00     0.150 C 
ENDBRANCH   2  17
BRANCH   8  24
HETATM   24  N6  UNL     1     -13.844  35.202  44.559  1.00  0.00    -0.363 N 
HETATM   25  C14 UNL     1     -12.925  34.530  43.668  1.00  0.00     0.150 C 
HETATM   26  C15 UNL     1     -11.562  34.554  44.352  1.00  0.00     0.187 C 
HETATM   27  O2  UNL     1     -11.147  35.861  44.489  1.00  0.00    -0.388 OA
HETATM   28  C16 UNL     1     -12.059  36.682  45.097  1.00  0.00     0.187 C 
HETATM   29  C17 UNL     1     -13.247  35.940  45.668  1.00  0.00     0.150 C 
ENDBRANCH   8  24
TORSDOF 3
ENDMDL
MODEL 2
REMARK VINA RESULT: -7.316732999      1.991      5.559
REMARK  3 active torsions:
REMARK  status: ('A' for Active; 'I' for Inactive)
REMARK    1  A    between atoms: C2_2  and  N1_3 
REMARK    2  A    between atoms: C8_12  and  N3_13 
REMARK    3  A    between atoms: C13_23  and  N6_24 
ROOT
HETATM    1  C1  UNL     1     -16.620  35.341  43.504  1.00  0.00     0.097 A 
HETATM    2  C2  UNL     1     -16.866  35.392  44.840  1.00  0.00     0.122 A 
HETATM    3  N2  UNL     1     -18.155  35.579  45.238  1.00  0.00    -0.177 N 
ATOM      4  H2  UNL     1     -18.345  35.618  46.239  1.00  0.00     0.186 HD
HETATM    5  C8  UNL     1     -19.189  35.715  44.394  1.00  0.00     0.683 A 
HETATM    6  N5  UNL     1     -18.891  35.657  43.077  1.00  0.00    -0.177 N 
ATOM      7  H5  UNL     1     -19.658  35.756  42.412  1.00  0.00     0.186 HD
HETATM    8  C13 UNL     1     -17.674  35.480  42.589  1.00  0.00     0.122 A 
ENDROOT
BRANCH   5   9
HETATM    9  N3  UNL     1     -20.523  35.908  44.848  1.00  0.00    -0.214 N 
HETATM   10  C9  UNL     1     -21.429  36.814  44.187  1.00  0.00     0.168 C 
HETATM   11  C10 UNL     1     -22.397  37.428  45.143  1.00  0.00     0.252 C 
HETATM   12  N4  UNL     1     -22.955  36.530  46.112  1.00  0.00    -0.072 N 
HETATM   13  C11 UNL     1     -22.523  35.171  45.905  1.00  0.00     0.252 C 
ATOM     14  H42 UNL     1     -22.754  36.841  47.062  1.00  0.00     0.277 HD
ATOM     15  H41 UNL     1     -23.972  36.595  46.133  1.00  0.00     0.277 HD
HETATM   16  C12 UNL     1     -20.990  35.177  46.002  1.00  0.00     0.168 C 
ENDBRANCH   5   9
BRANCH   2  17
HETATM   17  N1  UNL     1     -15.829  35.249  45.793  1.00  0.00    -0.365 N 
HETATM   18  C3  UNL     1     -14.788  34.283  45.541  1.00  0.00     0.126 C 
HETATM   19  C4  UNL     1     -13.667  35.093  44.872  1.00  0.00     0.046 C 
HETATM   20  C5  UNL     1     -13.298  36.173  45.888  1.00  0.00     0.169 C 
HETATM   21  O1  UNL     1     -13.493  35.728  47.167  1.00  0.00    -0.389 OA
HETATM   22  C6  UNL     1     -14.660  36.049  47.782  1.00  0.00     0.187 C 
HETATM   23  C7  UNL     1     -15.893  36.109  46.970  1.00  0.00     0.150 C 
ENDBRANCH   2  17
BRANCH   8  24
HETATM   24  N6  UNL     1     -17.354  35.421  41.218  1.00  0.00    -0.363 N 
HETATM   25  C14 UNL     1     -17.252  36.624  40.424  1.00  0.00     0.150 C 
HETATM   26  C15 UNL     1     -17.198  36.178  38.966  1.00  0.00     0.187 C 
HETATM   27  O2  UNL     1     -16.056  35.434  38.763  1.00  0.00    -0.388 OA
HETATM   28  C16 UNL     1     -15.896  34.395  39.641  1.00  0.00     0.187 C 
HETATM   29  C17 UNL     1     -17.103  34.163  40.522  1.00  0.00     0.150 C 
ENDBRANCH   8  24
TORSDOF 3
ENDMDL
MODEL 3
REMARK VINA RESULT: -7.309469917      1.073      5.287
REMARK  3 active torsions:
REMARK  status: ('A' for Active; 'I' for Inactive)
REMARK    1  A    between atoms: C2_2  and  N1_3 
REMARK    2  A    between atoms: C8_12  and  N3_13 
REMARK    3  A    between atoms: C13_23  and  N6_24 
ROOT
HETATM    1  C1  UNL     1     -15.915  35.360  43.108  1.00  0.00     0.097 A 
HETATM    2  C2  UNL     1     -15.714  35.378  44.452  1.00  0.00     0.122 A 
HETATM    3  N2  UNL     1     -16.811  35.443  45.255  1.00  0.00    -0.177 N 
ATOM      4  H2  UNL     1     -16.666  35.458  46.264  1.00  0.00     0.186 HD
HETATM    5  C8  UNL     1     -18.073  35.490  44.799  1.00  0.00     0.683 A 
HETATM    6  N5  UNL     1     -18.219  35.469  43.456  1.00  0.00    -0.177 N 
ATOM      7  H5  UNL     1     -19.167  35.502  43.081  1.00  0.00     0.186 HD
HETATM    8  C13 UNL     1     -17.219  35.408  42.592  1.00  0.00     0.122 A 
ENDROOT
BRANCH   5   9
HETATM    9  N3  UNL     1     -19.196  35.556  45.670  1.00  0.00    -0.214 N 
HETATM   10  C9  UNL     1     -19.065  35.376  47.095  1.00  0.00     0.168 C 
HETATM   11  C10 UNL     1     -20.284  34.752  47.689  1.00  0.00     0.252 C 
HETATM   12  N4  UNL     1     -21.533  35.258  47.202  1.00  0.00    -0.072 N 
HETATM   13  C11 UNL     1     -21.353  36.352  46.280  1.00  0.00     0.252 C 
ATOM     14  H42 UNL     1     -22.096  34.515  46.788  1.00  0.00     0.277 HD
ATOM     15  H41 UNL     1     -22.150  35.520  47.970  1.00  0.00     0.277 HD
HETATM   16  C12 UNL     1     -20.505  35.813  45.119  1.00  0.00     0.168 C 
ENDBRANCH   5   9
BRANCH   2  17
HETATM   17  N1  UNL     1     -14.413  35.325  45.009  1.00  0.00    -0.365 N 
HETATM   18  C3  UNL     1     -13.912  34.055  45.472  1.00  0.00     0.126 C 
HETATM   19  C4  UNL     1     -13.111  33.501  44.283  1.00  0.00     0.046 C 
HETATM   20  C5  UNL     1     -12.031  34.548  44.012  1.00  0.00     0.169 C 
HETATM   21  O1  UNL     1     -11.669  35.187  45.167  1.00  0.00    -0.389 OA
HETATM   22  C6  UNL     1     -12.255  36.380  45.446  1.00  0.00     0.187 C 
HETATM   23  C7  UNL     1     -13.668  36.579  45.065  1.00  0.00     0.150 C 
ENDBRANCH   2  17
BRANCH   8  24
HETATM   24  N6  UNL     1     -17.362  35.389  41.190  1.00  0.00    -0.363 N 
HETATM   25  C14 UNL     1     -17.829  36.553  40.473  1.00  0.00     0.150 C 
HETATM   26  C15 UNL     1     -18.146  36.089  39.054  1.00  0.00     0.187 C 
HETATM   27  O2  UNL     1     -16.987  35.651  38.452  1.00  0.00    -0.388 OA
HETATM   28  C16 UNL     1     -16.295  34.715  39.172  1.00  0.00     0.187 C 
HETATM   29  C17 UNL     1     -17.049  34.214  40.384  1.00  0.00     0.150 C 
ENDBRANCH   8  24
TORSDOF 3
ENDMDL
MODEL 4
REMARK VINA RESULT: -7.297800457      2.697      7.487
REMARK  3 active torsions:
REMARK  status: ('A' for Active; 'I' for Inactive)
REMARK    1  A    between atoms: C2_2  and  N1_3 
REMARK    2  A    between atoms: C8_12  and  N3_13 
REMARK    3  A    between atoms: C13_23  and  N6_24 
ROOT
HETATM    1  C1  UNL     1     -18.444  35.559  45.498  1.00  0.00     0.097 A 
HETATM    2  C2  UNL     1     -17.144  35.400  45.134  1.00  0.00     0.122 A 
HETATM    3  N2  UNL     1     -16.859  35.376  43.803  1.00  0.00    -0.177 N 
ATOM      4  H2  UNL     1     -15.886  35.257  43.524  1.00  0.00     0.186 HD
HETATM    5  C8  UNL     1     -17.782  35.500  42.836  1.00  0.00     0.683 A 
HETATM    6  N5  UNL     1     -19.058  35.656  43.250  1.00  0.00    -0.177 N 
ATOM      7  H5  UNL     1     -19.781  35.753  42.536  1.00  0.00     0.186 HD
HETATM    8  C13 UNL     1     -19.438  35.691  44.517  1.00  0.00     0.122 A 
ENDROOT
BRANCH   5   9
HETATM    9  N3  UNL     1     -17.445  35.471  41.454  1.00  0.00    -0.214 N 
HETATM   10  C9  UNL     1     -17.061  34.250  40.789  1.00  0.00     0.168 C 
HETATM   11  C10 UNL     1     -16.087  34.501  39.687  1.00  0.00     0.252 C 
HETATM   12  N4  UNL     1     -16.373  35.637  38.862  1.00  0.00    -0.072 N 
HETATM   13  C11 UNL     1     -17.618  36.269  39.220  1.00  0.00     0.252 C 
ATOM     14  H42 UNL     1     -15.603  36.306  38.874  1.00  0.00     0.277 HD
ATOM     15  H41 UNL     1     -16.356  35.390  37.873  1.00  0.00     0.277 HD
HETATM   16  C12 UNL     1     -17.488  36.695  40.689  1.00  0.00     0.168 C 
ENDBRANCH   5   9
BRANCH   2  17
HETATM   17  N1  UNL     1     -16.114  35.271  46.096  1.00  0.00    -0.365 N 
HETATM   18  C3  UNL     1     -15.076  34.296  45.870  1.00  0.00     0.126 C 
HETATM   19  C4  UNL     1     -13.946  35.089  45.193  1.00  0.00     0.046 C 
HETATM   20  C5  UNL     1     -13.579  36.186  46.191  1.00  0.00     0.169 C 
HETATM   21  O1  UNL     1     -13.784  35.766  47.476  1.00  0.00    -0.389 OA
HETATM   22  C6  UNL     1     -14.954  36.103  48.078  1.00  0.00     0.187 C 
HETATM   23  C7  UNL     1     -16.182  36.154  47.257  1.00  0.00     0.150 C 
ENDBRANCH   2  17
BRANCH   8  24
HETATM   24  N6  UNL     1     -20.767  35.850  44.959  1.00  0.00    -0.363 N 
HETATM   25  C14 UNL     1     -21.259  35.135  46.114  1.00  0.00     0.150 C 
HETATM   26  C15 UNL     1     -22.775  35.305  46.115  1.00  0.00     0.187 C 
HETATM   27  O2  UNL     1     -23.080  36.640  46.276  1.00  0.00    -0.388 OA
HETATM   28  C16 UNL     1     -22.455  37.473  45.388  1.00  0.00     0.187 C 
HETATM   29  C17 UNL     1     -21.716  36.736  44.293  1.00  0.00     0.150 C 
ENDBRANCH   8  24
TORSDOF 3
ENDMDL
MODEL 5
REMARK VINA RESULT: -7.237053197      2.114      5.370
REMARK  3 active torsions:
REMARK  status: ('A' for Active; 'I' for Inactive)
REMARK    1  A    between atoms: C2_2  and  N1_3 
REMARK    2  A    between atoms: C8_12  and  N3_13 
REMARK    3  A    between atoms: C13_23  and  N6_24 
ROOT
HETATM    1  C1  UNL     1     -17.987  35.129  43.695  1.00  0.00     0.097 A 
HETATM    2  C2  UNL     1     -17.122  35.203  42.648  1.00  0.00     0.122 A 
HETATM    3  N2  UNL     1     -15.792  35.271  42.932  1.00  0.00    -0.177 N 
ATOM      4  H2  UNL     1     -15.138  35.326  42.151  1.00  0.00     0.186 HD
HETATM    5  C8  UNL     1     -15.288  35.269  44.176  1.00  0.00     0.683 A 
HETATM    6  N5  UNL     1     -16.190  35.194  45.180  1.00  0.00    -0.177 N 
ATOM      7  H5  UNL     1     -15.836  35.190  46.137  1.00  0.00     0.186 HD
HETATM    8  C13 UNL     1     -17.500  35.126  45.010  1.00  0.00     0.122 A 
ENDROOT
BRANCH   5   9
HETATM    9  N3  UNL     1     -13.891  35.341  44.433  1.00  0.00    -0.214 N 
HETATM   10  C9  UNL     1     -13.357  36.108  45.531  1.00  0.00     0.168 C 
HETATM   11  C10 UNL     1     -12.008  36.663  45.215  1.00  0.00     0.252 C 
HETATM   12  N4  UNL     1     -11.115  35.762  44.546  1.00  0.00    -0.072 N 
HETATM   13  C11 UNL     1     -11.687  34.448  44.389  1.00  0.00     0.252 C 
ATOM     14  H42 UNL     1     -10.810  36.142  43.650  1.00  0.00     0.277 HD
ATOM     15  H41 UNL     1     -10.213  35.718  45.019  1.00  0.00     0.277 HD
HETATM   16  C12 UNL     1     -12.977  34.625  43.575  1.00  0.00     0.168 C 
ENDBRANCH   5   9
BRANCH   2  17
HETATM   17  N1  UNL     1     -17.576  35.202  41.307  1.00  0.00    -0.365 N 
HETATM   18  C3  UNL     1     -18.364  36.316  40.844  1.00  0.00     0.126 C 
HETATM   19  C4  UNL     1     -17.345  37.264  40.193  1.00  0.00     0.046 C 
HETATM   20  C5  UNL     1     -16.695  36.441  39.081  1.00  0.00     0.169 C 
HETATM   21  O1  UNL     1     -17.574  35.524  38.574  1.00  0.00    -0.389 OA
HETATM   22  C6  UNL     1     -17.520  34.255  39.057  1.00  0.00     0.187 C 
HETATM   23  C7  UNL     1     -17.197  34.057  40.485  1.00  0.00     0.150 C 
ENDBRANCH   2  17
BRANCH   8  24
HETATM   24  N6  UNL     1     -18.447  35.050  46.051  1.00  0.00    -0.363 N 
HETATM   25  C14 UNL     1     -19.804  34.623  45.794  1.00  0.00     0.150 C 
HETATM   26  C15 UNL     1     -20.606  34.949  47.050  1.00  0.00     0.187 C 
HETATM   27  O2  UNL     1     -20.115  34.208  48.105  1.00  0.00    -0.388 OA
HETATM   28  C16 UNL     1     -18.765  34.323  48.295  1.00  0.00     0.187 C 
HETATM   29  C17 UNL     1     -18.126  35.389  47.433  1.00  0.00     0.150 C 
ENDBRANCH   8  24
TORSDOF 3
ENDMDL
