MODEL 1
REMARK VINA RESULT: -8.033988365      0.000      0.000
REMARK  3 active torsions:
REMARK  status: ('A' for Active; 'I' for Inactive)
REMARK    1  A    between atoms: N1_4  and  C3_5 
REMARK    2  A    between atoms: C4_8  and  C5_9 
REMARK    3  A    between atoms: C10_18  and  N5_19 
ROOT
HETATM    1  C3  UNL     1     -15.268  36.150  44.640  1.00  0.00     0.697 A 
HETATM    2  N2  UNL     1     -16.104  36.316  43.576  1.00  0.00    -0.175 N 
ATOM      3  H2  UNL     1     -15.814  35.996  42.652  1.00  0.00     0.186 HD
HETATM    4  C4  UNL     1     -17.306  36.894  43.732  1.00  0.00     0.148 A 
HETATM    5  N4  UNL     1     -17.669  37.306  44.958  1.00  0.00    -0.175 N 
ATOM      6  H4  UNL     1     -18.583  37.745  45.075  1.00  0.00     0.186 HD
HETATM    7  C10 UNL     1     -16.881  37.167  46.038  1.00  0.00     0.696 A 
HETATM    8  N6  UNL     1     -15.688  36.583  45.838  1.00  0.00    -0.022 N 
ATOM      9  H6  UNL     1     -15.069  36.463  46.640  1.00  0.00     0.203 HD
ENDROOT
BRANCH   1  10
HETATM   10  N1  UNL     1     -14.025  35.539  44.414  1.00  0.00    -0.207 N 
HETATM   11  C2  UNL     1     -13.886  34.339  43.616  1.00  0.00     0.244 C 
HETATM   12  C1  UNL     1     -12.681  33.569  44.061  1.00  0.00     0.236 C 
HETATM   13  O1  UNL     1     -12.722  32.367  44.375  1.00  0.00    -0.272 OA
HETATM   14  N7  UNL     1     -11.455  34.309  44.105  1.00  0.00    -0.358 N 
HETATM   15  C16 UNL     1     -11.590  35.755  44.227  1.00  0.00     0.143 C 
ATOM     16  H7  UNL     1     -10.545  33.852  44.055  1.00  0.00     0.162 HD
HETATM   17  C15 UNL     1     -12.840  36.127  44.997  1.00  0.00     0.161 C 
ENDBRANCH   1  10
BRANCH   4  18
HETATM   18  C5  UNL     1     -18.149  37.038  42.553  1.00  0.00     0.024 A 
HETATM   19  C6  UNL     1     -19.466  37.407  42.666  1.00  0.00     0.018 A 
HETATM   20  C7  UNL     1     -20.222  37.529  41.524  1.00  0.00     0.018 A 
HETATM   21  C8  UNL     1     -19.668  37.286  40.286  1.00  0.00     0.087 A 
HETATM   22  N3  UNL     1     -18.378  36.925  40.179  1.00  0.00    -0.374 N 
HETATM   23  C9  UNL     1     -17.626  36.800  41.277  1.00  0.00     0.102 A 
ATOM     24  H3  UNL     1     -17.971  36.747  39.261  1.00  0.00     0.164 HD
ENDBRANCH   4  18
BRANCH   7  25
HETATM   25  N5  UNL     1     -17.328  37.624  47.295  1.00  0.00    -0.213 N 
HETATM   26  C11 UNL     1     -18.418  38.577  47.381  1.00  0.00     0.167 C 
HETATM   27  C12 UNL     1     -17.863  39.775  48.154  1.00  0.00     0.188 C 
HETATM   28  O2  UNL     1     -17.358  39.389  49.364  1.00  0.00    -0.388 OA
HETATM   29  C13 UNL     1     -17.436  38.046  49.637  1.00  0.00     0.188 C 
HETATM   30  C14 UNL     1     -16.755  37.197  48.555  1.00  0.00     0.167 C 
ENDBRANCH   7  25
TORSDOF 3
ENDMDL
MODEL 2
REMARK VINA RESULT: -7.993681623      1.994      2.257
REMARK  3 active torsions:
REMARK  status: ('A' for Active; 'I' for Inactive)
REMARK    1  A    between atoms: N1_4  and  C3_5 
REMARK    2  A    between atoms: C4_8  and  C5_9 
REMARK    3  A    between atoms: C10_18  and  N5_19 
ROOT
HETATM    1  C3  UNL     1     -15.808  35.400  44.752  1.00  0.00     0.697 A 
HETATM    2  N2  UNL     1     -16.508  35.872  43.681  1.00  0.00    -0.175 N 
ATOM      3  H2  UNL     1     -16.030  36.019  42.792  1.00  0.00     0.186 HD
HETATM    4  C4  UNL     1     -17.818  36.145  43.784  1.00  0.00     0.148 A 
HETATM    5  N4  UNL     1     -18.428  35.944  44.965  1.00  0.00    -0.175 N 
ATOM      6  H4  UNL     1     -19.424  36.151  45.041  1.00  0.00     0.186 HD
HETATM    7  C10 UNL     1     -17.782  35.481  46.049  1.00  0.00     0.696 A 
HETATM    8  N6  UNL     1     -16.474  35.220  45.902  1.00  0.00    -0.022 N 
ATOM      9  H6  UNL     1     -15.958  34.867  46.709  1.00  0.00     0.203 HD
ENDROOT
BRANCH   1  10
HETATM   10  N1  UNL     1     -14.441  35.134  44.581  1.00  0.00    -0.207 N 
HETATM   11  C2  UNL     1     -13.957  34.119  43.670  1.00  0.00     0.244 C 
HETATM   12  C1  UNL     1     -12.634  33.600  44.140  1.00  0.00     0.236 C 
HETATM   13  O1  UNL     1     -12.401  32.391  44.310  1.00  0.00    -0.272 OA
HETATM   14  N7  UNL     1     -11.633  34.594  44.390  1.00  0.00    -0.358 N 
HETATM   15  C16 UNL     1     -12.126  35.938  44.663  1.00  0.00     0.143 C 
ATOM     16  H7  UNL     1     -10.637  34.374  44.379  1.00  0.00     0.162 HD
HETATM   17  C15 UNL     1     -13.479  35.899  45.343  1.00  0.00     0.161 C 
ENDBRANCH   1  10
BRANCH   4  18
HETATM   18  C5  UNL     1     -18.504  36.646  42.601  1.00  0.00     0.024 A 
HETATM   19  C6  UNL     1     -19.740  37.234  42.695  1.00  0.00     0.018 A 
HETATM   20  C7  UNL     1     -20.348  37.690  41.550  1.00  0.00     0.018 A 
HETATM   21  C8  UNL     1     -19.728  37.560  40.327  1.00  0.00     0.087 A 
HETATM   22  N3  UNL     1     -18.516  36.985  40.238  1.00  0.00    -0.374 N 
HETATM   23  C9  UNL     1     -17.909  36.534  41.339  1.00  0.00     0.102 A 
ATOM     24  H3  UNL     1     -18.060  36.892  39.331  1.00  0.00     0.164 HD
ENDBRANCH   4  18
BRANCH   7  25
HETATM   25  N5  UNL     1     -18.488  35.294  47.257  1.00  0.00    -0.213 N 
HETATM   26  C11 UNL     1     -17.950  35.802  48.505  1.00  0.00     0.167 C 
HETATM   27  C12 UNL     1     -17.842  34.590  49.434  1.00  0.00     0.188 C 
HETATM   28  O2  UNL     1     -19.047  33.957  49.558  1.00  0.00    -0.388 OA
HETATM   29  C13 UNL     1     -20.081  34.506  48.843  1.00  0.00     0.188 C 
HETATM   30  C14 UNL     1     -19.758  34.605  47.346  1.00  0.00     0.167 C 
ENDBRANCH   7  25
TORSDOF 3
ENDMDL
MODEL 3
REMARK VINA RESULT: -7.887393101      3.344      5.801
REMARK  3 active torsions:
REMARK  status: ('A' for Active; 'I' for Inactive)
REMARK    1  A    between atoms: N1_4  and  C3_5 
REMARK    2  A    between atoms: C4_8  and  C5_9 
REMARK    3  A    between atoms: C10_18  and  N5_19 
ROOT
HETATM    1  C3  UNL     1     -18.100  35.358  43.666  1.00  0.00     0.697 A 
HETATM    2  N2  UNL     1     -17.253  35.391  44.734  1.00  0.00    -0.175 N 
ATOM      3  H2  UNL     1     -16.248  35.306  44.583  1.00  0.00     0.186 HD
HETATM    4  C4  UNL     1     -17.727  35.535  45.982  1.00  0.00     0.148 A 
HETATM    5  N4  UNL     1     -19.055  35.647  46.158  1.00  0.00    -0.175 N 
ATOM      6  H4  UNL     1     -19.414  35.757  47.106  1.00  0.00     0.186 HD
HETATM    7  C10 UNL     1     -19.931  35.619  45.139  1.00  0.00     0.696 A 
HETATM    8  N6  UNL     1     -19.415  35.474  43.908  1.00  0.00    -0.022 N 
ATOM      9  H6  UNL     1     -20.056  35.451  43.115  1.00  0.00     0.203 HD
ENDROOT
BRANCH   1  10
HETATM   10  N1  UNL     1     -17.544  35.205  42.387  1.00  0.00    -0.207 N 
HETATM   11  C2  UNL     1     -16.981  33.951  41.932  1.00  0.00     0.244 C 
HETATM   12  C1  UNL     1     -15.928  34.210  40.899  1.00  0.00     0.236 C 
HETATM   13  O1  UNL     1     -14.775  33.755  40.978  1.00  0.00    -0.272 OA
HETATM   14  N7  UNL     1     -16.332  35.030  39.796  1.00  0.00    -0.358 N 
HETATM   15  C16 UNL     1     -17.470  35.907  40.039  1.00  0.00     0.143 C 
ATOM     16  H7  UNL     1     -15.853  35.001  38.896  1.00  0.00     0.162 HD
HETATM   17  C15 UNL     1     -17.531  36.339  41.490  1.00  0.00     0.161 C 
ENDBRANCH   1  10
BRANCH   4  18
HETATM   18  C5  UNL     1     -16.767  35.563  47.075  1.00  0.00     0.024 A 
HETATM   19  C6  UNL     1     -17.130  35.197  48.347  1.00  0.00     0.018 A 
HETATM   20  C7  UNL     1     -16.188  35.241  49.347  1.00  0.00     0.018 A 
HETATM   21  C8  UNL     1     -14.899  35.646  49.079  1.00  0.00     0.087 A 
HETATM   22  N3  UNL     1     -14.546  36.004  47.832  1.00  0.00    -0.374 N 
HETATM   23  C9  UNL     1     -15.447  35.969  46.847  1.00  0.00     0.102 A 
ATOM     24  H3  UNL     1     -13.590  36.302  47.638  1.00  0.00     0.164 HD
ENDBRANCH   4  18
BRANCH   7  25
HETATM   25  N5  UNL     1     -21.312  35.741  45.399  1.00  0.00    -0.213 N 
HETATM   26  C11 UNL     1     -22.117  36.688  44.651  1.00  0.00     0.167 C 
HETATM   27  C12 UNL     1     -22.760  37.603  45.695  1.00  0.00     0.188 C 
HETATM   28  O2  UNL     1     -23.459  36.879  46.620  1.00  0.00    -0.388 OA
HETATM   29  C13 UNL     1     -23.441  35.519  46.443  1.00  0.00     0.188 C 
HETATM   30  C14 UNL     1     -22.012  34.962  46.398  1.00  0.00     0.167 C 
ENDBRANCH   7  25
TORSDOF 3
ENDMDL
MODEL 4
REMARK VINA RESULT: -7.789690327      2.800      5.807
REMARK  3 active torsions:
REMARK  status: ('A' for Active; 'I' for Inactive)
REMARK    1  A    between atoms: N1_4  and  C3_5 
REMARK    2  A    between atoms: C4_8  and  C5_9 
REMARK    3  A    between atoms: C10_18  and  N5_19 
ROOT
HETATM    1  C3  UNL     1     -17.321  34.838  44.952  1.00  0.00     0.697 A 
HETATM    2  N2  UNL     1     -17.685  34.962  43.644  1.00  0.00    -0.175 N 
ATOM      3  H2  UNL     1     -18.674  34.960  43.393  1.00  0.00     0.186 HD
HETATM    4  C4  UNL     1     -16.757  35.087  42.682  1.00  0.00     0.148 A 
HETATM    5  N4  UNL     1     -15.460  35.088  43.035  1.00  0.00    -0.175 N 
ATOM      6  H4  UNL     1     -14.756  35.185  42.303  1.00  0.00     0.186 HD
HETATM    7  C10 UNL     1     -15.050  34.968  44.309  1.00  0.00     0.696 A 
HETATM    8  N6  UNL     1     -16.011  34.846  45.239  1.00  0.00    -0.022 N 
ATOM      9  H6  UNL     1     -15.729  34.754  46.215  1.00  0.00     0.203 HD
ENDROOT
BRANCH   1  10
HETATM   10  N1  UNL     1     -18.337  34.710  45.910  1.00  0.00    -0.207 N 
HETATM   11  C2  UNL     1     -19.703  34.387  45.554  1.00  0.00     0.244 C 
HETATM   12  C1  UNL     1     -20.642  34.942  46.579  1.00  0.00     0.236 C 
HETATM   13  O1  UNL     1     -21.608  35.669  46.290  1.00  0.00    -0.272 OA
HETATM   14  N7  UNL     1     -20.361  34.581  47.937  1.00  0.00    -0.358 N 
HETATM   15  C16 UNL     1     -18.985  34.190  48.217  1.00  0.00     0.143 C 
ATOM     16  H7  UNL     1     -21.078  34.598  48.661  1.00  0.00     0.162 HD
HETATM   17  C15 UNL     1     -18.012  34.908  47.306  1.00  0.00     0.161 C 
ENDBRANCH   1  10
BRANCH   4  18
HETATM   18  C5  UNL     1     -17.216  35.217  41.307  1.00  0.00     0.024 A 
HETATM   19  C6  UNL     1     -17.046  34.196  40.404  1.00  0.00     0.018 A 
HETATM   20  C7  UNL     1     -17.496  34.366  39.117  1.00  0.00     0.018 A 
HETATM   21  C8  UNL     1     -18.107  35.540  38.735  1.00  0.00     0.087 A 
HETATM   22  N3  UNL     1     -18.271  36.538  39.621  1.00  0.00    -0.374 N 
HETATM   23  C9  UNL     1     -17.841  36.393  40.877  1.00  0.00     0.102 A 
ATOM     24  H3  UNL     1     -18.725  37.405  39.335  1.00  0.00     0.164 HD
ENDBRANCH   4  18
BRANCH   7  25
HETATM   25  N5  UNL     1     -13.671  34.977  44.604  1.00  0.00    -0.213 N 
HETATM   26  C11 UNL     1     -13.162  35.778  45.702  1.00  0.00     0.167 C 
HETATM   27  C12 UNL     1     -12.114  36.708  45.086  1.00  0.00     0.188 C 
HETATM   28  O2  UNL     1     -11.156  35.997  44.419  1.00  0.00    -0.388 OA
HETATM   29  C13 UNL     1     -11.320  34.635  44.423  1.00  0.00     0.188 C 
HETATM   30  C14 UNL     1     -12.686  34.216  43.863  1.00  0.00     0.167 C 
ENDBRANCH   7  25
TORSDOF 3
ENDMDL
MODEL 5
REMARK VINA RESULT: -7.776040535      2.740      5.721
REMARK  3 active torsions:
REMARK  status: ('A' for Active; 'I' for Inactive)
REMARK    1  A    between atoms: N1_4  and  C3_5 
REMARK    2  A    between atoms: C4_8  and  C5_9 
REMARK    3  A    between atoms: C10_18  and  N5_19 
ROOT
HETATM    1  C3  UNL     1     -17.337  34.966  44.987  1.00  0.00     0.697 A 
HETATM    2  N2  UNL     1     -17.701  35.068  43.676  1.00  0.00    -0.175 N 
ATOM      3  H2  UNL     1     -18.690  35.077  43.428  1.00  0.00     0.186 HD
HETATM    4  C4  UNL     1     -16.773  35.156  42.711  1.00  0.00     0.148 A 
HETATM    5  N4  UNL     1     -15.476  35.143  43.060  1.00  0.00    -0.175 N 
ATOM      6  H4  UNL     1     -14.772  35.211  42.325  1.00  0.00     0.186 HD
HETATM    7  C10 UNL     1     -15.065  35.043  44.336  1.00  0.00     0.696 A 
HETATM    8  N6  UNL     1     -16.025  34.958  45.270  1.00  0.00    -0.022 N 
ATOM      9  H6  UNL     1     -15.743  34.882  46.248  1.00  0.00     0.203 HD
ENDROOT
BRANCH   1  10
HETATM   10  N1  UNL     1     -18.353  34.876  45.949  1.00  0.00    -0.207 N 
HETATM   11  C2  UNL     1     -18.095  35.036  47.365  1.00  0.00     0.244 C 
HETATM   12  C1  UNL     1     -19.114  34.278  48.157  1.00  0.00     0.236 C 
HETATM   13  O1  UNL     1     -18.813  33.450  49.033  1.00  0.00    -0.272 OA
HETATM   14  N7  UNL     1     -20.483  34.564  47.842  1.00  0.00    -0.358 N 
HETATM   15  C16 UNL     1     -20.726  35.117  46.516  1.00  0.00     0.143 C 
ATOM     16  H7  UNL     1     -21.238  34.391  48.504  1.00  0.00     0.162 HD
HETATM   17  C15 UNL     1     -19.707  34.614  45.515  1.00  0.00     0.161 C 
ENDBRANCH   1  10
BRANCH   4  18
HETATM   18  C5  UNL     1     -17.233  35.264  41.333  1.00  0.00     0.024 A 
HETATM   19  C6  UNL     1     -17.068  34.227  40.449  1.00  0.00     0.018 A 
HETATM   20  C7  UNL     1     -17.518  34.376  39.159  1.00  0.00     0.018 A 
HETATM   21  C8  UNL     1     -18.125  35.546  38.758  1.00  0.00     0.087 A 
HETATM   22  N3  UNL     1     -18.286  36.559  39.627  1.00  0.00    -0.374 N 
HETATM   23  C9  UNL     1     -17.855  36.434  40.884  1.00  0.00     0.102 A 
ATOM     24  H3  UNL     1     -18.738  37.423  39.326  1.00  0.00     0.164 HD
ENDBRANCH   4  18
BRANCH   7  25
HETATM   25  N5  UNL     1     -13.685  35.035  44.629  1.00  0.00    -0.213 N 
HETATM   26  C11 UNL     1     -13.166  35.822  45.731  1.00  0.00     0.167 C 
HETATM   27  C12 UNL     1     -12.109  36.745  45.120  1.00  0.00     0.188 C 
HETATM   28  O2  UNL     1     -11.160  36.029  44.446  1.00  0.00    -0.388 OA
HETATM   29  C13 UNL     1     -11.339  34.669  44.440  1.00  0.00     0.188 C 
HETATM   30  C14 UNL     1     -12.711  34.269  43.880  1.00  0.00     0.167 C 
ENDBRANCH   7  25
TORSDOF 3
ENDMDL
