MODEL 1
REMARK VINA RESULT: -9.058696704      0.000      0.000
REMARK  4 active torsions:
REMARK  status: ('A' for Active; 'I' for Inactive)
REMARK    1  A    between atoms: C2_2  and  C3_4 
REMARK    2  A    between atoms: C4_5  and  N1_6 
REMARK    3  A    between atoms: N1_6  and  C5_8 
REMARK    4  A    between atoms: N2_19  and  C14_20 
ROOT
HETATM    1  C3  UNL     1     -14.341  34.970  45.305  1.00  0.00     0.122 A 
HETATM    2  C4  UNL     1     -15.696  34.855  45.431  1.00  0.00     0.138 A 
HETATM    3  N2  UNL     1     -16.308  35.386  46.493  1.00  0.00    -0.224 N 
HETATM    4  C15 UNL     1     -15.607  36.029  47.432  1.00  0.00     0.337 A 
HETATM    5  O5  UNL     1     -16.169  36.534  48.438  1.00  0.00    -0.246 OA
HETATM    6  N3  UNL     1     -14.282  36.143  47.310  1.00  0.00    -0.274 N 
ATOM      7  H3  UNL     1     -13.759  36.637  48.034  1.00  0.00     0.173 HD
HETATM    8  C16 UNL     1     -13.616  35.625  46.258  1.00  0.00     0.267 A 
HETATM    9  O6  UNL     1     -12.355  35.768  46.200  1.00  0.00    -0.267 OA
ENDROOT
BRANCH   2  10
HETATM   10  N1  UNL     1     -16.453  34.188  44.464  1.00  0.00    -0.334 N 
ATOM     11  H1  UNL     1     -16.811  33.262  44.702  1.00  0.00     0.168 HD
BRANCH  10  12
HETATM   12  C5  UNL     1     -16.734  34.653  43.297  1.00  0.00     0.137 A 
HETATM   13  C6  UNL     1     -17.031  35.943  42.919  1.00  0.00     0.213 A 
HETATM   14  O2  UNL     1     -17.087  36.946  43.668  1.00  0.00    -0.285 OA
HETATM   15  C7  UNL     1     -17.262  35.957  41.560  1.00  0.00     0.031 A 
HETATM   16  C8  UNL     1     -17.597  36.963  40.655  1.00  0.00     0.016 A 
HETATM   17  C12 UNL     1     -17.113  34.671  41.060  1.00  0.00     0.031 A 
HETATM   18  C9  UNL     1     -17.770  36.684  39.321  1.00  0.00     0.001 A 
HETATM   19  C10 UNL     1     -17.619  35.402  38.837  1.00  0.00     0.001 A 
HETATM   20  C11 UNL     1     -17.289  34.390  39.704  1.00  0.00     0.016 A 
HETATM   21  C13 UNL     1     -16.788  33.891  42.151  1.00  0.00     0.213 A 
HETATM   22  O3  UNL     1     -16.580  32.639  42.037  1.00  0.00    -0.285 OA
ENDBRANCH  10  12
ENDBRANCH   2  10
BRANCH   1  23
HETATM   23  C2  UNL     1     -13.663  34.397  44.156  1.00  0.00     0.165 C 
HETATM   24  C1  UNL     1     -12.965  33.098  44.176  1.00  0.00     0.097 C 
HETATM   25  O1  UNL     1     -13.680  35.059  43.086  1.00  0.00    -0.292 OA
ENDBRANCH   1  23
BRANCH   3  26
HETATM   26  C14 UNL     1     -17.738  35.270  46.639  1.00  0.00     0.365 C 
HETATM   27  O4  UNL     1     -18.256  34.162  46.897  1.00  0.00    -0.283 OA
ENDBRANCH   3  26
TORSDOF 4
ENDMDL
MODEL 2
REMARK VINA RESULT: -9.042386077      0.777      3.001
REMARK  4 active torsions:
REMARK  status: ('A' for Active; 'I' for Inactive)
REMARK    1  A    between atoms: C2_2  and  C3_4 
REMARK    2  A    between atoms: C4_5  and  N1_6 
REMARK    3  A    between atoms: N1_6  and  C5_8 
REMARK    4  A    between atoms: N2_19  and  C14_20 
ROOT
HETATM    1  C3  UNL     1     -16.040  35.269  46.495  1.00  0.00     0.122 A 
HETATM    2  C4  UNL     1     -15.468  34.823  45.338  1.00  0.00     0.138 A 
HETATM    3  N2  UNL     1     -14.168  35.037  45.119  1.00  0.00    -0.224 N 
HETATM    4  C15 UNL     1     -13.422  35.681  46.021  1.00  0.00     0.337 A 
HETATM    5  O5  UNL     1     -12.196  35.890  45.830  1.00  0.00    -0.246 OA
HETATM    6  N3  UNL     1     -13.979  36.117  47.154  1.00  0.00    -0.274 N 
ATOM      7  H3  UNL     1     -13.399  36.607  47.835  1.00  0.00     0.173 HD
HETATM    8  C16 UNL     1     -15.288  35.928  47.424  1.00  0.00     0.267 A 
HETATM    9  O6  UNL     1     -15.757  36.367  48.519  1.00  0.00    -0.267 OA
ENDROOT
BRANCH   2  10
HETATM   10  N1  UNL     1     -16.224  34.147  44.377  1.00  0.00    -0.334 N 
ATOM     11  H1  UNL     1     -16.537  33.202  44.602  1.00  0.00     0.168 HD
BRANCH  10  12
HETATM   12  C5  UNL     1     -16.555  34.626  43.228  1.00  0.00     0.137 A 
HETATM   13  C6  UNL     1     -16.929  35.906  42.890  1.00  0.00     0.213 A 
HETATM   14  O2  UNL     1     -17.022  36.886  43.667  1.00  0.00    -0.285 OA
HETATM   15  C7  UNL     1     -17.191  35.943  41.537  1.00  0.00     0.031 A 
HETATM   16  C8  UNL     1     -17.599  36.952  40.667  1.00  0.00     0.016 A 
HETATM   17  C12 UNL     1     -16.985  34.679  41.001  1.00  0.00     0.031 A 
HETATM   18  C9  UNL     1     -17.787  36.698  39.330  1.00  0.00     0.001 A 
HETATM   19  C10 UNL     1     -17.579  35.438  38.809  1.00  0.00     0.001 A 
HETATM   20  C11 UNL     1     -17.176  34.423  39.642  1.00  0.00     0.016 A 
HETATM   21  C13 UNL     1     -16.594  33.891  42.064  1.00  0.00     0.213 A 
HETATM   22  O3  UNL     1     -16.322  32.656  41.912  1.00  0.00    -0.285 OA
ENDBRANCH  10  12
ENDBRANCH   2  10
BRANCH   1  23
HETATM   23  C2  UNL     1     -17.453  35.045  46.745  1.00  0.00     0.165 C 
HETATM   24  C1  UNL     1     -18.492  36.076  46.576  1.00  0.00     0.097 C 
HETATM   25  O1  UNL     1     -17.795  33.896  47.129  1.00  0.00    -0.292 OA
ENDBRANCH   1  23
BRANCH   3  26
HETATM   26  C14 UNL     1     -13.551  34.573  43.900  1.00  0.00     0.365 C 
HETATM   27  O4  UNL     1     -13.248  33.367  43.769  1.00  0.00    -0.283 OA
ENDBRANCH   3  26
TORSDOF 4
ENDMDL
MODEL 3
REMARK VINA RESULT: -9.034514244      1.308      1.505
REMARK  4 active torsions:
REMARK  status: ('A' for Active; 'I' for Inactive)
REMARK    1  A    between atoms: C2_2  and  C3_4 
REMARK    2  A    between atoms: C4_5  and  N1_6 
REMARK    3  A    between atoms: N1_6  and  C5_8 
REMARK    4  A    between atoms: N2_19  and  C14_20 
ROOT
HETATM    1  C3  UNL     1     -15.417  34.863  45.974  1.00  0.00     0.122 A 
HETATM    2  C4  UNL     1     -16.662  34.421  45.625  1.00  0.00     0.138 A 
HETATM    3  N2  UNL     1     -17.680  34.573  46.477  1.00  0.00    -0.224 N 
HETATM    4  C15 UNL     1     -17.492  35.153  47.666  1.00  0.00     0.337 A 
HETATM    5  O5  UNL     1     -18.440  35.304  48.479  1.00  0.00    -0.246 OA
HETATM    6  N3  UNL     1     -16.276  35.587  48.008  1.00  0.00    -0.274 N 
ATOM      7  H3  UNL     1     -16.146  36.029  48.919  1.00  0.00     0.173 HD
HETATM    8  C16 UNL     1     -15.215  35.458  47.186  1.00  0.00     0.267 A 
HETATM    9  O6  UNL     1     -14.085  35.891  47.570  1.00  0.00    -0.267 OA
ENDROOT
BRANCH   2  10
HETATM   10  N1  UNL     1     -16.887  33.810  44.389  1.00  0.00    -0.334 N 
ATOM     11  H1  UNL     1     -17.026  32.799  44.381  1.00  0.00     0.168 HD
BRANCH  10  12
HETATM   12  C5  UNL     1     -16.932  34.426  43.259  1.00  0.00     0.137 A 
HETATM   13  C6  UNL     1     -17.367  35.700  42.976  1.00  0.00     0.213 A 
HETATM   14  O2  UNL     1     -17.821  36.533  43.795  1.00  0.00    -0.285 OA
HETATM   15  C7  UNL     1     -17.224  35.920  41.622  1.00  0.00     0.031 A 
HETATM   16  C8  UNL     1     -17.498  37.007  40.793  1.00  0.00     0.016 A 
HETATM   17  C12 UNL     1     -16.693  34.782  41.031  1.00  0.00     0.031 A 
HETATM   18  C9  UNL     1     -17.248  36.946  39.444  1.00  0.00     0.001 A 
HETATM   19  C10 UNL     1     -16.720  35.809  38.869  1.00  0.00     0.001 A 
HETATM   20  C11 UNL     1     -16.440  34.722  39.660  1.00  0.00     0.016 A 
HETATM   21  C13 UNL     1     -16.523  33.880  42.062  1.00  0.00     0.213 A 
HETATM   22  O3  UNL     1     -16.048  32.717  41.858  1.00  0.00    -0.285 OA
ENDBRANCH  10  12
ENDBRANCH   2  10
BRANCH   1  23
HETATM   23  C2  UNL     1     -14.303  34.703  45.058  1.00  0.00     0.165 C 
HETATM   24  C1  UNL     1     -13.779  35.784  44.202  1.00  0.00     0.097 C 
HETATM   25  O1  UNL     1     -13.761  33.568  45.001  1.00  0.00    -0.292 OA
ENDBRANCH   1  23
BRANCH   3  26
HETATM   26  C14 UNL     1     -18.998  34.109  46.122  1.00  0.00     0.365 C 
HETATM   27  O4  UNL     1     -19.776  34.853  45.487  1.00  0.00    -0.283 OA
ENDBRANCH   3  26
TORSDOF 4
ENDMDL
MODEL 4
REMARK VINA RESULT: -8.948585848      2.751      4.740
REMARK  4 active torsions:
REMARK  status: ('A' for Active; 'I' for Inactive)
REMARK    1  A    between atoms: C2_2  and  C3_4 
REMARK    2  A    between atoms: C4_5  and  N1_6 
REMARK    3  A    between atoms: N1_6  and  C5_8 
REMARK    4  A    between atoms: N2_19  and  C14_20 
ROOT
HETATM    1  C3  UNL     1     -14.749  35.370  44.009  1.00  0.00     0.122 A 
HETATM    2  C4  UNL     1     -15.813  35.558  43.172  1.00  0.00     0.138 A 
HETATM    3  N2  UNL     1     -16.067  34.661  42.216  1.00  0.00    -0.224 N 
HETATM    4  C15 UNL     1     -15.292  33.583  42.071  1.00  0.00     0.337 A 
HETATM    5  O5  UNL     1     -15.518  32.729  41.175  1.00  0.00    -0.246 OA
HETATM    6  N3  UNL     1     -14.253  33.397  42.889  1.00  0.00    -0.274 N 
ATOM      7  H3  UNL     1     -13.669  32.568  42.767  1.00  0.00     0.173 HD
HETATM    8  C16 UNL     1     -13.952  34.272  43.870  1.00  0.00     0.267 A 
HETATM    9  O6  UNL     1     -12.950  34.038  44.614  1.00  0.00    -0.267 OA
ENDROOT
BRANCH   2  10
HETATM   10  N1  UNL     1     -16.640  36.678  43.301  1.00  0.00    -0.334 N 
ATOM     11  H1  UNL     1     -16.215  37.596  43.166  1.00  0.00     0.168 HD
BRANCH  10  12
HETATM   12  C5  UNL     1     -17.896  36.638  43.578  1.00  0.00     0.137 A 
HETATM   13  C6  UNL     1     -18.549  35.963  44.584  1.00  0.00     0.213 A 
HETATM   14  O2  UNL     1     -18.022  35.231  45.454  1.00  0.00    -0.285 OA
HETATM   15  C7  UNL     1     -19.899  36.223  44.481  1.00  0.00     0.031 A 
HETATM   16  C8  UNL     1     -21.012  35.816  45.214  1.00  0.00     0.016 A 
HETATM   17  C12 UNL     1     -20.117  37.070  43.403  1.00  0.00     0.031 A 
HETATM   18  C9  UNL     1     -22.274  36.242  44.877  1.00  0.00     0.001 A 
HETATM   19  C10 UNL     1     -22.477  37.084  43.805  1.00  0.00     0.001 A 
HETATM   20  C11 UNL     1     -21.400  37.502  43.062  1.00  0.00     0.016 A 
HETATM   21  C13 UNL     1     -18.868  37.308  42.867  1.00  0.00     0.213 A 
HETATM   22  O3  UNL     1     -18.711  38.059  41.850  1.00  0.00    -0.285 OA
ENDBRANCH  10  12
ENDBRANCH   2  10
BRANCH   1  23
HETATM   23  C2  UNL     1     -14.462  36.339  45.053  1.00  0.00     0.165 C 
HETATM   24  C1  UNL     1     -14.817  36.150  46.471  1.00  0.00     0.097 C 
HETATM   25  O1  UNL     1     -13.874  37.398  44.710  1.00  0.00    -0.292 OA
ENDBRANCH   1  23
BRANCH   3  26
HETATM   26  C14 UNL     1     -17.185  34.848  41.325  1.00  0.00     0.365 C 
HETATM   27  O4  UNL     1     -17.067  35.571  40.312  1.00  0.00    -0.283 OA
ENDBRANCH   3  26
TORSDOF 4
ENDMDL
MODEL 5
REMARK VINA RESULT: -8.739406352      0.797      3.474
REMARK  4 active torsions:
REMARK  status: ('A' for Active; 'I' for Inactive)
REMARK    1  A    between atoms: C2_2  and  C3_4 
REMARK    2  A    between atoms: C4_5  and  N1_6 
REMARK    3  A    between atoms: N1_6  and  C5_8 
REMARK    4  A    between atoms: N2_19  and  C14_20 
ROOT
HETATM    1  C3  UNL     1     -16.018  35.289  46.495  1.00  0.00     0.122 A 
HETATM    2  C4  UNL     1     -15.483  34.801  45.336  1.00  0.00     0.138 A 
HETATM    3  N2  UNL     1     -14.186  34.986  45.078  1.00  0.00    -0.224 N 
HETATM    4  C15 UNL     1     -13.407  35.643  45.941  1.00  0.00     0.337 A 
HETATM    5  O5  UNL     1     -12.183  35.826  45.713  1.00  0.00    -0.246 OA
HETATM    6  N3  UNL     1     -13.927  36.121  47.075  1.00  0.00    -0.274 N 
ATOM      7  H3  UNL     1     -13.321  36.621  47.726  1.00  0.00     0.173 HD
HETATM    8  C16 UNL     1     -15.231  35.962  47.384  1.00  0.00     0.267 A 
HETATM    9  O6  UNL     1     -15.664  36.439  48.477  1.00  0.00    -0.267 OA
ENDROOT
BRANCH   2  10
HETATM   10  N1  UNL     1     -16.275  34.110  44.415  1.00  0.00    -0.334 N 
ATOM     11  H1  UNL     1     -16.669  33.216  44.709  1.00  0.00     0.168 HD
BRANCH  10  12
HETATM   12  C5  UNL     1     -16.544  34.516  43.223  1.00  0.00     0.137 A 
HETATM   13  C6  UNL     1     -16.524  33.820  42.036  1.00  0.00     0.213 A 
HETATM   14  O2  UNL     1     -16.229  32.611  41.886  1.00  0.00    -0.285 OA
HETATM   15  C7  UNL     1     -16.887  34.678  41.020  1.00  0.00     0.031 A 
HETATM   16  C8  UNL     1     -17.035  34.523  39.643  1.00  0.00     0.016 A 
HETATM   17  C12 UNL     1     -17.142  35.933  41.554  1.00  0.00     0.031 A 
HETATM   18  C9  UNL     1     -17.419  35.578  38.851  1.00  0.00     0.001 A 
HETATM   19  C10 UNL     1     -17.669  36.820  39.394  1.00  0.00     0.001 A 
HETATM   20  C11 UNL     1     -17.532  37.004  40.748  1.00  0.00     0.016 A 
HETATM   21  C13 UNL     1     -16.923  35.804  42.911  1.00  0.00     0.213 A 
HETATM   22  O3  UNL     1     -17.071  36.787  43.706  1.00  0.00    -0.285 OA
ENDBRANCH  10  12
ENDBRANCH   2  10
BRANCH   1  23
HETATM   23  C2  UNL     1     -17.427  35.095  46.787  1.00  0.00     0.165 C 
HETATM   24  C1  UNL     1     -18.448  36.149  46.645  1.00  0.00     0.097 C 
HETATM   25  O1  UNL     1     -17.782  33.955  47.185  1.00  0.00    -0.292 OA
ENDBRANCH   1  23
BRANCH   3  26
HETATM   26  C14 UNL     1     -13.609  34.477  43.858  1.00  0.00     0.365 C 
HETATM   27  O4  UNL     1     -13.240  33.285  43.786  1.00  0.00    -0.283 OA
ENDBRANCH   3  26
TORSDOF 4
ENDMDL
