MODEL 1
REMARK VINA RESULT: -7.792770121      0.000      0.000
REMARK  3 active torsions:
REMARK  status: ('A' for Active; 'I' for Inactive)
REMARK    1  A    between atoms: C3_4  and  N1_5 
REMARK    2  A    between atoms: N2_8  and  C6_9 
REMARK    3  A    between atoms: C8_11  and  N3_12 
ROOT
HETATM    1  N1  UNL     1     -15.931  35.080  43.828  1.00  0.00    -0.364 N 
HETATM    2  C4  UNL     1     -16.818  34.744  44.916  1.00  0.00     0.144 C 
HETATM    3  C5  UNL     1     -18.181  34.319  44.345  1.00  0.00     0.144 C 
HETATM    4  N2  UNL     1     -18.636  35.495  43.597  1.00  0.00    -0.364 N 
HETATM    5  C14 UNL     1     -17.834  35.959  42.508  1.00  0.00     0.144 C 
HETATM    6  C15 UNL     1     -16.429  35.463  42.530  1.00  0.00     0.144 C 
ENDROOT
BRANCH   4   7
HETATM    7  C6  UNL     1     -19.852  36.117  43.994  1.00  0.00     0.107 A 
HETATM    8  C7  UNL     1     -20.536  35.714  45.118  1.00  0.00     0.096 A 
HETATM    9  C8  UNL     1     -21.708  36.332  45.476  1.00  0.00     0.107 A 
HETATM   10  N4  UNL     1     -22.164  37.319  44.721  1.00  0.00    -0.339 N 
HETATM   11  C13 UNL     1     -21.509  37.736  43.607  1.00  0.00     0.183 A 
ATOM     12  H4  UNL     1     -23.035  37.781  44.983  1.00  0.00     0.168 HD
HETATM   13  N5  UNL     1     -20.351  37.118  43.262  1.00  0.00    -0.339 N 
ATOM     14  H5  UNL     1     -19.852  37.423  42.426  1.00  0.00     0.168 HD
BRANCH   9  15
HETATM   15  N3  UNL     1     -22.424  35.931  46.627  1.00  0.00    -0.363 N 
HETATM   16  C9  UNL     1     -23.588  35.048  46.547  1.00  0.00     0.150 C 
HETATM   17  C10 UNL     1     -23.833  34.518  47.928  1.00  0.00     0.187 C 
HETATM   18  O2  UNL     1     -22.680  34.140  48.592  1.00  0.00    -0.388 OA
HETATM   19  C11 UNL     1     -21.852  35.211  48.895  1.00  0.00     0.187 C 
HETATM   20  C12 UNL     1     -22.043  36.372  47.947  1.00  0.00     0.150 C 
ENDBRANCH   9  15
ENDBRANCH   4   7
BRANCH   1  21
HETATM   21  C3  UNL     1     -14.532  35.029  44.052  1.00  0.00     0.109 A 
HETATM   22  C2  UNL     1     -13.810  36.105  44.514  1.00  0.00     0.122 A 
HETATM   23  C1  UNL     1     -12.449  35.995  44.715  1.00  0.00     0.249 A 
HETATM   24  O1  UNL     1     -11.834  37.015  45.143  1.00  0.00    -0.268 OA
HETATM   25  N7  UNL     1     -11.832  34.828  44.456  1.00  0.00    -0.320 N 
HETATM   26  C16 UNL     1     -12.518  33.774  44.006  1.00  0.00     0.184 A 
ATOM     27  H7  UNL     1     -10.826  34.746  44.605  1.00  0.00     0.169 HD
HETATM   28  N6  UNL     1     -13.829  33.886  43.814  1.00  0.00    -0.339 N 
ATOM     29  H6  UNL     1     -14.337  33.070  43.469  1.00  0.00     0.168 HD
ENDBRANCH   1  21
TORSDOF 3
ENDMDL
MODEL 2
REMARK VINA RESULT: -7.730365153      3.169      4.270
REMARK  3 active torsions:
REMARK  status: ('A' for Active; 'I' for Inactive)
REMARK    1  A    between atoms: C3_4  and  N1_5 
REMARK    2  A    between atoms: N2_8  and  C6_9 
REMARK    3  A    between atoms: C8_11  and  N3_12 
ROOT
HETATM    1  N1  UNL     1     -17.416  35.140  43.007  1.00  0.00    -0.364 N 
HETATM    2  C4  UNL     1     -18.143  36.189  43.682  1.00  0.00     0.144 C 
HETATM    3  C5  UNL     1     -17.840  36.126  45.188  1.00  0.00     0.144 C 
HETATM    4  N2  UNL     1     -18.292  34.790  45.586  1.00  0.00    -0.364 N 
HETATM    5  C14 UNL     1     -17.677  33.654  44.972  1.00  0.00     0.144 C 
HETATM    6  C15 UNL     1     -16.962  33.961  43.701  1.00  0.00     0.144 C 
ENDROOT
BRANCH   4   7
HETATM    7  C6  UNL     1     -19.321  34.689  46.564  1.00  0.00     0.107 A 
HETATM    8  C7  UNL     1     -20.581  35.195  46.340  1.00  0.00     0.096 A 
HETATM    9  C8  UNL     1     -21.554  35.084  47.302  1.00  0.00     0.107 A 
HETATM   10  N4  UNL     1     -21.256  34.482  48.443  1.00  0.00    -0.339 N 
HETATM   11  C13 UNL     1     -20.021  33.973  48.688  1.00  0.00     0.183 A 
ATOM     12  H4  UNL     1     -21.976  34.398  49.160  1.00  0.00     0.168 HD
HETATM   13  N5  UNL     1     -19.067  34.089  47.731  1.00  0.00    -0.339 N 
ATOM     14  H5  UNL     1     -18.136  33.711  47.907  1.00  0.00     0.168 HD
BRANCH   9  15
HETATM   15  N3  UNL     1     -22.853  35.599  47.090  1.00  0.00    -0.363 N 
HETATM   16  C9  UNL     1     -24.047  34.914  47.587  1.00  0.00     0.150 C 
HETATM   17  C10 UNL     1     -25.170  35.907  47.549  1.00  0.00     0.187 C 
HETATM   18  O2  UNL     1     -24.816  37.166  48.001  1.00  0.00    -0.388 OA
HETATM   19  C11 UNL     1     -23.909  37.806  47.168  1.00  0.00     0.187 C 
HETATM   20  C12 UNL     1     -23.072  36.831  46.372  1.00  0.00     0.150 C 
ENDBRANCH   9  15
ENDBRANCH   4   7
BRANCH   1  21
HETATM   21  C3  UNL     1     -17.147  35.282  41.623  1.00  0.00     0.109 A 
HETATM   22  C2  UNL     1     -16.401  34.373  40.910  1.00  0.00     0.122 A 
HETATM   23  C1  UNL     1     -16.173  34.564  39.561  1.00  0.00     0.249 A 
HETATM   24  O1  UNL     1     -15.481  33.696  38.953  1.00  0.00    -0.268 OA
HETATM   25  N7  UNL     1     -16.686  35.646  38.948  1.00  0.00    -0.320 N 
HETATM   26  C16 UNL     1     -17.412  36.539  39.628  1.00  0.00     0.184 A 
ATOM     27  H7  UNL     1     -16.518  35.787  37.952  1.00  0.00     0.169 HD
HETATM   28  N6  UNL     1     -17.628  36.350  40.925  1.00  0.00    -0.339 N 
ATOM     29  H6  UNL     1     -18.184  37.043  41.427  1.00  0.00     0.168 HD
ENDBRANCH   1  21
TORSDOF 3
ENDMDL
MODEL 3
REMARK VINA RESULT: -7.727929321      4.283      5.687
REMARK  3 active torsions:
REMARK  status: ('A' for Active; 'I' for Inactive)
REMARK    1  A    between atoms: C3_4  and  N1_5 
REMARK    2  A    between atoms: N2_8  and  C6_9 
REMARK    3  A    between atoms: C8_11  and  N3_12 
ROOT
HETATM    1  N1  UNL     1     -17.830  35.447  42.713  1.00  0.00    -0.364 N 
HETATM    2  C4  UNL     1     -17.690  34.211  43.445  1.00  0.00     0.144 C 
HETATM    3  C5  UNL     1     -18.759  34.153  44.549  1.00  0.00     0.144 C 
HETATM    4  N2  UNL     1     -18.477  35.327  45.379  1.00  0.00    -0.364 N 
HETATM    5  C14 UNL     1     -18.548  36.621  44.773  1.00  0.00     0.144 C 
HETATM    6  C15 UNL     1     -18.477  36.601  43.285  1.00  0.00     0.144 C 
ENDROOT
BRANCH   4   7
HETATM    7  C6  UNL     1     -18.145  35.122  46.747  1.00  0.00     0.107 A 
HETATM    8  C7  UNL     1     -17.977  36.177  47.616  1.00  0.00     0.096 A 
HETATM    9  C8  UNL     1     -17.656  35.949  48.931  1.00  0.00     0.107 A 
HETATM   10  N4  UNL     1     -17.513  34.699  49.344  1.00  0.00    -0.339 N 
HETATM   11  C13 UNL     1     -17.674  33.641  48.508  1.00  0.00     0.183 A 
ATOM     12  H4  UNL     1     -17.274  34.526  50.320  1.00  0.00     0.168 HD
HETATM   13  N5  UNL     1     -17.990  33.877  47.210  1.00  0.00    -0.339 N 
ATOM     14  H5  UNL     1     -18.112  33.089  46.575  1.00  0.00     0.168 HD
BRANCH   9  15
HETATM   15  N3  UNL     1     -17.479  37.020  49.836  1.00  0.00    -0.363 N 
HETATM   16  C9  UNL     1     -16.261  37.167  50.633  1.00  0.00     0.150 C 
HETATM   17  C10 UNL     1     -16.240  38.575  51.147  1.00  0.00     0.187 C 
HETATM   18  O2  UNL     1     -16.607  39.518  50.205  1.00  0.00    -0.388 OA
HETATM   19  C11 UNL     1     -17.941  39.423  49.834  1.00  0.00     0.187 C 
HETATM   20  C12 UNL     1     -18.493  38.029  50.022  1.00  0.00     0.150 C 
ENDBRANCH   9  15
ENDBRANCH   4   7
BRANCH   1  21
HETATM   21  C3  UNL     1     -17.311  35.519  41.396  1.00  0.00     0.109 A 
HETATM   22  C2  UNL     1     -16.580  34.503  40.825  1.00  0.00     0.122 A 
HETATM   23  C1  UNL     1     -16.102  34.629  39.536  1.00  0.00     0.249 A 
HETATM   24  O1  UNL     1     -15.437  33.664  39.059  1.00  0.00    -0.268 OA
HETATM   25  N7  UNL     1     -16.356  35.752  38.840  1.00  0.00    -0.320 N 
HETATM   26  C16 UNL     1     -17.063  36.748  39.381  1.00  0.00     0.184 A 
ATOM     27  H7  UNL     1     -16.003  35.845  37.888  1.00  0.00     0.169 HD
HETATM   28  N6  UNL     1     -17.521  36.622  40.623  1.00  0.00    -0.339 N 
ATOM     29  H6  UNL     1     -18.059  37.393  41.019  1.00  0.00     0.168 HD
ENDBRANCH   1  21
TORSDOF 3
ENDMDL
MODEL 4
REMARK VINA RESULT: -7.693802312      1.540      2.144
REMARK  3 active torsions:
REMARK  status: ('A' for Active; 'I' for Inactive)
REMARK    1  A    between atoms: C3_4  and  N1_5 
REMARK    2  A    between atoms: N2_8  and  C6_9 
REMARK    3  A    between atoms: C8_11  and  N3_12 
ROOT
HETATM    1  N1  UNL     1     -15.587  36.150  44.310  1.00  0.00    -0.364 N 
HETATM    2  C4  UNL     1     -16.474  35.863  43.208  1.00  0.00     0.144 C 
HETATM    3  C5  UNL     1     -17.504  36.997  43.078  1.00  0.00     0.144 C 
HETATM    4  N2  UNL     1     -18.199  36.995  44.368  1.00  0.00    -0.364 N 
HETATM    5  C14 UNL     1     -17.434  37.236  45.553  1.00  0.00     0.144 C 
HETATM    6  C15 UNL     1     -15.967  37.035  45.383  1.00  0.00     0.144 C 
ENDROOT
BRANCH   4   7
HETATM    7  C6  UNL     1     -19.601  36.753  44.379  1.00  0.00     0.107 A 
HETATM    8  C7  UNL     1     -20.216  36.122  45.436  1.00  0.00     0.096 A 
HETATM    9  C8  UNL     1     -21.571  35.900  45.418  1.00  0.00     0.107 A 
HETATM   10  N4  UNL     1     -22.269  36.306  44.368  1.00  0.00    -0.339 N 
HETATM   11  C13 UNL     1     -21.686  36.932  43.313  1.00  0.00     0.183 A 
ATOM     12  H4  UNL     1     -23.276  36.143  44.352  1.00  0.00     0.168 HD
HETATM   13  N5  UNL     1     -20.347  37.145  43.341  1.00  0.00    -0.339 N 
ATOM     14  H5  UNL     1     -19.900  37.613  42.552  1.00  0.00     0.168 HD
BRANCH   9  15
HETATM   15  N3  UNL     1     -22.220  35.254  46.494  1.00  0.00    -0.363 N 
HETATM   16  C9  UNL     1     -21.526  34.949  47.746  1.00  0.00     0.150 C 
HETATM   17  C10 UNL     1     -22.579  34.655  48.771  1.00  0.00     0.187 C 
HETATM   18  O2  UNL     1     -23.654  35.524  48.732  1.00  0.00    -0.388 OA
HETATM   19  C11 UNL     1     -24.411  35.399  47.575  1.00  0.00     0.187 C 
HETATM   20  C12 UNL     1     -23.606  34.859  46.416  1.00  0.00     0.150 C 
ENDBRANCH   9  15
ENDBRANCH   4   7
BRANCH   1  21
HETATM   21  C3  UNL     1     -14.308  35.539  44.329  1.00  0.00     0.109 A 
HETATM   22  C2  UNL     1     -14.122  34.189  44.146  1.00  0.00     0.122 A 
HETATM   23  C1  UNL     1     -12.851  33.650  44.173  1.00  0.00     0.249 A 
HETATM   24  O1  UNL     1     -12.738  32.402  43.997  1.00  0.00    -0.268 OA
HETATM   25  N7  UNL     1     -11.794  34.456  44.380  1.00  0.00    -0.320 N 
HETATM   26  C16 UNL     1     -11.957  35.769  44.561  1.00  0.00     0.184 A 
ATOM     27  H7  UNL     1     -10.855  34.058  44.400  1.00  0.00     0.169 HD
HETATM   28  N6  UNL     1     -13.183  36.282  44.534  1.00  0.00    -0.339 N 
ATOM     29  H6  UNL     1     -13.288  37.287  44.675  1.00  0.00     0.168 HD
ENDBRANCH   1  21
TORSDOF 3
ENDMDL
MODEL 5
REMARK VINA RESULT: -7.670545046      1.030      1.282
REMARK  3 active torsions:
REMARK  status: ('A' for Active; 'I' for Inactive)
REMARK    1  A    between atoms: C3_4  and  N1_5 
REMARK    2  A    between atoms: N2_8  and  C6_9 
REMARK    3  A    between atoms: C8_11  and  N3_12 
ROOT
HETATM    1  N1  UNL     1     -16.074  35.147  43.892  1.00  0.00    -0.364 N 
HETATM    2  C4  UNL     1     -16.981  34.726  44.932  1.00  0.00     0.144 C 
HETATM    3  C5  UNL     1     -18.330  34.341  44.302  1.00  0.00     0.144 C 
HETATM    4  N2  UNL     1     -18.775  35.569  43.638  1.00  0.00    -0.364 N 
HETATM    5  C14 UNL     1     -17.953  36.118  42.604  1.00  0.00     0.144 C 
HETATM    6  C15 UNL     1     -16.547  35.627  42.618  1.00  0.00     0.144 C 
ENDROOT
BRANCH   4   7
HETATM    7  C6  UNL     1     -20.003  36.154  44.056  1.00  0.00     0.107 A 
HETATM    8  C7  UNL     1     -20.651  35.736  45.196  1.00  0.00     0.096 A 
HETATM    9  C8  UNL     1     -21.835  36.319  45.574  1.00  0.00     0.107 A 
HETATM   10  N4  UNL     1     -22.337  37.287  44.823  1.00  0.00    -0.339 N 
HETATM   11  C13 UNL     1     -21.717  37.718  43.694  1.00  0.00     0.183 A 
ATOM     12  H4  UNL     1     -23.216  37.722  45.101  1.00  0.00     0.168 HD
HETATM   13  N5  UNL     1     -20.548  37.135  43.329  1.00  0.00    -0.339 N 
ATOM     14  H5  UNL     1     -20.075  37.451  42.482  1.00  0.00     0.168 HD
BRANCH   9  15
HETATM   15  N3  UNL     1     -22.514  35.902  46.741  1.00  0.00    -0.363 N 
HETATM   16  C9  UNL     1     -23.629  34.956  46.692  1.00  0.00     0.150 C 
HETATM   17  C10 UNL     1     -23.829  34.440  48.085  1.00  0.00     0.187 C 
HETATM   18  O2  UNL     1     -22.651  34.137  48.741  1.00  0.00    -0.388 OA
HETATM   19  C11 UNL     1     -21.878  35.257  49.015  1.00  0.00     0.187 C 
HETATM   20  C12 UNL     1     -22.142  36.387  48.048  1.00  0.00     0.150 C 
ENDBRANCH   9  15
ENDBRANCH   4   7
BRANCH   1  21
HETATM   21  C3  UNL     1     -14.679  35.084  44.141  1.00  0.00     0.109 A 
HETATM   22  C2  UNL     1     -13.957  33.917  44.054  1.00  0.00     0.122 A 
HETATM   23  C1  UNL     1     -12.599  33.918  44.305  1.00  0.00     0.249 A 
HETATM   24  O1  UNL     1     -11.984  32.816  44.210  1.00  0.00    -0.268 OA
HETATM   25  N7  UNL     1     -11.986  35.068  44.636  1.00  0.00    -0.320 N 
HETATM   26  C16 UNL     1     -12.674  36.210  44.726  1.00  0.00     0.184 A 
ATOM     27  H7  UNL     1     -10.984  35.069  44.822  1.00  0.00     0.169 HD
HETATM   28  N6  UNL     1     -13.981  36.204  44.482  1.00  0.00    -0.339 N 
ATOM     29  H6  UNL     1     -14.489  37.086  44.556  1.00  0.00     0.168 HD
ENDBRANCH   1  21
TORSDOF 3
ENDMDL
