MODEL 1
REMARK VINA RESULT: -7.369356230      0.000      0.000
REMARK  1 active torsions:
REMARK  status: ('A' for Active; 'I' for Inactive)
REMARK    1  A    between atoms: O1_1  and  N1_3 
ROOT
HETATM    1  N1  UNL     1      37.394  -8.500 -29.108  1.00  0.00    -0.235 N 
HETATM    2  C1  UNL     1      37.115  -7.520 -29.977  1.00  0.00     0.123 A 
HETATM    3  C2  UNL     1      36.374  -7.777 -31.109  1.00  0.00     0.021 A 
HETATM    4  C3  UNL     1      35.916  -9.056 -31.347  1.00  0.00     0.015 A 
HETATM    5  C4  UNL     1      36.196 -10.084 -30.457  1.00  0.00    -0.007 A 
HETATM    6  C5  UNL     1      35.744 -11.377 -30.679  1.00  0.00     0.014 A 
HETATM    7  C6  UNL     1      36.029 -12.384 -29.790  1.00  0.00     0.001 A 
HETATM    8  C7  UNL     1      36.776 -12.061 -28.677  1.00  0.00     0.002 A 
HETATM    9  C8  UNL     1      37.227 -10.778 -28.450  1.00  0.00     0.033 A 
HETATM   10  C9  UNL     1      36.943  -9.748 -29.348  1.00  0.00     0.072 A 
ENDROOT
BRANCH   1  11
HETATM   11  O1  UNL     1      38.135  -8.189 -27.997  1.00  0.00    -0.283 OA
ATOM     12  H1  UNL     1      38.075  -8.763 -27.243  1.00  0.00     0.245 HD
ENDBRANCH   1  11
TORSDOF 1
ENDMDL
MODEL 2
REMARK VINA RESULT: -7.123483509      2.437      3.838
REMARK  1 active torsions:
REMARK  status: ('A' for Active; 'I' for Inactive)
REMARK    1  A    between atoms: O1_1  and  N1_3 
ROOT
HETATM    1  N1  UNL     1      38.600 -11.714 -30.091  1.00  0.00    -0.235 N 
HETATM    2  C1  UNL     1      37.641 -12.637 -30.243  1.00  0.00     0.123 A 
HETATM    3  C2  UNL     1      36.362 -12.398 -29.794  1.00  0.00     0.021 A 
HETATM    4  C3  UNL     1      36.067 -11.198 -29.180  1.00  0.00     0.015 A 
HETATM    5  C4  UNL     1      37.049 -10.230 -29.013  1.00  0.00    -0.007 A 
HETATM    6  C5  UNL     1      36.773  -9.018 -28.400  1.00  0.00     0.014 A 
HETATM    7  C6  UNL     1      37.754  -8.070 -28.241  1.00  0.00     0.001 A 
HETATM    8  C7  UNL     1      39.015  -8.370 -28.713  1.00  0.00     0.002 A 
HETATM    9  C8  UNL     1      39.295  -9.574 -29.325  1.00  0.00     0.033 A 
HETATM   10  C9  UNL     1      38.304 -10.543 -29.490  1.00  0.00     0.072 A 
ENDROOT
BRANCH   1  11
HETATM   11  O1  UNL     1      39.856 -12.002 -30.557  1.00  0.00    -0.283 OA
ATOM     12  H1  UNL     1      39.963 -12.763 -31.115  1.00  0.00     0.245 HD
ENDBRANCH   1  11
TORSDOF 1
ENDMDL
MODEL 3
REMARK VINA RESULT: -7.027100349      2.142      3.784
REMARK  1 active torsions:
REMARK  status: ('A' for Active; 'I' for Inactive)
REMARK    1  A    between atoms: O1_1  and  N1_3 
ROOT
HETATM    1  N1  UNL     1      38.340 -11.781 -30.379  1.00  0.00    -0.235 N 
HETATM    2  C1  UNL     1      37.530 -12.819 -30.135  1.00  0.00     0.123 A 
HETATM    3  C2  UNL     1      36.167 -12.642 -30.057  1.00  0.00     0.021 A 
HETATM    4  C3  UNL     1      35.633 -11.381 -30.232  1.00  0.00     0.015 A 
HETATM    5  C4  UNL     1      36.458 -10.293 -30.485  1.00  0.00    -0.007 A 
HETATM    6  C5  UNL     1      35.940  -9.019 -30.663  1.00  0.00     0.014 A 
HETATM    7  C6  UNL     1      36.768  -7.952 -30.913  1.00  0.00     0.001 A 
HETATM    8  C7  UNL     1      38.124  -8.197 -30.978  1.00  0.00     0.002 A 
HETATM    9  C8  UNL     1      38.644  -9.462 -30.803  1.00  0.00     0.033 A 
HETATM   10  C9  UNL     1      37.811 -10.552 -30.548  1.00  0.00     0.072 A 
ENDROOT
BRANCH   1  11
HETATM   11  O1  UNL     1      39.689 -12.014 -30.447  1.00  0.00    -0.283 OA
ATOM     12  H1  UNL     1      40.218 -11.811 -29.685  1.00  0.00     0.245 HD
ENDBRANCH   1  11
TORSDOF 1
ENDMDL
MODEL 4
REMARK VINA RESULT: -6.980083893      1.934      2.349
REMARK  1 active torsions:
REMARK  status: ('A' for Active; 'I' for Inactive)
REMARK    1  A    between atoms: O1_1  and  N1_3 
ROOT
HETATM    1  N1  UNL     1      38.783  -8.820 -28.917  1.00  0.00    -0.235 N 
HETATM    2  C1  UNL     1      37.835  -8.100 -28.302  1.00  0.00     0.123 A 
HETATM    3  C2  UNL     1      36.601  -8.649 -28.037  1.00  0.00     0.021 A 
HETATM    4  C3  UNL     1      36.340  -9.952 -28.410  1.00  0.00     0.015 A 
HETATM    5  C4  UNL     1      37.310 -10.712 -29.048  1.00  0.00    -0.007 A 
HETATM    6  C5  UNL     1      37.067 -12.022 -29.430  1.00  0.00     0.014 A 
HETATM    7  C6  UNL     1      38.037 -12.763 -30.061  1.00  0.00     0.001 A 
HETATM    8  C7  UNL     1      39.252 -12.154 -30.298  1.00  0.00     0.002 A 
HETATM    9  C8  UNL     1      39.500 -10.852 -29.920  1.00  0.00     0.033 A 
HETATM   10  C9  UNL     1      38.520 -10.092 -29.278  1.00  0.00     0.072 A 
ENDROOT
BRANCH   1  11
HETATM   11  O1  UNL     1      39.995  -8.225 -29.156  1.00  0.00    -0.283 OA
ATOM     12  H1  UNL     1      40.692  -8.358 -28.526  1.00  0.00     0.245 HD
ENDBRANCH   1  11
TORSDOF 1
ENDMDL
MODEL 5
REMARK VINA RESULT: -6.937574036      1.752      3.270
REMARK  1 active torsions:
REMARK  status: ('A' for Active; 'I' for Inactive)
REMARK    1  A    between atoms: O1_1  and  N1_3 
ROOT
HETATM    1  N1  UNL     1      39.202  -9.334 -29.552  1.00  0.00    -0.235 N 
HETATM    2  C1  UNL     1      39.779 -10.538 -29.444  1.00  0.00     0.123 A 
HETATM    3  C2  UNL     1      39.208 -11.644 -30.031  1.00  0.00     0.021 A 
HETATM    4  C3  UNL     1      38.029 -11.509 -30.736  1.00  0.00     0.015 A 
HETATM    5  C4  UNL     1      37.416 -10.269 -30.857  1.00  0.00    -0.007 A 
HETATM    6  C5  UNL     1      36.232 -10.113 -31.561  1.00  0.00     0.014 A 
HETATM    7  C6  UNL     1      35.637  -8.879 -31.673  1.00  0.00     0.001 A 
HETATM    8  C7  UNL     1      36.261  -7.812 -31.061  1.00  0.00     0.002 A 
HETATM    9  C8  UNL     1      37.439  -7.961 -30.361  1.00  0.00     0.033 A 
HETATM   10  C9  UNL     1      38.050  -9.210 -30.242  1.00  0.00     0.072 A 
ENDROOT
BRANCH   1  11
HETATM   11  O1  UNL     1      39.814  -8.266 -28.948  1.00  0.00    -0.283 OA
ATOM     12  H1  UNL     1      39.290  -7.498 -28.757  1.00  0.00     0.245 HD
ENDBRANCH   1  11
TORSDOF 1
ENDMDL
