MODEL 1
REMARK VINA RESULT: -6.092916960      0.000      0.000
REMARK  4 active torsions:
REMARK  status: ('A' for Active; 'I' for Inactive)
REMARK    1  A    between atoms: C2_2  and  O1_3 
REMARK    2  A    between atoms: C2_2  and  C3_5 
REMARK    3  A    between atoms: C3_5  and  N1_6 
REMARK    4  A    between atoms: N2_14  and  C9_15 
ROOT
HETATM    1  N1  UNL     1      -1.041  15.266   4.761  1.00  0.00    -0.354 N 
HETATM    2  C4  UNL     1      -1.794  16.291   4.172  1.00  0.00     0.137 C 
HETATM    3  S1  UNL     1      -2.802  16.307   2.924  1.00  0.00    -0.053 SA
HETATM    4  S2  UNL     1      -1.428  17.789   5.123  1.00  0.00    -0.098 SA
HETATM    5  C5  UNL     1       0.008  17.035   5.985  1.00  0.00     0.113 C 
HETATM    6  C6  UNL     1       0.223  15.730   5.280  1.00  0.00     0.046 C 
HETATM    7  C7  UNL     1       0.893  14.808   6.240  1.00  0.00     0.062 C 
HETATM    8  C8  UNL     1       2.403  14.764   5.994  1.00  0.00     0.275 C 
HETATM    9  N2  UNL     1       2.833  16.131   5.795  1.00  0.00     0.094 N 
HETATM   10  C12 UNL     1       2.418  16.585   4.480  1.00  0.00     0.275 C 
HETATM   11  C13 UNL     1       1.152  15.859   4.078  1.00  0.00     0.062 C 
ENDROOT
BRANCH   1  12
HETATM   12  C3  UNL     1      -1.469  13.901   4.830  1.00  0.00     0.156 C 
BRANCH  12  13
HETATM   13  C2  UNL     1      -1.314  13.048   3.639  1.00  0.00     0.132 C 
HETATM   14  C1  UNL     1      -0.709  11.722   4.099  1.00  0.00     0.041 C 
BRANCH  13  15
HETATM   15  O1  UNL     1      -2.540  12.665   3.064  1.00  0.00    -0.394 OA
ATOM     16  H1  UNL     1      -2.533  13.102   2.220  1.00  0.00     0.210 HD
ENDBRANCH  13  15
ENDBRANCH  12  13
ENDBRANCH   1  12
BRANCH   9  17
HETATM   17  C9  UNL     1       4.262  16.287   5.874  1.00  0.00     0.241 C 
HETATM   18  C10 UNL     1       4.610  17.711   6.237  1.00  0.00     0.110 C 
HETATM   19  S3  UNL     1       4.168  17.300   7.969  1.00  0.00    -0.165 SA
HETATM   20  C11 UNL     1       4.897  15.853   7.168  1.00  0.00     0.110 C 
ENDBRANCH   9  17
TORSDOF 4
ENDMDL
MODEL 2
REMARK VINA RESULT: -5.986406074      1.663      1.785
REMARK  4 active torsions:
REMARK  status: ('A' for Active; 'I' for Inactive)
REMARK    1  A    between atoms: C2_2  and  O1_3 
REMARK    2  A    between atoms: C2_2  and  C3_5 
REMARK    3  A    between atoms: C3_5  and  N1_6 
REMARK    4  A    between atoms: N2_14  and  C9_15 
ROOT
HETATM    1  N1  UNL     1      -0.352  15.187   5.474  1.00  0.00    -0.354 N 
HETATM    2  C4  UNL     1      -1.228  15.761   4.543  1.00  0.00     0.137 C 
HETATM    3  S1  UNL     1      -1.944  15.175   3.233  1.00  0.00    -0.053 SA
HETATM    4  S2  UNL     1      -1.470  17.476   5.077  1.00  0.00    -0.098 SA
HETATM    5  C5  UNL     1      -0.075  17.427   6.271  1.00  0.00     0.113 C 
HETATM    6  C6  UNL     1       0.616  16.128   5.985  1.00  0.00     0.046 C 
HETATM    7  C7  UNL     1       1.313  15.708   7.233  1.00  0.00     0.062 C 
HETATM    8  C8  UNL     1       2.798  16.080   7.182  1.00  0.00     0.275 C 
HETATM    9  N2  UNL     1       2.871  17.429   6.662  1.00  0.00     0.094 N 
HETATM   10  C12 UNL     1       2.608  17.414   5.234  1.00  0.00     0.275 C 
HETATM   11  C13 UNL     1       1.687  16.258   4.908  1.00  0.00     0.062 C 
ENDROOT
BRANCH   1  12
HETATM   12  C3  UNL     1      -0.400  13.811   5.870  1.00  0.00     0.156 C 
BRANCH  12  13
HETATM   13  C2  UNL     1      -0.043  12.776   4.883  1.00  0.00     0.132 C 
HETATM   14  C1  UNL     1       1.480  12.758   4.768  1.00  0.00     0.041 C 
BRANCH  13  15
HETATM   15  O1  UNL     1      -0.354  11.471   5.308  1.00  0.00    -0.394 OA
ATOM     16  H1  UNL     1      -1.304  11.466   5.328  1.00  0.00     0.210 HD
ENDBRANCH  13  15
ENDBRANCH  12  13
ENDBRANCH   1  12
BRANCH   9  17
HETATM   17  C9  UNL     1       4.162  18.035   6.857  1.00  0.00     0.241 C 
HETATM   18  C10 UNL     1       4.100  19.508   6.527  1.00  0.00     0.110 C 
HETATM   19  S3  UNL     1       3.300  19.762   8.159  1.00  0.00    -0.165 SA
HETATM   20  C11 UNL     1       4.499  18.416   8.274  1.00  0.00     0.110 C 
ENDBRANCH   9  17
TORSDOF 4
ENDMDL
MODEL 3
REMARK VINA RESULT: -5.718844867      1.238      1.418
REMARK  4 active torsions:
REMARK  status: ('A' for Active; 'I' for Inactive)
REMARK    1  A    between atoms: C2_2  and  O1_3 
REMARK    2  A    between atoms: C2_2  and  C3_5 
REMARK    3  A    between atoms: C3_5  and  N1_6 
REMARK    4  A    between atoms: N2_14  and  C9_15 
ROOT
HETATM    1  N1  UNL     1      -1.471  16.674   4.547  1.00  0.00    -0.354 N 
HETATM    2  C4  UNL     1      -1.730  17.962   4.059  1.00  0.00     0.137 C 
HETATM    3  S1  UNL     1      -2.565  18.487   2.794  1.00  0.00    -0.053 SA
HETATM    4  S2  UNL     1      -0.882  19.103   5.182  1.00  0.00    -0.098 SA
HETATM    5  C5  UNL     1       0.091  17.771   5.992  1.00  0.00     0.113 C 
HETATM    6  C6  UNL     1      -0.165  16.557   5.150  1.00  0.00     0.046 C 
HETATM    7  C7  UNL     1       0.031  15.362   6.017  1.00  0.00     0.062 C 
HETATM    8  C8  UNL     1       1.420  14.755   5.808  1.00  0.00     0.275 C 
HETATM    9  N2  UNL     1       2.356  15.859   5.777  1.00  0.00     0.094 N 
HETATM   10  C12 UNL     1       2.239  16.559   4.510  1.00  0.00     0.275 C 
HETATM   11  C13 UNL     1       0.822  16.426   3.996  1.00  0.00     0.062 C 
ENDROOT
BRANCH   1  12
HETATM   12  C3  UNL     1      -2.396  15.584   4.450  1.00  0.00     0.156 C 
BRANCH  12  13
HETATM   13  C2  UNL     1      -2.469  14.827   3.187  1.00  0.00     0.132 C 
HETATM   14  C1  UNL     1      -1.678  13.535   3.379  1.00  0.00     0.041 C 
BRANCH  13  15
HETATM   15  O1  UNL     1      -3.767  14.374   2.885  1.00  0.00    -0.394 OA
ATOM     16  H1  UNL     1      -4.266  14.600   3.662  1.00  0.00     0.210 HD
ENDBRANCH  13  15
ENDBRANCH  12  13
ENDBRANCH   1  12
BRANCH   9  17
HETATM   17  C9  UNL     1       3.725  15.437   5.912  1.00  0.00     0.241 C 
HETATM   18  C10 UNL     1       4.656  16.534   5.450  1.00  0.00     0.110 C 
HETATM   19  S3  UNL     1       4.347  17.368   7.053  1.00  0.00    -0.165 SA
HETATM   20  C11 UNL     1       4.322  15.577   7.286  1.00  0.00     0.110 C 
ENDBRANCH   9  17
TORSDOF 4
ENDMDL
MODEL 4
REMARK VINA RESULT: -5.669192352      1.379      1.475
REMARK  4 active torsions:
REMARK  status: ('A' for Active; 'I' for Inactive)
REMARK    1  A    between atoms: C2_2  and  O1_3 
REMARK    2  A    between atoms: C2_2  and  C3_5 
REMARK    3  A    between atoms: C3_5  and  N1_6 
REMARK    4  A    between atoms: N2_14  and  C9_15 
ROOT
HETATM    1  N1  UNL     1       0.081  14.683   4.793  1.00  0.00    -0.354 N 
HETATM    2  C4  UNL     1      -1.071  15.460   4.606  1.00  0.00     0.137 C 
HETATM    3  S1  UNL     1      -2.152  15.516   3.422  1.00  0.00    -0.053 SA
HETATM    4  S2  UNL     1      -1.190  16.535   6.059  1.00  0.00    -0.098 SA
HETATM    5  C5  UNL     1       0.518  16.162   6.623  1.00  0.00     0.113 C 
HETATM    6  C6  UNL     1       1.127  15.394   5.489  1.00  0.00     0.046 C 
HETATM    7  C7  UNL     1       2.208  14.540   6.056  1.00  0.00     0.062 C 
HETATM    8  C8  UNL     1       3.579  15.190   5.860  1.00  0.00     0.275 C 
HETATM    9  N2  UNL     1       3.429  16.589   6.201  1.00  0.00     0.094 N 
HETATM   10  C12 UNL     1       2.717  17.274   5.138  1.00  0.00     0.275 C 
HETATM   11  C13 UNL     1       1.784  16.300   4.453  1.00  0.00     0.062 C 
ENDROOT
BRANCH   1  12
HETATM   12  C3  UNL     1       0.216  13.333   4.332  1.00  0.00     0.156 C 
BRANCH  12  13
HETATM   13  C2  UNL     1      -0.685  12.304   4.878  1.00  0.00     0.132 C 
HETATM   14  C1  UNL     1      -1.423  11.669   3.701  1.00  0.00     0.041 C 
BRANCH  13  15
HETATM   15  O1  UNL     1      -0.004  11.219   5.460  1.00  0.00    -0.394 OA
ATOM     16  H1  UNL     1       0.689  11.636   5.959  1.00  0.00     0.210 HD
ENDBRANCH  13  15
ENDBRANCH  12  13
ENDBRANCH   1  12
BRANCH   9  17
HETATM   17  C9  UNL     1       4.689  17.261   6.379  1.00  0.00     0.241 C 
HETATM   18  C10 UNL     1       4.460  18.693   6.802  1.00  0.00     0.110 C 
HETATM   19  S3  UNL     1       4.115  18.061   8.489  1.00  0.00    -0.165 SA
HETATM   20  C11 UNL     1       5.373  17.031   7.701  1.00  0.00     0.110 C 
ENDBRANCH   9  17
TORSDOF 4
ENDMDL
MODEL 5
REMARK VINA RESULT: -5.601329872      2.860      6.212
REMARK  4 active torsions:
REMARK  status: ('A' for Active; 'I' for Inactive)
REMARK    1  A    between atoms: C2_2  and  O1_3 
REMARK    2  A    between atoms: C2_2  and  C3_5 
REMARK    3  A    between atoms: C3_5  and  N1_6 
REMARK    4  A    between atoms: N2_14  and  C9_15 
ROOT
HETATM    1  N1  UNL     1       4.075  17.559   6.559  1.00  0.00    -0.354 N 
HETATM    2  C4  UNL     1       4.126  18.480   7.615  1.00  0.00     0.137 C 
HETATM    3  S1  UNL     1       5.065  18.581   8.911  1.00  0.00    -0.053 SA
HETATM    4  S2  UNL     1       2.820  19.691   7.286  1.00  0.00    -0.098 SA
HETATM    5  C5  UNL     1       2.032  18.666   5.981  1.00  0.00     0.113 C 
HETATM    6  C6  UNL     1       2.733  17.344   6.071  1.00  0.00     0.046 C 
HETATM    7  C7  UNL     1       2.640  16.696   4.733  1.00  0.00     0.062 C 
HETATM    8  C8  UNL     1       1.505  15.670   4.699  1.00  0.00     0.275 C 
HETATM    9  N2  UNL     1       0.368  16.286   5.349  1.00  0.00     0.094 N 
HETATM   10  C12 UNL     1       0.585  16.313   6.784  1.00  0.00     0.275 C 
HETATM   11  C13 UNL     1       2.070  16.395   7.063  1.00  0.00     0.062 C 
ENDROOT
BRANCH   1  12
HETATM   12  C3  UNL     1       5.225  16.891   6.027  1.00  0.00     0.156 C 
BRANCH  12  13
HETATM   13  C2  UNL     1       5.514  15.516   6.470  1.00  0.00     0.132 C 
HETATM   14  C1  UNL     1       6.762  15.046   5.724  1.00  0.00     0.041 C 
BRANCH  13  15
HETATM   15  O1  UNL     1       5.893  15.435   7.823  1.00  0.00    -0.394 OA
ATOM     16  H1  UNL     1       6.206  14.542   7.911  1.00  0.00     0.210 HD
ENDBRANCH  13  15
ENDBRANCH  12  13
ENDBRANCH   1  12
BRANCH   9  17
HETATM   17  C9  UNL     1      -0.864  15.580   5.112  1.00  0.00     0.241 C 
HETATM   18  C10 UNL     1      -2.043  16.480   5.399  1.00  0.00     0.110 C 
HETATM   19  S3  UNL     1      -1.734  17.277   3.776  1.00  0.00    -0.165 SA
HETATM   20  C11 UNL     1      -1.319  15.522   3.678  1.00  0.00     0.110 C 
ENDBRANCH   9  17
TORSDOF 4
ENDMDL
