MODEL 1
REMARK VINA RESULT: -7.460721452      0.000      0.000
REMARK  4 active torsions:
REMARK  status: ('A' for Active; 'I' for Inactive)
REMARK    1  A    between atoms: C2_2  and  C3_3 
REMARK    2  A    between atoms: C3_3  and  C4_4 
REMARK    3  A    between atoms: C8_9  and  C9_10 
REMARK    4  A    between atoms: C17_21  and  O5_22 
ROOT
HETATM    1  C4  UNL     1      -0.217  17.216   5.120  1.00  0.00     0.090 C 
HETATM    2  C5  UNL     1       0.992  17.603   5.807  1.00  0.00     0.171 C 
HETATM    3  O1  UNL     1       1.149  18.671   6.321  1.00  0.00    -0.294 OA
HETATM    4  C6  UNL     1       2.074  16.592   5.856  1.00  0.00     0.155 C 
HETATM    5  C7  UNL     1       1.676  15.456   4.954  1.00  0.00     0.090 C 
HETATM    6  C8  UNL     1       0.410  14.858   5.545  1.00  0.00     0.093 C 
HETATM    7  O2  UNL     1       0.742  14.291   6.737  1.00  0.00    -0.374 OA
HETATM    8  C12 UNL     1       1.362  15.022   7.683  1.00  0.00     0.204 C 
HETATM    9  C13 UNL     1       2.326  16.055   7.229  1.00  0.00     0.191 C 
HETATM   10  O3  UNL     1       3.604  15.523   7.066  1.00  0.00    -0.345 OA
HETATM   11  C14 UNL     1       4.258  16.512   6.328  1.00  0.00     0.159 C 
HETATM   12  C15 UNL     1       5.375  15.916   5.484  1.00  0.00     0.078 C 
HETATM   13  C16 UNL     1       4.785  17.527   7.316  1.00  0.00     0.078 C 
HETATM   14  O4  UNL     1       3.314  17.034   5.469  1.00  0.00    -0.334 OA
HETATM   15  C17 UNL     1      -0.678  15.864   5.694  1.00  0.00     0.164 C 
ENDROOT
BRANCH   1  16
HETATM   16  C3  UNL     1      -1.338  18.183   5.091  1.00  0.00     0.014 C 
BRANCH  16  17
HETATM   17  C2  UNL     1      -1.652  18.806   3.783  1.00  0.00    -0.004 C 
HETATM   18  C1  UNL     1      -2.629  17.858   3.066  1.00  0.00     0.005 C 
ENDBRANCH  16  17
ENDBRANCH   1  16
BRANCH  15  19
HETATM   19  O5  UNL     1      -1.905  15.523   5.175  1.00  0.00    -0.392 OA
ATOM     20  H5  UNL     1      -1.970  15.812   4.273  1.00  0.00     0.210 HD
ENDBRANCH  15  19
BRANCH   6  21
HETATM   21  C9  UNL     1      -0.061  13.753   4.618  1.00  0.00     0.015 C 
HETATM   22  C10 UNL     1       0.904  12.619   4.607  1.00  0.00     0.012 C 
HETATM   23  C11 UNL     1      -0.170  14.340   3.218  1.00  0.00     0.012 C 
ENDBRANCH   6  21
TORSDOF 4
ENDMDL
MODEL 2
REMARK VINA RESULT: -7.297540730      1.702      5.486
REMARK  4 active torsions:
REMARK  status: ('A' for Active; 'I' for Inactive)
REMARK    1  A    between atoms: C2_2  and  C3_3 
REMARK    2  A    between atoms: C3_3  and  C4_4 
REMARK    3  A    between atoms: C8_9  and  C9_10 
REMARK    4  A    between atoms: C17_21  and  O5_22 
ROOT
HETATM    1  C4  UNL     1       3.502  15.806   5.895  1.00  0.00     0.090 C 
HETATM    2  C5  UNL     1       2.663  14.636   5.771  1.00  0.00     0.171 C 
HETATM    3  O1  UNL     1       3.058  13.519   5.927  1.00  0.00    -0.294 OA
HETATM    4  C6  UNL     1       1.241  14.878   5.432  1.00  0.00     0.155 C 
HETATM    5  C7  UNL     1       1.098  16.336   5.088  1.00  0.00     0.090 C 
HETATM    6  C8  UNL     1       1.448  17.113   6.347  1.00  0.00     0.093 C 
HETATM    7  O2  UNL     1       0.484  16.849   7.272  1.00  0.00    -0.374 OA
HETATM    8  C12 UNL     1       0.202  15.576   7.609  1.00  0.00     0.204 C 
HETATM    9  C13 UNL     1       0.298  14.548   6.544  1.00  0.00     0.191 C 
HETATM   10  O3  UNL     1      -0.899  14.430   5.839  1.00  0.00    -0.345 OA
HETATM   11  C14 UNL     1      -0.520  13.708   4.705  1.00  0.00     0.159 C 
HETATM   12  C15 UNL     1      -1.429  14.023   3.527  1.00  0.00     0.078 C 
HETATM   13  C16 UNL     1      -0.571  12.244   5.075  1.00  0.00     0.078 C 
HETATM   14  O4  UNL     1       0.750  14.140   4.385  1.00  0.00    -0.334 OA
HETATM   15  C17 UNL     1       2.809  16.788   6.856  1.00  0.00     0.164 C 
ENDROOT
BRANCH   1  16
HETATM   16  C3  UNL     1       4.918  15.605   6.280  1.00  0.00     0.014 C 
BRANCH  16  17
HETATM   17  C2  UNL     1       5.925  15.692   5.196  1.00  0.00    -0.004 C 
HETATM   18  C1  UNL     1       7.175  14.945   5.693  1.00  0.00     0.005 C 
ENDBRANCH  16  17
ENDBRANCH   1  16
BRANCH  15  19
HETATM   19  O5  UNL     1       3.637  17.853   7.121  1.00  0.00    -0.392 OA
ATOM     20  H5  UNL     1       4.545  17.591   7.031  1.00  0.00     0.210 HD
ENDBRANCH  15  19
BRANCH   6  21
HETATM   21  C9  UNL     1       1.383  18.592   6.016  1.00  0.00     0.015 C 
HETATM   22  C10 UNL     1       1.591  19.421   7.235  1.00  0.00     0.012 C 
HETATM   23  C11 UNL     1       0.004  18.876   5.439  1.00  0.00     0.012 C 
ENDBRANCH   6  21
TORSDOF 4
ENDMDL
MODEL 3
REMARK VINA RESULT: -7.246368404      1.596      2.277
REMARK  4 active torsions:
REMARK  status: ('A' for Active; 'I' for Inactive)
REMARK    1  A    between atoms: C2_2  and  C3_3 
REMARK    2  A    between atoms: C3_3  and  C4_4 
REMARK    3  A    between atoms: C8_9  and  C9_10 
REMARK    4  A    between atoms: C17_21  and  O5_22 
ROOT
HETATM    1  C4  UNL     1      -1.598  16.186   3.561  1.00  0.00     0.090 C 
HETATM    2  C5  UNL     1      -0.994  17.151   4.450  1.00  0.00     0.171 C 
HETATM    3  O1  UNL     1      -1.427  18.251   4.626  1.00  0.00    -0.294 OA
HETATM    4  C6  UNL     1       0.229  16.714   5.163  1.00  0.00     0.155 C 
HETATM    5  C7  UNL     1       0.646  15.390   4.582  1.00  0.00     0.090 C 
HETATM    6  C8  UNL     1      -0.480  14.414   4.881  1.00  0.00     0.093 C 
HETATM    7  O2  UNL     1      -0.521  14.235   6.230  1.00  0.00    -0.374 OA
HETATM    8  C12 UNL     1      -0.636  15.298   7.049  1.00  0.00     0.204 C 
HETATM    9  C13 UNL     1       0.034  16.556   6.637  1.00  0.00     0.191 C 
HETATM   10  O3  UNL     1       1.356  16.596   7.077  1.00  0.00    -0.345 OA
HETATM   11  C14 UNL     1       1.900  17.640   6.324  1.00  0.00     0.159 C 
HETATM   12  C15 UNL     1       3.396  17.448   6.123  1.00  0.00     0.078 C 
HETATM   13  C16 UNL     1       1.596  18.923   7.062  1.00  0.00     0.078 C 
HETATM   14  O4  UNL     1       1.297  17.572   5.086  1.00  0.00    -0.334 OA
HETATM   15  C17 UNL     1      -1.791  14.874   4.343  1.00  0.00     0.164 C 
ENDROOT
BRANCH   1  16
HETATM   16  C3  UNL     1      -2.848  16.571   2.867  1.00  0.00     0.014 C 
BRANCH  16  17
HETATM   17  C2  UNL     1      -3.032  18.011   2.568  1.00  0.00    -0.004 C 
HETATM   18  C1  UNL     1      -4.493  18.187   2.120  1.00  0.00     0.005 C 
ENDBRANCH  16  17
ENDBRANCH   1  16
BRANCH  15  19
HETATM   19  O5  UNL     1      -2.496  13.971   3.585  1.00  0.00    -0.392 OA
ATOM     20  H5  UNL     1      -2.936  13.345   4.148  1.00  0.00     0.210 HD
ENDBRANCH  15  19
BRANCH   6  21
HETATM   21  C9  UNL     1      -0.125  13.083   4.245  1.00  0.00     0.015 C 
HETATM   22  C10 UNL     1      -0.866  11.967   4.894  1.00  0.00     0.012 C 
HETATM   23  C11 UNL     1       1.371  12.870   4.426  1.00  0.00     0.012 C 
ENDBRANCH   6  21
TORSDOF 4
ENDMDL
MODEL 4
REMARK VINA RESULT: -7.230963580      1.669      5.235
REMARK  4 active torsions:
REMARK  status: ('A' for Active; 'I' for Inactive)
REMARK    1  A    between atoms: C2_2  and  C3_3 
REMARK    2  A    between atoms: C3_3  and  C4_4 
REMARK    3  A    between atoms: C8_9  and  C9_10 
REMARK    4  A    between atoms: C17_21  and  O5_22 
ROOT
HETATM    1  C4  UNL     1       0.579  14.245   4.387  1.00  0.00     0.090 C 
HETATM    2  C5  UNL     1      -0.669  14.886   4.045  1.00  0.00     0.171 C 
HETATM    3  O1  UNL     1      -1.613  14.304   3.599  1.00  0.00    -0.294 OA
HETATM    4  C6  UNL     1      -0.743  16.347   4.276  1.00  0.00     0.155 C 
HETATM    5  C7  UNL     1       0.640  16.823   4.628  1.00  0.00     0.090 C 
HETATM    6  C8  UNL     1       1.017  16.133   5.928  1.00  0.00     0.093 C 
HETATM    7  O2  UNL     1       0.196  16.615   6.901  1.00  0.00    -0.374 OA
HETATM    8  C12 UNL     1      -1.141  16.557   6.747  1.00  0.00     0.204 C 
HETATM    9  C13 UNL     1      -1.681  16.730   5.376  1.00  0.00     0.191 C 
HETATM   10  O3  UNL     1      -1.892  18.075   5.078  1.00  0.00    -0.345 OA
HETATM   11  C14 UNL     1      -2.054  18.062   3.690  1.00  0.00     0.159 C 
HETATM   12  C15 UNL     1      -1.636  19.390   3.078  1.00  0.00     0.078 C 
HETATM   13  C16 UNL     1      -3.507  17.753   3.416  1.00  0.00     0.078 C 
HETATM   14  O4  UNL     1      -1.196  17.092   3.216  1.00  0.00    -0.334 OA
HETATM   15  C17 UNL     1       0.943  14.648   5.827  1.00  0.00     0.164 C 
ENDROOT
BRANCH   1  16
HETATM   16  C3  UNL     1       0.674  12.777   4.213  1.00  0.00     0.014 C 
BRANCH  16  17
HETATM   17  C2  UNL     1      -0.286  11.949   4.981  1.00  0.00    -0.004 C 
HETATM   18  C1  UNL     1      -1.076  11.120   3.953  1.00  0.00     0.005 C 
ENDBRANCH  16  17
ENDBRANCH   1  16
BRANCH  15  19
HETATM   19  O5  UNL     1       2.046  13.947   6.250  1.00  0.00    -0.392 OA
ATOM     20  H5  UNL     1       2.073  13.921   7.199  1.00  0.00     0.210 HD
ENDBRANCH  15  19
BRANCH   6  21
HETATM   21  C9  UNL     1       2.438  16.534   6.276  1.00  0.00     0.015 C 
HETATM   22  C10 UNL     1       2.466  17.856   6.959  1.00  0.00     0.012 C 
HETATM   23  C11 UNL     1       3.224  16.619   4.975  1.00  0.00     0.012 C 
ENDBRANCH   6  21
TORSDOF 4
ENDMDL
MODEL 5
REMARK VINA RESULT: -7.187368922      1.927      2.593
REMARK  4 active torsions:
REMARK  status: ('A' for Active; 'I' for Inactive)
REMARK    1  A    between atoms: C2_2  and  C3_3 
REMARK    2  A    between atoms: C3_3  and  C4_4 
REMARK    3  A    between atoms: C8_9  and  C9_10 
REMARK    4  A    between atoms: C17_21  and  O5_22 
ROOT
HETATM    1  C4  UNL     1       1.785  18.856   6.290  1.00  0.00     0.090 C 
HETATM    2  C5  UNL     1       3.045  18.438   6.859  1.00  0.00     0.171 C 
HETATM    3  O1  UNL     1       3.668  19.091   7.642  1.00  0.00    -0.294 OA
HETATM    4  C6  UNL     1       3.559  17.119   6.421  1.00  0.00     0.155 C 
HETATM    5  C7  UNL     1       2.688  16.643   5.290  1.00  0.00     0.090 C 
HETATM    6  C8  UNL     1       1.292  16.467   5.866  1.00  0.00     0.093 C 
HETATM    7  O2  UNL     1       1.343  15.439   6.757  1.00  0.00    -0.374 OA
HETATM    8  C12 UNL     1       2.232  15.467   7.769  1.00  0.00     0.204 C 
HETATM    9  C13 UNL     1       3.553  16.088   7.503  1.00  0.00     0.191 C 
HETATM   10  O3  UNL     1       4.456  15.162   6.983  1.00  0.00    -0.345 OA
HETATM   11  C14 UNL     1       5.479  15.975   6.487  1.00  0.00     0.159 C 
HETATM   12  C15 UNL     1       6.204  15.299   5.333  1.00  0.00     0.078 C 
HETATM   13  C16 UNL     1       6.412  16.265   7.640  1.00  0.00     0.078 C 
HETATM   14  O4  UNL     1       4.863  17.105   5.993  1.00  0.00    -0.334 OA
HETATM   15  C17 UNL     1       0.771  17.715   6.489  1.00  0.00     0.164 C 
ENDROOT
BRANCH   1  16
HETATM   16  C3  UNL     1       1.217  20.148   6.740  1.00  0.00     0.014 C 
BRANCH  16  17
HETATM   17  C2  UNL     1       1.600  21.353   5.967  1.00  0.00    -0.004 C 
HETATM   18  C1  UNL     1       0.326  22.203   5.815  1.00  0.00     0.005 C 
ENDBRANCH  16  17
ENDBRANCH   1  16
BRANCH  15  19
HETATM   19  O5  UNL     1      -0.482  18.122   6.096  1.00  0.00    -0.392 OA
ATOM     20  H5  UNL     1      -1.030  17.367   5.918  1.00  0.00     0.210 HD
ENDBRANCH  15  19
BRANCH   6  21
HETATM   21  C9  UNL     1       0.369  16.056   4.734  1.00  0.00     0.015 C 
HETATM   22  C10 UNL     1       0.020  14.612   4.828  1.00  0.00     0.012 C 
HETATM   23  C11 UNL     1       1.100  16.316   3.425  1.00  0.00     0.012 C 
ENDBRANCH   6  21
TORSDOF 4
ENDMDL
