MODEL 1
REMARK VINA RESULT: -6.837896118      0.000      0.000
REMARK  4 active torsions:
REMARK  status: ('A' for Active; 'I' for Inactive)
REMARK    1  A    between atoms: C4_4  and  S1_5 
REMARK    2  A    between atoms: S1_5  and  C5_8 
REMARK    3  A    between atoms: C11_15  and  S3_16 
REMARK    4  A    between atoms: S3_16  and  N1_17 
ROOT
HETATM    1  C1  UNL     1      -1.758  20.301   3.970  1.00  0.00     0.050 C 
HETATM    2  C2  UNL     1      -2.174  18.937   3.578  1.00  0.00    -0.037 A 
HETATM    3  C3  UNL     1      -1.475  17.809   4.011  1.00  0.00     0.032 A 
HETATM    4  C4  UNL     1      -1.848  16.541   3.655  1.00  0.00     0.064 A 
HETATM    5  C9  UNL     1      -2.939  16.350   2.847  1.00  0.00     0.025 A 
HETATM    6  C10 UNL     1      -3.636  17.456   2.411  1.00  0.00     0.027 A 
HETATM    7  C11 UNL     1      -3.273  18.730   2.761  1.00  0.00     0.085 A 
ENDROOT
BRANCH   4   8
HETATM    8  S1  UNL     1      -0.951  15.184   4.219  1.00  0.00     0.207 S 
HETATM    9  O1  UNL     1       0.289  14.999   3.396  1.00  0.00    -0.217 OA
HETATM   10  O2  UNL     1      -1.740  13.897   4.075  1.00  0.00    -0.217 OA
BRANCH   8  11
HETATM   11  C5  UNL     1      -0.465  15.386   5.916  1.00  0.00     0.071 A 
HETATM   12  C6  UNL     1      -1.197  16.109   6.786  1.00  0.00     0.031 A 
HETATM   13  C7  UNL     1      -0.730  16.204   8.068  1.00  0.00     0.051 A 
HETATM   14  S2  UNL     1       0.705  15.287   8.023  1.00  0.00    -0.112 SA
HETATM   15  C8  UNL     1       0.678  14.810   6.390  1.00  0.00     0.073 A 
ENDBRANCH   8  11
ENDBRANCH   4   8
BRANCH   7  16
HETATM   16  S3  UNL     1      -4.180  20.139   2.194  1.00  0.00     0.257 S 
HETATM   17  O3  UNL     1      -4.909  20.800   3.331  1.00  0.00    -0.201 OA
HETATM   18  O4  UNL     1      -3.260  21.057   1.479  1.00  0.00    -0.201 OA
BRANCH  16  19
HETATM   19  N1  UNL     1      -5.417  19.557   1.106  1.00  0.00    -0.324 N 
ATOM     20  H12 UNL     1      -5.496  19.793   0.116  1.00  0.00     0.169 HD
ATOM     21  H11 UNL     1      -6.032  18.947   1.644  1.00  0.00     0.169 HD
ENDBRANCH  16  19
ENDBRANCH   7  16
TORSDOF 4
ENDMDL
MODEL 2
REMARK VINA RESULT: -6.762546384      1.507      1.843
REMARK  4 active torsions:
REMARK  status: ('A' for Active; 'I' for Inactive)
REMARK    1  A    between atoms: C4_4  and  S1_5 
REMARK    2  A    between atoms: S1_5  and  C5_8 
REMARK    3  A    between atoms: C11_15  and  S3_16 
REMARK    4  A    between atoms: S3_16  and  N1_17 
ROOT
HETATM    1  C1  UNL     1      -1.804  20.371   4.402  1.00  0.00     0.050 C 
HETATM    2  C2  UNL     1      -2.005  18.962   4.001  1.00  0.00    -0.037 A 
HETATM    3  C3  UNL     1      -1.257  17.929   4.568  1.00  0.00     0.032 A 
HETATM    4  C4  UNL     1      -1.432  16.620   4.206  1.00  0.00     0.064 A 
HETATM    5  C9  UNL     1      -2.366  16.292   3.257  1.00  0.00     0.025 A 
HETATM    6  C10 UNL     1      -3.110  17.303   2.689  1.00  0.00     0.027 A 
HETATM    7  C11 UNL     1      -2.944  18.617   3.044  1.00  0.00     0.085 A 
ENDROOT
BRANCH   4   8
HETATM    8  S1  UNL     1      -0.483  15.385   4.938  1.00  0.00     0.207 S 
HETATM    9  O1  UNL     1      -0.233  14.273   3.964  1.00  0.00    -0.217 OA
HETATM   10  O2  UNL     1      -1.202  14.753   6.114  1.00  0.00    -0.217 OA
BRANCH   8  11
HETATM   11  C5  UNL     1       1.089  16.010   5.482  1.00  0.00     0.071 A 
HETATM   12  C6  UNL     1       2.075  16.315   4.615  1.00  0.00     0.031 A 
HETATM   13  C7  UNL     1       3.246  16.785   5.140  1.00  0.00     0.051 A 
HETATM   14  S2  UNL     1       2.942  16.789   6.816  1.00  0.00    -0.112 SA
HETATM   15  C8  UNL     1       1.347  16.197   6.809  1.00  0.00     0.073 A 
ENDBRANCH   8  11
ENDBRANCH   4   8
BRANCH   7  16
HETATM   16  S3  UNL     1      -3.908  19.902   2.305  1.00  0.00     0.257 S 
HETATM   17  O3  UNL     1      -4.707  20.637   3.345  1.00  0.00    -0.201 OA
HETATM   18  O4  UNL     1      -3.018  20.791   1.519  1.00  0.00    -0.201 OA
BRANCH  16  19
HETATM   19  N1  UNL     1      -5.077  19.138   1.254  1.00  0.00    -0.324 N 
ATOM     20  H12 UNL     1      -5.058  19.154   0.234  1.00  0.00     0.169 HD
ATOM     21  H11 UNL     1      -5.767  18.681   1.850  1.00  0.00     0.169 HD
ENDBRANCH  16  19
ENDBRANCH   7  16
TORSDOF 4
ENDMDL
MODEL 3
REMARK VINA RESULT: -6.569389813      4.531      6.392
REMARK  4 active torsions:
REMARK  status: ('A' for Active; 'I' for Inactive)
REMARK    1  A    between atoms: C4_4  and  S1_5 
REMARK    2  A    between atoms: S1_5  and  C5_8 
REMARK    3  A    between atoms: C11_15  and  S3_16 
REMARK    4  A    between atoms: S3_16  and  N1_17 
ROOT
HETATM    1  C1  UNL     1       4.518  16.960   5.953  1.00  0.00     0.050 C 
HETATM    2  C2  UNL     1       3.047  16.967   6.105  1.00  0.00    -0.037 A 
HETATM    3  C3  UNL     1       2.258  15.928   5.609  1.00  0.00     0.032 A 
HETATM    4  C4  UNL     1       0.896  15.922   5.742  1.00  0.00     0.064 A 
HETATM    5  C9  UNL     1       0.266  16.960   6.378  1.00  0.00     0.025 A 
HETATM    6  C10 UNL     1       1.034  17.993   6.871  1.00  0.00     0.027 A 
HETATM    7  C11 UNL     1       2.399  18.010   6.744  1.00  0.00     0.085 A 
ENDROOT
BRANCH   4   8
HETATM    8  S1  UNL     1      -0.030  14.614   5.112  1.00  0.00     0.207 S 
HETATM    9  O1  UNL     1      -0.612  13.801   6.229  1.00  0.00    -0.217 OA
HETATM   10  O2  UNL     1       0.830  13.659   4.307  1.00  0.00    -0.217 OA
BRANCH   8  11
HETATM   11  C5  UNL     1      -1.367  15.196   4.096  1.00  0.00     0.071 A 
HETATM   12  C6  UNL     1      -2.192  14.350   3.449  1.00  0.00     0.031 A 
HETATM   13  C7  UNL     1      -3.186  14.904   2.690  1.00  0.00     0.051 A 
HETATM   14  S2  UNL     1      -2.943  16.576   2.900  1.00  0.00    -0.112 SA
HETATM   15  C8  UNL     1      -1.595  16.532   3.937  1.00  0.00     0.073 A 
ENDBRANCH   8  11
ENDBRANCH   4   8
BRANCH   7  16
HETATM   16  S3  UNL     1       3.369  19.343   7.384  1.00  0.00     0.257 S 
HETATM   17  O3  UNL     1       4.334  19.848   6.346  1.00  0.00    -0.201 OA
HETATM   18  O4  UNL     1       2.467  20.399   7.903  1.00  0.00    -0.201 OA
BRANCH  16  19
HETATM   19  N1  UNL     1       4.351  18.698   8.678  1.00  0.00    -0.324 N 
ATOM     20  H12 UNL     1       4.376  19.050   9.635  1.00  0.00     0.169 HD
ATOM     21  H11 UNL     1       4.883  17.917   8.295  1.00  0.00     0.169 HD
ENDBRANCH  16  19
ENDBRANCH   7  16
TORSDOF 4
ENDMDL
MODEL 4
REMARK VINA RESULT: -6.500181118      4.256      6.450
REMARK  4 active torsions:
REMARK  status: ('A' for Active; 'I' for Inactive)
REMARK    1  A    between atoms: C4_4  and  S1_5 
REMARK    2  A    between atoms: S1_5  and  C5_8 
REMARK    3  A    between atoms: C11_15  and  S3_16 
REMARK    4  A    between atoms: S3_16  and  N1_17 
ROOT
HETATM    1  C1  UNL     1       0.991  13.220   5.009  1.00  0.00     0.050 C 
HETATM    2  C2  UNL     1       1.259  14.671   5.095  1.00  0.00    -0.037 A 
HETATM    3  C3  UNL     1       2.405  15.164   5.721  1.00  0.00     0.032 A 
HETATM    4  C4  UNL     1       2.666  16.505   5.808  1.00  0.00     0.064 A 
HETATM    5  C9  UNL     1       1.786  17.410   5.271  1.00  0.00     0.025 A 
HETATM    6  C10 UNL     1       0.650  16.935   4.652  1.00  0.00     0.027 A 
HETATM    7  C11 UNL     1       0.379  15.595   4.558  1.00  0.00     0.085 A 
ENDROOT
BRANCH   4   8
HETATM    8  S1  UNL     1       4.095  17.061   6.590  1.00  0.00     0.207 S 
HETATM    9  O1  UNL     1       3.953  16.949   8.079  1.00  0.00    -0.217 OA
HETATM   10  O2  UNL     1       4.351  18.528   6.306  1.00  0.00    -0.217 OA
BRANCH   8  11
HETATM   11  C5  UNL     1       5.516  16.113   6.096  1.00  0.00     0.071 A 
HETATM   12  C6  UNL     1       6.436  15.692   6.985  1.00  0.00     0.031 A 
HETATM   13  C7  UNL     1       7.492  14.973   6.498  1.00  0.00     0.051 A 
HETATM   14  S2  UNL     1       7.173  14.905   4.826  1.00  0.00    -0.112 SA
HETATM   15  C8  UNL     1       5.717  15.786   4.787  1.00  0.00     0.073 A 
ENDBRANCH   8  11
ENDBRANCH   4   8
BRANCH   7  16
HETATM   16  S3  UNL     1      -1.084  15.003   3.759  1.00  0.00     0.257 S 
HETATM   17  O3  UNL     1      -0.743  14.290   2.478  1.00  0.00    -0.201 OA
HETATM   18  O4  UNL     1      -1.852  14.160   4.707  1.00  0.00    -0.201 OA
BRANCH  16  19
HETATM   19  N1  UNL     1      -2.025  16.399   3.294  1.00  0.00    -0.324 N 
ATOM     20  H12 UNL     1      -1.942  17.333   3.698  1.00  0.00     0.169 HD
ATOM     21  H11 UNL     1      -2.661  16.104   2.553  1.00  0.00     0.169 HD
ENDBRANCH  16  19
ENDBRANCH   7  16
TORSDOF 4
ENDMDL
MODEL 5
REMARK VINA RESULT: -6.462054415      1.360      2.099
REMARK  4 active torsions:
REMARK  status: ('A' for Active; 'I' for Inactive)
REMARK    1  A    between atoms: C4_4  and  S1_5 
REMARK    2  A    between atoms: S1_5  and  C5_8 
REMARK    3  A    between atoms: C11_15  and  S3_16 
REMARK    4  A    between atoms: S3_16  and  N1_17 
ROOT
HETATM    1  C1  UNL     1      -4.450  18.569   1.948  1.00  0.00     0.050 C 
HETATM    2  C2  UNL     1      -3.307  18.463   2.880  1.00  0.00    -0.037 A 
HETATM    3  C3  UNL     1      -2.687  17.239   3.137  1.00  0.00     0.032 A 
HETATM    4  C4  UNL     1      -1.628  17.127   3.997  1.00  0.00     0.064 A 
HETATM    5  C9  UNL     1      -1.146  18.240   4.638  1.00  0.00     0.025 A 
HETATM    6  C10 UNL     1      -1.751  19.454   4.393  1.00  0.00     0.027 A 
HETATM    7  C11 UNL     1      -2.811  19.578   3.533  1.00  0.00     0.085 A 
ENDROOT
BRANCH   4   8
HETATM    8  S1  UNL     1      -0.899  15.593   4.278  1.00  0.00     0.207 S 
HETATM    9  O1  UNL     1       0.254  15.383   3.343  1.00  0.00    -0.217 OA
HETATM   10  O2  UNL     1      -1.867  14.458   4.005  1.00  0.00    -0.217 OA
BRANCH   8  11
HETATM   11  C5  UNL     1      -0.294  15.458   5.943  1.00  0.00     0.071 A 
HETATM   12  C6  UNL     1      -1.057  15.774   7.008  1.00  0.00     0.031 A 
HETATM   13  C7  UNL     1      -0.491  15.636   8.246  1.00  0.00     0.051 A 
HETATM   14  S2  UNL     1       1.077  15.074   7.891  1.00  0.00    -0.112 SA
HETATM   15  C8  UNL     1       0.977  15.028   6.193  1.00  0.00     0.073 A 
ENDBRANCH   8  11
ENDBRANCH   4   8
BRANCH   7  16
HETATM   16  S3  UNL     1      -3.574  21.145   3.230  1.00  0.00     0.257 S 
HETATM   17  O3  UNL     1      -3.216  21.659   1.863  1.00  0.00    -0.201 OA
HETATM   18  O4  UNL     1      -5.038  21.025   3.442  1.00  0.00    -0.201 OA
BRANCH  16  19
HETATM   19  N1  UNL     1      -2.892  22.285   4.365  1.00  0.00    -0.324 N 
ATOM     20  H12 UNL     1      -2.016  22.793   4.242  1.00  0.00     0.169 HD
ATOM     21  H11 UNL     1      -3.530  22.341   5.159  1.00  0.00     0.169 HD
ENDBRANCH  16  19
ENDBRANCH   7  16
TORSDOF 4
ENDMDL
