MODEL 1
REMARK VINA RESULT: -8.191078472      0.000      0.000
REMARK  4 active torsions:
REMARK  status: ('A' for Active; 'I' for Inactive)
REMARK    1  A    between atoms: C6_9  and  S1_10 
REMARK    2  A    between atoms: S1_10  and  N3_13 
REMARK    3  A    between atoms: N3_13  and  C7_15 
REMARK    4  A    between atoms: C8_19  and  C9_20 
ROOT
HETATM    1  S1  UNL     1       1.810  17.726   6.526  1.00  0.00     0.268 S 
HETATM    2  O1  UNL     1       1.250  19.035   6.982  1.00  0.00    -0.200 OA
HETATM    3  O2  UNL     1       1.016  16.658   7.265  1.00  0.00    -0.200 OA
ENDROOT
BRANCH   1   4
HETATM    4  C6  UNL     1       3.446  17.604   7.054  1.00  0.00     0.127 A 
HETATM    5  C2  UNL     1       4.269  18.469   7.701  1.00  0.00     0.047 A 
HETATM    6  C1  UNL     1       3.902  19.820   8.123  1.00  0.00     0.071 C 
HETATM    7  N1  UNL     1       5.464  17.893   7.889  1.00  0.00    -0.302 N 
HETATM    8  N2  UNL     1       5.437  16.659   7.372  1.00  0.00    -0.299 N 
ATOM      9  H1  UNL     1       6.265  18.325   8.351  1.00  0.00     0.186 HD
HETATM   10  C3  UNL     1       6.590  15.769   7.414  1.00  0.00     0.177 C 
HETATM   11  C4  UNL     1       4.209  16.448   6.850  1.00  0.00     0.049 A 
HETATM   12  C5  UNL     1       3.833  15.188   6.197  1.00  0.00     0.071 C 
ENDBRANCH   1   4
BRANCH   1  13
HETATM   13  N3  UNL     1       1.565  17.491   4.878  1.00  0.00    -0.264 N 
ATOM     14  H3  UNL     1       2.143  17.995   4.206  1.00  0.00     0.180 HD
BRANCH  13  15
HETATM   15  C7  UNL     1       0.661  16.688   4.458  1.00  0.00     0.143 A 
HETATM   16  N4  UNL     1       0.826  15.413   4.051  1.00  0.00    -0.244 N 
HETATM   17  O3  UNL     1      -0.318  14.897   3.690  1.00  0.00    -0.240 OA
ATOM     18  H4  UNL     1       1.720  14.921   4.028  1.00  0.00     0.196 HD
HETATM   19  C8  UNL     1      -1.278  15.756   3.827  1.00  0.00     0.089 A 
HETATM   20  C12 UNL     1      -0.702  16.905   4.311  1.00  0.00     0.017 A 
HETATM   21  C13 UNL     1      -1.369  18.187   4.641  1.00  0.00     0.055 C 
BRANCH  19  22
HETATM   22  C9  UNL     1      -2.702  15.536   3.521  1.00  0.00     0.038 C 
HETATM   23  C10 UNL     1      -2.869  14.230   2.735  1.00  0.00     0.016 C 
HETATM   24  C11 UNL     1      -3.190  16.629   2.558  1.00  0.00     0.016 C 
ENDBRANCH  19  22
ENDBRANCH  13  15
ENDBRANCH   1  13
TORSDOF 4
ENDMDL
MODEL 2
REMARK VINA RESULT: -8.183961708      2.515      3.511
REMARK  4 active torsions:
REMARK  status: ('A' for Active; 'I' for Inactive)
REMARK    1  A    between atoms: C6_9  and  S1_10 
REMARK    2  A    between atoms: S1_10  and  N3_13 
REMARK    3  A    between atoms: N3_13  and  C7_15 
REMARK    4  A    between atoms: C8_19  and  C9_20 
ROOT
HETATM    1  S1  UNL     1       2.336  15.092   7.127  1.00  0.00     0.268 S 
HETATM    2  O1  UNL     1       1.735  14.480   8.350  1.00  0.00    -0.200 OA
HETATM    3  O2  UNL     1       3.828  15.205   7.414  1.00  0.00    -0.200 OA
ENDROOT
BRANCH   1   4
HETATM    4  C6  UNL     1       1.728  16.694   6.947  1.00  0.00     0.127 A 
HETATM    5  C2  UNL     1       0.477  17.217   7.035  1.00  0.00     0.047 A 
HETATM    6  C1  UNL     1      -0.734  16.451   7.326  1.00  0.00     0.071 C 
HETATM    7  N1  UNL     1       0.528  18.537   6.811  1.00  0.00    -0.302 N 
HETATM    8  N2  UNL     1       1.798  18.888   6.576  1.00  0.00    -0.299 N 
ATOM      9  H1  UNL     1      -0.271  19.171   6.819  1.00  0.00     0.186 HD
HETATM   10  C3  UNL     1       2.188  20.264   6.294  1.00  0.00     0.177 C 
HETATM   11  C4  UNL     1       2.563  17.778   6.652  1.00  0.00     0.049 A 
HETATM   12  C5  UNL     1       4.017  17.804   6.443  1.00  0.00     0.071 C 
ENDBRANCH   1   4
BRANCH   1  13
HETATM   13  N3  UNL     1       2.152  14.096   5.784  1.00  0.00    -0.264 N 
ATOM     14  H3  UNL     1       2.960  13.596   5.412  1.00  0.00     0.180 HD
BRANCH  13  15
HETATM   15  C7  UNL     1       1.010  13.957   5.222  1.00  0.00     0.143 A 
HETATM   16  N4  UNL     1       0.109  12.976   5.433  1.00  0.00    -0.244 N 
HETATM   17  O3  UNL     1      -0.945  13.156   4.684  1.00  0.00    -0.240 OA
ATOM     18  H4  UNL     1       0.234  12.203   6.086  1.00  0.00     0.196 HD
HETATM   19  C8  UNL     1      -0.822  14.221   3.957  1.00  0.00     0.089 A 
HETATM   20  C12 UNL     1       0.403  14.760   4.266  1.00  0.00     0.017 A 
HETATM   21  C13 UNL     1       1.023  15.986   3.710  1.00  0.00     0.055 C 
BRANCH  19  22
HETATM   22  C9  UNL     1      -1.806  14.743   2.993  1.00  0.00     0.038 C 
HETATM   23  C10 UNL     1      -2.465  16.008   3.555  1.00  0.00     0.016 C 
HETATM   24  C11 UNL     1      -2.960  13.740   2.849  1.00  0.00     0.016 C 
ENDBRANCH  19  22
ENDBRANCH  13  15
ENDBRANCH   1  13
TORSDOF 4
ENDMDL
MODEL 3
REMARK VINA RESULT: -8.153846315      2.763      3.576
REMARK  4 active torsions:
REMARK  status: ('A' for Active; 'I' for Inactive)
REMARK    1  A    between atoms: C6_9  and  S1_10 
REMARK    2  A    between atoms: S1_10  and  N3_13 
REMARK    3  A    between atoms: N3_13  and  C7_15 
REMARK    4  A    between atoms: C8_19  and  C9_20 
ROOT
HETATM    1  S1  UNL     1       3.843  16.185   6.920  1.00  0.00     0.268 S 
HETATM    2  O1  UNL     1       5.198  15.815   7.431  1.00  0.00    -0.200 OA
HETATM    3  O2  UNL     1       3.937  16.094   5.403  1.00  0.00    -0.200 OA
ENDROOT
BRANCH   1   4
HETATM    4  C6  UNL     1       3.528  17.832   7.315  1.00  0.00     0.127 A 
HETATM    5  C2  UNL     1       4.139  18.710   8.152  1.00  0.00     0.047 A 
HETATM    6  C1  UNL     1       5.307  18.406   8.978  1.00  0.00     0.071 C 
HETATM    7  N1  UNL     1       3.506  19.889   8.104  1.00  0.00    -0.302 N 
HETATM    8  N2  UNL     1       2.484  19.798   7.245  1.00  0.00    -0.299 N 
ATOM      9  H1  UNL     1       3.761  20.722   8.635  1.00  0.00     0.186 HD
HETATM   10  C3  UNL     1       1.593  20.918   6.968  1.00  0.00     0.177 C 
HETATM   11  C4  UNL     1       2.469  18.545   6.740  1.00  0.00     0.049 A 
HETATM   12  C5  UNL     1       1.468  18.099   5.762  1.00  0.00     0.071 C 
ENDBRANCH   1   4
BRANCH   1  13
HETATM   13  N3  UNL     1       2.673  15.086   7.423  1.00  0.00    -0.264 N 
ATOM     14  H3  UNL     1       2.466  14.990   8.417  1.00  0.00     0.180 HD
BRANCH  13  15
HETATM   15  C7  UNL     1       2.038  14.369   6.573  1.00  0.00     0.143 A 
HETATM   16  N4  UNL     1       2.551  13.431   5.752  1.00  0.00    -0.244 N 
HETATM   17  O3  UNL     1       1.608  12.900   5.020  1.00  0.00    -0.240 OA
ATOM     18  H4  UNL     1       3.536  13.172   5.708  1.00  0.00     0.196 HD
HETATM   19  C8  UNL     1       0.457  13.426   5.295  1.00  0.00     0.089 A 
HETATM   20  C12 UNL     1       0.683  14.363   6.274  1.00  0.00     0.017 A 
HETATM   21  C13 UNL     1      -0.308  15.243   6.937  1.00  0.00     0.055 C 
BRANCH  19  22
HETATM   22  C9  UNL     1      -0.835  13.083   4.674  1.00  0.00     0.038 C 
HETATM   23  C10 UNL     1      -0.779  11.658   4.112  1.00  0.00     0.016 C 
HETATM   24  C11 UNL     1      -1.059  13.973   3.442  1.00  0.00     0.016 C 
ENDBRANCH  19  22
ENDBRANCH  13  15
ENDBRANCH   1  13
TORSDOF 4
ENDMDL
MODEL 4
REMARK VINA RESULT: -8.060187130      1.788      2.828
REMARK  4 active torsions:
REMARK  status: ('A' for Active; 'I' for Inactive)
REMARK    1  A    between atoms: C6_9  and  S1_10 
REMARK    2  A    between atoms: S1_10  and  N3_13 
REMARK    3  A    between atoms: N3_13  and  C7_15 
REMARK    4  A    between atoms: C8_19  and  C9_20 
ROOT
HETATM    1  S1  UNL     1       1.999  15.615   7.158  1.00  0.00     0.268 S 
HETATM    2  O1  UNL     1       0.624  16.138   7.424  1.00  0.00    -0.200 OA
HETATM    3  O2  UNL     1       2.392  14.838   8.407  1.00  0.00    -0.200 OA
ENDROOT
BRANCH   1   4
HETATM    4  C6  UNL     1       3.086  16.944   7.018  1.00  0.00     0.127 A 
HETATM    5  C2  UNL     1       4.440  17.034   7.078  1.00  0.00     0.047 A 
HETATM    6  C1  UNL     1       5.346  15.907   7.297  1.00  0.00     0.071 C 
HETATM    7  N1  UNL     1       4.811  18.310   6.906  1.00  0.00    -0.302 N 
HETATM    8  N2  UNL     1       3.717  19.061   6.736  1.00  0.00    -0.299 N 
ATOM      9  H1  UNL     1       5.772  18.653   6.905  1.00  0.00     0.186 HD
HETATM   10  C3  UNL     1       3.784  20.501   6.525  1.00  0.00     0.177 C 
HETATM   11  C4  UNL     1       2.637  18.252   6.799  1.00  0.00     0.049 A 
HETATM   12  C5  UNL     1       1.264  18.753   6.653  1.00  0.00     0.071 C 
ENDBRANCH   1   4
BRANCH   1  13
HETATM   13  N3  UNL     1       2.008  14.537   5.866  1.00  0.00    -0.264 N 
ATOM     14  H3  UNL     1       2.887  14.117   5.566  1.00  0.00     0.180 HD
BRANCH  13  15
HETATM   15  C7  UNL     1       0.924  14.237   5.255  1.00  0.00     0.143 A 
HETATM   16  N4  UNL     1       0.158  13.143   5.438  1.00  0.00    -0.244 N 
HETATM   17  O3  UNL     1      -0.875  13.169   4.639  1.00  0.00    -0.240 OA
ATOM     18  H4  UNL     1       0.358  12.398   6.106  1.00  0.00     0.196 HD
HETATM   19  C8  UNL     1      -0.866  14.235   3.904  1.00  0.00     0.089 A 
HETATM   20  C12 UNL     1       0.257  14.941   4.261  1.00  0.00     0.017 A 
HETATM   21  C13 UNL     1       0.727  16.237   3.717  1.00  0.00     0.055 C 
BRANCH  19  22
HETATM   22  C9  UNL     1      -1.865  14.609   2.888  1.00  0.00     0.038 C 
HETATM   23  C10 UNL     1      -2.579  15.898   3.310  1.00  0.00     0.016 C 
HETATM   24  C11 UNL     1      -2.976  13.548   2.854  1.00  0.00     0.016 C 
ENDBRANCH  19  22
ENDBRANCH  13  15
ENDBRANCH   1  13
TORSDOF 4
ENDMDL
MODEL 5
REMARK VINA RESULT: -8.025449641      1.760      2.016
REMARK  4 active torsions:
REMARK  status: ('A' for Active; 'I' for Inactive)
REMARK    1  A    between atoms: C6_9  and  S1_10 
REMARK    2  A    between atoms: S1_10  and  N3_13 
REMARK    3  A    between atoms: N3_13  and  C7_15 
REMARK    4  A    between atoms: C8_19  and  C9_20 
ROOT
HETATM    1  S1  UNL     1       2.191  18.891   6.958  1.00  0.00     0.268 S 
HETATM    2  O1  UNL     1       2.126  19.721   5.717  1.00  0.00    -0.200 OA
HETATM    3  O2  UNL     1       2.258  19.882   8.113  1.00  0.00    -0.200 OA
ENDROOT
BRANCH   1   4
HETATM    4  C6  UNL     1       3.669  18.004   6.960  1.00  0.00     0.127 A 
HETATM    5  C2  UNL     1       4.755  18.030   7.776  1.00  0.00     0.047 A 
HETATM    6  C1  UNL     1       4.912  18.906   8.936  1.00  0.00     0.071 C 
HETATM    7  N1  UNL     1       5.654  17.133   7.350  1.00  0.00    -0.302 N 
HETATM    8  N2  UNL     1       5.173  16.518   6.264  1.00  0.00    -0.299 N 
ATOM      9  H1  UNL     1       6.558  16.948   7.785  1.00  0.00     0.186 HD
HETATM   10  C3  UNL     1       5.918  15.483   5.558  1.00  0.00     0.177 C 
HETATM   11  C4  UNL     1       3.952  17.030   5.996  1.00  0.00     0.049 A 
HETATM   12  C5  UNL     1       3.137  16.579   4.860  1.00  0.00     0.071 C 
ENDBRANCH   1   4
BRANCH   1  13
HETATM   13  N3  UNL     1       0.797  17.971   7.158  1.00  0.00    -0.264 N 
ATOM     14  H3  UNL     1       0.502  17.701   8.095  1.00  0.00     0.180 HD
BRANCH  13  15
HETATM   15  C7  UNL     1       0.103  17.605   6.146  1.00  0.00     0.143 A 
HETATM   16  N4  UNL     1      -0.241  18.352   5.078  1.00  0.00    -0.244 N 
HETATM   17  O3  UNL     1      -0.954  17.649   4.239  1.00  0.00    -0.240 OA
ATOM     18  H4  UNL     1       0.020  19.329   4.943  1.00  0.00     0.196 HD
HETATM   19  C8  UNL     1      -1.125  16.442   4.674  1.00  0.00     0.089 A 
HETATM   20  C12 UNL     1      -0.472  16.370   5.881  1.00  0.00     0.017 A 
HETATM   21  C13 UNL     1      -0.362  15.202   6.787  1.00  0.00     0.055 C 
BRANCH  19  22
HETATM   22  C9  UNL     1      -1.873  15.365   4.003  1.00  0.00     0.038 C 
HETATM   23  C10 UNL     1      -0.912  14.499   3.180  1.00  0.00     0.016 C 
HETATM   24  C11 UNL     1      -2.823  15.978   2.963  1.00  0.00     0.016 C 
ENDBRANCH  19  22
ENDBRANCH  13  15
ENDBRANCH   1  13
TORSDOF 4
ENDMDL
