MODEL 1
REMARK VINA RESULT: -8.719156116      0.000      0.000
REMARK  4 active torsions:
REMARK  status: ('A' for Active; 'I' for Inactive)
REMARK    1  A    between atoms: C8_10  and  O3_11 
REMARK    2  A    between atoms: C8_10  and  S1_13 
REMARK    3  A    between atoms: S1_13  and  C9_16 
REMARK    4  A    between atoms: C9_16  and  C10_17 
ROOT
HETATM    1  O1  UNL     1       0.637  14.452   6.868  1.00  0.00    -0.285 OA
HETATM    2  C1  UNL     1       1.235  15.540   6.811  1.00  0.00     0.240 C 
HETATM    3  C2  UNL     1       2.653  15.696   6.548  1.00  0.00     0.050 A 
HETATM    4  C3  UNL     1       3.683  14.857   6.189  1.00  0.00     0.018 A 
HETATM    5  C4  UNL     1       4.964  15.334   6.011  1.00  0.00     0.001 A 
HETATM    6  C5  UNL     1       5.228  16.671   6.196  1.00  0.00     0.003 A 
HETATM    7  C6  UNL     1       4.219  17.535   6.555  1.00  0.00     0.038 A 
HETATM    8  C7  UNL     1       2.945  17.049   6.730  1.00  0.00     0.088 A 
HETATM    9  O2  UNL     1       1.794  17.705   7.081  1.00  0.00    -0.293 OA
HETATM   10  C8  UNL     1       0.662  16.866   6.990  1.00  0.00     0.343 C 
ENDROOT
BRANCH  10  11
HETATM   11  O3  UNL     1      -0.008  16.958   8.224  1.00  0.00    -0.347 OA
ATOM     12  H3  UNL     1       0.196  16.212   8.775  1.00  0.00     0.214 HD
ENDBRANCH  10  11
BRANCH  10  13
HETATM   13  S1  UNL     1      -0.401  17.365   5.665  1.00  0.00     0.216 S 
HETATM   14  O4  UNL     1      -0.337  18.847   5.557  1.00  0.00    -0.221 OA
HETATM   15  O5  UNL     1      -1.808  16.985   6.030  1.00  0.00    -0.221 OA
BRANCH  13  16
HETATM   16  C9  UNL     1       0.013  16.559   4.146  1.00  0.00     0.185 C 
BRANCH  16  17
HETATM   17  C10 UNL     1      -1.031  15.614   3.705  1.00  0.00    -0.044 A 
HETATM   18  C11 UNL     1      -0.876  14.235   3.827  1.00  0.00     0.008 A 
HETATM   19  C12 UNL     1      -1.854  13.359   3.413  1.00  0.00     0.001 A 
HETATM   20  C13 UNL     1      -3.009  13.868   2.868  1.00  0.00     0.000 A 
HETATM   21  C14 UNL     1      -3.169  15.237   2.745  1.00  0.00     0.001 A 
HETATM   22  C15 UNL     1      -2.201  16.130   3.153  1.00  0.00     0.008 A 
ENDBRANCH  16  17
ENDBRANCH  13  16
ENDBRANCH  10  13
TORSDOF 4
ENDMDL
MODEL 2
REMARK VINA RESULT: -8.707548401      0.082      1.048
REMARK  4 active torsions:
REMARK  status: ('A' for Active; 'I' for Inactive)
REMARK    1  A    between atoms: C8_10  and  O3_11 
REMARK    2  A    between atoms: C8_10  and  S1_13 
REMARK    3  A    between atoms: S1_13  and  C9_16 
REMARK    4  A    between atoms: C9_16  and  C10_17 
ROOT
HETATM    1  O1  UNL     1       0.633  14.460   6.880  1.00  0.00    -0.285 OA
HETATM    2  C1  UNL     1       1.230  15.548   6.811  1.00  0.00     0.240 C 
HETATM    3  C2  UNL     1       2.649  15.703   6.552  1.00  0.00     0.050 A 
HETATM    4  C3  UNL     1       3.681  14.860   6.209  1.00  0.00     0.018 A 
HETATM    5  C4  UNL     1       4.963  15.336   6.030  1.00  0.00     0.001 A 
HETATM    6  C5  UNL     1       5.223  16.677   6.197  1.00  0.00     0.003 A 
HETATM    7  C6  UNL     1       4.212  17.543   6.540  1.00  0.00     0.038 A 
HETATM    8  C7  UNL     1       2.938  17.059   6.716  1.00  0.00     0.088 A 
HETATM    9  O2  UNL     1       1.784  17.717   7.053  1.00  0.00    -0.293 OA
HETATM   10  C8  UNL     1       0.654  16.875   6.969  1.00  0.00     0.343 C 
ENDROOT
BRANCH  10  11
HETATM   11  O3  UNL     1      -0.021  16.983   8.199  1.00  0.00    -0.347 OA
ATOM     12  H3  UNL     1       0.268  17.752   8.675  1.00  0.00     0.214 HD
ENDBRANCH  10  11
BRANCH  10  13
HETATM   13  S1  UNL     1      -0.404  17.354   5.632  1.00  0.00     0.216 S 
HETATM   14  O4  UNL     1      -0.340  18.834   5.503  1.00  0.00    -0.221 OA
HETATM   15  O5  UNL     1      -1.812  16.980   5.997  1.00  0.00    -0.221 OA
BRANCH  13  16
HETATM   16  C9  UNL     1       0.016  16.526   4.127  1.00  0.00     0.185 C 
BRANCH  16  17
HETATM   17  C10 UNL     1      -1.017  15.559   3.707  1.00  0.00    -0.044 A 
HETATM   18  C11 UNL     1      -2.227  15.969   3.151  1.00  0.00     0.008 A 
HETATM   19  C12 UNL     1      -3.187  15.062   2.762  1.00  0.00     0.001 A 
HETATM   20  C13 UNL     1      -2.935  13.721   2.930  1.00  0.00     0.000 A 
HETATM   21  C14 UNL     1      -1.734  13.308   3.482  1.00  0.00     0.001 A 
HETATM   22  C15 UNL     1      -0.761  14.201   3.878  1.00  0.00     0.008 A 
ENDBRANCH  16  17
ENDBRANCH  13  16
ENDBRANCH  10  13
TORSDOF 4
ENDMDL
MODEL 3
REMARK VINA RESULT: -8.241836861      1.308      6.064
REMARK  4 active torsions:
REMARK  status: ('A' for Active; 'I' for Inactive)
REMARK    1  A    between atoms: C8_10  and  O3_11 
REMARK    2  A    between atoms: C8_10  and  S1_13 
REMARK    3  A    between atoms: S1_13  and  C9_16 
REMARK    4  A    between atoms: C9_16  and  C10_17 
ROOT
HETATM    1  O1  UNL     1       1.135  14.115   4.594  1.00  0.00    -0.285 OA
HETATM    2  C1  UNL     1       0.380  15.085   4.411  1.00  0.00     0.240 C 
HETATM    3  C2  UNL     1      -0.943  15.009   3.820  1.00  0.00     0.050 A 
HETATM    4  C3  UNL     1      -1.784  13.994   3.425  1.00  0.00     0.018 A 
HETATM    5  C4  UNL     1      -3.021  14.263   2.879  1.00  0.00     0.001 A 
HETATM    6  C5  UNL     1      -3.430  15.567   2.721  1.00  0.00     0.003 A 
HETATM    7  C6  UNL     1      -2.611  16.603   3.107  1.00  0.00     0.038 A 
HETATM    8  C7  UNL     1      -1.379  16.324   3.650  1.00  0.00     0.088 A 
HETATM    9  O2  UNL     1      -0.403  17.174   4.101  1.00  0.00    -0.293 OA
HETATM   10  C8  UNL     1       0.646  16.477   4.740  1.00  0.00     0.343 C 
ENDROOT
BRANCH  10  11
HETATM   11  O3  UNL     1       1.842  16.913   4.138  1.00  0.00    -0.347 OA
ATOM     12  H3  UNL     1       2.025  17.816   4.369  1.00  0.00     0.214 HD
ENDBRANCH  10  11
BRANCH  10  13
HETATM   13  S1  UNL     1       0.668  16.805   6.480  1.00  0.00     0.216 S 
HETATM   14  O4  UNL     1      -0.738  16.809   6.965  1.00  0.00    -0.221 OA
HETATM   15  O5  UNL     1       1.235  18.180   6.686  1.00  0.00    -0.221 OA
BRANCH  13  16
HETATM   16  C9  UNL     1       1.682  15.651   7.356  1.00  0.00     0.185 C 
BRANCH  16  17
HETATM   17  C10 UNL     1       3.122  15.870   7.119  1.00  0.00    -0.044 A 
HETATM   18  C11 UNL     1       3.845  16.834   7.817  1.00  0.00     0.008 A 
HETATM   19  C12 UNL     1       5.189  17.034   7.589  1.00  0.00     0.001 A 
HETATM   20  C13 UNL     1       5.822  16.256   6.649  1.00  0.00     0.000 A 
HETATM   21  C14 UNL     1       5.107  15.296   5.953  1.00  0.00     0.001 A 
HETATM   22  C15 UNL     1       3.762  15.082   6.166  1.00  0.00     0.008 A 
ENDBRANCH  16  17
ENDBRANCH  13  16
ENDBRANCH  10  13
TORSDOF 4
ENDMDL
MODEL 4
REMARK VINA RESULT: -8.065089851      1.735      2.961
REMARK  4 active torsions:
REMARK  status: ('A' for Active; 'I' for Inactive)
REMARK    1  A    between atoms: C8_10  and  O3_11 
REMARK    2  A    between atoms: C8_10  and  S1_13 
REMARK    3  A    between atoms: S1_13  and  C9_16 
REMARK    4  A    between atoms: C9_16  and  C10_17 
ROOT
HETATM    1  O1  UNL     1       3.884  15.397   7.372  1.00  0.00    -0.285 OA
HETATM    2  C1  UNL     1       2.852  16.057   7.163  1.00  0.00     0.240 C 
HETATM    3  C2  UNL     1       2.818  17.479   6.879  1.00  0.00     0.050 A 
HETATM    4  C3  UNL     1       3.759  18.455   6.640  1.00  0.00     0.018 A 
HETATM    5  C4  UNL     1       3.388  19.760   6.396  1.00  0.00     0.001 A 
HETATM    6  C5  UNL     1       2.056  20.103   6.390  1.00  0.00     0.003 A 
HETATM    7  C6  UNL     1       1.093  19.149   6.625  1.00  0.00     0.038 A 
HETATM    8  C7  UNL     1       1.473  17.851   6.868  1.00  0.00     0.088 A 
HETATM    9  O2  UNL     1       0.707  16.743   7.125  1.00  0.00    -0.293 OA
HETATM   10  C8  UNL     1       1.483  15.564   7.154  1.00  0.00     0.343 C 
ENDROOT
BRANCH  10  11
HETATM   11  O3  UNL     1       1.179  14.912   8.364  1.00  0.00    -0.347 OA
ATOM     12  H3  UNL     1       0.315  14.521   8.328  1.00  0.00     0.214 HD
ENDBRANCH  10  11
BRANCH  10  13
HETATM   13  S1  UNL     1       1.113  14.519   5.773  1.00  0.00     0.216 S 
HETATM   14  O4  UNL     1      -0.132  13.768   6.085  1.00  0.00    -0.221 OA
HETATM   15  O5  UNL     1       2.231  13.528   5.628  1.00  0.00    -0.221 OA
BRANCH  13  16
HETATM   16  C9  UNL     1       0.988  15.437   4.266  1.00  0.00     0.185 C 
BRANCH  16  17
HETATM   17  C10 UNL     1      -0.410  15.640   3.842  1.00  0.00    -0.044 A 
HETATM   18  C11 UNL     1      -1.164  14.617   3.273  1.00  0.00     0.008 A 
HETATM   19  C12 UNL     1      -2.469  14.815   2.879  1.00  0.00     0.001 A 
HETATM   20  C13 UNL     1      -3.032  16.056   3.057  1.00  0.00     0.000 A 
HETATM   21  C14 UNL     1      -2.287  17.077   3.622  1.00  0.00     0.001 A 
HETATM   22  C15 UNL     1      -0.979  16.899   4.022  1.00  0.00     0.008 A 
ENDBRANCH  16  17
ENDBRANCH  13  16
ENDBRANCH  10  13
TORSDOF 4
ENDMDL
MODEL 5
REMARK VINA RESULT: -8.044362980      0.981      1.114
REMARK  4 active torsions:
REMARK  status: ('A' for Active; 'I' for Inactive)
REMARK    1  A    between atoms: C8_10  and  O3_11 
REMARK    2  A    between atoms: C8_10  and  S1_13 
REMARK    3  A    between atoms: S1_13  and  C9_16 
REMARK    4  A    between atoms: C9_16  and  C10_17 
ROOT
HETATM    1  O1  UNL     1       1.803  13.937   5.493  1.00  0.00    -0.285 OA
HETATM    2  C1  UNL     1       2.119  14.901   6.210  1.00  0.00     0.240 C 
HETATM    3  C2  UNL     1       3.473  15.384   6.404  1.00  0.00     0.050 A 
HETATM    4  C3  UNL     1       4.704  15.098   5.860  1.00  0.00     0.018 A 
HETATM    5  C4  UNL     1       5.841  15.758   6.277  1.00  0.00     0.001 A 
HETATM    6  C5  UNL     1       5.751  16.722   7.255  1.00  0.00     0.003 A 
HETATM    7  C6  UNL     1       4.534  17.030   7.817  1.00  0.00     0.038 A 
HETATM    8  C7  UNL     1       3.408  16.366   7.395  1.00  0.00     0.088 A 
HETATM    9  O2  UNL     1       2.105  16.497   7.800  1.00  0.00    -0.293 OA
HETATM   10  C8  UNL     1       1.226  15.741   6.994  1.00  0.00     0.343 C 
ENDROOT
BRANCH  10  11
HETATM   11  O3  UNL     1       0.448  14.961   7.870  1.00  0.00    -0.347 OA
ATOM     12  H3  UNL     1      -0.428  15.319   7.953  1.00  0.00     0.214 HD
ENDBRANCH  10  11
BRANCH  10  13
HETATM   13  S1  UNL     1       0.193  16.792   6.011  1.00  0.00     0.216 S 
HETATM   14  O4  UNL     1       0.559  18.203   6.307  1.00  0.00    -0.221 OA
HETATM   15  O5  UNL     1      -1.230  16.579   6.443  1.00  0.00    -0.221 OA
BRANCH  13  16
HETATM   16  C9  UNL     1       0.311  16.410   4.288  1.00  0.00     0.185 C 
BRANCH  16  17
HETATM   17  C10 UNL     1      -0.917  15.784   3.763  1.00  0.00    -0.044 A 
HETATM   18  C11 UNL     1      -1.063  14.401   3.682  1.00  0.00     0.008 A 
HETATM   19  C12 UNL     1      -2.213  13.824   3.190  1.00  0.00     0.001 A 
HETATM   20  C13 UNL     1      -3.236  14.641   2.772  1.00  0.00     0.000 A 
HETATM   21  C14 UNL     1      -3.096  16.017   2.850  1.00  0.00     0.001 A 
HETATM   22  C15 UNL     1      -1.953  16.613   3.339  1.00  0.00     0.008 A 
ENDBRANCH  16  17
ENDBRANCH  13  16
ENDBRANCH  10  13
TORSDOF 4
ENDMDL
