MODEL 1
REMARK VINA RESULT: -8.516981202      0.000      0.000
REMARK  4 active torsions:
REMARK  status: ('A' for Active; 'I' for Inactive)
REMARK    1  A    between atoms: N1_1  and  S1_4 
REMARK    2  A    between atoms: S1_4  and  C1_7 
REMARK    3  A    between atoms: C4_10  and  N2_11 
REMARK    4  A    between atoms: C6_13  and  C7_14 
ROOT
HETATM    1  C1  UNL     1      -6.909  13.666  21.694  1.00  0.00     0.079 A 
HETATM    2  C2  UNL     1      -8.043  13.554  20.912  1.00  0.00     0.027 A 
HETATM    3  C3  UNL     1      -8.247  12.494  20.054  1.00  0.00     0.031 A 
HETATM    4  C4  UNL     1      -7.315  11.485  19.939  1.00  0.00     0.044 A 
HETATM    5  C14 UNL     1      -6.179  11.585  20.714  1.00  0.00     0.031 A 
HETATM    6  C15 UNL     1      -5.980  12.649  21.571  1.00  0.00     0.027 A 
ENDROOT
BRANCH   4   7
HETATM    7  N2  UNL     1      -7.519  10.377  19.049  1.00  0.00    -0.266 N 
HETATM    8  C5  UNL     1      -7.805  10.435  17.719  1.00  0.00     0.141 A 
HETATM    9  C6  UNL     1      -7.924   9.150  17.231  1.00  0.00     0.107 A 
HETATM   10  O3  UNL     1      -7.717   8.362  18.244  1.00  0.00    -0.259 OA
HETATM   11  C13 UNL     1      -7.475   9.064  19.324  1.00  0.00     0.377 A 
HETATM   12  O4  UNL     1      -7.241   8.552  20.445  1.00  0.00    -0.237 OA
BRANCH   9  13
HETATM   13  C7  UNL     1      -8.228   8.791  15.840  1.00  0.00    -0.001 A 
HETATM   14  C8  UNL     1      -8.988   9.678  15.104  1.00  0.00     0.014 A 
HETATM   15  C9  UNL     1      -9.303   9.386  13.783  1.00  0.00     0.001 A 
HETATM   16  C10 UNL     1      -8.840   8.206  13.248  1.00  0.00     0.000 A 
HETATM   17  C11 UNL     1      -8.081   7.316  13.978  1.00  0.00     0.001 A 
HETATM   18  C12 UNL     1      -7.777   7.623  15.289  1.00  0.00     0.014 A 
ENDBRANCH   9  13
ENDBRANCH   4   7
BRANCH   1  19
HETATM   19  S1  UNL     1      -6.661  15.018  22.778  1.00  0.00     0.256 S 
HETATM   20  O1  UNL     1      -5.258  15.092  23.268  1.00  0.00    -0.201 OA
HETATM   21  O2  UNL     1      -6.962  16.327  22.084  1.00  0.00    -0.201 OA
BRANCH  19  22
HETATM   22  N1  UNL     1      -7.714  14.918  24.149  1.00  0.00    -0.324 N 
ATOM     23  H12 UNL     1      -7.571  14.307  24.954  1.00  0.00     0.169 HD
ATOM     24  H11 UNL     1      -8.488  15.568  24.009  1.00  0.00     0.169 HD
ENDBRANCH  19  22
ENDBRANCH   1  19
TORSDOF 4
ENDMDL
MODEL 2
REMARK VINA RESULT: -8.281364710      0.840      1.759
REMARK  4 active torsions:
REMARK  status: ('A' for Active; 'I' for Inactive)
REMARK    1  A    between atoms: N1_1  and  S1_4 
REMARK    2  A    between atoms: S1_4  and  C1_7 
REMARK    3  A    between atoms: C4_10  and  N2_11 
REMARK    4  A    between atoms: C6_13  and  C7_14 
ROOT
HETATM    1  C1  UNL     1      -6.715  13.831  21.811  1.00  0.00     0.079 A 
HETATM    2  C2  UNL     1      -5.828  12.781  21.673  1.00  0.00     0.027 A 
HETATM    3  C3  UNL     1      -6.065  11.721  20.823  1.00  0.00     0.031 A 
HETATM    4  C4  UNL     1      -7.214  11.664  20.063  1.00  0.00     0.044 A 
HETATM    5  C14 UNL     1      -8.108  12.706  20.193  1.00  0.00     0.031 A 
HETATM    6  C15 UNL     1      -7.865  13.764  21.046  1.00  0.00     0.027 A 
ENDROOT
BRANCH   4   7
HETATM    7  N2  UNL     1      -7.469  10.565  19.176  1.00  0.00    -0.266 N 
HETATM    8  C5  UNL     1      -7.764  10.632  17.849  1.00  0.00     0.141 A 
HETATM    9  C6  UNL     1      -7.937   9.353  17.363  1.00  0.00     0.107 A 
HETATM   10  O3  UNL     1      -7.751   8.558  18.375  1.00  0.00    -0.259 OA
HETATM   11  C13 UNL     1      -7.473   9.251  19.452  1.00  0.00     0.377 A 
HETATM   12  O4  UNL     1      -7.248   8.731  20.572  1.00  0.00    -0.237 OA
BRANCH   9  13
HETATM   13  C7  UNL     1      -8.267   9.004  15.976  1.00  0.00    -0.001 A 
HETATM   14  C8  UNL     1      -7.769   7.815  15.481  1.00  0.00     0.014 A 
HETATM   15  C9  UNL     1      -8.051   7.438  14.175  1.00  0.00     0.001 A 
HETATM   16  C10 UNL     1      -8.829   8.275  13.408  1.00  0.00     0.000 A 
HETATM   17  C11 UNL     1      -9.329   9.464  13.896  1.00  0.00     0.001 A 
HETATM   18  C12 UNL     1      -9.039   9.822  15.197  1.00  0.00     0.014 A 
ENDBRANCH   9  13
ENDBRANCH   4   7
BRANCH   1  19
HETATM   19  S1  UNL     1      -6.404  15.170  22.895  1.00  0.00     0.256 S 
HETATM   20  O1  UNL     1      -6.886  16.463  22.339  1.00  0.00    -0.201 OA
HETATM   21  O2  UNL     1      -7.103  14.965  24.220  1.00  0.00    -0.201 OA
BRANCH  19  22
HETATM   22  N1  UNL     1      -4.712  15.317  23.233  1.00  0.00    -0.324 N 
ATOM     23  H12 UNL     1      -4.040  15.817  22.649  1.00  0.00     0.169 HD
ATOM     24  H11 UNL     1      -4.513  14.825  24.104  1.00  0.00     0.169 HD
ENDBRANCH  19  22
ENDBRANCH   1  19
TORSDOF 4
ENDMDL
MODEL 3
REMARK VINA RESULT: -8.138673435      6.043      9.498
REMARK  4 active torsions:
REMARK  status: ('A' for Active; 'I' for Inactive)
REMARK    1  A    between atoms: N1_1  and  S1_4 
REMARK    2  A    between atoms: S1_4  and  C1_7 
REMARK    3  A    between atoms: C4_10  and  N2_11 
REMARK    4  A    between atoms: C6_13  and  C7_14 
ROOT
HETATM    1  C1  UNL     1      -4.686   2.326  15.766  1.00  0.00     0.079 A 
HETATM    2  C2  UNL     1      -5.083   3.240  14.809  1.00  0.00     0.027 A 
HETATM    3  C3  UNL     1      -5.474   4.523  15.130  1.00  0.00     0.031 A 
HETATM    4  C4  UNL     1      -5.485   4.954  16.439  1.00  0.00     0.044 A 
HETATM    5  C14 UNL     1      -5.092   4.051  17.404  1.00  0.00     0.031 A 
HETATM    6  C15 UNL     1      -4.702   2.768  17.076  1.00  0.00     0.027 A 
ENDROOT
BRANCH   4   7
HETATM    7  N2  UNL     1      -5.890   6.288  16.782  1.00  0.00    -0.266 N 
HETATM    8  C5  UNL     1      -6.917   7.000  16.241  1.00  0.00     0.141 A 
HETATM    9  C6  UNL     1      -6.972   8.237  16.846  1.00  0.00     0.107 A 
HETATM   10  O3  UNL     1      -6.006   8.254  17.716  1.00  0.00    -0.259 OA
HETATM   11  C13 UNL     1      -5.357   7.115  17.696  1.00  0.00     0.377 A 
HETATM   12  O4  UNL     1      -4.377   6.863  18.437  1.00  0.00    -0.237 OA
BRANCH   9  13
HETATM   13  C7  UNL     1      -7.942   9.295  16.538  1.00  0.00    -0.001 A 
HETATM   14  C8  UNL     1      -8.123  10.289  17.479  1.00  0.00     0.014 A 
HETATM   15  C9  UNL     1      -9.028  11.313  17.238  1.00  0.00     0.001 A 
HETATM   16  C10 UNL     1      -9.725  11.301  16.051  1.00  0.00     0.000 A 
HETATM   17  C11 UNL     1      -9.550  10.311  15.107  1.00  0.00     0.001 A 
HETATM   18  C12 UNL     1      -8.645   9.301  15.364  1.00  0.00     0.014 A 
ENDBRANCH   9  13
ENDBRANCH   4   7
BRANCH   1  19
HETATM   19  S1  UNL     1      -4.194   0.699  15.346  1.00  0.00     0.256 S 
HETATM   20  O1  UNL     1      -2.789   0.418  15.751  1.00  0.00    -0.201 OA
HETATM   21  O2  UNL     1      -5.070  -0.324  16.033  1.00  0.00    -0.201 OA
BRANCH  19  22
HETATM   22  N1  UNL     1      -4.337   0.425  13.642  1.00  0.00    -0.324 N 
ATOM     23  H12 UNL     1      -4.203  -0.475  13.181  1.00  0.00     0.169 HD
ATOM     24  H11 UNL     1      -4.575   1.310  13.193  1.00  0.00     0.169 HD
ENDBRANCH  19  22
ENDBRANCH   1  19
TORSDOF 4
ENDMDL
MODEL 4
REMARK VINA RESULT: -8.127984023      6.055      9.537
REMARK  4 active torsions:
REMARK  status: ('A' for Active; 'I' for Inactive)
REMARK    1  A    between atoms: N1_1  and  S1_4 
REMARK    2  A    between atoms: S1_4  and  C1_7 
REMARK    3  A    between atoms: C4_10  and  N2_11 
REMARK    4  A    between atoms: C6_13  and  C7_14 
ROOT
HETATM    1  C1  UNL     1      -4.682   2.310  15.755  1.00  0.00     0.079 A 
HETATM    2  C2  UNL     1      -4.696   2.758  17.062  1.00  0.00     0.027 A 
HETATM    3  C3  UNL     1      -5.082   4.038  17.400  1.00  0.00     0.031 A 
HETATM    4  C4  UNL     1      -5.477   4.938  16.434  1.00  0.00     0.044 A 
HETATM    5  C14 UNL     1      -5.467   4.504  15.125  1.00  0.00     0.031 A 
HETATM    6  C15 UNL     1      -5.079   3.221  14.793  1.00  0.00     0.027 A 
ENDROOT
BRANCH   4   7
HETATM    7  N2  UNL     1      -5.880   6.272  16.777  1.00  0.00    -0.266 N 
HETATM    8  C5  UNL     1      -6.908   6.984  16.238  1.00  0.00     0.141 A 
HETATM    9  C6  UNL     1      -6.960   8.222  16.842  1.00  0.00     0.107 A 
HETATM   10  O3  UNL     1      -5.993   8.239  17.710  1.00  0.00    -0.259 OA
HETATM   11  C13 UNL     1      -5.344   7.099  17.689  1.00  0.00     0.377 A 
HETATM   12  O4  UNL     1      -4.362   6.847  18.428  1.00  0.00    -0.237 OA
BRANCH   9  13
HETATM   13  C7  UNL     1      -7.931   9.281  16.536  1.00  0.00    -0.001 A 
HETATM   14  C8  UNL     1      -8.101  10.281  17.473  1.00  0.00     0.014 A 
HETATM   15  C9  UNL     1      -9.006  11.306  17.232  1.00  0.00     0.001 A 
HETATM   16  C10 UNL     1      -9.713  11.288  16.052  1.00  0.00     0.000 A 
HETATM   17  C11 UNL     1      -9.548  10.292  15.112  1.00  0.00     0.001 A 
HETATM   18  C12 UNL     1      -8.643   9.282  15.368  1.00  0.00     0.014 A 
ENDBRANCH   9  13
ENDBRANCH   4   7
BRANCH   1  19
HETATM   19  S1  UNL     1      -4.188   0.683  15.338  1.00  0.00     0.256 S 
HETATM   20  O1  UNL     1      -2.787   0.399  15.754  1.00  0.00    -0.201 OA
HETATM   21  O2  UNL     1      -5.072  -0.339  16.017  1.00  0.00    -0.201 OA
BRANCH  19  22
HETATM   22  N1  UNL     1      -4.318   0.410  13.633  1.00  0.00    -0.324 N 
ATOM     23  H12 UNL     1      -3.727   0.846  12.924  1.00  0.00     0.169 HD
ATOM     24  H11 UNL     1      -5.075  -0.253  13.470  1.00  0.00     0.169 HD
ENDBRANCH  19  22
ENDBRANCH   1  19
TORSDOF 4
ENDMDL
MODEL 5
REMARK VINA RESULT: -8.113696225      6.040      9.501
REMARK  4 active torsions:
REMARK  status: ('A' for Active; 'I' for Inactive)
REMARK    1  A    between atoms: N1_1  and  S1_4 
REMARK    2  A    between atoms: S1_4  and  C1_7 
REMARK    3  A    between atoms: C4_10  and  N2_11 
REMARK    4  A    between atoms: C6_13  and  C7_14 
ROOT
HETATM    1  C1  UNL     1      -4.696   2.327  15.765  1.00  0.00     0.079 A 
HETATM    2  C2  UNL     1      -5.085   3.251  14.815  1.00  0.00     0.027 A 
HETATM    3  C3  UNL     1      -5.474   4.532  15.145  1.00  0.00     0.031 A 
HETATM    4  C4  UNL     1      -5.490   4.951  16.458  1.00  0.00     0.044 A 
HETATM    5  C14 UNL     1      -5.105   4.038  17.417  1.00  0.00     0.031 A 
HETATM    6  C15 UNL     1      -4.717   2.757  17.079  1.00  0.00     0.027 A 
ENDROOT
BRANCH   4   7
HETATM    7  N2  UNL     1      -5.894   6.283  16.811  1.00  0.00    -0.266 N 
HETATM    8  C5  UNL     1      -6.910   7.006  16.265  1.00  0.00     0.141 A 
HETATM    9  C6  UNL     1      -6.967   8.237  16.884  1.00  0.00     0.107 A 
HETATM   10  O3  UNL     1      -6.012   8.239  17.766  1.00  0.00    -0.259 OA
HETATM   11  C13 UNL     1      -5.368   7.097  17.741  1.00  0.00     0.377 A 
HETATM   12  O4  UNL     1      -4.398   6.832  18.492  1.00  0.00    -0.237 OA
BRANCH   9  13
HETATM   13  C7  UNL     1      -7.928   9.303  16.575  1.00  0.00    -0.001 A 
HETATM   14  C8  UNL     1      -8.592   9.233  15.367  1.00  0.00     0.014 A 
HETATM   15  C9  UNL     1      -9.512  10.215  15.026  1.00  0.00     0.001 A 
HETATM   16  C10 UNL     1      -9.733  11.239  15.919  1.00  0.00     0.000 A 
HETATM   17  C11 UNL     1      -9.073  11.314  17.128  1.00  0.00     0.001 A 
HETATM   18  C12 UNL     1      -8.163  10.329  17.449  1.00  0.00     0.014 A 
ENDBRANCH   9  13
ENDBRANCH   4   7
BRANCH   1  19
HETATM   19  S1  UNL     1      -4.205   0.703  15.333  1.00  0.00     0.256 S 
HETATM   20  O1  UNL     1      -2.798   0.420  15.724  1.00  0.00    -0.201 OA
HETATM   21  O2  UNL     1      -5.076  -0.324  16.022  1.00  0.00    -0.201 OA
BRANCH  19  22
HETATM   22  N1  UNL     1      -4.363   0.437  13.629  1.00  0.00    -0.324 N 
ATOM     23  H12 UNL     1      -4.244  -0.463  13.164  1.00  0.00     0.169 HD
ATOM     24  H11 UNL     1      -4.592   1.326  13.185  1.00  0.00     0.169 HD
ENDBRANCH  19  22
ENDBRANCH   1  19
TORSDOF 4
ENDMDL
