MODEL 1
REMARK VINA RESULT: -6.737523579      0.000      0.000
REMARK  5 active torsions:
REMARK  status: ('A' for Active; 'I' for Inactive)
REMARK    1  A    between atoms: C2_2  and  O1_3 
REMARK    2  A    between atoms: C2_2  and  C3_5 
REMARK    3  A    between atoms: C3_5  and  N1_6 
REMARK    4  A    between atoms: C6_11  and  C7_12 
REMARK    5  A    between atoms: N2_17  and  O2_18 
ROOT
HETATM    1  N1  UNL     1      -6.002   6.575  18.169  1.00  0.00    -0.320 N 
HETATM    2  C4  UNL     1      -5.470   5.868  17.073  1.00  0.00     0.147 C 
HETATM    3  S1  UNL     1      -5.172   4.308  16.798  1.00  0.00    -0.052 SA
HETATM    4  S2  UNL     1      -5.142   7.171  15.855  1.00  0.00    -0.057 SA
HETATM    5  C5  UNL     1      -6.505   8.230  16.476  1.00  0.00     0.048 C 
HETATM    6  C6  UNL     1      -7.155   9.096  15.747  1.00  0.00     0.054 C 
HETATM    7  C12 UNL     1      -6.553   7.830  17.869  1.00  0.00     0.121 C 
HETATM    8  S3  UNL     1      -7.195   8.836  19.031  1.00  0.00    -0.059 SA
ENDROOT
BRANCH   6   9
HETATM    9  C7  UNL     1      -8.228   9.973  16.098  1.00  0.00     0.063 A 
HETATM   10  C8  UNL     1      -8.173  10.854  17.148  1.00  0.00     0.032 A 
HETATM   11  C9  UNL     1      -9.185  11.721  17.464  1.00  0.00     0.004 A 
HETATM   12  C10 UNL     1     -10.346  11.737  16.698  1.00  0.00     0.020 A 
HETATM   13  C11 UNL     1     -10.397  10.845  15.639  1.00  0.00     0.123 A 
HETATM   14  N2  UNL     1      -9.378  10.004  15.359  1.00  0.00    -0.236 N 
BRANCH  14  15
HETATM   15  O2  UNL     1      -9.432   9.119  14.303  1.00  0.00    -0.283 OA
ATOM     16  H2  UNL     1     -10.294   8.977  13.930  1.00  0.00     0.245 HD
ENDBRANCH  14  15
ENDBRANCH   6   9
BRANCH   1  17
HETATM   17  C3  UNL     1      -5.954   6.009  19.532  1.00  0.00     0.163 C 
BRANCH  17  18
HETATM   18  C2  UNL     1      -4.653   6.285  20.231  1.00  0.00     0.132 C 
HETATM   19  C1  UNL     1      -3.897   4.987  20.367  1.00  0.00     0.041 C 
BRANCH  18  20
HETATM   20  O1  UNL     1      -3.840   7.207  19.599  1.00  0.00    -0.394 OA
ATOM     21  H1  UNL     1      -4.248   8.063  19.656  1.00  0.00     0.210 HD
ENDBRANCH  18  20
ENDBRANCH  17  18
ENDBRANCH   1  17
TORSDOF 5
ENDMDL
MODEL 2
REMARK VINA RESULT: -6.672139979      3.838      6.309
REMARK  5 active torsions:
REMARK  status: ('A' for Active; 'I' for Inactive)
REMARK    1  A    between atoms: C2_2  and  O1_3 
REMARK    2  A    between atoms: C2_2  and  C3_5 
REMARK    3  A    between atoms: C3_5  and  N1_6 
REMARK    4  A    between atoms: C6_11  and  C7_12 
REMARK    5  A    between atoms: N2_17  and  O2_18 
ROOT
HETATM    1  N1  UNL     1      -7.681   9.898  17.205  1.00  0.00    -0.320 N 
HETATM    2  C4  UNL     1      -7.205   8.589  16.993  1.00  0.00     0.147 C 
HETATM    3  S1  UNL     1      -6.676   7.798  15.692  1.00  0.00    -0.052 SA
HETATM    4  S2  UNL     1      -7.283   7.845  18.645  1.00  0.00    -0.057 SA
HETATM    5  C5  UNL     1      -7.016   9.451  19.489  1.00  0.00     0.048 C 
HETATM    6  C6  UNL     1      -6.467   9.582  20.665  1.00  0.00     0.054 C 
HETATM    7  C12 UNL     1      -7.589  10.369  18.523  1.00  0.00     0.121 C 
HETATM    8  S3  UNL     1      -8.134  11.874  18.984  1.00  0.00    -0.059 SA
ENDROOT
BRANCH   6   9
HETATM    9  C7  UNL     1      -6.198  10.761  21.430  1.00  0.00     0.063 A 
HETATM   10  C8  UNL     1      -5.437  11.805  20.968  1.00  0.00     0.032 A 
HETATM   11  C9  UNL     1      -5.209  12.950  21.683  1.00  0.00     0.004 A 
HETATM   12  C10 UNL     1      -5.764  13.097  22.950  1.00  0.00     0.020 A 
HETATM   13  C11 UNL     1      -6.531  12.040  23.412  1.00  0.00     0.123 A 
HETATM   14  N2  UNL     1      -6.733  10.925  22.677  1.00  0.00    -0.236 N 
BRANCH  14  15
HETATM   15  O2  UNL     1      -7.498   9.874  23.140  1.00  0.00    -0.283 OA
ATOM     16  H2  UNL     1      -8.414   9.894  22.890  1.00  0.00     0.245 HD
ENDBRANCH  14  15
ENDBRANCH   6   9
BRANCH   1  17
HETATM   17  C3  UNL     1      -8.245  10.689  16.092  1.00  0.00     0.163 C 
BRANCH  17  18
HETATM   18  C2  UNL     1      -9.653  10.293  15.753  1.00  0.00     0.132 C 
HETATM   19  C1  UNL     1     -10.562  11.462  16.037  1.00  0.00     0.041 C 
BRANCH  18  20
HETATM   20  O1  UNL     1      -9.844   9.892  14.444  1.00  0.00    -0.394 OA
ATOM     21  H1  UNL     1     -10.492  10.459  14.044  1.00  0.00     0.210 HD
ENDBRANCH  18  20
ENDBRANCH  17  18
ENDBRANCH   1  17
TORSDOF 5
ENDMDL
MODEL 3
REMARK VINA RESULT: -6.640457532      2.458      3.313
REMARK  5 active torsions:
REMARK  status: ('A' for Active; 'I' for Inactive)
REMARK    1  A    between atoms: C2_2  and  O1_3 
REMARK    2  A    between atoms: C2_2  and  C3_5 
REMARK    3  A    between atoms: C3_5  and  N1_6 
REMARK    4  A    between atoms: C6_11  and  C7_12 
REMARK    5  A    between atoms: N2_17  and  O2_18 
ROOT
HETATM    1  N1  UNL     1      -6.226   6.076  17.270  1.00  0.00    -0.320 N 
HETATM    2  C4  UNL     1      -5.122   6.259  18.126  1.00  0.00     0.147 C 
HETATM    3  S1  UNL     1      -3.630   5.648  18.159  1.00  0.00    -0.052 SA
HETATM    4  S2  UNL     1      -5.730   7.462  19.340  1.00  0.00    -0.057 SA
HETATM    5  C5  UNL     1      -6.879   8.238  18.141  1.00  0.00     0.048 C 
HETATM    6  C6  UNL     1      -7.273   9.481  18.197  1.00  0.00     0.054 C 
HETATM    7  C12 UNL     1      -7.167   7.116  17.268  1.00  0.00     0.121 C 
HETATM    8  S3  UNL     1      -8.560   7.071  16.355  1.00  0.00    -0.059 SA
ENDROOT
BRANCH   6   9
HETATM    9  C7  UNL     1      -8.153  10.208  17.336  1.00  0.00     0.063 A 
HETATM   10  C8  UNL     1      -8.209  10.020  15.978  1.00  0.00     0.032 A 
HETATM   11  C9  UNL     1      -9.077  10.688  15.156  1.00  0.00     0.004 A 
HETATM   12  C10 UNL     1      -9.965  11.614  15.693  1.00  0.00     0.020 A 
HETATM   13  C11 UNL     1      -9.904  11.800  17.065  1.00  0.00     0.123 A 
HETATM   14  N2  UNL     1      -9.033  11.123  17.843  1.00  0.00    -0.236 N 
BRANCH  14  15
HETATM   15  O2  UNL     1      -8.977  11.310  19.208  1.00  0.00    -0.283 OA
ATOM     16  H2  UNL     1      -8.952  10.516  19.730  1.00  0.00     0.245 HD
ENDBRANCH  14  15
ENDBRANCH   6   9
BRANCH   1  17
HETATM   17  C3  UNL     1      -6.358   4.853  16.454  1.00  0.00     0.163 C 
BRANCH  17  18
HETATM   18  C2  UNL     1      -5.612   4.938  15.154  1.00  0.00     0.132 C 
HETATM   19  C1  UNL     1      -5.167   3.551  14.764  1.00  0.00     0.041 C 
BRANCH  18  20
HETATM   20  O1  UNL     1      -6.331   5.483  14.107  1.00  0.00    -0.394 OA
ATOM     21  H1  UNL     1      -7.181   5.061  14.070  1.00  0.00     0.210 HD
ENDBRANCH  18  20
ENDBRANCH  17  18
ENDBRANCH   1  17
TORSDOF 5
ENDMDL
MODEL 4
REMARK VINA RESULT: -6.588526370      4.038      6.346
REMARK  5 active torsions:
REMARK  status: ('A' for Active; 'I' for Inactive)
REMARK    1  A    between atoms: C2_2  and  O1_3 
REMARK    2  A    between atoms: C2_2  and  C3_5 
REMARK    3  A    between atoms: C3_5  and  N1_6 
REMARK    4  A    between atoms: C6_11  and  C7_12 
REMARK    5  A    between atoms: N2_17  and  O2_18 
ROOT
HETATM    1  N1  UNL     1      -7.481  10.118  17.590  1.00  0.00    -0.320 N 
HETATM    2  C4  UNL     1      -6.847   8.862  17.519  1.00  0.00     0.147 C 
HETATM    3  S1  UNL     1      -6.120   8.053  16.330  1.00  0.00    -0.052 SA
HETATM    4  S2  UNL     1      -6.992   8.225  19.211  1.00  0.00    -0.057 SA
HETATM    5  C5  UNL     1      -6.980   9.903  19.949  1.00  0.00     0.048 C 
HETATM    6  C6  UNL     1      -6.557  10.175  21.153  1.00  0.00     0.054 C 
HETATM    7  C12 UNL     1      -7.561  10.682  18.873  1.00  0.00     0.121 C 
HETATM    8  S3  UNL     1      -8.307  12.141  19.172  1.00  0.00    -0.059 SA
ENDROOT
BRANCH   6   9
HETATM    9  C7  UNL     1      -6.489  11.424  21.845  1.00  0.00     0.063 A 
HETATM   10  C8  UNL     1      -7.407  11.820  22.785  1.00  0.00     0.032 A 
HETATM   11  C9  UNL     1      -7.324  12.999  23.476  1.00  0.00     0.004 A 
HETATM   12  C10 UNL     1      -6.264  13.868  23.237  1.00  0.00     0.020 A 
HETATM   13  C11 UNL     1      -5.340  13.464  22.287  1.00  0.00     0.123 A 
HETATM   14  N2  UNL     1      -5.456  12.292  21.625  1.00  0.00    -0.236 N 
BRANCH  14  15
HETATM   15  O2  UNL     1      -4.534  11.893  20.681  1.00  0.00    -0.283 OA
ATOM     16  H2  UNL     1      -4.762  11.113  20.189  1.00  0.00     0.245 HD
ENDBRANCH  14  15
ENDBRANCH   6   9
BRANCH   1  17
HETATM   17  C3  UNL     1      -8.026  10.763  16.379  1.00  0.00     0.163 C 
BRANCH  17  18
HETATM   18  C2  UNL     1      -9.368  10.217  15.983  1.00  0.00     0.132 C 
HETATM   19  C1  UNL     1     -10.375  11.339  16.032  1.00  0.00     0.041 C 
BRANCH  18  20
HETATM   20  O1  UNL     1      -9.412   9.637  14.729  1.00  0.00    -0.394 OA
ATOM     21  H1  UNL     1      -9.244   8.706  14.819  1.00  0.00     0.210 HD
ENDBRANCH  18  20
ENDBRANCH  17  18
ENDBRANCH   1  17
TORSDOF 5
ENDMDL
MODEL 5
REMARK VINA RESULT: -6.539592709      1.482      1.713
REMARK  5 active torsions:
REMARK  status: ('A' for Active; 'I' for Inactive)
REMARK    1  A    between atoms: C2_2  and  O1_3 
REMARK    2  A    between atoms: C2_2  and  C3_5 
REMARK    3  A    between atoms: C3_5  and  N1_6 
REMARK    4  A    between atoms: C6_11  and  C7_12 
REMARK    5  A    between atoms: N2_17  and  O2_18 
ROOT
HETATM    1  N1  UNL     1      -5.395   5.749  18.538  1.00  0.00    -0.320 N 
HETATM    2  C4  UNL     1      -4.774   4.820  17.681  1.00  0.00     0.147 C 
HETATM    3  S1  UNL     1      -4.477   3.240  17.787  1.00  0.00    -0.052 SA
HETATM    4  S2  UNL     1      -4.313   5.823  16.242  1.00  0.00    -0.057 SA
HETATM    5  C5  UNL     1      -5.711   6.986  16.481  1.00  0.00     0.048 C 
HETATM    6  C6  UNL     1      -6.276   7.665  15.521  1.00  0.00     0.054 C 
HETATM    7  C12 UNL     1      -5.896   6.904  17.917  1.00  0.00     0.121 C 
HETATM    8  S3  UNL     1      -6.628   8.138  18.763  1.00  0.00    -0.059 SA
ENDROOT
BRANCH   6   9
HETATM    9  C7  UNL     1      -7.364   8.592  15.566  1.00  0.00     0.063 A 
HETATM   10  C8  UNL     1      -7.309   9.791  16.232  1.00  0.00     0.032 A 
HETATM   11  C9  UNL     1      -8.335  10.697  16.245  1.00  0.00     0.004 A 
HETATM   12  C10 UNL     1      -9.512  10.421  15.556  1.00  0.00     0.020 A 
HETATM   13  C11 UNL     1      -9.562   9.209  14.887  1.00  0.00     0.123 A 
HETATM   14  N2  UNL     1      -8.528   8.340  14.897  1.00  0.00    -0.236 N 
BRANCH  14  15
HETATM   15  O2  UNL     1      -8.582   7.135  14.227  1.00  0.00    -0.283 OA
ATOM     16  H2  UNL     1      -8.759   6.374  14.767  1.00  0.00     0.245 HD
ENDBRANCH  14  15
ENDBRANCH   6   9
BRANCH   1  17
HETATM   17  C3  UNL     1      -5.484   5.499  19.991  1.00  0.00     0.163 C 
BRANCH  17  18
HETATM   18  C2  UNL     1      -4.140   5.473  20.660  1.00  0.00     0.132 C 
HETATM   19  C1  UNL     1      -3.463   6.800  20.428  1.00  0.00     0.041 C 
BRANCH  18  20
HETATM   20  O1  UNL     1      -4.174   5.225  22.019  1.00  0.00    -0.394 OA
ATOM     21  H1  UNL     1      -3.284   5.236  22.353  1.00  0.00     0.210 HD
ENDBRANCH  18  20
ENDBRANCH  17  18
ENDBRANCH   1  17
TORSDOF 5
ENDMDL
