MODEL 1
REMARK VINA RESULT: -8.259671618      0.000      0.000
REMARK  3 active torsions:
REMARK  status: ('A' for Active; 'I' for Inactive)
REMARK    1  A    between atoms: C1_2  and  C2_3 
REMARK    2  A    between atoms: C2_3  and  N1_4 
REMARK    3  A    between atoms: N1_4  and  C3_6 
ROOT
HETATM    1  C3  UNL     1      -4.769   6.397  17.407  1.00  0.00     0.057 A 
HETATM    2  C4  UNL     1      -4.225   5.714  16.302  1.00  0.00     0.031 A 
HETATM    3  C5  UNL     1      -4.866   5.667  15.087  1.00  0.00     0.004 A 
HETATM    4  C6  UNL     1      -6.084   6.309  14.940  1.00  0.00     0.026 A 
HETATM    5  C7  UNL     1      -6.624   6.981  16.018  1.00  0.00     0.093 A 
HETATM    6  C8  UNL     1      -5.978   7.020  17.223  1.00  0.00     0.083 A 
HETATM    7  N2  UNL     1      -6.406   7.645  18.423  1.00  0.00    -0.320 N 
ATOM      8  H2  UNL     1      -6.110   7.166  19.274  1.00  0.00     0.169 HD
HETATM    9  C9  UNL     1      -7.161   8.803  18.647  1.00  0.00     0.257 C 
HETATM   10  O2  UNL     1      -7.191   9.296  19.803  1.00  0.00    -0.267 OA
HETATM   11  C10 UNL     1      -7.960   9.561  17.686  1.00  0.00     0.054 A 
HETATM   12  C11 UNL     1      -8.284  10.826  18.188  1.00  0.00     0.018 A 
HETATM   13  C12 UNL     1      -9.032  11.734  17.470  1.00  0.00     0.001 A 
HETATM   14  C13 UNL     1      -9.466  11.358  16.216  1.00  0.00     0.002 A 
HETATM   15  C14 UNL     1      -9.146  10.112  15.720  1.00  0.00     0.025 A 
HETATM   16  C15 UNL     1      -8.393   9.188  16.434  1.00  0.00     0.080 A 
HETATM   17  S1  UNL     1      -8.149   7.691  15.546  1.00  0.00     0.210 S 
HETATM   18  O3  UNL     1      -9.302   6.752  15.764  1.00  0.00    -0.217 OA
HETATM   19  O4  UNL     1      -8.122   8.004  14.064  1.00  0.00    -0.217 OA
ENDROOT
BRANCH   1  20
HETATM   20  N1  UNL     1      -4.045   6.430  18.633  1.00  0.00    -0.382 N 
ATOM     21  H1  UNL     1      -3.703   7.317  19.005  1.00  0.00     0.160 HD
BRANCH  20  22
HETATM   22  C2  UNL     1      -3.794   5.171  19.358  1.00  0.00     0.189 C 
BRANCH  22  23
HETATM   23  C1  UNL     1      -4.905   4.878  20.297  1.00  0.00     0.250 C 
HETATM   24  O1  UNL     1      -5.582   5.803  20.700  1.00  0.00    -0.305 OA
ENDBRANCH  22  23
ENDBRANCH  20  22
ENDBRANCH   1  20
TORSDOF 3
ENDMDL
MODEL 2
REMARK VINA RESULT: -8.042795579      1.146      1.220
REMARK  3 active torsions:
REMARK  status: ('A' for Active; 'I' for Inactive)
REMARK    1  A    between atoms: C1_2  and  C2_3 
REMARK    2  A    between atoms: C2_3  and  N1_4 
REMARK    3  A    between atoms: N1_4  and  C3_6 
ROOT
HETATM    1  C3  UNL     1      -5.466   4.778  17.427  1.00  0.00     0.057 A 
HETATM    2  C4  UNL     1      -5.014   4.161  16.245  1.00  0.00     0.031 A 
HETATM    3  C5  UNL     1      -5.502   4.509  15.008  1.00  0.00     0.004 A 
HETATM    4  C6  UNL     1      -6.469   5.496  14.916  1.00  0.00     0.026 A 
HETATM    5  C7  UNL     1      -6.918   6.106  16.069  1.00  0.00     0.093 A 
HETATM    6  C8  UNL     1      -6.426   5.751  17.295  1.00  0.00     0.083 A 
HETATM    7  N2  UNL     1      -6.794   6.263  18.567  1.00  0.00    -0.320 N 
ATOM      8  H2  UNL     1      -6.741   5.583  19.325  1.00  0.00     0.169 HD
HETATM    9  C9  UNL     1      -7.218   7.538  18.965  1.00  0.00     0.257 C 
HETATM   10  O2  UNL     1      -7.239   7.816  20.191  1.00  0.00    -0.267 OA
HETATM   11  C10 UNL     1      -7.661   8.647  18.124  1.00  0.00     0.054 A 
HETATM   12  C11 UNL     1      -7.675   9.848  18.839  1.00  0.00     0.018 A 
HETATM   13  C12 UNL     1      -8.056  11.043  18.267  1.00  0.00     0.001 A 
HETATM   14  C13 UNL     1      -8.433  11.028  16.942  1.00  0.00     0.002 A 
HETATM   15  C14 UNL     1      -8.420   9.844  16.234  1.00  0.00     0.025 A 
HETATM   16  C15 UNL     1      -8.038   8.634  16.799  1.00  0.00     0.080 A 
HETATM   17  S1  UNL     1      -8.123   7.302  15.655  1.00  0.00     0.210 S 
HETATM   18  O3  UNL     1      -9.508   6.720  15.620  1.00  0.00    -0.217 OA
HETATM   19  O4  UNL     1      -7.844   7.837  14.265  1.00  0.00    -0.217 OA
ENDROOT
BRANCH   1  20
HETATM   20  N1  UNL     1      -4.904   4.391  18.676  1.00  0.00    -0.382 N 
ATOM     21  H1  UNL     1      -5.286   3.596  19.190  1.00  0.00     0.160 HD
BRANCH  20  22
HETATM   22  C2  UNL     1      -3.763   5.152  19.221  1.00  0.00     0.189 C 
BRANCH  22  23
HETATM   23  C1  UNL     1      -4.049   5.600  20.606  1.00  0.00     0.250 C 
HETATM   24  O1  UNL     1      -5.146   5.370  21.075  1.00  0.00    -0.305 OA
ENDBRANCH  22  23
ENDBRANCH  20  22
ENDBRANCH   1  20
TORSDOF 3
ENDMDL
MODEL 3
REMARK VINA RESULT: -7.999693784      0.961      1.125
REMARK  3 active torsions:
REMARK  status: ('A' for Active; 'I' for Inactive)
REMARK    1  A    between atoms: C1_2  and  C2_3 
REMARK    2  A    between atoms: C2_3  and  N1_4 
REMARK    3  A    between atoms: N1_4  and  C3_6 
ROOT
HETATM    1  C3  UNL     1      -4.661   6.368  17.783  1.00  0.00     0.057 A 
HETATM    2  C4  UNL     1      -3.933   5.457  16.995  1.00  0.00     0.031 A 
HETATM    3  C5  UNL     1      -4.412   4.983  15.797  1.00  0.00     0.004 A 
HETATM    4  C6  UNL     1      -5.649   5.412  15.347  1.00  0.00     0.026 A 
HETATM    5  C7  UNL     1      -6.370   6.306  16.112  1.00  0.00     0.093 A 
HETATM    6  C8  UNL     1      -5.883   6.770  17.303  1.00  0.00     0.083 A 
HETATM    7  N2  UNL     1      -6.504   7.668  18.211  1.00  0.00    -0.320 N 
ATOM      8  H2  UNL     1      -6.280   7.497  19.191  1.00  0.00     0.169 HD
HETATM    9  C9  UNL     1      -7.371   8.748  17.998  1.00  0.00     0.257 C 
HETATM   10  O2  UNL     1      -7.583   9.552  18.941  1.00  0.00    -0.267 OA
HETATM   11  C10 UNL     1      -8.102   9.095  16.781  1.00  0.00     0.054 A 
HETATM   12  C11 UNL     1      -8.584  10.406  16.840  1.00  0.00     0.018 A 
HETATM   13  C12 UNL     1      -9.307  10.972  15.812  1.00  0.00     0.001 A 
HETATM   14  C13 UNL     1      -9.551  10.199  14.698  1.00  0.00     0.002 A 
HETATM   15  C14 UNL     1      -9.075   8.906  14.638  1.00  0.00     0.025 A 
HETATM   16  C15 UNL     1      -8.345   8.324  15.667  1.00  0.00     0.080 A 
HETATM   17  S1  UNL     1      -7.876   6.669  15.305  1.00  0.00     0.210 S 
HETATM   18  O3  UNL     1      -8.969   5.712  15.689  1.00  0.00    -0.217 OA
HETATM   19  O4  UNL     1      -7.691   6.533  13.807  1.00  0.00    -0.217 OA
ENDROOT
BRANCH   1  20
HETATM   20  N1  UNL     1      -4.100   6.842  19.002  1.00  0.00    -0.382 N 
ATOM     21  H1  UNL     1      -3.900   7.835  19.126  1.00  0.00     0.160 HD
BRANCH  20  22
HETATM   22  C2  UNL     1      -3.810   5.883  20.085  1.00  0.00     0.189 C 
BRANCH  22  23
HETATM   23  C1  UNL     1      -5.058   5.233  20.554  1.00  0.00     0.250 C 
HETATM   24  O1  UNL     1      -5.117   4.855  21.707  1.00  0.00    -0.305 OA
ENDBRANCH  22  23
ENDBRANCH  20  22
ENDBRANCH   1  20
TORSDOF 3
ENDMDL
MODEL 4
REMARK VINA RESULT: -7.856694636      1.532      1.684
REMARK  3 active torsions:
REMARK  status: ('A' for Active; 'I' for Inactive)
REMARK    1  A    between atoms: C1_2  and  C2_3 
REMARK    2  A    between atoms: C2_3  and  N1_4 
REMARK    3  A    between atoms: N1_4  and  C3_6 
ROOT
HETATM    1  C3  UNL     1      -5.382   4.709  17.413  1.00  0.00     0.057 A 
HETATM    2  C4  UNL     1      -4.964   4.085  16.222  1.00  0.00     0.031 A 
HETATM    3  C5  UNL     1      -5.495   4.418  14.999  1.00  0.00     0.004 A 
HETATM    4  C6  UNL     1      -6.472   5.397  14.931  1.00  0.00     0.026 A 
HETATM    5  C7  UNL     1      -6.888   6.014  16.092  1.00  0.00     0.093 A 
HETATM    6  C8  UNL     1      -6.353   5.674  17.304  1.00  0.00     0.083 A 
HETATM    7  N2  UNL     1      -6.683   6.195  18.583  1.00  0.00    -0.320 N 
ATOM      8  H2  UNL     1      -6.600   5.522  19.345  1.00  0.00     0.169 HD
HETATM    9  C9  UNL     1      -7.104   7.470  18.983  1.00  0.00     0.257 C 
HETATM   10  O2  UNL     1      -7.086   7.760  20.206  1.00  0.00    -0.267 OA
HETATM   11  C10 UNL     1      -7.583   8.568  18.147  1.00  0.00     0.054 A 
HETATM   12  C11 UNL     1      -7.582   9.775  18.852  1.00  0.00     0.018 A 
HETATM   13  C12 UNL     1      -7.991  10.962  18.282  1.00  0.00     0.001 A 
HETATM   14  C13 UNL     1      -8.412  10.932  16.970  1.00  0.00     0.002 A 
HETATM   15  C14 UNL     1      -8.412   9.742  16.273  1.00  0.00     0.025 A 
HETATM   16  C15 UNL     1      -8.002   8.540  16.836  1.00  0.00     0.080 A 
HETATM   17  S1  UNL     1      -8.115   7.197  15.707  1.00  0.00     0.210 S 
HETATM   18  O3  UNL     1      -9.496   6.605  15.723  1.00  0.00    -0.217 OA
HETATM   19  O4  UNL     1      -7.886   7.721  14.304  1.00  0.00    -0.217 OA
ENDROOT
BRANCH   1  20
HETATM   20  N1  UNL     1      -4.776   4.338  18.647  1.00  0.00    -0.382 N 
ATOM     21  H1  UNL     1      -5.278   4.465  19.526  1.00  0.00     0.160 HD
BRANCH  20  22
HETATM   22  C2  UNL     1      -3.415   3.769  18.640  1.00  0.00     0.189 C 
BRANCH  22  23
HETATM   23  C1  UNL     1      -2.424   4.781  19.080  1.00  0.00     0.250 C 
HETATM   24  O1  UNL     1      -2.050   5.613  18.277  1.00  0.00    -0.305 OA
ENDBRANCH  22  23
ENDBRANCH  20  22
ENDBRANCH   1  20
TORSDOF 3
ENDMDL
MODEL 5
REMARK VINA RESULT: -7.504425069      2.023      6.383
REMARK  3 active torsions:
REMARK  status: ('A' for Active; 'I' for Inactive)
REMARK    1  A    between atoms: C1_2  and  C2_3 
REMARK    2  A    between atoms: C2_3  and  N1_4 
REMARK    3  A    between atoms: N1_4  and  C3_6 
ROOT
HETATM    1  C3  UNL     1      -8.484  10.808  17.000  1.00  0.00     0.057 A 
HETATM    2  C4  UNL     1      -8.392  11.694  18.090  1.00  0.00     0.031 A 
HETATM    3  C5  UNL     1      -7.796  11.334  19.274  1.00  0.00     0.004 A 
HETATM    4  C6  UNL     1      -7.268  10.060  19.405  1.00  0.00     0.026 A 
HETATM    5  C7  UNL     1      -7.353   9.185  18.342  1.00  0.00     0.093 A 
HETATM    6  C8  UNL     1      -7.949   9.555  17.168  1.00  0.00     0.083 A 
HETATM    7  N2  UNL     1      -8.134   8.773  15.997  1.00  0.00    -0.320 N 
ATOM      8  H2  UNL     1      -8.985   8.989  15.478  1.00  0.00     0.169 HD
HETATM    9  C9  UNL     1      -7.355   7.756  15.429  1.00  0.00     0.257 C 
HETATM   10  O2  UNL     1      -7.596   7.392  14.250  1.00  0.00    -0.267 OA
HETATM   11  C10 UNL     1      -6.247   7.021  16.035  1.00  0.00     0.054 A 
HETATM   12  C11 UNL     1      -5.505   6.340  15.065  1.00  0.00     0.018 A 
HETATM   13  C12 UNL     1      -4.405   5.572  15.384  1.00  0.00     0.001 A 
HETATM   14  C13 UNL     1      -4.045   5.487  16.711  1.00  0.00     0.002 A 
HETATM   15  C14 UNL     1      -4.775   6.159  17.669  1.00  0.00     0.025 A 
HETATM   16  C15 UNL     1      -5.885   6.936  17.361  1.00  0.00     0.080 A 
HETATM   17  S1  UNL     1      -6.609   7.667  18.785  1.00  0.00     0.210 S 
HETATM   18  O3  UNL     1      -7.587   6.724  19.427  1.00  0.00    -0.217 OA
HETATM   19  O4  UNL     1      -5.520   7.921  19.809  1.00  0.00    -0.217 OA
ENDROOT
BRANCH   1  20
HETATM   20  N1  UNL     1      -9.090  11.249  15.789  1.00  0.00    -0.382 N 
ATOM     21  H1  UNL     1      -8.516  11.596  15.021  1.00  0.00     0.160 HD
BRANCH  20  22
HETATM   22  C2  UNL     1     -10.559  11.199  15.658  1.00  0.00     0.189 C 
BRANCH  22  23
HETATM   23  C1  UNL     1     -10.947  10.495  14.411  1.00  0.00     0.250 C 
HETATM   24  O1  UNL     1     -10.132   9.770  13.877  1.00  0.00    -0.305 OA
ENDBRANCH  22  23
ENDBRANCH  20  22
ENDBRANCH   1  20
TORSDOF 3
ENDMDL
