MODEL 1
REMARK VINA RESULT: -7.536877523      0.000      0.000
REMARK  4 active torsions:
REMARK  status: ('A' for Active; 'I' for Inactive)
REMARK    1  A    between atoms: C1_2  and  N1_3 
REMARK    2  A    between atoms: N1_3  and  C2_5 
REMARK    3  A    between atoms: C6_9  and  N2_10 
REMARK       I    between atoms: N2_10  and  C7_12 
REMARK    4  A    between atoms: C7_12  and  C8_14 
ROOT
HETATM    1  C2  UNL     1      -8.831   8.309  14.576  1.00  0.00     0.147 A 
HETATM    2  C3  UNL     1      -8.480   9.198  15.662  1.00  0.00     0.025 A 
HETATM    3  C4  UNL     1      -8.653  10.526  16.081  1.00  0.00     0.018 A 
HETATM    4  C5  UNL     1      -8.090  10.921  17.259  1.00  0.00     0.030 A 
HETATM    5  C6  UNL     1      -7.340  10.067  18.088  1.00  0.00     0.036 A 
HETATM    6  C12 UNL     1      -7.206   8.798  17.633  1.00  0.00     0.054 A 
HETATM    7  C13 UNL     1      -7.764   8.346  16.432  1.00  0.00     0.081 A 
HETATM    8  S2  UNL     1      -7.988   7.027  15.334  1.00  0.00     0.224 S 
HETATM    9  O3  UNL     1      -6.738   6.567  14.648  1.00  0.00    -0.216 OA
HETATM   10  O4  UNL     1      -8.829   5.917  15.897  1.00  0.00    -0.216 OA
ENDROOT
BRANCH   5  11
HETATM   11  N2  UNL     1      -6.824  10.592  19.287  1.00  0.00    -0.322 N 
HETATM   12  C7  UNL     1      -6.854   9.952  20.545  1.00  0.00     0.263 C 
HETATM   13  O2  UNL     1      -7.340   8.822  20.762  1.00  0.00    -0.267 OA
ATOM     14  H2  UNL     1      -6.393  11.516  19.245  1.00  0.00     0.169 HD
BRANCH  12  15
HETATM   15  C8  UNL     1      -6.264  10.654  21.727  1.00  0.00     0.072 A 
HETATM   16  C9  UNL     1      -6.861  10.928  22.926  1.00  0.00     0.025 A 
HETATM   17  C10 UNL     1      -6.123  11.578  23.846  1.00  0.00     0.009 A 
HETATM   18  C11 UNL     1      -4.841  11.905  23.501  1.00  0.00     0.050 A 
HETATM   19  S1  UNL     1      -4.702  11.304  21.914  1.00  0.00    -0.097 SA
ENDBRANCH  12  15
ENDBRANCH   5  11
BRANCH   1  20
HETATM   20  N1  UNL     1      -9.498   8.361  13.459  1.00  0.00    -0.324 N 
ATOM     21  H1  UNL     1      -9.131   7.907  12.623  1.00  0.00     0.169 HD
BRANCH  20  22
HETATM   22  C1  UNL     1     -10.738   9.053  13.410  1.00  0.00     0.353 C 
HETATM   23  O1  UNL     1     -10.715  10.308  13.211  1.00  0.00    -0.283 OA
ENDBRANCH  20  22
ENDBRANCH   1  20
TORSDOF 4
ENDMDL
MODEL 2
REMARK VINA RESULT: -7.492402283      1.940      2.055
REMARK  4 active torsions:
REMARK  status: ('A' for Active; 'I' for Inactive)
REMARK    1  A    between atoms: C1_2  and  N1_3 
REMARK    2  A    between atoms: N1_3  and  C2_5 
REMARK    3  A    between atoms: C6_9  and  N2_10 
REMARK       I    between atoms: N2_10  and  C7_12 
REMARK    4  A    between atoms: C7_12  and  C8_14 
ROOT
HETATM    1  C2  UNL     1      -8.787   9.072  15.018  1.00  0.00     0.147 A 
HETATM    2  C3  UNL     1      -8.862  10.101  16.033  1.00  0.00     0.025 A 
HETATM    3  C4  UNL     1      -9.443  11.355  16.272  1.00  0.00     0.018 A 
HETATM    4  C5  UNL     1      -9.202  11.976  17.462  1.00  0.00     0.030 A 
HETATM    5  C6  UNL     1      -8.398  11.425  18.477  1.00  0.00     0.036 A 
HETATM    6  C12 UNL     1      -7.864  10.213  18.192  1.00  0.00     0.054 A 
HETATM    7  C13 UNL     1      -8.082   9.538  16.985  1.00  0.00     0.081 A 
HETATM    8  S2  UNL     1      -7.772   8.133  16.025  1.00  0.00     0.224 S 
HETATM    9  O3  UNL     1      -6.350   7.988  15.572  1.00  0.00    -0.216 OA
HETATM   10  O4  UNL     1      -8.371   6.877  16.591  1.00  0.00    -0.216 OA
ENDROOT
BRANCH   5  11
HETATM   11  N2  UNL     1      -8.239  12.158  19.668  1.00  0.00    -0.322 N 
HETATM   12  C7  UNL     1      -7.126  12.090  20.533  1.00  0.00     0.263 C 
HETATM   13  O2  UNL     1      -6.123  11.368  20.354  1.00  0.00    -0.267 OA
ATOM     14  H2  UNL     1      -8.994  12.793  19.928  1.00  0.00     0.169 HD
BRANCH  12  15
HETATM   15  C8  UNL     1      -7.118  12.935  21.767  1.00  0.00     0.072 A 
HETATM   16  C9  UNL     1      -6.894  14.281  21.863  1.00  0.00     0.025 A 
HETATM   17  C10 UNL     1      -6.937  14.824  23.094  1.00  0.00     0.009 A 
HETATM   18  C11 UNL     1      -7.202  13.984  24.140  1.00  0.00     0.050 A 
HETATM   19  S1  UNL     1      -7.381  12.470  23.383  1.00  0.00    -0.097 SA
ENDBRANCH  12  15
ENDBRANCH   5  11
BRANCH   1  20
HETATM   20  N1  UNL     1      -9.255   8.857  13.822  1.00  0.00    -0.324 N 
ATOM     21  H1  UNL     1      -8.639   8.510  13.087  1.00  0.00     0.169 HD
BRANCH  20  22
HETATM   22  C1  UNL     1     -10.626   9.107  13.546  1.00  0.00     0.353 C 
HETATM   23  O1  UNL     1     -10.967  10.292  13.240  1.00  0.00    -0.283 OA
ENDBRANCH  20  22
ENDBRANCH   1  20
TORSDOF 4
ENDMDL
MODEL 3
REMARK VINA RESULT: -7.442654961      3.092      7.946
REMARK  4 active torsions:
REMARK  status: ('A' for Active; 'I' for Inactive)
REMARK    1  A    between atoms: C1_2  and  N1_3 
REMARK    2  A    between atoms: N1_3  and  C2_5 
REMARK    3  A    between atoms: C6_9  and  N2_10 
REMARK       I    between atoms: N2_10  and  C7_12 
REMARK    4  A    between atoms: C7_12  and  C8_14 
ROOT
HETATM    1  C2  UNL     1      -7.087  13.435  22.392  1.00  0.00     0.147 A 
HETATM    2  C3  UNL     1      -7.492  12.810  21.151  1.00  0.00     0.025 A 
HETATM    3  C4  UNL     1      -8.448  12.932  20.132  1.00  0.00     0.018 A 
HETATM    4  C5  UNL     1      -8.425  12.042  19.099  1.00  0.00     0.030 A 
HETATM    5  C6  UNL     1      -7.488  10.998  18.993  1.00  0.00     0.036 A 
HETATM    6  C12 UNL     1      -6.589  10.929  20.005  1.00  0.00     0.054 A 
HETATM    7  C13 UNL     1      -6.574  11.818  21.085  1.00  0.00     0.081 A 
HETATM    8  S2  UNL     1      -5.824  12.295  22.570  1.00  0.00     0.224 S 
HETATM    9  O3  UNL     1      -5.978  11.313  23.691  1.00  0.00    -0.216 OA
HETATM   10  O4  UNL     1      -4.426  12.817  22.393  1.00  0.00    -0.216 OA
ENDROOT
BRANCH   5  11
HETATM   11  N2  UNL     1      -7.560  10.154  17.869  1.00  0.00    -0.322 N 
HETATM   12  C7  UNL     1      -7.701   8.750  17.903  1.00  0.00     0.263 C 
HETATM   13  O2  UNL     1      -7.788   8.064  18.943  1.00  0.00    -0.267 OA
ATOM     14  H2  UNL     1      -7.504  10.595  16.951  1.00  0.00     0.169 HD
BRANCH  12  15
HETATM   15  C8  UNL     1      -7.756   7.999  16.611  1.00  0.00     0.072 A 
HETATM   16  C9  UNL     1      -8.137   8.464  15.383  1.00  0.00     0.025 A 
HETATM   17  C10 UNL     1      -8.104   7.592  14.358  1.00  0.00     0.009 A 
HETATM   18  C11 UNL     1      -7.691   6.318  14.633  1.00  0.00     0.050 A 
HETATM   19  S1  UNL     1      -7.364   6.371  16.304  1.00  0.00    -0.097 SA
ENDBRANCH  12  15
ENDBRANCH   5  11
BRANCH   1  20
HETATM   20  N1  UNL     1      -7.457  14.436  23.137  1.00  0.00    -0.324 N 
ATOM     21  H1  UNL     1      -8.208  14.319  23.817  1.00  0.00     0.169 HD
BRANCH  20  22
HETATM   22  C1  UNL     1      -6.809  15.693  23.000  1.00  0.00     0.353 C 
HETATM   23  O1  UNL     1      -6.719  16.196  21.837  1.00  0.00    -0.283 OA
ENDBRANCH  20  22
ENDBRANCH   1  20
TORSDOF 4
ENDMDL
MODEL 4
REMARK VINA RESULT: -7.350131075      3.306      7.773
REMARK  4 active torsions:
REMARK  status: ('A' for Active; 'I' for Inactive)
REMARK    1  A    between atoms: C1_2  and  N1_3 
REMARK    2  A    between atoms: N1_3  and  C2_5 
REMARK    3  A    between atoms: C6_9  and  N2_10 
REMARK       I    between atoms: N2_10  and  C7_12 
REMARK    4  A    between atoms: C7_12  and  C8_14 
ROOT
HETATM    1  C2  UNL     1      -7.293  13.535  21.587  1.00  0.00     0.147 A 
HETATM    2  C3  UNL     1      -7.613  12.625  20.509  1.00  0.00     0.025 A 
HETATM    3  C4  UNL     1      -8.515  12.472  19.445  1.00  0.00     0.018 A 
HETATM    4  C5  UNL     1      -8.413  11.367  18.651  1.00  0.00     0.030 A 
HETATM    5  C6  UNL     1      -7.447  10.362  18.838  1.00  0.00     0.036 A 
HETATM    6  C12 UNL     1      -6.604  10.563  19.879  1.00  0.00     0.054 A 
HETATM    7  C13 UNL     1      -6.669  11.679  20.721  1.00  0.00     0.081 A 
HETATM    8  S2  UNL     1      -6.013  12.515  22.086  1.00  0.00     0.224 S 
HETATM    9  O3  UNL     1      -6.205  11.815  23.398  1.00  0.00    -0.216 OA
HETATM   10  O4  UNL     1      -4.621  13.032  21.859  1.00  0.00    -0.216 OA
ENDROOT
BRANCH   5  11
HETATM   11  N2  UNL     1      -7.436   9.278  17.940  1.00  0.00    -0.322 N 
HETATM   12  C7  UNL     1      -7.688   7.930  18.276  1.00  0.00     0.263 C 
HETATM   13  O2  UNL     1      -7.961   7.517  19.422  1.00  0.00    -0.267 OA
ATOM     14  H2  UNL     1      -7.228   9.484  16.963  1.00  0.00     0.169 HD
BRANCH  12  15
HETATM   15  C8  UNL     1      -7.631   6.895  17.197  1.00  0.00     0.072 A 
HETATM   16  C9  UNL     1      -8.670   6.197  16.647  1.00  0.00     0.025 A 
HETATM   17  C10 UNL     1      -8.369   5.308  15.681  1.00  0.00     0.009 A 
HETATM   18  C11 UNL     1      -7.052   5.183  15.334  1.00  0.00     0.050 A 
HETATM   19  S1  UNL     1      -6.275   6.299  16.359  1.00  0.00    -0.097 SA
ENDBRANCH  12  15
ENDBRANCH   5  11
BRANCH   1  20
HETATM   20  N1  UNL     1      -7.727  14.668  22.058  1.00  0.00    -0.324 N 
ATOM     21  H1  UNL     1      -8.713  14.913  21.974  1.00  0.00     0.169 HD
BRANCH  20  22
HETATM   22  C1  UNL     1      -6.821  15.562  22.691  1.00  0.00     0.353 C 
HETATM   23  O1  UNL     1      -6.984  16.809  22.506  1.00  0.00    -0.283 OA
ENDBRANCH  20  22
ENDBRANCH   1  20
TORSDOF 4
ENDMDL
MODEL 5
REMARK VINA RESULT: -7.246866773      3.258      8.240
REMARK  4 active torsions:
REMARK  status: ('A' for Active; 'I' for Inactive)
REMARK    1  A    between atoms: C1_2  and  N1_3 
REMARK    2  A    between atoms: N1_3  and  C2_5 
REMARK    3  A    between atoms: C6_9  and  N2_10 
REMARK       I    between atoms: N2_10  and  C7_12 
REMARK    4  A    between atoms: C7_12  and  C8_14 
ROOT
HETATM    1  C2  UNL     1      -6.964  13.542  22.694  1.00  0.00     0.147 A 
HETATM    2  C3  UNL     1      -7.428  12.987  21.440  1.00  0.00     0.025 A 
HETATM    3  C4  UNL     1      -8.421  13.177  20.467  1.00  0.00     0.018 A 
HETATM    4  C5  UNL     1      -8.454  12.339  19.391  1.00  0.00     0.030 A 
HETATM    5  C6  UNL     1      -7.541  11.287  19.196  1.00  0.00     0.036 A 
HETATM    6  C12 UNL     1      -6.605  11.152  20.166  1.00  0.00     0.054 A 
HETATM    7  C13 UNL     1      -6.531  11.985  21.288  1.00  0.00     0.081 A 
HETATM    8  S2  UNL     1      -5.715  12.374  22.763  1.00  0.00     0.224 S 
HETATM    9  O3  UNL     1      -5.843  11.338  23.840  1.00  0.00    -0.216 OA
HETATM   10  O4  UNL     1      -4.316  12.881  22.557  1.00  0.00    -0.216 OA
ENDROOT
BRANCH   5  11
HETATM   11  N2  UNL     1      -7.672  10.503  18.035  1.00  0.00    -0.322 N 
HETATM   12  C7  UNL     1      -8.629  10.697  17.015  1.00  0.00     0.263 C 
HETATM   13  O2  UNL     1      -9.490  11.602  17.004  1.00  0.00    -0.267 OA
ATOM     14  H2  UNL     1      -7.020   9.726  17.921  1.00  0.00     0.169 HD
BRANCH  12  15
HETATM   15  C8  UNL     1      -8.636   9.766  15.845  1.00  0.00     0.072 A 
HETATM   16  C9  UNL     1      -9.330   9.892  14.674  1.00  0.00     0.025 A 
HETATM   17  C10 UNL     1      -9.175   8.915  13.759  1.00  0.00     0.009 A 
HETATM   18  C11 UNL     1      -8.336   7.885  14.081  1.00  0.00     0.050 A 
HETATM   19  S1  UNL     1      -7.792   8.302  15.639  1.00  0.00    -0.097 SA
ENDBRANCH  12  15
ENDBRANCH   5  11
BRANCH   1  20
HETATM   20  N1  UNL     1      -7.285  14.510  23.502  1.00  0.00    -0.324 N 
ATOM     21  H1  UNL     1      -7.852  14.320  24.329  1.00  0.00     0.169 HD
BRANCH  20  22
HETATM   22  C1  UNL     1      -6.844  15.832  23.229  1.00  0.00     0.353 C 
HETATM   23  O1  UNL     1      -6.684  16.170  22.014  1.00  0.00    -0.283 OA
ENDBRANCH  20  22
ENDBRANCH   1  20
TORSDOF 4
ENDMDL
