MODEL 1
REMARK VINA RESULT: -8.063450458      0.000      0.000
REMARK  14 active torsions:
REMARK  status: ('A' for Active; 'I' for Inactive)
REMARK    1  A    between atoms: C2_2  and  O1_3 
REMARK    2  A    between atoms: O1_3  and  C3_4 
REMARK    3  A    between atoms: C3_4  and  C4_6 
REMARK    4  A    between atoms: C4_6  and  N1_7 
REMARK    5  A    between atoms: C4_6  and  C22_37 
REMARK       I    between atoms: N1_7  and  C5_9 
REMARK    6  A    between atoms: C5_9  and  C6_11 
REMARK    7  A    between atoms: N2_14  and  C8_15 
REMARK    8  A    between atoms: C8_15  and  C9_16 
REMARK    9  A    between atoms: C8_15  and  C18_33 
REMARK       I    between atoms: C9_16  and  N3_18 
REMARK       I    between atoms: N3_18  and  C10_20 
REMARK   10  A    between atoms: C10_20  and  C11_22 
REMARK   11  A    between atoms: C11_22  and  N4_23 
REMARK   12  A    between atoms: C11_22  and  C14_29 
REMARK       I    between atoms: N4_23  and  C12_25 
REMARK   13  A    between atoms: C12_25  and  O7_27 
REMARK   14  A    between atoms: C22_37  and  C24_39 
ROOT
HETATM    1  C8  UNL     1      -5.364  16.581  -1.350  1.00  0.00     0.192 C 
ENDROOT
BRANCH   1   2
HETATM    2  N2  UNL     1      -6.635  16.518  -1.901  1.00  0.00    -0.327 N 
HETATM    3  C6  UNL     1      -7.704  15.705  -1.815  1.00  0.00     0.195 C 
HETATM    4  C7  UNL     1      -7.435  15.217  -3.244  1.00  0.00     0.133 C 
HETATM    5  S1  UNL     1      -6.839  16.917  -3.635  1.00  0.00    -0.054 SA
BRANCH   3   6
HETATM    6  C5  UNL     1      -8.261  14.726  -0.972  1.00  0.00     0.242 C 
HETATM    7  N1  UNL     1      -9.502  15.083  -0.254  1.00  0.00    -0.345 N 
ATOM      8  H1  UNL     1      -9.935  15.984  -0.454  1.00  0.00     0.163 HD
HETATM    9  O3  UNL     1      -7.899  13.553  -0.671  1.00  0.00    -0.271 OA
BRANCH   7  10
HETATM   10  C4  UNL     1     -10.120  14.233   0.701  1.00  0.00     0.188 C 
BRANCH  10  11
HETATM   11  C3  UNL     1     -11.330  13.470   0.221  1.00  0.00     0.282 C 
HETATM   12  O2  UNL     1     -11.364  12.315  -0.179  1.00  0.00    -0.263 OA
BRANCH  11  13
HETATM   13  O1  UNL     1     -12.492  14.187   0.253  1.00  0.00    -0.320 OA
BRANCH  13  14
HETATM   14  C2  UNL     1     -13.784  13.905   0.563  1.00  0.00     0.174 C 
HETATM   15  C1  UNL     1     -14.200  13.879   2.000  1.00  0.00     0.034 C 
ENDBRANCH  13  14
ENDBRANCH  11  13
ENDBRANCH  10  11
BRANCH  10  16
HETATM   16  C22 UNL     1     -10.579  15.052   1.929  1.00  0.00     0.014 C 
HETATM   17  C23 UNL     1     -10.216  16.494   1.843  1.00  0.00     0.012 C 
BRANCH  16  18
HETATM   18  C24 UNL     1     -10.337  14.372   3.227  1.00  0.00     0.002 C 
HETATM   19  C25 UNL     1      -8.880  14.162   3.538  1.00  0.00     0.005 C 
ENDBRANCH  16  18
ENDBRANCH  10  16
ENDBRANCH   7  10
ENDBRANCH   3   6
ENDBRANCH   1   2
BRANCH   1  20
HETATM   20  C9  UNL     1      -4.494  17.397  -2.280  1.00  0.00     0.248 C 
HETATM   21  O4  UNL     1      -4.549  18.661  -2.265  1.00  0.00    -0.271 OA
HETATM   22  N3  UNL     1      -3.598  16.836  -3.184  1.00  0.00    -0.294 N 
HETATM   23  C10 UNL     1      -2.748  17.536  -4.045  1.00  0.00     0.247 C 
ATOM     24  H3  UNL     1      -3.556  15.817  -3.221  1.00  0.00     0.171 HD
HETATM   25  O5  UNL     1      -2.810  18.820  -4.118  1.00  0.00    -0.271 OA
BRANCH  23  26
HETATM   26  C11 UNL     1      -1.737  16.928  -4.965  1.00  0.00     0.186 C 
BRANCH  26  27
HETATM   27  N4  UNL     1      -2.526  16.153  -5.915  1.00  0.00    -0.323 N 
HETATM   28  C12 UNL     1      -3.258  16.546  -7.027  1.00  0.00     0.360 C 
HETATM   29  O6  UNL     1      -3.350  17.760  -7.406  1.00  0.00    -0.239 OA
ATOM     30  H4  UNL     1      -2.544  15.151  -5.731  1.00  0.00     0.165 HD
BRANCH  28  31
HETATM   31  O7  UNL     1      -3.916  15.601  -7.784  1.00  0.00    -0.309 OA
HETATM   32  C13 UNL     1      -4.492  15.710  -9.004  1.00  0.00     0.215 C 
ENDBRANCH  28  31
ENDBRANCH  26  27
BRANCH  26  33
HETATM   33  C14 UNL     1      -0.672  16.093  -4.377  1.00  0.00    -0.022 C 
HETATM   34  C15 UNL     1       0.294  16.898  -3.523  1.00  0.00     0.017 C 
HETATM   35  C16 UNL     1       0.279  15.639  -5.565  1.00  0.00     0.017 C 
HETATM   36  C17 UNL     1      -1.030  14.815  -3.744  1.00  0.00     0.017 C 
ENDBRANCH  26  33
ENDBRANCH  23  26
ENDBRANCH   1  20
BRANCH   1  37
HETATM   37  C18 UNL     1      -5.439  17.316  -0.034  1.00  0.00    -0.021 C 
HETATM   38  C19 UNL     1      -5.990  16.291   1.020  1.00  0.00     0.017 C 
HETATM   39  C20 UNL     1      -4.010  17.530   0.522  1.00  0.00     0.017 C 
HETATM   40  C21 UNL     1      -6.302  18.492  -0.010  1.00  0.00     0.017 C 
ENDBRANCH   1  37
TORSDOF 14
ENDMDL
MODEL 2
REMARK VINA RESULT: -7.830115024      4.405     11.934
REMARK  14 active torsions:
REMARK  status: ('A' for Active; 'I' for Inactive)
REMARK    1  A    between atoms: C2_2  and  O1_3 
REMARK    2  A    between atoms: O1_3  and  C3_4 
REMARK    3  A    between atoms: C3_4  and  C4_6 
REMARK    4  A    between atoms: C4_6  and  N1_7 
REMARK    5  A    between atoms: C4_6  and  C22_37 
REMARK       I    between atoms: N1_7  and  C5_9 
REMARK    6  A    between atoms: C5_9  and  C6_11 
REMARK    7  A    between atoms: N2_14  and  C8_15 
REMARK    8  A    between atoms: C8_15  and  C9_16 
REMARK    9  A    between atoms: C8_15  and  C18_33 
REMARK       I    between atoms: C9_16  and  N3_18 
REMARK       I    between atoms: N3_18  and  C10_20 
REMARK   10  A    between atoms: C10_20  and  C11_22 
REMARK   11  A    between atoms: C11_22  and  N4_23 
REMARK   12  A    between atoms: C11_22  and  C14_29 
REMARK       I    between atoms: N4_23  and  C12_25 
REMARK   13  A    between atoms: C12_25  and  O7_27 
REMARK   14  A    between atoms: C22_37  and  C24_39 
ROOT
HETATM    1  C8  UNL     1     -11.453  13.102   1.829  1.00  0.00     0.192 C 
ENDROOT
BRANCH   1   2
HETATM    2  N2  UNL     1     -10.669  14.152   2.282  1.00  0.00    -0.327 N 
HETATM    3  C6  UNL     1      -9.436  14.635   2.035  1.00  0.00     0.195 C 
HETATM    4  C7  UNL     1      -8.982  14.152   3.418  1.00  0.00     0.133 C 
HETATM    5  S1  UNL     1     -10.677  14.539   4.030  1.00  0.00    -0.054 SA
BRANCH   3   6
HETATM    6  C5  UNL     1      -8.428  14.594   1.055  1.00  0.00     0.242 C 
HETATM    7  N1  UNL     1      -8.031  15.878   0.443  1.00  0.00    -0.345 N 
ATOM      8  H1  UNL     1      -8.447  16.736   0.804  1.00  0.00     0.163 HD
HETATM    9  O3  UNL     1      -7.767  13.642   0.551  1.00  0.00    -0.271 OA
BRANCH   7  10
HETATM   10  C4  UNL     1      -7.098  15.976  -0.624  1.00  0.00     0.188 C 
BRANCH  10  11
HETATM   11  C3  UNL     1      -5.785  16.643  -0.294  1.00  0.00     0.282 C 
HETATM   12  O2  UNL     1      -4.693  16.108  -0.180  1.00  0.00    -0.263 OA
BRANCH  11  13
HETATM   13  O1  UNL     1      -5.876  17.994  -0.112  1.00  0.00    -0.320 OA
BRANCH  13  14
HETATM   14  C2  UNL     1      -5.211  19.073  -0.599  1.00  0.00     0.174 C 
HETATM   15  C1  UNL     1      -4.896  19.137  -2.061  1.00  0.00     0.034 C 
ENDBRANCH  13  14
ENDBRANCH  11  13
ENDBRANCH  10  11
BRANCH  10  16
HETATM   16  C22 UNL     1      -7.711  16.772  -1.799  1.00  0.00     0.014 C 
HETATM   17  C23 UNL     1      -9.079  17.285  -1.511  1.00  0.00     0.012 C 
BRANCH  16  18
HETATM   18  C24 UNL     1      -7.491  16.144  -3.127  1.00  0.00     0.002 C 
HETATM   19  C25 UNL     1      -7.901  14.698  -3.187  1.00  0.00     0.005 C 
ENDBRANCH  16  18
ENDBRANCH  10  16
ENDBRANCH   7  10
ENDBRANCH   3   6
ENDBRANCH   1   2
BRANCH   1  20
HETATM   20  C9  UNL     1     -12.530  12.850   2.861  1.00  0.00     0.248 C 
HETATM   21  O4  UNL     1     -13.402  13.731   3.106  1.00  0.00    -0.271 OA
HETATM   22  N3  UNL     1     -12.638  11.666   3.584  1.00  0.00    -0.294 N 
HETATM   23  C10 UNL     1     -13.626  11.362   4.525  1.00  0.00     0.247 C 
ATOM     24  H3  UNL     1     -11.931  10.952   3.410  1.00  0.00     0.171 HD
HETATM   25  O5  UNL     1     -14.498  12.248   4.861  1.00  0.00    -0.271 OA
BRANCH  23  26
HETATM   26  C11 UNL     1     -13.778  10.062   5.248  1.00  0.00     0.186 C 
BRANCH  26  27
HETATM   27  N4  UNL     1     -12.674  10.043   6.201  1.00  0.00    -0.323 N 
HETATM   28  C12 UNL     1     -12.541  10.628   7.453  1.00  0.00     0.360 C 
HETATM   29  O6  UNL     1     -13.455  11.335   7.992  1.00  0.00    -0.239 OA
ATOM     30  H4  UNL     1     -11.862   9.508   5.897  1.00  0.00     0.165 HD
BRANCH  28  31
HETATM   31  O7  UNL     1     -11.381  10.445   8.176  1.00  0.00    -0.309 OA
HETATM   32  C13 UNL     1     -11.206  10.003   9.443  1.00  0.00     0.215 C 
ENDBRANCH  28  31
ENDBRANCH  26  27
BRANCH  26  33
HETATM   33  C14 UNL     1     -13.794   8.818   4.453  1.00  0.00    -0.022 C 
HETATM   34  C15 UNL     1     -14.900   8.809   3.410  1.00  0.00     0.017 C 
HETATM   35  C16 UNL     1     -14.274   7.651   5.416  1.00  0.00     0.017 C 
HETATM   36  C17 UNL     1     -12.529   8.294   3.917  1.00  0.00     0.017 C 
ENDBRANCH  26  33
ENDBRANCH  23  26
ENDBRANCH   1  20
BRANCH   1  37
HETATM   37  C18 UNL     1     -12.137  13.521   0.550  1.00  0.00    -0.021 C 
HETATM   38  C19 UNL     1     -11.125  13.229  -0.615  1.00  0.00     0.017 C 
HETATM   39  C20 UNL     1     -13.248  12.502   0.199  1.00  0.00     0.017 C 
HETATM   40  C21 UNL     1     -12.526  14.925   0.466  1.00  0.00     0.017 C 
ENDBRANCH   1  37
TORSDOF 14
ENDMDL
MODEL 3
REMARK VINA RESULT: -7.662612536      2.106      2.844
REMARK  14 active torsions:
REMARK  status: ('A' for Active; 'I' for Inactive)
REMARK    1  A    between atoms: C2_2  and  O1_3 
REMARK    2  A    between atoms: O1_3  and  C3_4 
REMARK    3  A    between atoms: C3_4  and  C4_6 
REMARK    4  A    between atoms: C4_6  and  N1_7 
REMARK    5  A    between atoms: C4_6  and  C22_37 
REMARK       I    between atoms: N1_7  and  C5_9 
REMARK    6  A    between atoms: C5_9  and  C6_11 
REMARK    7  A    between atoms: N2_14  and  C8_15 
REMARK    8  A    between atoms: C8_15  and  C9_16 
REMARK    9  A    between atoms: C8_15  and  C18_33 
REMARK       I    between atoms: C9_16  and  N3_18 
REMARK       I    between atoms: N3_18  and  C10_20 
REMARK   10  A    between atoms: C10_20  and  C11_22 
REMARK   11  A    between atoms: C11_22  and  N4_23 
REMARK   12  A    between atoms: C11_22  and  C14_29 
REMARK       I    between atoms: N4_23  and  C12_25 
REMARK   13  A    between atoms: C12_25  and  O7_27 
REMARK   14  A    between atoms: C22_37  and  C24_39 
ROOT
HETATM    1  C8  UNL     1      -6.221  16.684  -1.567  1.00  0.00     0.192 C 
ENDROOT
BRANCH   1   2
HETATM    2  N2  UNL     1      -7.603  16.572  -1.568  1.00  0.00    -0.327 N 
HETATM    3  C6  UNL     1      -8.519  15.719  -1.070  1.00  0.00     0.195 C 
HETATM    4  C7  UNL     1      -8.824  15.234  -2.493  1.00  0.00     0.133 C 
HETATM    5  S1  UNL     1      -8.495  16.952  -3.072  1.00  0.00    -0.054 SA
BRANCH   3   6
HETATM    6  C5  UNL     1      -8.658  14.726  -0.084  1.00  0.00     0.242 C 
HETATM    7  N1  UNL     1      -9.664  14.961   0.972  1.00  0.00    -0.345 N 
ATOM      8  H1  UNL     1     -10.257  15.787   0.900  1.00  0.00     0.163 HD
HETATM    9  O3  UNL     1      -8.065  13.627   0.109  1.00  0.00    -0.271 OA
BRANCH   7  10
HETATM   10  C4  UNL     1      -9.845  14.093   2.081  1.00  0.00     0.188 C 
BRANCH  10  11
HETATM   11  C3  UNL     1     -11.250  13.587   2.302  1.00  0.00     0.282 C 
HETATM   12  O2  UNL     1     -11.933  13.721   3.306  1.00  0.00    -0.263 OA
BRANCH  11  13
HETATM   13  O1  UNL     1     -11.773  12.912   1.236  1.00  0.00    -0.320 OA
BRANCH  13  14
HETATM   14  C2  UNL     1     -12.708  13.192   0.291  1.00  0.00     0.174 C 
HETATM   15  C1  UNL     1     -13.728  14.252   0.565  1.00  0.00     0.034 C 
ENDBRANCH  13  14
ENDBRANCH  11  13
ENDBRANCH  10  11
BRANCH  10  16
HETATM   16  C22 UNL     1      -9.425  14.801   3.390  1.00  0.00     0.014 C 
HETATM   17  C23 UNL     1      -8.958  16.200   3.177  1.00  0.00     0.012 C 
BRANCH  16  18
HETATM   18  C24 UNL     1      -8.615  13.951   4.298  1.00  0.00     0.002 C 
HETATM   19  C25 UNL     1      -8.960  14.119   5.752  1.00  0.00     0.005 C 
ENDBRANCH  16  18
ENDBRANCH  10  16
ENDBRANCH   7  10
ENDBRANCH   3   6
ENDBRANCH   1   2
BRANCH   1  20
HETATM   20  C9  UNL     1      -5.831  17.614  -2.695  1.00  0.00     0.248 C 
HETATM   21  O4  UNL     1      -5.523  18.817  -2.457  1.00  0.00    -0.271 OA
HETATM   22  N3  UNL     1      -5.780  17.224  -4.029  1.00  0.00    -0.294 N 
HETATM   23  C10 UNL     1      -5.399  18.025  -5.109  1.00  0.00     0.247 C 
ATOM     24  H3  UNL     1      -6.044  16.261  -4.240  1.00  0.00     0.171 HD
HETATM   25  O5  UNL     1      -5.139  19.274  -4.932  1.00  0.00    -0.271 OA
BRANCH  23  26
HETATM   26  C11 UNL     1      -5.279  17.581  -6.532  1.00  0.00     0.186 C 
BRANCH  26  27
HETATM   27  N4  UNL     1      -6.328  16.580  -6.692  1.00  0.00    -0.323 N 
HETATM   28  C12 UNL     1      -7.651  16.702  -7.095  1.00  0.00     0.360 C 
HETATM   29  O6  UNL     1      -8.182  17.817  -7.410  1.00  0.00    -0.239 OA
ATOM     30  H4  UNL     1      -6.040  15.628  -6.469  1.00  0.00     0.165 HD
BRANCH  28  31
HETATM   31  O7  UNL     1      -8.448  15.580  -7.181  1.00  0.00    -0.309 OA
HETATM   32  C13 UNL     1      -9.512  15.210  -6.432  1.00  0.00     0.215 C 
ENDBRANCH  28  31
ENDBRANCH  26  27
BRANCH  26  33
HETATM   33  C14 UNL     1      -3.982  17.046  -6.989  1.00  0.00    -0.022 C 
HETATM   34  C15 UNL     1      -3.428  17.807  -8.183  1.00  0.00     0.017 C 
HETATM   35  C16 UNL     1      -4.262  15.624  -7.638  1.00  0.00     0.017 C 
HETATM   36  C17 UNL     1      -2.940  16.748  -5.996  1.00  0.00     0.017 C 
ENDBRANCH  26  33
ENDBRANCH  23  26
ENDBRANCH   1  20
BRANCH   1  37
HETATM   37  C18 UNL     1      -5.785  17.329  -0.274  1.00  0.00    -0.021 C 
HETATM   38  C19 UNL     1      -5.819  16.204   0.821  1.00  0.00     0.017 C 
HETATM   39  C20 UNL     1      -4.263  17.608  -0.322  1.00  0.00     0.017 C 
HETATM   40  C21 UNL     1      -6.610  18.437   0.196  1.00  0.00     0.017 C 
ENDBRANCH   1  37
TORSDOF 14
ENDMDL
MODEL 4
REMARK VINA RESULT: -7.645253701      1.041      1.279
REMARK  14 active torsions:
REMARK  status: ('A' for Active; 'I' for Inactive)
REMARK    1  A    between atoms: C2_2  and  O1_3 
REMARK    2  A    between atoms: O1_3  and  C3_4 
REMARK    3  A    between atoms: C3_4  and  C4_6 
REMARK    4  A    between atoms: C4_6  and  N1_7 
REMARK    5  A    between atoms: C4_6  and  C22_37 
REMARK       I    between atoms: N1_7  and  C5_9 
REMARK    6  A    between atoms: C5_9  and  C6_11 
REMARK    7  A    between atoms: N2_14  and  C8_15 
REMARK    8  A    between atoms: C8_15  and  C9_16 
REMARK    9  A    between atoms: C8_15  and  C18_33 
REMARK       I    between atoms: C9_16  and  N3_18 
REMARK       I    between atoms: N3_18  and  C10_20 
REMARK   10  A    between atoms: C10_20  and  C11_22 
REMARK   11  A    between atoms: C11_22  and  N4_23 
REMARK   12  A    between atoms: C11_22  and  C14_29 
REMARK       I    between atoms: N4_23  and  C12_25 
REMARK   13  A    between atoms: C12_25  and  O7_27 
REMARK   14  A    between atoms: C22_37  and  C24_39 
ROOT
HETATM    1  C8  UNL     1      -5.674  16.607  -1.352  1.00  0.00     0.192 C 
ENDROOT
BRANCH   1   2
HETATM    2  N2  UNL     1      -6.933  16.672  -1.929  1.00  0.00    -0.327 N 
HETATM    3  C6  UNL     1      -8.073  15.956  -1.883  1.00  0.00     0.195 C 
HETATM    4  C7  UNL     1      -7.818  15.480  -3.319  1.00  0.00     0.133 C 
HETATM    5  S1  UNL     1      -7.065  17.128  -3.655  1.00  0.00    -0.054 SA
BRANCH   3   6
HETATM    6  C5  UNL     1      -8.732  15.012  -1.075  1.00  0.00     0.242 C 
HETATM    7  N1  UNL     1      -9.925  15.473  -0.337  1.00  0.00    -0.345 N 
ATOM      8  H1  UNL     1     -10.258  16.423  -0.500  1.00  0.00     0.163 HD
HETATM    9  O3  UNL     1      -8.500  13.795  -0.822  1.00  0.00    -0.271 OA
BRANCH   7  10
HETATM   10  C4  UNL     1     -10.632  14.659   0.587  1.00  0.00     0.188 C 
BRANCH  10  11
HETATM   11  C3  UNL     1     -12.111  14.502   0.334  1.00  0.00     0.282 C 
HETATM   12  O2  UNL     1     -12.939  15.393   0.215  1.00  0.00    -0.263 OA
BRANCH  11  13
HETATM   13  O1  UNL     1     -12.525  13.204   0.233  1.00  0.00    -0.320 OA
BRANCH  13  14
HETATM   14  C2  UNL     1     -12.330  12.077   0.966  1.00  0.00     0.174 C 
HETATM   15  C1  UNL     1     -12.691  12.080   2.418  1.00  0.00     0.034 C 
ENDBRANCH  13  14
ENDBRANCH  11  13
ENDBRANCH  10  11
BRANCH  10  16
HETATM   16  C22 UNL     1     -10.492  15.227   2.018  1.00  0.00     0.014 C 
HETATM   17  C23 UNL     1     -10.185  16.685   2.044  1.00  0.00     0.012 C 
BRANCH  16  18
HETATM   18  C24 UNL     1      -9.712  14.358   2.935  1.00  0.00     0.002 C 
HETATM   19  C25 UNL     1      -8.959  15.117   3.993  1.00  0.00     0.005 C 
ENDBRANCH  16  18
ENDBRANCH  10  16
ENDBRANCH   7  10
ENDBRANCH   3   6
ENDBRANCH   1   2
BRANCH   1  20
HETATM   20  C9  UNL     1      -4.725  17.404  -2.220  1.00  0.00     0.248 C 
HETATM   21  O4  UNL     1      -4.447  18.604  -1.933  1.00  0.00    -0.271 OA
HETATM   22  N3  UNL     1      -4.106  16.890  -3.355  1.00  0.00    -0.294 N 
HETATM   23  C10 UNL     1      -3.200  17.564  -4.178  1.00  0.00     0.247 C 
ATOM     24  H3  UNL     1      -4.336  15.929  -3.611  1.00  0.00     0.171 HD
HETATM   25  O5  UNL     1      -2.933  18.807  -3.969  1.00  0.00    -0.271 OA
BRANCH  23  26
HETATM   26  C11 UNL     1      -2.485  16.984  -5.356  1.00  0.00     0.186 C 
BRANCH  26  27
HETATM   27  N4  UNL     1      -3.528  16.308  -6.120  1.00  0.00    -0.323 N 
HETATM   28  C12 UNL     1      -4.563  16.813  -6.894  1.00  0.00     0.360 C 
HETATM   29  O6  UNL     1      -4.765  18.061  -7.058  1.00  0.00    -0.239 OA
ATOM     30  H4  UNL     1      -3.490  15.290  -6.077  1.00  0.00     0.165 HD
BRANCH  28  31
HETATM   31  O7  UNL     1      -5.423  15.948  -7.538  1.00  0.00    -0.309 OA
HETATM   32  C13 UNL     1      -6.756  15.772  -7.385  1.00  0.00     0.215 C 
ENDBRANCH  28  31
ENDBRANCH  26  27
BRANCH  26  33
HETATM   33  C14 UNL     1      -1.354  16.069  -5.106  1.00  0.00    -0.022 C 
HETATM   34  C15 UNL     1      -1.362  15.509  -3.693  1.00  0.00     0.017 C 
HETATM   35  C16 UNL     1      -0.035  16.951  -5.076  1.00  0.00     0.017 C 
HETATM   36  C17 UNL     1      -1.031  15.039  -6.103  1.00  0.00     0.017 C 
ENDBRANCH  26  33
ENDBRANCH  23  26
ENDBRANCH   1  20
BRANCH   1  37
HETATM   37  C18 UNL     1      -5.722  17.274   0.001  1.00  0.00    -0.021 C 
HETATM   38  C19 UNL     1      -6.297  16.210   1.003  1.00  0.00     0.017 C 
HETATM   39  C20 UNL     1      -4.285  17.417   0.559  1.00  0.00     0.017 C 
HETATM   40  C21 UNL     1      -6.551  18.471   0.093  1.00  0.00     0.017 C 
ENDBRANCH   1  37
TORSDOF 14
ENDMDL
MODEL 5
REMARK VINA RESULT: -7.540340897      3.916     11.308
REMARK  14 active torsions:
REMARK  status: ('A' for Active; 'I' for Inactive)
REMARK    1  A    between atoms: C2_2  and  O1_3 
REMARK    2  A    between atoms: O1_3  and  C3_4 
REMARK    3  A    between atoms: C3_4  and  C4_6 
REMARK    4  A    between atoms: C4_6  and  N1_7 
REMARK    5  A    between atoms: C4_6  and  C22_37 
REMARK       I    between atoms: N1_7  and  C5_9 
REMARK    6  A    between atoms: C5_9  and  C6_11 
REMARK    7  A    between atoms: N2_14  and  C8_15 
REMARK    8  A    between atoms: C8_15  and  C9_16 
REMARK    9  A    between atoms: C8_15  and  C18_33 
REMARK       I    between atoms: C9_16  and  N3_18 
REMARK       I    between atoms: N3_18  and  C10_20 
REMARK   10  A    between atoms: C10_20  and  C11_22 
REMARK   11  A    between atoms: C11_22  and  N4_23 
REMARK   12  A    between atoms: C11_22  and  C14_29 
REMARK       I    between atoms: N4_23  and  C12_25 
REMARK   13  A    between atoms: C12_25  and  O7_27 
REMARK   14  A    between atoms: C22_37  and  C24_39 
ROOT
HETATM    1  C8  UNL     1     -11.361  13.639   1.878  1.00  0.00     0.192 C 
ENDROOT
BRANCH   1   2
HETATM    2  N2  UNL     1     -10.620  14.809   1.942  1.00  0.00    -0.327 N 
HETATM    3  C6  UNL     1      -9.430  15.245   1.487  1.00  0.00     0.195 C 
HETATM    4  C7  UNL     1      -8.889  15.231   2.922  1.00  0.00     0.133 C 
HETATM    5  S1  UNL     1     -10.575  15.714   3.485  1.00  0.00    -0.054 SA
BRANCH   3   6
HETATM    6  C5  UNL     1      -8.464  14.947   0.508  1.00  0.00     0.242 C 
HETATM    7  N1  UNL     1      -8.378  15.857  -0.652  1.00  0.00    -0.345 N 
ATOM      8  H1  UNL     1      -8.964  16.691  -0.658  1.00  0.00     0.163 HD
HETATM    9  O3  UNL     1      -7.623  14.010   0.398  1.00  0.00    -0.271 OA
BRANCH   7  10
HETATM   10  C4  UNL     1      -7.520  15.627  -1.760  1.00  0.00     0.188 C 
BRANCH  10  11
HETATM   11  C3  UNL     1      -6.404  16.625  -1.950  1.00  0.00     0.282 C 
HETATM   12  O2  UNL     1      -6.431  17.641  -2.628  1.00  0.00    -0.263 OA
BRANCH  11  13
HETATM   13  O1  UNL     1      -5.259  16.318  -1.273  1.00  0.00    -0.320 OA
BRANCH  13  14
HETATM   14  C2  UNL     1      -4.613  16.840  -0.198  1.00  0.00     0.174 C 
HETATM   15  C1  UNL     1      -5.346  16.976   1.099  1.00  0.00     0.034 C 
ENDBRANCH  13  14
ENDBRANCH  11  13
ENDBRANCH  10  11
BRANCH  10  16
HETATM   16  C22 UNL     1      -8.332  15.622  -3.075  1.00  0.00     0.014 C 
HETATM   17  C23 UNL     1      -9.805  15.615  -2.856  1.00  0.00     0.012 C 
BRANCH  16  18
HETATM   18  C24 UNL     1      -7.800  14.696  -4.106  1.00  0.00     0.002 C 
HETATM   19  C25 UNL     1      -7.904  15.228  -5.509  1.00  0.00     0.005 C 
ENDBRANCH  16  18
ENDBRANCH  10  16
ENDBRANCH   7  10
ENDBRANCH   3   6
ENDBRANCH   1   2
BRANCH   1  20
HETATM   20  C9  UNL     1     -12.391  13.681   2.985  1.00  0.00     0.248 C 
HETATM   21  O4  UNL     1     -13.594  13.972   2.731  1.00  0.00    -0.271 OA
HETATM   22  N3  UNL     1     -12.098  13.405   4.317  1.00  0.00    -0.294 N 
HETATM   23  C10 UNL     1     -13.009  13.397   5.377  1.00  0.00     0.247 C 
ATOM     24  H3  UNL     1     -11.127  13.186   4.541  1.00  0.00     0.171 HD
HETATM   25  O5  UNL     1     -14.232  13.751   5.185  1.00  0.00    -0.271 OA
BRANCH  23  26
HETATM   26  C11 UNL     1     -12.702  13.032   6.794  1.00  0.00     0.186 C 
BRANCH  26  27
HETATM   27  N4  UNL     1     -11.314  13.437   6.984  1.00  0.00    -0.323 N 
HETATM   28  C12 UNL     1     -10.756  14.676   7.266  1.00  0.00     0.360 C 
HETATM   29  O6  UNL     1     -11.451  15.735   7.410  1.00  0.00    -0.239 OA
ATOM     30  H4  UNL     1     -10.637  12.680   6.894  1.00  0.00     0.165 HD
BRANCH  28  31
HETATM   31  O7  UNL     1      -9.390  14.796   7.415  1.00  0.00    -0.309 OA
HETATM   32  C13 UNL     1      -8.484  15.438   6.643  1.00  0.00     0.215 C 
ENDBRANCH  28  31
ENDBRANCH  26  27
BRANCH  26  33
HETATM   33  C14 UNL     1     -12.891  11.628   7.210  1.00  0.00    -0.022 C 
HETATM   34  C15 UNL     1     -13.909  11.486   8.330  1.00  0.00     0.017 C 
HETATM   35  C16 UNL     1     -11.561  11.174   7.948  1.00  0.00     0.017 C 
HETATM   36  C17 UNL     1     -13.059  10.593   6.181  1.00  0.00     0.017 C 
ENDBRANCH  26  33
ENDBRANCH  23  26
ENDBRANCH   1  20
BRANCH   1  37
HETATM   37  C18 UNL     1     -12.105  13.603   0.565  1.00  0.00    -0.021 C 
HETATM   38  C19 UNL     1     -11.098  13.047  -0.504  1.00  0.00     0.017 C 
HETATM   39  C20 UNL     1     -13.137  12.450   0.586  1.00  0.00     0.017 C 
HETATM   40  C21 UNL     1     -12.608  14.885   0.083  1.00  0.00     0.017 C 
ENDBRANCH   1  37
TORSDOF 14
ENDMDL
