MODEL 1
REMARK VINA RESULT: -9.251185963      0.000      0.000
REMARK  13 active torsions:
REMARK  status: ('A' for Active; 'I' for Inactive)
REMARK    1  A    between atoms: C2_2  and  C3_3 
REMARK    2  A    between atoms: C3_3  and  C4_4 
REMARK    3  A    between atoms: C4_4  and  C5_5 
REMARK    4  A    between atoms: C5_5  and  S1_6 
REMARK    5  A    between atoms: S1_6  and  C6_9 
REMARK    6  A    between atoms: C8_12  and  C9_13 
REMARK    7  A    between atoms: C13_17  and  C14_18 
REMARK    8  A    between atoms: C15_19  and  C16_20 
REMARK    9  A    between atoms: C18_24  and  N2_25 
REMARK   10  A    between atoms: C20_31  and  C21_32 
REMARK   11  A    between atoms: C21_32  and  N4_33 
REMARK   12  A    between atoms: N4_33  and  S3_35 
REMARK   13  A    between atoms: S3_35  and  C23_38 
ROOT
HETATM    1  C9  UNL     1     -11.954  14.119   2.366  1.00  0.00    -0.001 A 
HETATM    2  C10 UNL     1     -12.091  13.185   1.379  1.00  0.00     0.022 A 
HETATM    3  C11 UNL     1     -11.639  13.449   0.081  1.00  0.00    -0.042 A 
HETATM    4  C12 UNL     1     -11.815  12.396  -0.951  1.00  0.00     0.049 C 
HETATM    5  C13 UNL     1     -11.064  14.660  -0.150  1.00  0.00     0.035 A 
HETATM    6  C20 UNL     1     -10.921  15.610   0.838  1.00  0.00    -0.000 A 
HETATM    7  C25 UNL     1     -11.376  15.316   2.094  1.00  0.00     0.028 A 
ENDROOT
BRANCH   1   8
HETATM    8  C8  UNL     1     -12.447  13.799   3.730  1.00  0.00     0.085 A 
HETATM    9  S2  UNL     1     -14.054  13.646   4.285  1.00  0.00    -0.080 SA
HETATM   10  C7  UNL     1     -13.720  13.276   5.925  1.00  0.00     0.093 A 
HETATM   11  C6  UNL     1     -12.350  13.295   5.933  1.00  0.00     0.136 A 
HETATM   12  N5  UNL     1     -11.746  13.559   4.821  1.00  0.00    -0.340 N 
ATOM     13  H5  UNL     1     -10.726  13.582   4.787  1.00  0.00     0.167 HD
BRANCH  11  14
HETATM   14  S1  UNL     1     -11.427  12.964   7.435  1.00  0.00     0.191 S 
HETATM   15  O1  UNL     1     -10.933  11.555   7.389  1.00  0.00    -0.221 OA
HETATM   16  O2  UNL     1     -12.394  13.086   8.570  1.00  0.00    -0.221 OA
BRANCH  14  17
HETATM   17  C5  UNL     1     -10.139  14.128   7.613  1.00  0.00     0.147 C 
BRANCH  17  18
HETATM   18  C4  UNL     1     -10.496  15.547   7.368  1.00  0.00     0.015 C 
BRANCH  18  19
HETATM   19  C3  UNL     1      -9.458  16.287   6.582  1.00  0.00     0.001 C 
BRANCH  19  20
HETATM   20  C2  UNL     1      -8.637  15.236   5.814  1.00  0.00    -0.005 C 
HETATM   21  C1  UNL     1      -8.746  15.527   4.340  1.00  0.00     0.005 C 
ENDBRANCH  19  20
ENDBRANCH  18  19
ENDBRANCH  17  18
ENDBRANCH  14  17
ENDBRANCH  11  14
ENDBRANCH   1   8
BRANCH   6  22
HETATM   22  C21 UNL     1     -10.284  16.884   0.471  1.00  0.00     0.109 C 
BRANCH  22  23
HETATM   23  N4  UNL     1      -9.241  17.280   1.297  1.00  0.00    -0.327 N 
ATOM     24  H4  UNL     1      -9.345  17.594   2.263  1.00  0.00     0.174 HD
BRANCH  23  25
HETATM   25  S3  UNL     1      -7.490  17.142   0.303  1.00  0.00     0.020 S 
HETATM   26  C22 UNL     1      -7.220  15.497  -0.577  1.00  0.00     0.136 C 
HETATM   27  O3  UNL     1      -6.811  16.950   1.519  1.00  0.00    -0.250 OA
BRANCH  25  28
HETATM   28  C23 UNL     1      -6.805  18.764  -0.309  1.00  0.00     0.112 C 
HETATM   29  C24 UNL     1      -5.303  18.830  -0.621  1.00  0.00     0.019 C 
ENDBRANCH  25  28
ENDBRANCH  23  25
ENDBRANCH  22  23
ENDBRANCH   6  22
BRANCH   5  30
HETATM   30  C14 UNL     1     -10.596  14.934  -1.495  1.00  0.00    -0.060 C 
HETATM   31  C15 UNL     1     -10.204  15.180  -2.609  1.00  0.00    -0.059 C 
BRANCH  31  32
HETATM   32  C16 UNL     1      -9.762  15.473  -3.942  1.00  0.00     0.050 A 
HETATM   33  C17 UNL     1     -10.641  15.619  -5.007  1.00  0.00     0.128 A 
HETATM   34  N1  UNL     1     -10.177  15.893  -6.236  1.00  0.00    -0.201 N 
HETATM   35  C18 UNL     1      -8.869  16.039  -6.499  1.00  0.00     0.675 A 
ATOM     36  H1  UNL     1     -10.844  15.996  -7.001  1.00  0.00     0.183 HD
HETATM   37  N3  UNL     1      -8.013  15.900  -5.475  1.00  0.00    -0.201 N 
HETATM   38  C19 UNL     1      -8.426  15.623  -4.215  1.00  0.00     0.128 A 
ATOM     39  H3  UNL     1      -7.014  16.006  -5.653  1.00  0.00     0.183 HD
BRANCH  35  40
HETATM   40  N2  UNL     1      -8.467  16.302  -7.696  1.00  0.00    -0.234 N 
ATOM     41  H22 UNL     1      -8.727  15.722  -8.494  1.00  0.00     0.174 HD
ATOM     42  H21 UNL     1      -7.871  17.110  -7.877  1.00  0.00     0.174 HD
ENDBRANCH  35  40
ENDBRANCH  31  32
ENDBRANCH   5  30
TORSDOF 13
ENDMDL
MODEL 2
REMARK VINA RESULT: -8.965152067      3.600     10.659
REMARK  13 active torsions:
REMARK  status: ('A' for Active; 'I' for Inactive)
REMARK    1  A    between atoms: C2_2  and  C3_3 
REMARK    2  A    between atoms: C3_3  and  C4_4 
REMARK    3  A    between atoms: C4_4  and  C5_5 
REMARK    4  A    between atoms: C5_5  and  S1_6 
REMARK    5  A    between atoms: S1_6  and  C6_9 
REMARK    6  A    between atoms: C8_12  and  C9_13 
REMARK    7  A    between atoms: C13_17  and  C14_18 
REMARK    8  A    between atoms: C15_19  and  C16_20 
REMARK    9  A    between atoms: C18_24  and  N2_25 
REMARK   10  A    between atoms: C20_31  and  C21_32 
REMARK   11  A    between atoms: C21_32  and  N4_33 
REMARK   12  A    between atoms: N4_33  and  S3_35 
REMARK   13  A    between atoms: S3_35  and  C23_38 
ROOT
HETATM    1  C9  UNL     1      -6.268  16.584  -1.998  1.00  0.00    -0.001 A 
HETATM    2  C10 UNL     1      -5.667  17.044  -0.860  1.00  0.00     0.022 A 
HETATM    3  C11 UNL     1      -6.177  16.711   0.400  1.00  0.00    -0.042 A 
HETATM    4  C12 UNL     1      -5.483  17.240   1.600  1.00  0.00     0.049 C 
HETATM    5  C13 UNL     1      -7.281  15.917   0.441  1.00  0.00     0.035 A 
HETATM    6  C20 UNL     1      -7.895  15.446  -0.700  1.00  0.00    -0.000 A 
HETATM    7  C25 UNL     1      -7.368  15.795  -1.913  1.00  0.00     0.028 A 
ENDROOT
BRANCH   1   8
HETATM    8  C8  UNL     1      -5.696  16.962  -3.315  1.00  0.00     0.085 A 
HETATM    9  S2  UNL     1      -4.472  18.097  -3.670  1.00  0.00    -0.080 SA
HETATM   10  C7  UNL     1      -4.437  17.906  -5.373  1.00  0.00     0.093 A 
HETATM   11  C6  UNL     1      -5.401  16.949  -5.558  1.00  0.00     0.136 A 
HETATM   12  N5  UNL     1      -6.010  16.499  -4.510  1.00  0.00    -0.340 N 
ATOM     13  H5  UNL     1      -6.733  15.786  -4.606  1.00  0.00     0.167 HD
BRANCH  11  14
HETATM   14  S1  UNL     1      -5.802  16.341  -7.196  1.00  0.00     0.191 S 
HETATM   15  O1  UNL     1      -4.722  15.408  -7.635  1.00  0.00    -0.221 OA
HETATM   16  O2  UNL     1      -5.798  17.527  -8.109  1.00  0.00    -0.221 OA
BRANCH  14  17
HETATM   17  C5  UNL     1      -7.380  15.594  -7.187  1.00  0.00     0.147 C 
BRANCH  17  18
HETATM   18  C4  UNL     1      -8.543  16.514  -7.221  1.00  0.00     0.015 C 
BRANCH  18  19
HETATM   19  C3  UNL     1      -9.717  16.006  -6.442  1.00  0.00     0.001 C 
BRANCH  19  20
HETATM   20  C2  UNL     1      -9.269  15.884  -4.976  1.00  0.00    -0.005 C 
HETATM   21  C1  UNL     1     -10.475  15.562  -4.132  1.00  0.00     0.005 C 
ENDBRANCH  19  20
ENDBRANCH  18  19
ENDBRANCH  17  18
ENDBRANCH  14  17
ENDBRANCH  11  14
ENDBRANCH   1   8
BRANCH   6  22
HETATM   22  C21 UNL     1      -9.083  14.595  -0.532  1.00  0.00     0.109 C 
BRANCH  22  23
HETATM   23  N4  UNL     1     -10.293  15.274  -0.499  1.00  0.00    -0.327 N 
ATOM     24  H4  UNL     1     -10.466  16.186  -0.922  1.00  0.00     0.174 HD
BRANCH  23  25
HETATM   25  S3  UNL     1     -11.661  14.184   0.510  1.00  0.00     0.020 S 
HETATM   26  C22 UNL     1     -11.978  12.470  -0.209  1.00  0.00     0.136 C 
HETATM   27  O3  UNL     1     -12.695  14.948  -0.061  1.00  0.00    -0.250 OA
BRANCH  25  28
HETATM   28  C23 UNL     1     -11.797  14.583   2.325  1.00  0.00     0.112 C 
HETATM   29  C24 UNL     1     -12.119  13.428   3.285  1.00  0.00     0.019 C 
ENDBRANCH  25  28
ENDBRANCH  23  25
ENDBRANCH  22  23
ENDBRANCH   6  22
BRANCH   5  30
HETATM   30  C14 UNL     1      -7.809  15.570   1.746  1.00  0.00    -0.060 C 
HETATM   31  C15 UNL     1      -8.257  15.297   2.832  1.00  0.00    -0.059 C 
BRANCH  31  32
HETATM   32  C16 UNL     1      -8.769  14.981   4.134  1.00  0.00     0.050 A 
HETATM   33  C17 UNL     1      -8.674  13.711   4.688  1.00  0.00     0.128 A 
HETATM   34  N1  UNL     1      -9.169  13.466   5.911  1.00  0.00    -0.201 N 
HETATM   35  C18 UNL     1      -9.769  14.410   6.650  1.00  0.00     0.675 A 
ATOM     36  H1  UNL     1      -9.085  12.524   6.294  1.00  0.00     0.183 HD
HETATM   37  N3  UNL     1      -9.866  15.641   6.123  1.00  0.00    -0.201 N 
HETATM   38  C19 UNL     1      -9.384  15.944   4.894  1.00  0.00     0.128 A 
ATOM     39  H3  UNL     1     -10.319  16.374   6.668  1.00  0.00     0.183 HD
BRANCH  35  40
HETATM   40  N2  UNL     1     -10.231  14.130   7.822  1.00  0.00    -0.234 N 
ATOM     41  H22 UNL     1     -10.545  13.192   8.070  1.00  0.00     0.174 HD
ATOM     42  H21 UNL     1     -10.295  14.851   8.540  1.00  0.00     0.174 HD
ENDBRANCH  35  40
ENDBRANCH  31  32
ENDBRANCH   5  30
TORSDOF 13
ENDMDL
MODEL 3
REMARK VINA RESULT: -8.578117951      1.475      2.858
REMARK  13 active torsions:
REMARK  status: ('A' for Active; 'I' for Inactive)
REMARK    1  A    between atoms: C2_2  and  C3_3 
REMARK    2  A    between atoms: C3_3  and  C4_4 
REMARK    3  A    between atoms: C4_4  and  C5_5 
REMARK    4  A    between atoms: C5_5  and  S1_6 
REMARK    5  A    between atoms: S1_6  and  C6_9 
REMARK    6  A    between atoms: C8_12  and  C9_13 
REMARK    7  A    between atoms: C13_17  and  C14_18 
REMARK    8  A    between atoms: C15_19  and  C16_20 
REMARK    9  A    between atoms: C18_24  and  N2_25 
REMARK   10  A    between atoms: C20_31  and  C21_32 
REMARK   11  A    between atoms: C21_32  and  N4_33 
REMARK   12  A    between atoms: N4_33  and  S3_35 
REMARK   13  A    between atoms: S3_35  and  C23_38 
ROOT
HETATM    1  C9  UNL     1     -11.316  14.320   2.682  1.00  0.00    -0.001 A 
HETATM    2  C10 UNL     1     -11.610  13.383   1.732  1.00  0.00     0.022 A 
HETATM    3  C11 UNL     1     -11.294  13.609   0.388  1.00  0.00    -0.042 A 
HETATM    4  C12 UNL     1     -11.637  12.556  -0.600  1.00  0.00     0.049 C 
HETATM    5  C13 UNL     1     -10.688  14.786   0.073  1.00  0.00     0.035 A 
HETATM    6  C20 UNL     1     -10.387  15.738   1.024  1.00  0.00    -0.000 A 
HETATM    7  C25 UNL     1     -10.712  15.481   2.327  1.00  0.00     0.028 A 
ENDROOT
BRANCH   1   8
HETATM    8  C8  UNL     1     -11.669  14.040   4.098  1.00  0.00     0.085 A 
HETATM    9  S2  UNL     1     -11.261  14.919   5.502  1.00  0.00    -0.080 SA
HETATM   10  C7  UNL     1     -12.049  13.929   6.657  1.00  0.00     0.093 A 
HETATM   11  C6  UNL     1     -12.591  12.958   5.857  1.00  0.00     0.136 A 
HETATM   12  N5  UNL     1     -12.383  13.043   4.584  1.00  0.00    -0.340 N 
ATOM     13  H5  UNL     1     -12.770  12.340   3.955  1.00  0.00     0.167 HD
BRANCH  11  14
HETATM   14  S1  UNL     1     -13.557  11.616   6.551  1.00  0.00     0.191 S 
HETATM   15  O1  UNL     1     -13.797  11.901   7.997  1.00  0.00    -0.221 OA
HETATM   16  O2  UNL     1     -12.717  10.382   6.449  1.00  0.00    -0.221 OA
BRANCH  14  17
HETATM   17  C5  UNL     1     -15.037  11.415   5.647  1.00  0.00     0.147 C 
BRANCH  17  18
HETATM   18  C4  UNL     1     -16.021  12.521   5.742  1.00  0.00     0.015 C 
BRANCH  18  19
HETATM   19  C3  UNL     1     -16.539  12.963   4.408  1.00  0.00     0.001 C 
BRANCH  19  20
HETATM   20  C2  UNL     1     -15.776  14.244   4.029  1.00  0.00    -0.005 C 
HETATM   21  C1  UNL     1     -15.146  14.044   2.676  1.00  0.00     0.005 C 
ENDBRANCH  19  20
ENDBRANCH  18  19
ENDBRANCH  17  18
ENDBRANCH  14  17
ENDBRANCH  11  14
ENDBRANCH   1   8
BRANCH   6  22
HETATM   22  C21 UNL     1      -9.731  16.973   0.566  1.00  0.00     0.109 C 
BRANCH  22  23
HETATM   23  N4  UNL     1      -8.625  17.362   1.309  1.00  0.00    -0.327 N 
ATOM     24  H4  UNL     1      -8.642  17.622   2.296  1.00  0.00     0.174 HD
BRANCH  23  25
HETATM   25  S3  UNL     1      -6.976  17.335   0.145  1.00  0.00     0.020 S 
HETATM   26  C22 UNL     1      -6.772  15.768  -0.882  1.00  0.00     0.136 C 
HETATM   27  O3  UNL     1      -6.180  17.064   1.272  1.00  0.00    -0.250 OA
BRANCH  25  28
HETATM   28  C23 UNL     1      -6.374  19.012  -0.401  1.00  0.00     0.112 C 
HETATM   29  C24 UNL     1      -5.092  19.068  -1.244  1.00  0.00     0.019 C 
ENDBRANCH  25  28
ENDBRANCH  23  25
ENDBRANCH  22  23
ENDBRANCH   6  22
BRANCH   5  30
HETATM   30  C14 UNL     1     -10.360  15.020  -1.319  1.00  0.00    -0.060 C 
HETATM   31  C15 UNL     1     -10.077  15.231  -2.473  1.00  0.00    -0.059 C 
BRANCH  31  32
HETATM   32  C16 UNL     1      -9.762  15.491  -3.847  1.00  0.00     0.050 A 
HETATM   33  C17 UNL     1     -10.734  15.578  -4.836  1.00  0.00     0.128 A 
HETATM   34  N1  UNL     1     -10.388  15.824  -6.108  1.00  0.00    -0.201 N 
HETATM   35  C18 UNL     1      -9.114  15.998  -6.490  1.00  0.00     0.675 A 
ATOM     36  H1  UNL     1     -11.122  15.883  -6.814  1.00  0.00     0.183 HD
HETATM   37  N3  UNL     1      -8.167  15.917  -5.541  1.00  0.00    -0.201 N 
HETATM   38  C19 UNL     1      -8.460  15.671  -4.242  1.00  0.00     0.128 A 
ATOM     39  H3  UNL     1      -7.192  16.046  -5.810  1.00  0.00     0.183 HD
BRANCH  35  40
HETATM   40  N2  UNL     1      -8.826  16.233  -7.725  1.00  0.00    -0.234 N 
ATOM     41  H22 UNL     1      -8.140  16.938  -7.996  1.00  0.00     0.174 HD
ATOM     42  H21 UNL     1      -9.283  15.711  -8.472  1.00  0.00     0.174 HD
ENDBRANCH  35  40
ENDBRANCH  31  32
ENDBRANCH   5  30
TORSDOF 13
ENDMDL
MODEL 4
REMARK VINA RESULT: -8.528642083      2.261      3.327
REMARK  13 active torsions:
REMARK  status: ('A' for Active; 'I' for Inactive)
REMARK    1  A    between atoms: C2_2  and  C3_3 
REMARK    2  A    between atoms: C3_3  and  C4_4 
REMARK    3  A    between atoms: C4_4  and  C5_5 
REMARK    4  A    between atoms: C5_5  and  S1_6 
REMARK    5  A    between atoms: S1_6  and  C6_9 
REMARK    6  A    between atoms: C8_12  and  C9_13 
REMARK    7  A    between atoms: C13_17  and  C14_18 
REMARK    8  A    between atoms: C15_19  and  C16_20 
REMARK    9  A    between atoms: C18_24  and  N2_25 
REMARK   10  A    between atoms: C20_31  and  C21_32 
REMARK   11  A    between atoms: C21_32  and  N4_33 
REMARK   12  A    between atoms: N4_33  and  S3_35 
REMARK   13  A    between atoms: S3_35  and  C23_38 
ROOT
HETATM    1  C9  UNL     1     -11.498  14.187   2.679  1.00  0.00    -0.001 A 
HETATM    2  C10 UNL     1     -11.765  13.270   1.702  1.00  0.00     0.022 A 
HETATM    3  C11 UNL     1     -11.420  13.527   0.370  1.00  0.00    -0.042 A 
HETATM    4  C12 UNL     1     -11.735  12.495  -0.648  1.00  0.00     0.049 C 
HETATM    5  C13 UNL     1     -10.813  14.714   0.096  1.00  0.00     0.035 A 
HETATM    6  C20 UNL     1     -10.539  15.646   1.074  1.00  0.00    -0.000 A 
HETATM    7  C25 UNL     1     -10.892  15.359   2.364  1.00  0.00     0.028 A 
ENDROOT
BRANCH   1   8
HETATM    8  C8  UNL     1     -11.882  13.874   4.080  1.00  0.00     0.085 A 
HETATM    9  S2  UNL     1     -12.006  14.922   5.421  1.00  0.00    -0.080 SA
HETATM   10  C7  UNL     1     -12.488  13.771   6.596  1.00  0.00     0.093 A 
HETATM   11  C6  UNL     1     -12.523  12.622   5.851  1.00  0.00     0.136 A 
HETATM   12  N5  UNL     1     -12.215  12.708   4.598  1.00  0.00    -0.340 N 
ATOM     13  H5  UNL     1     -12.229  11.874   4.010  1.00  0.00     0.167 HD
BRANCH  11  14
HETATM   14  S1  UNL     1     -12.981  11.052   6.588  1.00  0.00     0.191 S 
HETATM   15  O1  UNL     1     -14.056  11.296   7.596  1.00  0.00    -0.221 OA
HETATM   16  O2  UNL     1     -11.770  10.544   7.306  1.00  0.00    -0.221 OA
BRANCH  14  17
HETATM   17  C5  UNL     1     -13.462   9.926   5.344  1.00  0.00     0.147 C 
BRANCH  17  18
HETATM   18  C4  UNL     1     -12.630   8.706   5.205  1.00  0.00     0.015 C 
BRANCH  18  19
HETATM   19  C3  UNL     1     -13.439   7.446   5.148  1.00  0.00     0.001 C 
BRANCH  19  20
HETATM   20  C2  UNL     1     -12.866   6.593   4.003  1.00  0.00    -0.005 C 
HETATM   21  C1  UNL     1     -11.689   7.320   3.407  1.00  0.00     0.005 C 
ENDBRANCH  19  20
ENDBRANCH  18  19
ENDBRANCH  17  18
ENDBRANCH  14  17
ENDBRANCH  11  14
ENDBRANCH   1   8
BRANCH   6  22
HETATM   22  C21 UNL     1      -9.879  16.894   0.660  1.00  0.00     0.109 C 
BRANCH  22  23
HETATM   23  N4  UNL     1      -8.771  17.253   1.415  1.00  0.00    -0.327 N 
ATOM     24  H4  UNL     1      -8.787  17.481   2.409  1.00  0.00     0.174 HD
BRANCH  23  25
HETATM   25  S3  UNL     1      -7.121  17.253   0.251  1.00  0.00     0.020 S 
HETATM   26  C22 UNL     1      -6.886  15.685  -0.768  1.00  0.00     0.136 C 
HETATM   27  O3  UNL     1      -6.321  17.004   1.380  1.00  0.00    -0.250 OA
BRANCH  25  28
HETATM   28  C23 UNL     1      -6.553  18.939  -0.304  1.00  0.00     0.112 C 
HETATM   29  C24 UNL     1      -5.204  19.032  -1.031  1.00  0.00     0.019 C 
ENDBRANCH  25  28
ENDBRANCH  23  25
ENDBRANCH  22  23
ENDBRANCH   6  22
BRANCH   5  30
HETATM   30  C14 UNL     1     -10.454  14.981  -1.283  1.00  0.00    -0.060 C 
HETATM   31  C15 UNL     1     -10.151  15.221  -2.426  1.00  0.00    -0.059 C 
BRANCH  31  32
HETATM   32  C16 UNL     1      -9.815  15.510  -3.789  1.00  0.00     0.050 A 
HETATM   33  C17 UNL     1     -10.765  15.566  -4.800  1.00  0.00     0.128 A 
HETATM   34  N1  UNL     1     -10.399  15.841  -6.061  1.00  0.00    -0.201 N 
HETATM   35  C18 UNL     1      -9.124  16.072  -6.410  1.00  0.00     0.675 A 
ATOM     36  H1  UNL     1     -11.118  15.876  -6.784  1.00  0.00     0.183 HD
HETATM   37  N3  UNL     1      -8.199  16.020  -5.439  1.00  0.00    -0.201 N 
HETATM   38  C19 UNL     1      -8.512  15.748  -4.150  1.00  0.00     0.128 A 
ATOM     39  H3  UNL     1      -7.223  16.193  -5.682  1.00  0.00     0.183 HD
BRANCH  35  40
HETATM   40  N2  UNL     1      -8.817  16.332  -7.636  1.00  0.00    -0.234 N 
ATOM     41  H22 UNL     1      -8.113  15.795  -8.142  1.00  0.00     0.174 HD
ATOM     42  H21 UNL     1      -9.277  17.093  -8.135  1.00  0.00     0.174 HD
ENDBRANCH  35  40
ENDBRANCH  31  32
ENDBRANCH   5  30
TORSDOF 13
ENDMDL
MODEL 5
REMARK VINA RESULT: -8.519323692      1.690      3.138
REMARK  13 active torsions:
REMARK  status: ('A' for Active; 'I' for Inactive)
REMARK    1  A    between atoms: C2_2  and  C3_3 
REMARK    2  A    between atoms: C3_3  and  C4_4 
REMARK    3  A    between atoms: C4_4  and  C5_5 
REMARK    4  A    between atoms: C5_5  and  S1_6 
REMARK    5  A    between atoms: S1_6  and  C6_9 
REMARK    6  A    between atoms: C8_12  and  C9_13 
REMARK    7  A    between atoms: C13_17  and  C14_18 
REMARK    8  A    between atoms: C15_19  and  C16_20 
REMARK    9  A    between atoms: C18_24  and  N2_25 
REMARK   10  A    between atoms: C20_31  and  C21_32 
REMARK   11  A    between atoms: C21_32  and  N4_33 
REMARK   12  A    between atoms: N4_33  and  S3_35 
REMARK   13  A    between atoms: S3_35  and  C23_38 
ROOT
HETATM    1  C9  UNL     1      -9.698  14.452   3.271  1.00  0.00    -0.001 A 
HETATM    2  C10 UNL     1     -10.627  13.996   2.378  1.00  0.00     0.022 A 
HETATM    3  C11 UNL     1     -10.416  14.128   1.001  1.00  0.00    -0.042 A 
HETATM    4  C12 UNL     1     -11.459  13.615   0.079  1.00  0.00     0.049 C 
HETATM    5  C13 UNL     1      -9.260  14.720   0.596  1.00  0.00     0.035 A 
HETATM    6  C20 UNL     1      -8.315  15.183   1.488  1.00  0.00    -0.000 A 
HETATM    7  C25 UNL     1      -8.558  15.037   2.825  1.00  0.00     0.028 A 
ENDROOT
BRANCH   1   8
HETATM    8  C8  UNL     1      -9.961  14.292   4.724  1.00  0.00     0.085 A 
HETATM    9  S2  UNL     1      -9.282  15.140   6.040  1.00  0.00    -0.080 SA
HETATM   10  C7  UNL     1     -10.117  14.347   7.309  1.00  0.00     0.093 A 
HETATM   11  C6  UNL     1     -10.888  13.455   6.610  1.00  0.00     0.136 A 
HETATM   12  N5  UNL     1     -10.786  13.454   5.321  1.00  0.00    -0.340 N 
ATOM     13  H5  UNL     1     -11.344  12.805   4.765  1.00  0.00     0.167 HD
BRANCH  11  14
HETATM   14  S1  UNL     1     -12.000  12.329   7.454  1.00  0.00     0.191 S 
HETATM   15  O1  UNL     1     -12.604  13.042   8.619  1.00  0.00    -0.221 OA
HETATM   16  O2  UNL     1     -11.161  11.205   7.975  1.00  0.00    -0.221 OA
BRANCH  14  17
HETATM   17  C5  UNL     1     -13.196  11.722   6.337  1.00  0.00     0.147 C 
BRANCH  17  18
HETATM   18  C4  UNL     1     -14.243  12.682   5.909  1.00  0.00     0.015 C 
BRANCH  18  19
HETATM   19  C3  UNL     1     -14.557  12.596   4.447  1.00  0.00     0.001 C 
BRANCH  19  20
HETATM   20  C2  UNL     1     -14.059  13.899   3.800  1.00  0.00    -0.005 C 
HETATM   21  C1  UNL     1     -14.440  13.887   2.343  1.00  0.00     0.005 C 
ENDBRANCH  19  20
ENDBRANCH  18  19
ENDBRANCH  17  18
ENDBRANCH  14  17
ENDBRANCH  11  14
ENDBRANCH   1   8
BRANCH   6  22
HETATM   22  C21 UNL     1      -7.103  15.806   0.933  1.00  0.00     0.109 C 
BRANCH  22  23
HETATM   23  N4  UNL     1      -7.174  17.182   0.763  1.00  0.00    -0.327 N 
ATOM     24  H4  UNL     1      -7.864  17.793   1.202  1.00  0.00     0.174 HD
BRANCH  23  25
HETATM   25  S3  UNL     1      -5.708  17.793  -0.483  1.00  0.00     0.020 S 
HETATM   26  C22 UNL     1      -3.966  17.600   0.209  1.00  0.00     0.136 C 
HETATM   27  O3  UNL     1      -6.007  19.134  -0.182  1.00  0.00    -0.250 OA
BRANCH  25  28
HETATM   28  C23 UNL     1      -6.118  17.668  -2.297  1.00  0.00     0.112 C 
HETATM   29  C24 UNL     1      -4.972  17.334  -3.264  1.00  0.00     0.019 C 
ENDBRANCH  25  28
ENDBRANCH  23  25
ENDBRANCH  22  23
ENDBRANCH   6  22
BRANCH   5  30
HETATM   30  C14 UNL     1      -9.040  14.857  -0.831  1.00  0.00    -0.060 C 
HETATM   31  C15 UNL     1      -8.849  14.987  -2.015  1.00  0.00    -0.059 C 
BRANCH  31  32
HETATM   32  C16 UNL     1      -8.646  15.149  -3.425  1.00  0.00     0.050 A 
HETATM   33  C17 UNL     1      -7.515  14.678  -4.078  1.00  0.00     0.128 A 
HETATM   34  N1  UNL     1      -7.373  14.854  -5.401  1.00  0.00    -0.201 N 
HETATM   35  C18 UNL     1      -8.293  15.481  -6.150  1.00  0.00     0.675 A 
ATOM     36  H1  UNL     1      -6.532  14.498  -5.855  1.00  0.00     0.183 HD
HETATM   37  N3  UNL     1      -9.389  15.939  -5.527  1.00  0.00    -0.201 N 
HETATM   38  C19 UNL     1      -9.586  15.789  -4.195  1.00  0.00     0.128 A 
ATOM     39  H3  UNL     1     -10.102  16.419  -6.078  1.00  0.00     0.183 HD
BRANCH  35  40
HETATM   40  N2  UNL     1      -8.114  15.629  -7.419  1.00  0.00    -0.234 N 
ATOM     41  H22 UNL     1      -8.597  16.352  -7.952  1.00  0.00     0.174 HD
ATOM     42  H21 UNL     1      -7.477  15.017  -7.927  1.00  0.00     0.174 HD
ENDBRANCH  35  40
ENDBRANCH  31  32
ENDBRANCH   5  30
TORSDOF 13
ENDMDL
