MODEL 1
REMARK VINA RESULT: -9.087601264      0.000      0.000
REMARK  14 active torsions:
REMARK  status: ('A' for Active; 'I' for Inactive)
REMARK    1  A    between atoms: O1_2  and  C2_3 
REMARK    2  A    between atoms: C2_3  and  C3_4 
REMARK       I    between atoms: C3_4  and  N1_6 
REMARK    3  A    between atoms: N1_6  and  C4_8 
REMARK    4  A    between atoms: C7_15  and  N4_16 
REMARK    5  A    between atoms: N4_16  and  C8_18 
REMARK    6  A    between atoms: C11_21  and  O3_22 
REMARK    7  A    between atoms: O3_22  and  C12_23 
REMARK    8  A    between atoms: C12_23  and  C13_24 
REMARK    9  A    between atoms: C13_24  and  C14_25 
REMARK   10  A    between atoms: C14_25  and  N5_26 
REMARK   11  A    between atoms: N7_39  and  C24_40 
REMARK   12  A    between atoms: C24_40  and  C25_41 
REMARK   13  A    between atoms: C25_41  and  C26_42 
REMARK   14  A    between atoms: C26_42  and  O5_45 
ROOT
HETATM    1  C4  UNL     1      -6.565  16.018  -1.940  1.00  0.00     0.689 A 
HETATM    2  N2  UNL     1      -6.726  15.956  -0.600  1.00  0.00    -0.186 N 
ATOM      3  H2  UNL     1      -6.088  16.357   0.089  1.00  0.00     0.184 HD
HETATM    4  C5  UNL     1      -7.853  15.287  -0.312  1.00  0.00     0.110 A 
HETATM    5  C6  UNL     1      -8.476  14.944   0.889  1.00  0.00     0.140 A 
HETATM    6  N3  UNL     1      -9.636  14.245   0.836  1.00  0.00    -0.199 N 
ATOM      7  H3  UNL     1     -10.113  13.979   1.697  1.00  0.00     0.183 HD
HETATM    8  C7  UNL     1     -10.154  13.904  -0.354  1.00  0.00     0.684 A 
HETATM    9  N6  UNL     1      -9.549  14.240  -1.509  1.00  0.00    -0.173 N 
ATOM     10  H6  UNL     1      -9.971  13.963  -2.395  1.00  0.00     0.186 HD
HETATM   11  C23 UNL     1      -8.393  14.934  -1.513  1.00  0.00     0.167 A 
HETATM   12  N7  UNL     1      -7.576  15.400  -2.532  1.00  0.00    -0.165 N 
ENDROOT
BRANCH   8  13
HETATM   13  N4  UNL     1     -11.255  13.242  -0.385  1.00  0.00    -0.191 N 
ATOM     14  H4  UNL     1     -11.503  12.771  -1.256  1.00  0.00     0.184 HD
BRANCH  13  15
HETATM   15  C8  UNL     1     -12.141  13.120   0.700  1.00  0.00     0.055 A 
HETATM   16  C9  UNL     1     -12.060  11.960   1.476  1.00  0.00     0.033 A 
HETATM   17  C10 UNL     1     -12.936  11.857   2.532  1.00  0.00     0.039 A 
HETATM   18  C11 UNL     1     -13.868  12.812   2.861  1.00  0.00     0.069 A 
HETATM   19  C20 UNL     1     -13.914  13.939   2.070  1.00  0.00     0.045 A 
HETATM   20  C21 UNL     1     -13.053  14.104   0.983  1.00  0.00    -0.032 A 
HETATM   21  C22 UNL     1     -13.149  15.339   0.166  1.00  0.00     0.050 C 
BRANCH  18  22
HETATM   22  O3  UNL     1     -14.747  12.683   3.940  1.00  0.00    -0.351 OA
BRANCH  22  23
HETATM   23  C12 UNL     1     -14.155  12.458   5.209  1.00  0.00     0.177 C 
BRANCH  23  24
HETATM   24  C13 UNL     1     -13.378  13.634   5.712  1.00  0.00     0.046 C 
BRANCH  24  25
HETATM   25  C14 UNL     1     -11.938  13.315   5.987  1.00  0.00     0.128 C 
BRANCH  25  26
HETATM   26  N5  UNL     1     -11.162  14.522   5.954  1.00  0.00    -0.352 N 
HETATM   27  C15 UNL     1     -11.022  15.468   7.038  1.00  0.00     0.125 C 
HETATM   28  C16 UNL     1      -9.550  15.578   7.381  1.00  0.00     0.020 C 
HETATM   29  C17 UNL     1      -8.638  15.532   6.204  1.00  0.00     0.011 C 
HETATM   30  C18 UNL     1      -9.343  15.848   4.902  1.00  0.00     0.103 C 
HETATM   31  C19 UNL     1     -10.432  14.851   4.749  1.00  0.00     0.219 C 
HETATM   32  O4  UNL     1     -10.709  14.324   3.660  1.00  0.00    -0.273 OA
ENDBRANCH  25  26
ENDBRANCH  24  25
ENDBRANCH  23  24
ENDBRANCH  22  23
ENDBRANCH  18  22
ENDBRANCH  13  15
ENDBRANCH   8  13
BRANCH  12  33
HETATM   33  C24 UNL     1      -7.951  15.214  -3.901  1.00  0.00     0.152 C 
BRANCH  33  34
HETATM   34  C25 UNL     1      -8.457  16.398  -4.616  1.00  0.00     0.058 C 
BRANCH  34  35
HETATM   35  C26 UNL     1      -8.160  16.463  -6.063  1.00  0.00     0.052 C 
HETATM   36  C27 UNL     1      -9.510  16.146  -6.770  1.00  0.00     0.045 C 
HETATM   37  C28 UNL     1      -7.178  15.393  -6.494  1.00  0.00     0.045 C 
BRANCH  35  38
HETATM   38  O5  UNL     1      -7.814  17.723  -6.471  1.00  0.00    -0.391 OA
ATOM     39  H5  UNL     1      -6.874  17.842  -6.528  1.00  0.00     0.210 HD
ENDBRANCH  35  38
ENDBRANCH  34  35
ENDBRANCH  33  34
ENDBRANCH  12  33
BRANCH   1  40
HETATM   40  N1  UNL     1      -5.536  16.531  -2.572  1.00  0.00    -0.154 N 
HETATM   41  C3  UNL     1      -5.517  17.923  -2.767  1.00  0.00     0.281 C 
HETATM   42  O2  UNL     1      -5.623  18.652  -1.718  1.00  0.00    -0.266 OA
ATOM     43  H1  UNL     1      -4.777  15.940  -2.910  1.00  0.00     0.187 HD
BRANCH  41  44
HETATM   44  C2  UNL     1      -5.391  18.626  -4.027  1.00  0.00     0.208 C 
BRANCH  44  45
HETATM   45  O1  UNL     1      -4.232  18.498  -4.732  1.00  0.00    -0.362 OA
HETATM   46  C1  UNL     1      -4.225  17.536  -5.709  1.00  0.00     0.209 C 
ENDBRANCH  44  45
ENDBRANCH  41  44
ENDBRANCH   1  40
TORSDOF 14
ENDMDL
MODEL 2
REMARK VINA RESULT: -9.069829211      1.897      4.285
REMARK  14 active torsions:
REMARK  status: ('A' for Active; 'I' for Inactive)
REMARK    1  A    between atoms: O1_2  and  C2_3 
REMARK    2  A    between atoms: C2_3  and  C3_4 
REMARK       I    between atoms: C3_4  and  N1_6 
REMARK    3  A    between atoms: N1_6  and  C4_8 
REMARK    4  A    between atoms: C7_15  and  N4_16 
REMARK    5  A    between atoms: N4_16  and  C8_18 
REMARK    6  A    between atoms: C11_21  and  O3_22 
REMARK    7  A    between atoms: O3_22  and  C12_23 
REMARK    8  A    between atoms: C12_23  and  C13_24 
REMARK    9  A    between atoms: C13_24  and  C14_25 
REMARK   10  A    between atoms: C14_25  and  N5_26 
REMARK   11  A    between atoms: N7_39  and  C24_40 
REMARK   12  A    between atoms: C24_40  and  C25_41 
REMARK   13  A    between atoms: C25_41  and  C26_42 
REMARK   14  A    between atoms: C26_42  and  O5_45 
ROOT
HETATM    1  C4  UNL     1      -7.146  17.285  -4.240  1.00  0.00     0.689 A 
HETATM    2  N2  UNL     1      -8.437  16.969  -4.479  1.00  0.00    -0.186 N 
ATOM      3  H2  UNL     1      -8.979  17.279  -5.286  1.00  0.00     0.184 HD
HETATM    4  C5  UNL     1      -8.899  16.185  -3.492  1.00  0.00     0.110 A 
HETATM    5  C6  UNL     1     -10.138  15.590  -3.251  1.00  0.00     0.140 A 
HETATM    6  N3  UNL     1     -10.285  14.838  -2.133  1.00  0.00    -0.199 N 
ATOM      7  H3  UNL     1     -11.179  14.392  -1.930  1.00  0.00     0.183 HD
HETATM    8  C7  UNL     1      -9.249  14.685  -1.293  1.00  0.00     0.684 A 
HETATM    9  N6  UNL     1      -8.056  15.262  -1.532  1.00  0.00    -0.173 N 
ATOM     10  H6  UNL     1      -7.291  15.124  -0.872  1.00  0.00     0.186 HD
HETATM   11  C23 UNL     1      -7.857  16.019  -2.630  1.00  0.00     0.167 A 
HETATM   12  N7  UNL     1      -6.757  16.714  -3.110  1.00  0.00    -0.165 N 
ENDROOT
BRANCH   8  13
HETATM   13  N4  UNL     1      -9.406  13.969  -0.238  1.00  0.00    -0.191 N 
ATOM     14  H4  UNL     1      -9.443  12.955  -0.352  1.00  0.00     0.184 HD
BRANCH  13  15
HETATM   15  C8  UNL     1      -9.531  14.486   1.063  1.00  0.00     0.055 A 
HETATM   16  C9  UNL     1      -8.355  14.794   1.754  1.00  0.00     0.033 A 
HETATM   17  C10 UNL     1      -8.495  15.297   3.026  1.00  0.00     0.039 A 
HETATM   18  C11 UNL     1      -9.704  15.511   3.646  1.00  0.00     0.069 A 
HETATM   19  C20 UNL     1     -10.838  15.193   2.930  1.00  0.00     0.045 A 
HETATM   20  C21 UNL     1     -10.762  14.678   1.634  1.00  0.00    -0.032 A 
HETATM   21  C22 UNL     1     -12.018  14.353   0.912  1.00  0.00     0.050 C 
BRANCH  18  22
HETATM   22  O3  UNL     1      -9.820  16.023   4.941  1.00  0.00    -0.351 OA
BRANCH  22  23
HETATM   23  C12 UNL     1      -8.797  15.660   5.853  1.00  0.00     0.177 C 
BRANCH  23  24
HETATM   24  C13 UNL     1      -9.320  15.279   7.203  1.00  0.00     0.046 C 
BRANCH  24  25
HETATM   25  C14 UNL     1     -10.810  15.417   7.316  1.00  0.00     0.128 C 
BRANCH  25  26
HETATM   26  N5  UNL     1     -11.437  14.173   6.968  1.00  0.00    -0.352 N 
HETATM   27  C15 UNL     1     -10.944  12.855   7.297  1.00  0.00     0.125 C 
HETATM   28  C16 UNL     1     -12.004  12.146   8.115  1.00  0.00     0.020 C 
HETATM   29  C17 UNL     1     -13.403  12.418   7.680  1.00  0.00     0.011 C 
HETATM   30  C18 UNL     1     -13.484  12.953   6.266  1.00  0.00     0.103 C 
HETATM   31  C19 UNL     1     -12.682  14.202   6.232  1.00  0.00     0.219 C 
HETATM   32  O4  UNL     1     -13.046  15.214   5.612  1.00  0.00    -0.273 OA
ENDBRANCH  25  26
ENDBRANCH  24  25
ENDBRANCH  23  24
ENDBRANCH  22  23
ENDBRANCH  18  22
ENDBRANCH  13  15
ENDBRANCH   8  13
BRANCH  12  33
HETATM   33  C24 UNL     1      -5.505  16.652  -2.418  1.00  0.00     0.152 C 
BRANCH  33  34
HETATM   34  C25 UNL     1      -5.277  17.659  -1.368  1.00  0.00     0.058 C 
BRANCH  34  35
HETATM   35  C26 UNL     1      -5.402  17.186   0.027  1.00  0.00     0.052 C 
HETATM   36  C27 UNL     1      -6.707  17.844   0.565  1.00  0.00     0.045 C 
HETATM   37  C28 UNL     1      -4.270  17.683   0.903  1.00  0.00     0.045 C 
BRANCH  35  38
HETATM   38  O5  UNL     1      -5.607  15.836   0.108  1.00  0.00    -0.391 OA
ATOM     39  H5  UNL     1      -5.241  15.367  -0.632  1.00  0.00     0.210 HD
ENDBRANCH  35  38
ENDBRANCH  34  35
ENDBRANCH  33  34
ENDBRANCH  12  33
BRANCH   1  40
HETATM   40  N1  UNL     1      -6.403  18.094  -4.957  1.00  0.00    -0.154 N 
HETATM   41  C3  UNL     1      -6.309  17.845  -6.337  1.00  0.00     0.281 C 
HETATM   42  O2  UNL     1      -7.412  17.790  -6.987  1.00  0.00    -0.266 OA
ATOM     43  H1  UNL     1      -5.910  18.877  -4.527  1.00  0.00     0.187 HD
BRANCH  41  44
HETATM   44  C2  UNL     1      -5.099  17.641  -7.107  1.00  0.00     0.208 C 
BRANCH  44  45
HETATM   45  O1  UNL     1      -3.914  18.066  -6.584  1.00  0.00    -0.362 OA
HETATM   46  C1  UNL     1      -3.086  17.087  -6.099  1.00  0.00     0.209 C 
ENDBRANCH  44  45
ENDBRANCH  41  44
ENDBRANCH   1  40
TORSDOF 14
ENDMDL
MODEL 3
REMARK VINA RESULT: -9.066179461      1.906     10.690
REMARK  14 active torsions:
REMARK  status: ('A' for Active; 'I' for Inactive)
REMARK    1  A    between atoms: O1_2  and  C2_3 
REMARK    2  A    between atoms: C2_3  and  C3_4 
REMARK       I    between atoms: C3_4  and  N1_6 
REMARK    3  A    between atoms: N1_6  and  C4_8 
REMARK    4  A    between atoms: C7_15  and  N4_16 
REMARK    5  A    between atoms: N4_16  and  C8_18 
REMARK    6  A    between atoms: C11_21  and  O3_22 
REMARK    7  A    between atoms: O3_22  and  C12_23 
REMARK    8  A    between atoms: C12_23  and  C13_24 
REMARK    9  A    between atoms: C13_24  and  C14_25 
REMARK   10  A    between atoms: C14_25  and  N5_26 
REMARK   11  A    between atoms: N7_39  and  C24_40 
REMARK   12  A    between atoms: C24_40  and  C25_41 
REMARK   13  A    between atoms: C25_41  and  C26_42 
REMARK   14  A    between atoms: C26_42  and  O5_45 
ROOT
HETATM    1  C4  UNL     1     -10.571  13.985   2.899  1.00  0.00     0.689 A 
HETATM    2  N2  UNL     1     -10.546  13.977   1.548  1.00  0.00    -0.186 N 
ATOM      3  H2  UNL     1     -11.253  13.551   0.949  1.00  0.00     0.184 HD
HETATM    4  C5  UNL     1      -9.447  14.615   1.115  1.00  0.00     0.110 A 
HETATM    5  C6  UNL     1      -8.945  14.886  -0.159  1.00  0.00     0.140 A 
HETATM    6  N3  UNL     1      -7.779  15.569  -0.259  1.00  0.00    -0.199 N 
ATOM      7  H3  UNL     1      -7.387  15.781  -1.177  1.00  0.00     0.183 HD
HETATM    8  C7  UNL     1      -7.141  15.964   0.853  1.00  0.00     0.684 A 
HETATM    9  N6  UNL     1      -7.631  15.699   2.079  1.00  0.00    -0.173 N 
ATOM     10  H6  UNL     1      -7.119  16.015   2.903  1.00  0.00     0.186 HD
HETATM   11  C23 UNL     1      -8.788  15.024   2.235  1.00  0.00     0.167 A 
HETATM   12  N7  UNL     1      -9.503  14.624   3.354  1.00  0.00    -0.165 N 
ENDROOT
BRANCH   8  13
HETATM   13  N4  UNL     1      -6.036  16.610   0.739  1.00  0.00    -0.191 N 
ATOM     14  H4  UNL     1      -5.484  16.761   1.584  1.00  0.00     0.184 HD
BRANCH  13  15
HETATM   15  C8  UNL     1      -5.536  17.123  -0.471  1.00  0.00     0.055 A 
HETATM   16  C9  UNL     1      -4.664  16.314  -1.206  1.00  0.00     0.033 A 
HETATM   17  C10 UNL     1      -4.182  16.832  -2.386  1.00  0.00     0.039 A 
HETATM   18  C11 UNL     1      -4.504  18.077  -2.874  1.00  0.00     0.069 A 
HETATM   19  C20 UNL     1      -5.366  18.841  -2.118  1.00  0.00     0.045 A 
HETATM   20  C21 UNL     1      -5.889  18.372  -0.911  1.00  0.00    -0.032 A 
HETATM   21  C22 UNL     1      -6.813  19.240  -0.138  1.00  0.00     0.050 C 
BRANCH  18  22
HETATM   22  O3  UNL     1      -4.001  18.581  -4.077  1.00  0.00    -0.351 OA
BRANCH  22  23
HETATM   23  C12 UNL     1      -4.144  17.747  -5.215  1.00  0.00     0.177 C 
BRANCH  23  24
HETATM   24  C13 UNL     1      -5.291  18.141  -6.092  1.00  0.00     0.046 C 
BRANCH  24  25
HETATM   25  C14 UNL     1      -6.584  18.275  -5.344  1.00  0.00     0.128 C 
BRANCH  25  26
HETATM   26  N5  UNL     1      -7.311  17.039  -5.414  1.00  0.00    -0.352 N 
HETATM   27  C15 UNL     1      -7.154  15.913  -4.522  1.00  0.00     0.125 C 
HETATM   28  C16 UNL     1      -8.491  15.640  -3.865  1.00  0.00     0.020 C 
HETATM   29  C17 UNL     1      -9.667  15.823  -4.762  1.00  0.00     0.011 C 
HETATM   30  C18 UNL     1      -9.297  15.788  -6.229  1.00  0.00     0.103 C 
HETATM   31  C19 UNL     1      -8.307  16.872  -6.450  1.00  0.00     0.219 C 
HETATM   32  O4  UNL     1      -8.322  17.597  -7.457  1.00  0.00    -0.273 OA
ENDBRANCH  25  26
ENDBRANCH  24  25
ENDBRANCH  23  24
ENDBRANCH  22  23
ENDBRANCH  18  22
ENDBRANCH  13  15
ENDBRANCH   8  13
BRANCH  12  33
HETATM   33  C24 UNL     1      -9.056  14.984   4.664  1.00  0.00     0.152 C 
BRANCH  33  34
HETATM   34  C25 UNL     1      -9.998  15.746   5.501  1.00  0.00     0.058 C 
BRANCH  34  35
HETATM   35  C26 UNL     1     -10.240  15.216   6.860  1.00  0.00     0.052 C 
HETATM   36  C27 UNL     1      -9.120  15.836   7.744  1.00  0.00     0.045 C 
HETATM   37  C28 UNL     1     -10.068  13.712   6.926  1.00  0.00     0.045 C 
BRANCH  35  38
HETATM   38  O5  UNL     1     -11.421  15.658   7.392  1.00  0.00    -0.391 OA
ATOM     39  H5  UNL     1     -11.317  16.457   7.895  1.00  0.00     0.210 HD
ENDBRANCH  35  38
ENDBRANCH  34  35
ENDBRANCH  33  34
ENDBRANCH  12  33
BRANCH   1  40
HETATM   40  N1  UNL     1     -11.459  13.389   3.659  1.00  0.00    -0.154 N 
HETATM   41  C3  UNL     1     -12.769  13.899   3.656  1.00  0.00     0.281 C 
HETATM   42  O2  UNL     1     -13.351  13.980   2.517  1.00  0.00    -0.266 OA
ATOM     43  H1  UNL     1     -11.207  12.585   4.232  1.00  0.00     0.187 HD
BRANCH  41  44
HETATM   44  C2  UNL     1     -13.536  14.343   4.801  1.00  0.00     0.208 C 
BRANCH  44  45
HETATM   45  O1  UNL     1     -13.304  13.755   6.009  1.00  0.00    -0.362 OA
HETATM   46  C1  UNL     1     -13.925  12.552   6.221  1.00  0.00     0.209 C 
ENDBRANCH  44  45
ENDBRANCH  41  44
ENDBRANCH   1  40
TORSDOF 14
ENDMDL
MODEL 4
REMARK VINA RESULT: -9.042736272      2.218      3.144
REMARK  14 active torsions:
REMARK  status: ('A' for Active; 'I' for Inactive)
REMARK    1  A    between atoms: O1_2  and  C2_3 
REMARK    2  A    between atoms: C2_3  and  C3_4 
REMARK       I    between atoms: C3_4  and  N1_6 
REMARK    3  A    between atoms: N1_6  and  C4_8 
REMARK    4  A    between atoms: C7_15  and  N4_16 
REMARK    5  A    between atoms: N4_16  and  C8_18 
REMARK    6  A    between atoms: C11_21  and  O3_22 
REMARK    7  A    between atoms: O3_22  and  C12_23 
REMARK    8  A    between atoms: C12_23  and  C13_24 
REMARK    9  A    between atoms: C13_24  and  C14_25 
REMARK   10  A    between atoms: C14_25  and  N5_26 
REMARK   11  A    between atoms: N7_39  and  C24_40 
REMARK   12  A    between atoms: C24_40  and  C25_41 
REMARK   13  A    between atoms: C25_41  and  C26_42 
REMARK   14  A    between atoms: C26_42  and  O5_45 
ROOT
HETATM    1  C4  UNL     1      -4.971  17.513  -3.423  1.00  0.00     0.689 A 
HETATM    2  N2  UNL     1      -4.814  18.175  -2.255  1.00  0.00    -0.186 N 
ATOM      3  H2  UNL     1      -3.943  18.598  -1.932  1.00  0.00     0.184 HD
HETATM    4  C5  UNL     1      -5.977  18.189  -1.586  1.00  0.00     0.110 A 
HETATM    5  C6  UNL     1      -6.359  18.726  -0.355  1.00  0.00     0.140 A 
HETATM    6  N3  UNL     1      -7.643  18.563   0.046  1.00  0.00    -0.199 N 
ATOM      7  H3  UNL     1      -7.951  18.943   0.941  1.00  0.00     0.183 HD
HETATM    8  C7  UNL     1      -8.507  17.900  -0.738  1.00  0.00     0.684 A 
HETATM    9  N6  UNL     1      -8.131  17.386  -1.924  1.00  0.00    -0.173 N 
ATOM     10  H6  UNL     1      -8.815  16.887  -2.493  1.00  0.00     0.186 HD
HETATM   11  C23 UNL     1      -6.866  17.519  -2.370  1.00  0.00     0.167 A 
HETATM   12  N7  UNL     1      -6.225  17.098  -3.526  1.00  0.00    -0.165 N 
ENDROOT
BRANCH   8  13
HETATM   13  N4  UNL     1      -9.721  17.755  -0.340  1.00  0.00    -0.191 N 
ATOM     14  H4  UNL     1     -10.416  18.420  -0.683  1.00  0.00     0.184 HD
BRANCH  13  15
HETATM   15  C8  UNL     1     -10.157  16.745   0.535  1.00  0.00     0.055 A 
HETATM   16  C9  UNL     1     -10.050  16.988   1.908  1.00  0.00     0.033 A 
HETATM   17  C10 UNL     1     -10.480  15.988   2.750  1.00  0.00     0.039 A 
HETATM   18  C11 UNL     1     -10.999  14.787   2.325  1.00  0.00     0.069 A 
HETATM   19  C20 UNL     1     -11.086  14.590   0.965  1.00  0.00     0.045 A 
HETATM   20  C21 UNL     1     -10.666  15.566   0.058  1.00  0.00    -0.032 A 
HETATM   21  C22 UNL     1     -10.784  15.297  -1.397  1.00  0.00     0.050 C 
BRANCH  18  22
HETATM   22  O3  UNL     1     -11.429  13.787   3.202  1.00  0.00    -0.351 OA
BRANCH  22  23
HETATM   23  C12 UNL     1     -12.486  14.135   4.081  1.00  0.00     0.177 C 
BRANCH  23  24
HETATM   24  C13 UNL     1     -12.480  13.342   5.351  1.00  0.00     0.046 C 
BRANCH  24  25
HETATM   25  C14 UNL     1     -12.159  14.172   6.560  1.00  0.00     0.128 C 
BRANCH  25  26
HETATM   26  N5  UNL     1     -10.735  14.310   6.685  1.00  0.00    -0.352 N 
HETATM   27  C15 UNL     1      -9.770  13.237   6.606  1.00  0.00     0.125 C 
HETATM   28  C16 UNL     1      -8.813  13.546   5.473  1.00  0.00     0.020 C 
HETATM   29  C17 UNL     1      -8.456  14.987   5.344  1.00  0.00     0.011 C 
HETATM   30  C18 UNL     1      -8.730  15.775   6.606  1.00  0.00     0.103 C 
HETATM   31  C19 UNL     1     -10.178  15.627   6.900  1.00  0.00     0.219 C 
HETATM   32  O4  UNL     1     -10.878  16.569   7.306  1.00  0.00    -0.273 OA
ENDBRANCH  25  26
ENDBRANCH  24  25
ENDBRANCH  23  24
ENDBRANCH  22  23
ENDBRANCH  18  22
ENDBRANCH  13  15
ENDBRANCH   8  13
BRANCH  12  33
HETATM   33  C24 UNL     1      -6.956  16.419  -4.552  1.00  0.00     0.152 C 
BRANCH  33  34
HETATM   34  C25 UNL     1      -7.616  17.261  -5.563  1.00  0.00     0.058 C 
BRANCH  34  35
HETATM   35  C26 UNL     1      -8.400  16.550  -6.595  1.00  0.00     0.052 C 
HETATM   36  C27 UNL     1      -9.229  15.487  -5.816  1.00  0.00     0.045 C 
HETATM   37  C28 UNL     1      -7.515  15.791  -7.563  1.00  0.00     0.045 C 
BRANCH  35  38
HETATM   38  O5  UNL     1      -9.318  17.359  -7.208  1.00  0.00    -0.391 OA
ATOM     39  H5  UNL     1      -9.062  17.597  -8.091  1.00  0.00     0.210 HD
ENDBRANCH  35  38
ENDBRANCH  34  35
ENDBRANCH  33  34
ENDBRANCH  12  33
BRANCH   1  40
HETATM   40  N1  UNL     1      -4.026  17.242  -4.291  1.00  0.00    -0.154 N 
HETATM   41  C3  UNL     1      -2.707  17.153  -3.815  1.00  0.00     0.281 C 
HETATM   42  O2  UNL     1      -2.494  16.319  -2.866  1.00  0.00    -0.266 OA
ATOM     43  H1  UNL     1      -4.242  17.101  -5.278  1.00  0.00     0.187 HD
BRANCH  41  44
HETATM   44  C2  UNL     1      -1.557  17.902  -4.281  1.00  0.00     0.208 C 
BRANCH  44  45
HETATM   45  O1  UNL     1      -1.596  18.445  -5.531  1.00  0.00    -0.362 OA
HETATM   46  C1  UNL     1      -1.073  17.676  -6.537  1.00  0.00     0.209 C 
ENDBRANCH  44  45
ENDBRANCH  41  44
ENDBRANCH   1  40
TORSDOF 14
ENDMDL
MODEL 5
REMARK VINA RESULT: -9.031011394      2.152      4.141
REMARK  14 active torsions:
REMARK  status: ('A' for Active; 'I' for Inactive)
REMARK    1  A    between atoms: O1_2  and  C2_3 
REMARK    2  A    between atoms: C2_3  and  C3_4 
REMARK       I    between atoms: C3_4  and  N1_6 
REMARK    3  A    between atoms: N1_6  and  C4_8 
REMARK    4  A    between atoms: C7_15  and  N4_16 
REMARK    5  A    between atoms: N4_16  and  C8_18 
REMARK    6  A    between atoms: C11_21  and  O3_22 
REMARK    7  A    between atoms: O3_22  and  C12_23 
REMARK    8  A    between atoms: C12_23  and  C13_24 
REMARK    9  A    between atoms: C13_24  and  C14_25 
REMARK   10  A    between atoms: C14_25  and  N5_26 
REMARK   11  A    between atoms: N7_39  and  C24_40 
REMARK   12  A    between atoms: C24_40  and  C25_41 
REMARK   13  A    between atoms: C25_41  and  C26_42 
REMARK   14  A    between atoms: C26_42  and  O5_45 
ROOT
HETATM    1  C4  UNL     1      -5.493  16.912  -4.476  1.00  0.00     0.689 A 
HETATM    2  N2  UNL     1      -6.445  16.335  -5.242  1.00  0.00    -0.186 N 
ATOM      3  H2  UNL     1      -6.305  15.987  -6.191  1.00  0.00     0.184 HD
HETATM    4  C5  UNL     1      -7.602  16.291  -4.565  1.00  0.00     0.110 A 
HETATM    5  C6  UNL     1      -8.873  15.810  -4.884  1.00  0.00     0.140 A 
HETATM    6  N3  UNL     1      -9.855  15.919  -3.956  1.00  0.00    -0.199 N 
ATOM      7  H3  UNL     1     -10.793  15.577  -4.161  1.00  0.00     0.183 HD
HETATM    8  C7  UNL     1      -9.586  16.478  -2.766  1.00  0.00     0.684 A 
HETATM    9  N6  UNL     1      -8.357  16.939  -2.465  1.00  0.00    -0.173 N 
ATOM     10  H6  UNL     1      -8.190  17.359  -1.550  1.00  0.00     0.186 HD
HETATM   11  C23 UNL     1      -7.346  16.856  -3.352  1.00  0.00     0.167 A 
HETATM   12  N7  UNL     1      -6.015  17.242  -3.304  1.00  0.00    -0.165 N 
ENDROOT
BRANCH   8  13
HETATM   13  N4  UNL     1     -10.529  16.573  -1.898  1.00  0.00    -0.191 N 
ATOM     14  H4  UNL     1     -11.186  17.348  -1.992  1.00  0.00     0.184 HD
BRANCH  13  15
HETATM   15  C8  UNL     1     -10.718  15.681  -0.827  1.00  0.00     0.055 A 
HETATM   16  C9  UNL     1     -10.835  14.321  -1.131  1.00  0.00     0.033 A 
HETATM   17  C10 UNL     1     -11.022  13.463  -0.072  1.00  0.00     0.039 A 
HETATM   18  C11 UNL     1     -11.097  13.859   1.243  1.00  0.00     0.069 A 
HETATM   19  C20 UNL     1     -10.977  15.208   1.497  1.00  0.00     0.045 A 
HETATM   20  C21 UNL     1     -10.787  16.130   0.466  1.00  0.00    -0.032 A 
HETATM   21  C22 UNL     1     -10.665  17.572   0.799  1.00  0.00     0.050 C 
BRANCH  18  22
HETATM   22  O3  UNL     1     -11.287  12.967   2.301  1.00  0.00    -0.351 OA
BRANCH  22  23
HETATM   23  C12 UNL     1     -12.529  13.056   2.983  1.00  0.00     0.177 C 
BRANCH  23  24
HETATM   24  C13 UNL     1     -12.377  13.194   4.465  1.00  0.00     0.046 C 
BRANCH  24  25
HETATM   25  C14 UNL     1     -12.172  14.613   4.906  1.00  0.00     0.128 C 
BRANCH  25  26
HETATM   26  N5  UNL     1     -10.884  14.743   5.529  1.00  0.00    -0.352 N 
HETATM   27  C15 UNL     1      -9.617  14.374   4.941  1.00  0.00     0.125 C 
HETATM   28  C16 UNL     1      -8.739  15.608   4.898  1.00  0.00     0.020 C 
HETATM   29  C17 UNL     1      -8.868  16.497   6.086  1.00  0.00     0.011 C 
HETATM   30  C18 UNL     1      -9.473  15.794   7.283  1.00  0.00     0.103 C 
HETATM   31  C19 UNL     1     -10.808  15.299   6.862  1.00  0.00     0.219 C 
HETATM   32  O4  UNL     1     -11.804  15.354   7.600  1.00  0.00    -0.273 OA
ENDBRANCH  25  26
ENDBRANCH  24  25
ENDBRANCH  23  24
ENDBRANCH  22  23
ENDBRANCH  18  22
ENDBRANCH  13  15
ENDBRANCH   8  13
BRANCH  12  33
HETATM   33  C24 UNL     1      -5.469  17.810  -2.109  1.00  0.00     0.152 C 
BRANCH  33  34
HETATM   34  C25 UNL     1      -5.177  16.879  -1.006  1.00  0.00     0.058 C 
BRANCH  34  35
HETATM   35  C26 UNL     1      -5.973  17.056   0.227  1.00  0.00     0.052 C 
HETATM   36  C27 UNL     1      -4.929  17.301   1.354  1.00  0.00     0.045 C 
HETATM   37  C28 UNL     1      -6.734  15.801   0.601  1.00  0.00     0.045 C 
BRANCH  35  38
HETATM   38  O5  UNL     1      -6.752  18.181   0.191  1.00  0.00    -0.391 OA
ATOM     39  H5  UNL     1      -7.347  18.189  -0.549  1.00  0.00     0.210 HD
ENDBRANCH  35  38
ENDBRANCH  34  35
ENDBRANCH  33  34
ENDBRANCH  12  33
BRANCH   1  40
HETATM   40  N1  UNL     1      -4.264  17.185  -4.845  1.00  0.00    -0.154 N 
HETATM   41  C3  UNL     1      -3.997  17.261  -6.223  1.00  0.00     0.281 C 
HETATM   42  O2  UNL     1      -4.707  18.084  -6.902  1.00  0.00    -0.266 OA
ATOM     43  H1  UNL     1      -3.528  17.337  -4.155  1.00  0.00     0.187 HD
BRANCH  41  44
HETATM   44  C2  UNL     1      -3.003  16.509  -6.962  1.00  0.00     0.208 C 
BRANCH  44  45
HETATM   45  O1  UNL     1      -3.389  15.363  -7.592  1.00  0.00    -0.362 OA
HETATM   46  C1  UNL     1      -3.546  15.447  -8.950  1.00  0.00     0.209 C 
ENDBRANCH  44  45
ENDBRANCH  41  44
ENDBRANCH   1  40
TORSDOF 14
ENDMDL
