MODEL 1
REMARK VINA RESULT: -7.890149687      0.000      0.000
REMARK  11 active torsions:
REMARK  status: ('A' for Active; 'I' for Inactive)
REMARK    1  A    between atoms: O1_2  and  C2_3 
REMARK    2  A    between atoms: C4_5  and  C5_6 
REMARK    3  A    between atoms: C5_6  and  C6_7 
REMARK    4  A    between atoms: C6_7  and  N1_8 
REMARK       I    between atoms: N1_8  and  C7_10 
REMARK    5  A    between atoms: C14_21  and  C15_22 
REMARK       I    between atoms: C15_22  and  N4_24 
REMARK       I    between atoms: N4_24  and  C16_26 
REMARK       I    between atoms: C16_26  and  N5_28 
REMARK    6  A    between atoms: N5_28  and  C18_30 
REMARK    7  A    between atoms: C18_30  and  C19_31 
REMARK       I    between atoms: C19_31  and  N6_33 
REMARK    8  A    between atoms: N6_33  and  C20_35 
REMARK    9  A    between atoms: N7_39  and  C24_40 
REMARK   10  A    between atoms: C24_40  and  C25_41 
REMARK   11  A    between atoms: C25_41  and  C26_42 
ROOT
HETATM    1  C2  UNL     1      12.696 -12.655   6.093  1.00  0.00     0.173 A 
HETATM    2  C3  UNL     1      11.798 -13.310   6.814  1.00  0.00     0.100 A 
HETATM    3  C4  UNL     1      11.723 -13.212   8.285  1.00  0.00    -0.003 A 
HETATM    4  C9  UNL     1      10.801 -14.014   8.852  1.00  0.00     0.015 A 
HETATM    5  C10 UNL     1      10.613 -14.039  10.309  1.00  0.00     0.069 C 
HETATM    6  N2  UNL     1       9.945 -14.872   8.112  1.00  0.00    -0.349 N 
ATOM      7  H2  UNL     1       9.281 -15.438   8.640  1.00  0.00     0.167 HD
HETATM    8  C11 UNL     1       9.937 -14.990   6.869  1.00  0.00     0.084 A 
HETATM    9  C12 UNL     1       9.050 -15.879   6.093  1.00  0.00     0.089 C 
HETATM   10  N3  UNL     1      10.893 -14.194   6.129  1.00  0.00    -0.305 N 
HETATM   11  C13 UNL     1      10.926 -14.359   4.723  1.00  0.00     0.134 A 
HETATM   12  C14 UNL     1      11.826 -13.669   3.998  1.00  0.00     0.121 A 
HETATM   13  N7  UNL     1      12.728 -12.808   4.658  1.00  0.00    -0.320 N 
ENDROOT
BRANCH  12  14
HETATM   14  C15 UNL     1      11.780 -13.903   2.562  1.00  0.00     0.277 C 
HETATM   15  O3  UNL     1      12.819 -14.103   1.901  1.00  0.00    -0.265 OA
HETATM   16  N4  UNL     1      10.548 -13.919   1.823  1.00  0.00    -0.274 N 
HETATM   17  C16 UNL     1      10.580 -14.134   0.400  1.00  0.00     0.325 C 
ATOM     18  H4  UNL     1       9.658 -13.778   2.302  1.00  0.00     0.173 HD
HETATM   19  O4  UNL     1      11.674 -14.303  -0.162  1.00  0.00    -0.247 OA
HETATM   20  N5  UNL     1       9.376 -14.150  -0.343  1.00  0.00    -0.330 N 
HETATM   21  C17 UNL     1       9.460 -14.352  -1.784  1.00  0.00     0.155 C 
BRANCH  20  22
HETATM   22  C18 UNL     1       8.060 -13.991   0.237  1.00  0.00     0.229 C 
BRANCH  22  23
HETATM   23  C19 UNL     1       7.428 -15.285   0.595  1.00  0.00     0.236 C 
HETATM   24  O5  UNL     1       7.877 -15.939   1.557  1.00  0.00    -0.272 OA
HETATM   25  N6  UNL     1       6.329 -15.730  -0.175  1.00  0.00    -0.352 N 
ATOM     26  H6  UNL     1       6.002 -15.154  -0.951  1.00  0.00     0.163 HD
BRANCH  25  27
HETATM   27  C20 UNL     1       5.660 -16.976   0.107  1.00  0.00     0.022 C 
HETATM   28  C21 UNL     1       4.593 -17.232  -0.917  1.00  0.00     0.037 C 
HETATM   29  C22 UNL     1       6.643 -18.139   0.053  1.00  0.00     0.037 C 
HETATM   30  C23 UNL     1       5.014 -16.970   1.482  1.00  0.00     0.037 C 
ENDBRANCH  25  27
ENDBRANCH  22  23
ENDBRANCH  20  22
ENDBRANCH  12  14
BRANCH  13  31
HETATM   31  C24 UNL     1      13.697 -12.017   3.971  1.00  0.00     0.132 C 
BRANCH  31  32
HETATM   32  C25 UNL     1      13.074 -10.775   3.325  1.00  0.00     0.024 C 
BRANCH  32  33
HETATM   33  C26 UNL     1      13.428  -9.608   4.222  1.00  0.00    -0.021 C 
HETATM   34  C27 UNL     1      12.585  -8.386   3.940  1.00  0.00     0.009 C 
HETATM   35  C28 UNL     1      14.894  -9.311   4.210  1.00  0.00     0.009 C 
ENDBRANCH  32  33
ENDBRANCH  31  32
ENDBRANCH  13  31
BRANCH   1  36
HETATM   36  O1  UNL     1      13.595 -11.855   6.739  1.00  0.00    -0.339 OA
HETATM   37  C1  UNL     1      14.998 -11.905   6.775  1.00  0.00     0.211 C 
ENDBRANCH   1  36
BRANCH   3  38
HETATM   38  C5  UNL     1      12.500 -12.233   9.019  1.00  0.00     0.062 C 
BRANCH  38  39
HETATM   39  C6  UNL     1      11.938 -10.873   9.260  1.00  0.00     0.127 C 
BRANCH  39  40
HETATM   40  N1  UNL     1      12.716  -9.707   9.068  1.00  0.00    -0.361 N 
HETATM   41  C7  UNL     1      12.473  -8.820   7.986  1.00  0.00     0.213 C 
HETATM   42  C8  UNL     1      13.284  -7.588   7.763  1.00  0.00     0.117 C 
HETATM   43  O2  UNL     1      11.556  -9.044   7.166  1.00  0.00    -0.274 OA
ATOM     44  H1  UNL     1      13.470  -9.498   9.723  1.00  0.00     0.162 HD
ENDBRANCH  39  40
ENDBRANCH  38  39
ENDBRANCH   3  38
TORSDOF 11
ENDMDL
MODEL 2
REMARK VINA RESULT: -7.845536982      2.351      4.416
REMARK  11 active torsions:
REMARK  status: ('A' for Active; 'I' for Inactive)
REMARK    1  A    between atoms: O1_2  and  C2_3 
REMARK    2  A    between atoms: C4_5  and  C5_6 
REMARK    3  A    between atoms: C5_6  and  C6_7 
REMARK    4  A    between atoms: C6_7  and  N1_8 
REMARK       I    between atoms: N1_8  and  C7_10 
REMARK    5  A    between atoms: C14_21  and  C15_22 
REMARK       I    between atoms: C15_22  and  N4_24 
REMARK       I    between atoms: N4_24  and  C16_26 
REMARK       I    between atoms: C16_26  and  N5_28 
REMARK    6  A    between atoms: N5_28  and  C18_30 
REMARK    7  A    between atoms: C18_30  and  C19_31 
REMARK       I    between atoms: C19_31  and  N6_33 
REMARK    8  A    between atoms: N6_33  and  C20_35 
REMARK    9  A    between atoms: N7_39  and  C24_40 
REMARK   10  A    between atoms: C24_40  and  C25_41 
REMARK   11  A    between atoms: C25_41  and  C26_42 
ROOT
HETATM    1  C2  UNL     1      12.181 -13.490   3.358  1.00  0.00     0.173 A 
HETATM    2  C3  UNL     1      12.083 -13.268   4.660  1.00  0.00     0.100 A 
HETATM    3  C4  UNL     1      13.114 -12.545   5.431  1.00  0.00    -0.003 A 
HETATM    4  C9  UNL     1      12.884 -12.490   6.757  1.00  0.00     0.015 A 
HETATM    5  C10 UNL     1      13.824 -11.815   7.661  1.00  0.00     0.069 C 
HETATM    6  N2  UNL     1      11.737 -13.053   7.379  1.00  0.00    -0.349 N 
ATOM      7  H2  UNL     1      11.659 -12.955   8.391  1.00  0.00     0.167 HD
HETATM    8  C11 UNL     1      10.818 -13.657   6.790  1.00  0.00     0.084 A 
HETATM    9  C12 UNL     1       9.623 -14.244   7.429  1.00  0.00     0.089 C 
HETATM   10  N3  UNL     1      10.943 -13.805   5.356  1.00  0.00    -0.305 N 
HETATM   11  C13 UNL     1       9.930 -14.533   4.685  1.00  0.00     0.134 A 
HETATM   12  C14 UNL     1      10.027 -14.730   3.357  1.00  0.00     0.121 A 
HETATM   13  N7  UNL     1      11.146 -14.221   2.665  1.00  0.00    -0.320 N 
ENDROOT
BRANCH  12  14
HETATM   14  C15 UNL     1       8.936 -15.486   2.759  1.00  0.00     0.277 C 
HETATM   15  O3  UNL     1       8.285 -16.321   3.419  1.00  0.00    -0.265 OA
HETATM   16  N4  UNL     1       8.546 -15.320   1.387  1.00  0.00    -0.274 N 
HETATM   17  C16 UNL     1       7.472 -16.119   0.855  1.00  0.00     0.325 C 
ATOM     18  H4  UNL     1       9.025 -14.643   0.793  1.00  0.00     0.173 HD
HETATM   19  O4  UNL     1       6.903 -16.937   1.596  1.00  0.00    -0.247 OA
HETATM   20  N5  UNL     1       7.077 -15.969  -0.495  1.00  0.00    -0.330 N 
HETATM   21  C17 UNL     1       5.998 -16.814  -0.992  1.00  0.00     0.155 C 
BRANCH  20  22
HETATM   22  C18 UNL     1       7.666 -15.022  -1.415  1.00  0.00     0.229 C 
BRANCH  22  23
HETATM   23  C19 UNL     1       8.025 -15.630  -2.720  1.00  0.00     0.236 C 
HETATM   24  O5  UNL     1       8.842 -16.572  -2.752  1.00  0.00    -0.272 OA
HETATM   25  N6  UNL     1       7.420 -15.115  -3.888  1.00  0.00    -0.352 N 
ATOM     26  H6  UNL     1       6.757 -14.344  -3.805  1.00  0.00     0.163 HD
BRANCH  25  27
HETATM   27  C20 UNL     1       7.716 -15.650  -5.196  1.00  0.00     0.022 C 
HETATM   28  C21 UNL     1       6.941 -14.907  -6.244  1.00  0.00     0.037 C 
HETATM   29  C22 UNL     1       9.197 -15.497  -5.517  1.00  0.00     0.037 C 
HETATM   30  C23 UNL     1       7.363 -17.125  -5.293  1.00  0.00     0.037 C 
ENDBRANCH  25  27
ENDBRANCH  22  23
ENDBRANCH  20  22
ENDBRANCH  12  14
BRANCH  13  31
HETATM   31  C24 UNL     1      11.320 -14.356   1.255  1.00  0.00     0.132 C 
BRANCH  31  32
HETATM   32  C25 UNL     1      10.841 -13.116   0.493  1.00  0.00     0.024 C 
BRANCH  32  33
HETATM   33  C26 UNL     1      11.395 -13.239  -0.910  1.00  0.00    -0.021 C 
HETATM   34  C27 UNL     1      11.434 -14.670  -1.393  1.00  0.00     0.009 C 
HETATM   35  C28 UNL     1      12.711 -12.545  -1.061  1.00  0.00     0.009 C 
ENDBRANCH  32  33
ENDBRANCH  31  32
ENDBRANCH  13  31
BRANCH   1  36
HETATM   36  O1  UNL     1      13.285 -13.032   2.698  1.00  0.00    -0.339 OA
HETATM   37  C1  UNL     1      14.337 -13.733   2.086  1.00  0.00     0.211 C 
ENDBRANCH   1  36
BRANCH   3  38
HETATM   38  C5  UNL     1      14.205 -11.854   4.774  1.00  0.00     0.062 C 
BRANCH  38  39
HETATM   39  C6  UNL     1      14.194 -10.365   4.693  1.00  0.00     0.127 C 
BRANCH  39  40
HETATM   40  N1  UNL     1      13.026  -9.651   4.336  1.00  0.00    -0.361 N 
HETATM   41  C7  UNL     1      13.031  -8.238   4.191  1.00  0.00     0.213 C 
HETATM   42  C8  UNL     1      11.811  -7.466   3.820  1.00  0.00     0.117 C 
HETATM   43  O2  UNL     1      14.078  -7.578   4.375  1.00  0.00    -0.274 OA
ATOM     44  H1  UNL     1      12.158 -10.164   4.178  1.00  0.00     0.162 HD
ENDBRANCH  39  40
ENDBRANCH  38  39
ENDBRANCH   3  38
TORSDOF 11
ENDMDL
MODEL 3
REMARK VINA RESULT: -7.825894400      3.934     11.884
REMARK  11 active torsions:
REMARK  status: ('A' for Active; 'I' for Inactive)
REMARK    1  A    between atoms: O1_2  and  C2_3 
REMARK    2  A    between atoms: C4_5  and  C5_6 
REMARK    3  A    between atoms: C5_6  and  C6_7 
REMARK    4  A    between atoms: C6_7  and  N1_8 
REMARK       I    between atoms: N1_8  and  C7_10 
REMARK    5  A    between atoms: C14_21  and  C15_22 
REMARK       I    between atoms: C15_22  and  N4_24 
REMARK       I    between atoms: N4_24  and  C16_26 
REMARK       I    between atoms: C16_26  and  N5_28 
REMARK    6  A    between atoms: N5_28  and  C18_30 
REMARK    7  A    between atoms: C18_30  and  C19_31 
REMARK       I    between atoms: C19_31  and  N6_33 
REMARK    8  A    between atoms: N6_33  and  C20_35 
REMARK    9  A    between atoms: N7_39  and  C24_40 
REMARK   10  A    between atoms: C24_40  and  C25_41 
REMARK   11  A    between atoms: C25_41  and  C26_42 
ROOT
HETATM    1  C2  UNL     1       5.999 -17.182  -3.270  1.00  0.00     0.173 A 
HETATM    2  C3  UNL     1       6.028 -17.001  -4.582  1.00  0.00     0.100 A 
HETATM    3  C4  UNL     1       4.931 -17.426  -5.475  1.00  0.00    -0.003 A 
HETATM    4  C9  UNL     1       5.172 -17.237  -6.787  1.00  0.00     0.015 A 
HETATM    5  C10 UNL     1       4.182 -17.619  -7.801  1.00  0.00     0.069 C 
HETATM    6  N2  UNL     1       6.367 -16.655  -7.289  1.00  0.00    -0.349 N 
ATOM      7  H2  UNL     1       6.449 -16.557  -8.301  1.00  0.00     0.167 HD
HETATM    8  C11 UNL     1       7.324 -16.254  -6.595  1.00  0.00     0.084 A 
HETATM    9  C12 UNL     1       8.568 -15.647  -7.110  1.00  0.00     0.089 C 
HETATM   10  N3  UNL     1       7.206 -16.411  -5.161  1.00  0.00    -0.305 N 
HETATM   11  C13 UNL     1       8.307 -16.006  -4.369  1.00  0.00     0.134 A 
HETATM   12  C14 UNL     1       8.257 -16.170  -3.034  1.00  0.00     0.121 A 
HETATM   13  N7  UNL     1       7.114 -16.760  -2.455  1.00  0.00    -0.320 N 
ENDROOT
BRANCH  12  14
HETATM   14  C15 UNL     1       9.435 -15.720  -2.307  1.00  0.00     0.277 C 
HETATM   15  O3  UNL     1      10.561 -15.691  -2.845  1.00  0.00    -0.265 OA
HETATM   16  N4  UNL     1       9.377 -15.286  -0.939  1.00  0.00    -0.274 N 
HETATM   17  C16 UNL     1      10.587 -14.876  -0.275  1.00  0.00     0.325 C 
ATOM     18  H4  UNL     1       8.487 -15.269  -0.441  1.00  0.00     0.173 HD
HETATM   19  O4  UNL     1      11.659 -14.905  -0.900  1.00  0.00    -0.247 OA
HETATM   20  N5  UNL     1      10.547 -14.449   1.073  1.00  0.00    -0.330 N 
HETATM   21  C17 UNL     1      11.800 -14.061   1.709  1.00  0.00     0.155 C 
BRANCH  20  22
HETATM   22  C18 UNL     1       9.338 -14.357   1.862  1.00  0.00     0.229 C 
BRANCH  22  23
HETATM   23  C19 UNL     1       9.503 -14.897   3.235  1.00  0.00     0.236 C 
HETATM   24  O5  UNL     1       9.655 -16.125   3.395  1.00  0.00    -0.272 OA
HETATM   25  N6  UNL     1       9.482 -13.991   4.319  1.00  0.00    -0.352 N 
ATOM     26  H6  UNL     1       9.355 -12.996   4.131  1.00  0.00     0.163 HD
BRANCH  25  27
HETATM   27  C20 UNL     1       9.633 -14.435   5.683  1.00  0.00     0.022 C 
HETATM   28  C21 UNL     1      11.015 -14.980   5.898  1.00  0.00     0.037 C 
HETATM   29  C22 UNL     1       9.436 -13.276   6.651  1.00  0.00     0.037 C 
HETATM   30  C23 UNL     1       8.629 -15.519   6.037  1.00  0.00     0.037 C 
ENDBRANCH  25  27
ENDBRANCH  22  23
ENDBRANCH  20  22
ENDBRANCH  12  14
BRANCH  13  31
HETATM   31  C24 UNL     1       6.960 -16.949  -1.049  1.00  0.00     0.132 C 
BRANCH  31  32
HETATM   32  C25 UNL     1       6.007 -15.922  -0.430  1.00  0.00     0.024 C 
BRANCH  32  33
HETATM   33  C26 UNL     1       5.768 -16.369   0.997  1.00  0.00    -0.021 C 
HETATM   34  C27 UNL     1       6.911 -17.192   1.544  1.00  0.00     0.009 C 
HETATM   35  C28 UNL     1       4.443 -17.044   1.162  1.00  0.00     0.009 C 
ENDBRANCH  32  33
ENDBRANCH  31  32
ENDBRANCH  13  31
BRANCH   1  36
HETATM   36  O1  UNL     1       4.909 -17.791  -2.718  1.00  0.00    -0.339 OA
HETATM   37  C1  UNL     1       4.788 -19.034  -2.077  1.00  0.00     0.211 C 
ENDBRANCH   1  36
BRANCH   3  38
HETATM   38  C5  UNL     1       3.662 -17.886  -4.949  1.00  0.00     0.062 C 
BRANCH  38  39
HETATM   39  C6  UNL     1       2.446 -17.036  -5.101  1.00  0.00     0.127 C 
BRANCH  39  40
HETATM   40  N1  UNL     1       2.195 -15.943  -4.239  1.00  0.00    -0.361 N 
HETATM   41  C7  UNL     1       1.007 -15.170  -4.343  1.00  0.00     0.213 C 
HETATM   42  C8  UNL     1       0.725 -14.011  -3.448  1.00  0.00     0.117 C 
HETATM   43  O2  UNL     1       0.141 -15.438  -5.204  1.00  0.00    -0.274 OA
ATOM     44  H1  UNL     1       2.884 -15.703  -3.526  1.00  0.00     0.162 HD
ENDBRANCH  39  40
ENDBRANCH  38  39
ENDBRANCH   3  38
TORSDOF 11
ENDMDL
MODEL 4
REMARK VINA RESULT: -7.768419051      3.760      8.088
REMARK  11 active torsions:
REMARK  status: ('A' for Active; 'I' for Inactive)
REMARK    1  A    between atoms: O1_2  and  C2_3 
REMARK    2  A    between atoms: C4_5  and  C5_6 
REMARK    3  A    between atoms: C5_6  and  C6_7 
REMARK    4  A    between atoms: C6_7  and  N1_8 
REMARK       I    between atoms: N1_8  and  C7_10 
REMARK    5  A    between atoms: C14_21  and  C15_22 
REMARK       I    between atoms: C15_22  and  N4_24 
REMARK       I    between atoms: N4_24  and  C16_26 
REMARK       I    between atoms: C16_26  and  N5_28 
REMARK    6  A    between atoms: N5_28  and  C18_30 
REMARK    7  A    between atoms: C18_30  and  C19_31 
REMARK       I    between atoms: C19_31  and  N6_33 
REMARK    8  A    between atoms: N6_33  and  C20_35 
REMARK    9  A    between atoms: N7_39  and  C24_40 
REMARK   10  A    between atoms: C24_40  and  C25_41 
REMARK   11  A    between atoms: C25_41  and  C26_42 
ROOT
HETATM    1  C2  UNL     1       8.740 -16.168   0.357  1.00  0.00     0.173 A 
HETATM    2  C3  UNL     1       9.767 -15.395   0.681  1.00  0.00     0.100 A 
HETATM    3  C4  UNL     1      10.219 -15.205   2.074  1.00  0.00    -0.003 A 
HETATM    4  C9  UNL     1      11.223 -14.318   2.219  1.00  0.00     0.015 A 
HETATM    5  C10 UNL     1      11.776 -14.011   3.545  1.00  0.00     0.069 C 
HETATM    6  N2  UNL     1      11.827 -13.631   1.132  1.00  0.00    -0.349 N 
ATOM      7  H2  UNL     1      12.580 -12.980   1.352  1.00  0.00     0.167 HD
HETATM    8  C11 UNL     1      11.512 -13.757  -0.069  1.00  0.00     0.084 A 
HETATM    9  C12 UNL     1      12.134 -13.048  -1.204  1.00  0.00     0.089 C 
HETATM   10  N3  UNL     1      10.431 -14.672  -0.370  1.00  0.00    -0.305 N 
HETATM   11  C13 UNL     1      10.032 -14.785  -1.725  1.00  0.00     0.134 A 
HETATM   12  C14 UNL     1       9.005 -15.593  -2.046  1.00  0.00     0.121 A 
HETATM   13  N7  UNL     1       8.336 -16.297  -1.023  1.00  0.00    -0.320 N 
ENDROOT
BRANCH  12  14
HETATM   14  C15 UNL     1       8.673 -15.644  -3.462  1.00  0.00     0.277 C 
HETATM   15  O3  UNL     1       9.228 -14.892  -4.289  1.00  0.00    -0.265 OA
HETATM   16  N4  UNL     1       7.696 -16.554  -3.993  1.00  0.00    -0.274 N 
HETATM   17  C16 UNL     1       7.401 -16.534  -5.402  1.00  0.00     0.325 C 
ATOM     18  H4  UNL     1       7.214 -17.209  -3.376  1.00  0.00     0.173 HD
HETATM   19  O4  UNL     1       7.999 -15.728  -6.133  1.00  0.00    -0.247 OA
HETATM   20  N5  UNL     1       6.440 -17.421  -5.938  1.00  0.00    -0.330 N 
HETATM   21  C17 UNL     1       6.161 -17.350  -7.368  1.00  0.00     0.155 C 
BRANCH  20  22
HETATM   22  C18 UNL     1       5.721 -18.408  -5.163  1.00  0.00     0.229 C 
BRANCH  22  23
HETATM   23  C19 UNL     1       4.250 -18.216  -5.206  1.00  0.00     0.236 C 
HETATM   24  O5  UNL     1       3.547 -19.016  -5.858  1.00  0.00    -0.272 OA
HETATM   25  N6  UNL     1       3.695 -17.125  -4.501  1.00  0.00    -0.352 N 
ATOM     26  H6  UNL     1       4.316 -16.502  -3.983  1.00  0.00     0.163 HD
BRANCH  25  27
HETATM   27  C20 UNL     1       2.275 -16.868  -4.493  1.00  0.00     0.022 C 
HETATM   28  C21 UNL     1       1.916 -15.989  -3.331  1.00  0.00     0.037 C 
HETATM   29  C22 UNL     1       1.853 -16.148  -5.767  1.00  0.00     0.037 C 
HETATM   30  C23 UNL     1       1.472 -18.153  -4.390  1.00  0.00     0.037 C 
ENDBRANCH  25  27
ENDBRANCH  22  23
ENDBRANCH  20  22
ENDBRANCH  12  14
BRANCH  13  31
HETATM   31  C24 UNL     1       7.257 -17.196  -1.271  1.00  0.00     0.132 C 
BRANCH  31  32
HETATM   32  C25 UNL     1       5.908 -16.472  -1.346  1.00  0.00     0.024 C 
BRANCH  32  33
HETATM   33  C26 UNL     1       4.845 -17.534  -1.159  1.00  0.00    -0.021 C 
HETATM   34  C27 UNL     1       3.781 -17.118  -0.170  1.00  0.00     0.009 C 
HETATM   35  C28 UNL     1       5.433 -18.873  -0.843  1.00  0.00     0.009 C 
ENDBRANCH  32  33
ENDBRANCH  31  32
ENDBRANCH  13  31
BRANCH   1  36
HETATM   36  O1  UNL     1       8.069 -16.816   1.354  1.00  0.00    -0.339 OA
HETATM   37  C1  UNL     1       6.779 -16.608   1.868  1.00  0.00     0.211 C 
ENDBRANCH   1  36
BRANCH   3  38
HETATM   38  C5  UNL     1       9.696 -16.012   3.158  1.00  0.00     0.062 C 
BRANCH  38  39
HETATM   39  C6  UNL     1       8.983 -15.355   4.291  1.00  0.00     0.127 C 
BRANCH  39  40
HETATM   40  N1  UNL     1       9.059 -15.866   5.608  1.00  0.00    -0.361 N 
HETATM   41  C7  UNL     1       9.164 -15.007   6.735  1.00  0.00     0.213 C 
HETATM   42  C8  UNL     1       9.250 -15.524   8.131  1.00  0.00     0.117 C 
HETATM   43  O2  UNL     1       9.190 -13.765   6.594  1.00  0.00    -0.274 OA
ATOM     44  H1  UNL     1       9.038 -16.876   5.753  1.00  0.00     0.162 HD
ENDBRANCH  39  40
ENDBRANCH  38  39
ENDBRANCH   3  38
TORSDOF 11
ENDMDL
MODEL 5
REMARK VINA RESULT: -7.684107612      1.534      2.003
REMARK  11 active torsions:
REMARK  status: ('A' for Active; 'I' for Inactive)
REMARK    1  A    between atoms: O1_2  and  C2_3 
REMARK    2  A    between atoms: C4_5  and  C5_6 
REMARK    3  A    between atoms: C5_6  and  C6_7 
REMARK    4  A    between atoms: C6_7  and  N1_8 
REMARK       I    between atoms: N1_8  and  C7_10 
REMARK    5  A    between atoms: C14_21  and  C15_22 
REMARK       I    between atoms: C15_22  and  N4_24 
REMARK       I    between atoms: N4_24  and  C16_26 
REMARK       I    between atoms: C16_26  and  N5_28 
REMARK    6  A    between atoms: N5_28  and  C18_30 
REMARK    7  A    between atoms: C18_30  and  C19_31 
REMARK       I    between atoms: C19_31  and  N6_33 
REMARK    8  A    between atoms: N6_33  and  C20_35 
REMARK    9  A    between atoms: N7_39  and  C24_40 
REMARK   10  A    between atoms: C24_40  and  C25_41 
REMARK   11  A    between atoms: C25_41  and  C26_42 
ROOT
HETATM    1  C2  UNL     1      12.484 -13.361   5.042  1.00  0.00     0.173 A 
HETATM    2  C3  UNL     1      11.640 -13.847   5.939  1.00  0.00     0.100 A 
HETATM    3  C4  UNL     1      11.731 -13.533   7.379  1.00  0.00    -0.003 A 
HETATM    4  C9  UNL     1      10.840 -14.186   8.151  1.00  0.00     0.015 A 
HETATM    5  C10 UNL     1      10.812 -13.989   9.606  1.00  0.00     0.069 C 
HETATM    6  N2  UNL     1       9.868 -15.086   7.639  1.00  0.00    -0.349 N 
ATOM      7  H2  UNL     1       9.240 -15.528   8.310  1.00  0.00     0.167 HD
HETATM    8  C11 UNL     1       9.719 -15.382   6.435  1.00  0.00     0.084 A 
HETATM    9  C12 UNL     1       8.711 -16.316   5.895  1.00  0.00     0.089 C 
HETATM   10  N3  UNL     1      10.624 -14.762   5.491  1.00  0.00    -0.305 N 
HETATM   11  C13 UNL     1      10.496 -15.130   4.129  1.00  0.00     0.134 A 
HETATM   12  C14 UNL     1      11.342 -14.610   3.221  1.00  0.00     0.121 A 
HETATM   13  N7  UNL     1      12.351 -13.722   3.650  1.00  0.00    -0.320 N 
ENDROOT
BRANCH  12  14
HETATM   14  C15 UNL     1      11.128 -15.046   1.849  1.00  0.00     0.277 C 
HETATM   15  O3  UNL     1      12.055 -15.529   1.168  1.00  0.00    -0.265 OA
HETATM   16  N4  UNL     1       9.850 -14.948   1.200  1.00  0.00    -0.274 N 
HETATM   17  C16 UNL     1       9.717 -15.378  -0.168  1.00  0.00     0.325 C 
ATOM     18  H4  UNL     1       9.044 -14.577   1.703  1.00  0.00     0.173 HD
HETATM   19  O4  UNL     1      10.711 -15.826  -0.760  1.00  0.00    -0.247 OA
HETATM   20  N5  UNL     1       8.466 -15.285  -0.822  1.00  0.00    -0.330 N 
HETATM   21  C17 UNL     1       8.384 -15.715  -2.213  1.00  0.00     0.155 C 
BRANCH  20  22
HETATM   22  C18 UNL     1       7.254 -14.804  -0.196  1.00  0.00     0.229 C 
BRANCH  22  23
HETATM   23  C19 UNL     1       6.311 -15.897   0.150  1.00  0.00     0.236 C 
HETATM   24  O5  UNL     1       6.374 -16.425   1.278  1.00  0.00    -0.272 OA
HETATM   25  N6  UNL     1       5.367 -16.300  -0.821  1.00  0.00    -0.352 N 
ATOM     26  H6  UNL     1       5.357 -15.833  -1.728  1.00  0.00     0.163 HD
BRANCH  25  27
HETATM   27  C20 UNL     1       4.416 -17.355  -0.564  1.00  0.00     0.022 C 
HETATM   28  C21 UNL     1       3.358 -17.366  -1.628  1.00  0.00     0.037 C 
HETATM   29  C22 UNL     1       5.104 -18.713  -0.579  1.00  0.00     0.037 C 
HETATM   30  C23 UNL     1       3.739 -17.185   0.785  1.00  0.00     0.037 C 
ENDBRANCH  25  27
ENDBRANCH  22  23
ENDBRANCH  20  22
ENDBRANCH  12  14
BRANCH  13  31
HETATM   31  C24 UNL     1      13.274 -13.101   2.757  1.00  0.00     0.132 C 
BRANCH  31  32
HETATM   32  C25 UNL     1      12.660 -11.895   2.038  1.00  0.00     0.024 C 
BRANCH  32  33
HETATM   33  C26 UNL     1      12.964 -12.078   0.567  1.00  0.00    -0.021 C 
HETATM   34  C27 UNL     1      11.715 -12.100  -0.283  1.00  0.00     0.009 C 
HETATM   35  C28 UNL     1      13.853 -13.254   0.315  1.00  0.00     0.009 C 
ENDBRANCH  32  33
ENDBRANCH  31  32
ENDBRANCH  13  31
BRANCH   1  36
HETATM   36  O1  UNL     1      13.484 -12.535   5.466  1.00  0.00    -0.339 OA
HETATM   37  C1  UNL     1      14.871 -12.745   5.536  1.00  0.00     0.211 C 
ENDBRANCH   1  36
BRANCH   3  38
HETATM   38  C5  UNL     1      12.629 -12.510   7.876  1.00  0.00     0.062 C 
BRANCH  38  39
HETATM   39  C6  UNL     1      12.152 -11.102   7.994  1.00  0.00     0.127 C 
BRANCH  39  40
HETATM   40  N1  UNL     1      12.026 -10.266   6.860  1.00  0.00    -0.361 N 
HETATM   41  C7  UNL     1      12.576  -8.956   6.837  1.00  0.00     0.213 C 
HETATM   42  C8  UNL     1      12.451  -8.056   5.654  1.00  0.00     0.117 C 
HETATM   43  O2  UNL     1      13.194  -8.501   7.824  1.00  0.00    -0.274 OA
ATOM     44  H1  UNL     1      11.529 -10.611   6.040  1.00  0.00     0.162 HD
ENDBRANCH  39  40
ENDBRANCH  38  39
ENDBRANCH   3  38
TORSDOF 11
ENDMDL
