MODEL 1
REMARK VINA RESULT: -8.729954199      0.000      0.000
REMARK  12 active torsions:
REMARK  status: ('A' for Active; 'I' for Inactive)
REMARK    1  A    between atoms: N1_2  and  C3_4 
REMARK    2  A    between atoms: C3_4  and  C4_6 
REMARK    3  A    between atoms: N3_11  and  C7_12 
REMARK    4  A    between atoms: C7_12  and  C8_13 
REMARK    5  A    between atoms: C8_13  and  C9_14 
REMARK    6  A    between atoms: C9_14  and  C10_15 
REMARK    7  A    between atoms: C10_15  and  C11_16 
REMARK    8  A    between atoms: C11_16  and  N4_17 
REMARK    9  A    between atoms: N5_20  and  C14_21 
REMARK   10  A    between atoms: C14_21  and  C15_22 
REMARK   11  A    between atoms: C15_22  and  O1_23 
REMARK   12  A    between atoms: O1_23  and  C16_24 
ROOT
HETATM    1  N4  UNL     1      10.332 -14.599  -0.708  1.00  0.00     0.094 N 
HETATM    2  C12 UNL     1       9.445 -13.725   0.082  1.00  0.00     0.293 C 
HETATM    3  C13 UNL     1       8.574 -14.549   0.991  1.00  0.00     0.157 C 
HETATM    4  N5  UNL     1       8.540 -15.937   0.619  1.00  0.00    -0.368 N 
HETATM    5  C27 UNL     1       9.775 -16.599   0.482  1.00  0.00     0.093 C 
HETATM    6  C28 UNL     1      10.871 -15.600   0.204  1.00  0.00     0.317 C 
ENDROOT
BRANCH   4   7
HETATM    7  C14 UNL     1       7.465 -16.679   1.145  1.00  0.00     0.089 C 
BRANCH   7   8
HETATM    8  C15 UNL     1       6.106 -16.037   1.029  1.00  0.00     0.220 C 
BRANCH   8   9
HETATM    9  O1  UNL     1       5.757 -15.749  -0.289  1.00  0.00    -0.344 OA
BRANCH   9  10
HETATM   10  C16 UNL     1       5.423 -16.665  -1.259  1.00  0.00     0.096 A 
HETATM   11  C17 UNL     1       4.396 -17.550  -1.041  1.00  0.00     0.039 A 
HETATM   12  C18 UNL     1       4.046 -18.485  -2.023  1.00  0.00     0.004 A 
HETATM   13  C19 UNL     1       4.751 -18.489  -3.193  1.00  0.00     0.016 A 
HETATM   14  C20 UNL     1       5.788 -17.618  -3.450  1.00  0.00     0.021 A 
HETATM   15  C21 UNL     1       6.497 -17.634  -4.632  1.00  0.00     0.056 A 
HETATM   16  C24 UNL     1       6.111 -16.699  -2.452  1.00  0.00     0.079 A 
HETATM   17  N6  UNL     1       6.241 -18.449  -5.572  1.00  0.00    -0.397 N 
HETATM   18  C22 UNL     1       7.541 -16.741  -4.852  1.00  0.00     0.083 A 
ATOM     19  H62 UNL     1       5.476 -19.104  -5.410  1.00  0.00     0.156 HD
ATOM     20  H61 UNL     1       6.766 -18.462  -6.447  1.00  0.00     0.156 HD
HETATM   21  C23 UNL     1       7.834 -15.852  -3.854  1.00  0.00     0.045 A 
HETATM   22  C26 UNL     1       8.443 -16.543  -5.985  1.00  0.00     0.256 A 
HETATM   23  N7  UNL     1       7.131 -15.857  -2.716  1.00  0.00    -0.354 N 
HETATM   24  C25 UNL     1       8.972 -15.003  -4.292  1.00  0.00     0.181 A 
ATOM     25  H7  UNL     1       7.383 -15.176  -1.998  1.00  0.00     0.166 HD
HETATM   26  N8  UNL     1       9.305 -15.477  -5.616  1.00  0.00    -0.351 N 
ATOM     27  H8  UNL     1      10.051 -15.100  -6.201  1.00  0.00     0.163 HD
HETATM   28  O2  UNL     1       8.471 -17.173  -7.076  1.00  0.00    -0.267 OA
ENDBRANCH   9  10
ENDBRANCH   8   9
ENDBRANCH   7   8
ENDBRANCH   4   7
BRANCH   1  29
HETATM   29  C11 UNL     1      11.393 -13.714  -1.222  1.00  0.00     0.273 C 
BRANCH  29  30
HETATM   30  C10 UNL     1      12.484 -13.553  -0.270  1.00  0.00     0.030 C 
BRANCH  30  31
HETATM   31  C9  UNL     1      12.782 -12.183   0.205  1.00  0.00     0.003 C 
BRANCH  31  32
HETATM   32  C8  UNL     1      12.771 -11.845   1.616  1.00  0.00     0.020 C 
BRANCH  32  33
HETATM   33  C7  UNL     1      12.329 -12.714   2.709  1.00  0.00     0.130 C 
BRANCH  33  34
HETATM   34  N3  UNL     1      13.367 -13.472   3.370  1.00  0.00    -0.339 N 
HETATM   35  C4  UNL     1      13.230 -14.057   4.598  1.00  0.00     0.146 A 
HETATM   36  N2  UNL     1      14.377 -14.669   4.935  1.00  0.00    -0.348 N 
HETATM   37  C5  UNL     1      15.266 -14.496   3.949  1.00  0.00     0.107 A 
ATOM     38  H2  UNL     1      14.544 -15.182   5.801  1.00  0.00     0.167 HD
HETATM   39  C6  UNL     1      14.615 -13.751   2.993  1.00  0.00     0.109 A 
BRANCH  35  40
HETATM   40  C3  UNL     1      12.073 -14.057   5.464  1.00  0.00     0.142 C 
HETATM   41  S1  UNL     1      11.998 -12.940   6.657  1.00  0.00    -0.057 SA
BRANCH  40  42
HETATM   42  N1  UNL     1      10.991 -14.968   5.319  1.00  0.00    -0.378 N 
HETATM   43  C1  UNL     1      10.519 -15.465   4.040  1.00  0.00     0.150 C 
HETATM   44  C2  UNL     1      10.290 -15.455   6.495  1.00  0.00     0.150 C 
ENDBRANCH  40  42
ENDBRANCH  35  40
ENDBRANCH  33  34
ENDBRANCH  32  33
ENDBRANCH  31  32
ENDBRANCH  30  31
ENDBRANCH  29  30
ENDBRANCH   1  29
TORSDOF 12
ENDMDL
MODEL 2
REMARK VINA RESULT: -8.617580714      0.662      1.028
REMARK  12 active torsions:
REMARK  status: ('A' for Active; 'I' for Inactive)
REMARK    1  A    between atoms: N1_2  and  C3_4 
REMARK    2  A    between atoms: C3_4  and  C4_6 
REMARK    3  A    between atoms: N3_11  and  C7_12 
REMARK    4  A    between atoms: C7_12  and  C8_13 
REMARK    5  A    between atoms: C8_13  and  C9_14 
REMARK    6  A    between atoms: C9_14  and  C10_15 
REMARK    7  A    between atoms: C10_15  and  C11_16 
REMARK    8  A    between atoms: C11_16  and  N4_17 
REMARK    9  A    between atoms: N5_20  and  C14_21 
REMARK   10  A    between atoms: C14_21  and  C15_22 
REMARK   11  A    between atoms: C15_22  and  O1_23 
REMARK   12  A    between atoms: O1_23  and  C16_24 
ROOT
HETATM    1  N4  UNL     1      10.575 -13.966  -0.247  1.00  0.00     0.094 N 
HETATM    2  C12 UNL     1      10.813 -15.420  -0.197  1.00  0.00     0.293 C 
HETATM    3  C13 UNL     1       9.555 -16.141   0.207  1.00  0.00     0.157 C 
HETATM    4  N5  UNL     1       8.577 -15.266   0.793  1.00  0.00    -0.368 N 
HETATM    5  C27 UNL     1       8.206 -14.127   0.053  1.00  0.00     0.093 C 
HETATM    6  C28 UNL     1       9.299 -13.762  -0.921  1.00  0.00     0.317 C 
ENDROOT
BRANCH   4   7
HETATM    7  C14 UNL     1       7.572 -15.900   1.549  1.00  0.00     0.089 C 
BRANCH   7   8
HETATM    8  C15 UNL     1       6.839 -17.020   0.856  1.00  0.00     0.220 C 
BRANCH   8   9
HETATM    9  O1  UNL     1       6.104 -16.584  -0.245  1.00  0.00    -0.344 OA
BRANCH   9  10
HETATM   10  C16 UNL     1       5.681 -17.361  -1.299  1.00  0.00     0.096 A 
HETATM   11  C17 UNL     1       4.657 -18.258  -1.120  1.00  0.00     0.039 A 
HETATM   12  C18 UNL     1       4.216 -19.052  -2.186  1.00  0.00     0.004 A 
HETATM   13  C19 UNL     1       4.832 -18.909  -3.397  1.00  0.00     0.016 A 
HETATM   14  C20 UNL     1       5.864 -18.021  -3.616  1.00  0.00     0.021 A 
HETATM   15  C21 UNL     1       6.482 -17.888  -4.840  1.00  0.00     0.056 A 
HETATM   16  C24 UNL     1       6.278 -17.245  -2.535  1.00  0.00     0.079 A 
HETATM   17  N6  UNL     1       6.141 -18.570  -5.857  1.00  0.00    -0.397 N 
HETATM   18  C22 UNL     1       7.524 -16.984  -5.022  1.00  0.00     0.083 A 
ATOM     19  H62 UNL     1       5.378 -19.233  -5.723  1.00  0.00     0.156 HD
ATOM     20  H61 UNL     1       6.599 -18.472  -6.763  1.00  0.00     0.156 HD
HETATM   21  C23 UNL     1       7.907 -16.237  -3.942  1.00  0.00     0.045 A 
HETATM   22  C26 UNL     1       8.343 -16.647  -6.185  1.00  0.00     0.256 A 
HETATM   23  N7  UNL     1       7.291 -16.384  -2.763  1.00  0.00    -0.354 N 
HETATM   24  C25 UNL     1       9.025 -15.347  -4.351  1.00  0.00     0.181 A 
ATOM     25  H7  UNL     1       7.609 -15.807  -1.985  1.00  0.00     0.166 HD
HETATM   26  N8  UNL     1       9.250 -15.647  -5.747  1.00  0.00    -0.351 N 
ATOM     27  H8  UNL     1       9.958 -15.203  -6.333  1.00  0.00     0.163 HD
HETATM   28  O2  UNL     1       8.277 -17.128  -7.347  1.00  0.00    -0.267 OA
ENDBRANCH   9  10
ENDBRANCH   8   9
ENDBRANCH   7   8
ENDBRANCH   4   7
BRANCH   1  29
HETATM   29  C11 UNL     1      11.693 -13.415  -1.034  1.00  0.00     0.273 C 
BRANCH  29  30
HETATM   30  C10 UNL     1      12.305 -12.263  -0.386  1.00  0.00     0.030 C 
BRANCH  30  31
HETATM   31  C9  UNL     1      13.073 -12.504   0.856  1.00  0.00     0.003 C 
BRANCH  31  32
HETATM   32  C8  UNL     1      12.576 -12.085   2.154  1.00  0.00     0.020 C 
BRANCH  32  33
HETATM   33  C7  UNL     1      13.373 -11.923   3.372  1.00  0.00     0.130 C 
BRANCH  33  34
HETATM   34  N3  UNL     1      14.118 -13.087   3.797  1.00  0.00    -0.339 N 
HETATM   35  C4  UNL     1      13.671 -13.994   4.716  1.00  0.00     0.146 A 
HETATM   36  N2  UNL     1      14.603 -14.944   4.901  1.00  0.00    -0.348 N 
HETATM   37  C5  UNL     1      15.655 -14.675   4.119  1.00  0.00     0.107 A 
ATOM     38  H2  UNL     1      14.522 -15.739   5.535  1.00  0.00     0.167 HD
HETATM   39  C6  UNL     1      15.329 -13.520   3.446  1.00  0.00     0.109 A 
BRANCH  35  40
HETATM   40  C3  UNL     1      12.413 -14.000   5.428  1.00  0.00     0.142 C 
HETATM   41  S1  UNL     1      12.293 -13.113   6.798  1.00  0.00    -0.057 SA
BRANCH  40  42
HETATM   42  N1  UNL     1      11.270 -14.724   4.987  1.00  0.00    -0.378 N 
HETATM   43  C1  UNL     1      10.941 -14.940   3.590  1.00  0.00     0.150 C 
HETATM   44  C2  UNL     1      10.354 -15.296   5.959  1.00  0.00     0.150 C 
ENDBRANCH  40  42
ENDBRANCH  35  40
ENDBRANCH  33  34
ENDBRANCH  32  33
ENDBRANCH  31  32
ENDBRANCH  30  31
ENDBRANCH  29  30
ENDBRANCH   1  29
TORSDOF 12
ENDMDL
MODEL 3
REMARK VINA RESULT: -8.579792806      1.249      2.059
REMARK  12 active torsions:
REMARK  status: ('A' for Active; 'I' for Inactive)
REMARK    1  A    between atoms: N1_2  and  C3_4 
REMARK    2  A    between atoms: C3_4  and  C4_6 
REMARK    3  A    between atoms: N3_11  and  C7_12 
REMARK    4  A    between atoms: C7_12  and  C8_13 
REMARK    5  A    between atoms: C8_13  and  C9_14 
REMARK    6  A    between atoms: C9_14  and  C10_15 
REMARK    7  A    between atoms: C10_15  and  C11_16 
REMARK    8  A    between atoms: C11_16  and  N4_17 
REMARK    9  A    between atoms: N5_20  and  C14_21 
REMARK   10  A    between atoms: C14_21  and  C15_22 
REMARK   11  A    between atoms: C15_22  and  O1_23 
REMARK   12  A    between atoms: O1_23  and  C16_24 
ROOT
HETATM    1  N4  UNL     1      10.188 -14.785  -0.744  1.00  0.00     0.094 N 
HETATM    2  C12 UNL     1       9.395 -13.793   0.005  1.00  0.00     0.293 C 
HETATM    3  C13 UNL     1       8.550 -14.479   1.045  1.00  0.00     0.157 C 
HETATM    4  N5  UNL     1       8.430 -15.893   0.819  1.00  0.00    -0.368 N 
HETATM    5  C27 UNL     1       9.623 -16.627   0.676  1.00  0.00     0.093 C 
HETATM    6  C28 UNL     1      10.742 -15.717   0.231  1.00  0.00     0.317 C 
ENDROOT
BRANCH   4   7
HETATM    7  C14 UNL     1       7.360 -16.524   1.483  1.00  0.00     0.089 C 
BRANCH   7   8
HETATM    8  C15 UNL     1       5.982 -16.037   1.116  1.00  0.00     0.220 C 
BRANCH   8   9
HETATM    9  O1  UNL     1       5.845 -15.783  -0.247  1.00  0.00    -0.344 OA
BRANCH   9  10
HETATM   10  C16 UNL     1       5.531 -16.705  -1.218  1.00  0.00     0.096 A 
HETATM   11  C17 UNL     1       4.538 -17.627  -0.991  1.00  0.00     0.039 A 
HETATM   12  C18 UNL     1       4.208 -18.569  -1.972  1.00  0.00     0.004 A 
HETATM   13  C19 UNL     1       4.899 -18.544  -3.151  1.00  0.00     0.016 A 
HETATM   14  C20 UNL     1       5.901 -17.636  -3.417  1.00  0.00     0.021 A 
HETATM   15  C21 UNL     1       6.595 -17.624  -4.607  1.00  0.00     0.056 A 
HETATM   16  C24 UNL     1       6.205 -16.711  -2.419  1.00  0.00     0.079 A 
HETATM   17  N6  UNL     1       6.357 -18.443  -5.548  1.00  0.00    -0.397 N 
HETATM   18  C22 UNL     1       7.605 -16.694  -4.837  1.00  0.00     0.083 A 
ATOM     19  H62 UNL     1       5.616 -19.124  -5.379  1.00  0.00     0.156 HD
ATOM     20  H61 UNL     1       6.870 -18.434  -6.429  1.00  0.00     0.156 HD
HETATM   21  C23 UNL     1       7.880 -15.800  -3.838  1.00  0.00     0.045 A 
HETATM   22  C26 UNL     1       8.486 -16.460  -5.980  1.00  0.00     0.256 A 
HETATM   23  N7  UNL     1       7.192 -15.833  -2.691  1.00  0.00    -0.354 N 
HETATM   24  C25 UNL     1       8.982 -14.909  -4.287  1.00  0.00     0.181 A 
ATOM     25  H7  UNL     1       7.429 -15.147  -1.974  1.00  0.00     0.166 HD
HETATM   26  N8  UNL     1       9.315 -15.367  -5.617  1.00  0.00    -0.351 N 
ATOM     27  H8  UNL     1      10.041 -14.962  -6.209  1.00  0.00     0.163 HD
HETATM   28  O2  UNL     1       8.522 -17.085  -7.074  1.00  0.00    -0.267 OA
ENDBRANCH   9  10
ENDBRANCH   8   9
ENDBRANCH   7   8
ENDBRANCH   4   7
BRANCH   1  29
HETATM   29  C11 UNL     1      11.251 -14.010  -1.410  1.00  0.00     0.273 C 
BRANCH  29  30
HETATM   30  C10 UNL     1      11.607 -12.811  -0.662  1.00  0.00     0.030 C 
BRANCH  30  31
HETATM   31  C9  UNL     1      12.994 -12.707  -0.155  1.00  0.00     0.003 C 
BRANCH  31  32
HETATM   32  C8  UNL     1      13.351 -13.136   1.184  1.00  0.00     0.020 C 
BRANCH  32  33
HETATM   33  C7  UNL     1      12.855 -12.561   2.436  1.00  0.00     0.130 C 
BRANCH  33  34
HETATM   34  N3  UNL     1      12.396 -13.508   3.427  1.00  0.00    -0.339 N 
HETATM   35  C4  UNL     1      13.150 -13.952   4.476  1.00  0.00     0.146 A 
HETATM   36  N2  UNL     1      12.441 -14.834   5.199  1.00  0.00    -0.348 N 
HETATM   37  C5  UNL     1      11.233 -14.978   4.641  1.00  0.00     0.107 A 
ATOM     38  H2  UNL     1      12.769 -15.317   6.035  1.00  0.00     0.167 HD
HETATM   39  C6  UNL     1      11.231 -14.146   3.545  1.00  0.00     0.109 A 
BRANCH  35  40
HETATM   40  C3  UNL     1      14.506 -13.586   4.821  1.00  0.00     0.142 C 
HETATM   41  S1  UNL     1      15.731 -14.459   4.176  1.00  0.00    -0.057 SA
BRANCH  40  42
HETATM   42  N1  UNL     1      14.827 -12.497   5.677  1.00  0.00    -0.378 N 
HETATM   43  C1  UNL     1      13.837 -11.606   6.255  1.00  0.00     0.150 C 
HETATM   44  C2  UNL     1      16.213 -12.226   6.017  1.00  0.00     0.150 C 
ENDBRANCH  40  42
ENDBRANCH  35  40
ENDBRANCH  33  34
ENDBRANCH  32  33
ENDBRANCH  31  32
ENDBRANCH  30  31
ENDBRANCH  29  30
ENDBRANCH   1  29
TORSDOF 12
ENDMDL
MODEL 4
REMARK VINA RESULT: -8.567808987      3.048     10.174
REMARK  12 active torsions:
REMARK  status: ('A' for Active; 'I' for Inactive)
REMARK    1  A    between atoms: N1_2  and  C3_4 
REMARK    2  A    between atoms: C3_4  and  C4_6 
REMARK    3  A    between atoms: N3_11  and  C7_12 
REMARK    4  A    between atoms: C7_12  and  C8_13 
REMARK    5  A    between atoms: C8_13  and  C9_14 
REMARK    6  A    between atoms: C9_14  and  C10_15 
REMARK    7  A    between atoms: C10_15  and  C11_16 
REMARK    8  A    between atoms: C11_16  and  N4_17 
REMARK    9  A    between atoms: N5_20  and  C14_21 
REMARK   10  A    between atoms: C14_21  and  C15_22 
REMARK   11  A    between atoms: C15_22  and  O1_23 
REMARK   12  A    between atoms: O1_23  and  C16_24 
ROOT
HETATM    1  N4  UNL     1       7.476 -16.535   0.699  1.00  0.00     0.094 N 
HETATM    2  C12 UNL     1       7.116 -15.252   0.069  1.00  0.00     0.293 C 
HETATM    3  C13 UNL     1       8.161 -14.855  -0.939  1.00  0.00     0.157 C 
HETATM    4  N5  UNL     1       9.390 -15.585  -0.783  1.00  0.00    -0.368 N 
HETATM    5  C27 UNL     1       9.308 -16.990  -0.773  1.00  0.00     0.093 C 
HETATM    6  C28 UNL     1       7.922 -17.427  -0.365  1.00  0.00     0.317 C 
ENDROOT
BRANCH   4   7
HETATM    7  C14 UNL     1      10.519 -15.008  -1.397  1.00  0.00     0.089 C 
BRANCH   7   8
HETATM    8  C15 UNL     1      11.038 -13.746  -0.760  1.00  0.00     0.220 C 
BRANCH   8   9
HETATM    9  O1  UNL     1      10.814 -13.703   0.615  1.00  0.00    -0.344 OA
BRANCH   9  10
HETATM   10  C16 UNL     1      11.778 -13.629   1.593  1.00  0.00     0.096 A 
HETATM   11  C17 UNL     1      13.016 -13.112   1.297  1.00  0.00     0.039 A 
HETATM   12  C18 UNL     1      14.004 -13.029   2.285  1.00  0.00     0.004 A 
HETATM   13  C19 UNL     1      13.702 -13.474   3.541  1.00  0.00     0.016 A 
HETATM   14  C20 UNL     1      12.473 -13.999   3.878  1.00  0.00     0.021 A 
HETATM   15  C21 UNL     1      12.181 -14.451   5.147  1.00  0.00     0.056 A 
HETATM   16  C24 UNL     1      11.511 -14.068   2.871  1.00  0.00     0.079 A 
HETATM   17  N6  UNL     1      13.021 -14.410   6.099  1.00  0.00    -0.397 N 
HETATM   18  C22 UNL     1      10.929 -14.979   5.447  1.00  0.00     0.083 A 
ATOM     19  H62 UNL     1      13.938 -14.022   5.878  1.00  0.00     0.156 HD
ATOM     20  H61 UNL     1      12.804 -14.744   7.038  1.00  0.00     0.156 HD
HETATM   21  C23 UNL     1      10.006 -15.033   4.438  1.00  0.00     0.045 A 
HETATM   22  C26 UNL     1      10.361 -15.523   6.680  1.00  0.00     0.256 A 
HETATM   23  N7  UNL     1      10.315 -14.588   3.214  1.00  0.00    -0.354 N 
HETATM   24  C25 UNL     1       8.753 -15.629   4.970  1.00  0.00     0.181 A 
ATOM     25  H7  UNL     1       9.597 -14.647   2.492  1.00  0.00     0.166 HD
HETATM   26  N8  UNL     1       9.033 -15.911   6.359  1.00  0.00    -0.351 N 
ATOM     27  H8  UNL     1       8.373 -16.329   7.015  1.00  0.00     0.163 HD
HETATM   28  O2  UNL     1      10.912 -15.634   7.807  1.00  0.00    -0.267 OA
ENDBRANCH   9  10
ENDBRANCH   8   9
ENDBRANCH   7   8
ENDBRANCH   4   7
BRANCH   1  29
HETATM   29  C11 UNL     1       6.233 -17.024   1.322  1.00  0.00     0.273 C 
BRANCH  29  30
HETATM   30  C10 UNL     1       5.052 -16.355   0.791  1.00  0.00     0.030 C 
BRANCH  30  31
HETATM   31  C9  UNL     1       4.072 -17.182   0.051  1.00  0.00     0.003 C 
BRANCH  31  32
HETATM   32  C8  UNL     1       3.796 -16.961  -1.357  1.00  0.00     0.020 C 
BRANCH  32  33
HETATM   33  C7  UNL     1       4.790 -16.886  -2.430  1.00  0.00     0.130 C 
BRANCH  33  34
HETATM   34  N3  UNL     1       4.999 -18.103  -3.182  1.00  0.00    -0.339 N 
HETATM   35  C4  UNL     1       5.749 -18.185  -4.321  1.00  0.00     0.146 A 
HETATM   36  N2  UNL     1       5.730 -19.447  -4.782  1.00  0.00    -0.348 N 
HETATM   37  C5  UNL     1       4.979 -20.195  -3.965  1.00  0.00     0.107 A 
ATOM     38  H2  UNL     1       6.209 -19.780  -5.619  1.00  0.00     0.167 HD
HETATM   39  C6  UNL     1       4.537 -19.338  -2.983  1.00  0.00     0.109 A 
BRANCH  35  40
HETATM   40  C3  UNL     1       6.474 -17.130  -4.992  1.00  0.00     0.142 C 
HETATM   41  S1  UNL     1       7.910 -16.657  -4.366  1.00  0.00    -0.057 SA
BRANCH  40  42
HETATM   42  N1  UNL     1       6.009 -16.496  -6.177  1.00  0.00    -0.378 N 
HETATM   43  C1  UNL     1       4.674 -16.674  -6.718  1.00  0.00     0.150 C 
HETATM   44  C2  UNL     1       6.890 -15.611  -6.919  1.00  0.00     0.150 C 
ENDBRANCH  40  42
ENDBRANCH  35  40
ENDBRANCH  33  34
ENDBRANCH  32  33
ENDBRANCH  31  32
ENDBRANCH  30  31
ENDBRANCH  29  30
ENDBRANCH   1  29
TORSDOF 12
ENDMDL
MODEL 5
REMARK VINA RESULT: -8.444400607      1.742      2.326
REMARK  12 active torsions:
REMARK  status: ('A' for Active; 'I' for Inactive)
REMARK    1  A    between atoms: N1_2  and  C3_4 
REMARK    2  A    between atoms: C3_4  and  C4_6 
REMARK    3  A    between atoms: N3_11  and  C7_12 
REMARK    4  A    between atoms: C7_12  and  C8_13 
REMARK    5  A    between atoms: C8_13  and  C9_14 
REMARK    6  A    between atoms: C9_14  and  C10_15 
REMARK    7  A    between atoms: C10_15  and  C11_16 
REMARK    8  A    between atoms: C11_16  and  N4_17 
REMARK    9  A    between atoms: N5_20  and  C14_21 
REMARK   10  A    between atoms: C14_21  and  C15_22 
REMARK   11  A    between atoms: C15_22  and  O1_23 
REMARK   12  A    between atoms: O1_23  and  C16_24 
ROOT
HETATM    1  N4  UNL     1       8.072 -15.260  -0.659  1.00  0.00     0.094 N 
HETATM    2  C12 UNL     1       7.134 -15.254   0.478  1.00  0.00     0.293 C 
HETATM    3  C13 UNL     1       6.735 -16.662   0.833  1.00  0.00     0.157 C 
HETATM    4  N5  UNL     1       7.042 -17.605  -0.207  1.00  0.00    -0.368 N 
HETATM    5  C27 UNL     1       8.368 -17.635  -0.680  1.00  0.00     0.093 C 
HETATM    6  C28 UNL     1       9.046 -16.314  -0.407  1.00  0.00     0.317 C 
ENDROOT
BRANCH   4   7
HETATM    7  C14 UNL     1       6.355 -18.832  -0.134  1.00  0.00     0.089 C 
BRANCH   7   8
HETATM    8  C15 UNL     1       5.110 -18.938  -0.976  1.00  0.00     0.220 C 
BRANCH   8   9
HETATM    9  O1  UNL     1       4.984 -17.890  -1.886  1.00  0.00    -0.344 OA
BRANCH   9  10
HETATM   10  C16 UNL     1       4.794 -18.012  -3.243  1.00  0.00     0.096 A 
HETATM   11  C17 UNL     1       3.669 -18.637  -3.724  1.00  0.00     0.039 A 
HETATM   12  C18 UNL     1       3.465 -18.765  -5.103  1.00  0.00     0.004 A 
HETATM   13  C19 UNL     1       4.410 -18.255  -5.947  1.00  0.00     0.016 A 
HETATM   14  C20 UNL     1       5.552 -17.622  -5.505  1.00  0.00     0.021 A 
HETATM   15  C21 UNL     1       6.501 -17.116  -6.365  1.00  0.00     0.056 A 
HETATM   16  C24 UNL     1       5.725 -17.511  -4.126  1.00  0.00     0.079 A 
HETATM   17  N6  UNL     1       6.390 -17.191  -7.628  1.00  0.00    -0.397 N 
HETATM   18  C22 UNL     1       7.644 -16.488  -5.879  1.00  0.00     0.083 A 
ATOM     19  H62 UNL     1       5.552 -17.651  -7.984  1.00  0.00     0.156 HD
ATOM     20  H61 UNL     1       7.093 -16.816  -8.265  1.00  0.00     0.156 HD
HETATM   21  C23 UNL     1       7.786 -16.394  -4.522  1.00  0.00     0.045 A 
HETATM   22  C26 UNL     1       8.791 -15.876  -6.550  1.00  0.00     0.256 A 
HETATM   23  N7  UNL     1       6.849 -16.894  -3.708  1.00  0.00    -0.354 N 
HETATM   24  C25 UNL     1       9.064 -15.697  -4.223  1.00  0.00     0.181 A 
ATOM     25  H7  UNL     1       6.995 -16.802  -2.702  1.00  0.00     0.166 HD
HETATM   26  N8  UNL     1       9.640 -15.403  -5.516  1.00  0.00    -0.351 N 
ATOM     27  H8  UNL     1      10.529 -14.924  -5.663  1.00  0.00     0.163 HD
HETATM   28  O2  UNL     1       9.004 -15.775  -7.787  1.00  0.00    -0.267 OA
ENDBRANCH   9  10
ENDBRANCH   8   9
ENDBRANCH   7   8
ENDBRANCH   4   7
BRANCH   1  29
HETATM   29  C11 UNL     1       8.706 -13.929  -0.648  1.00  0.00     0.273 C 
BRANCH  29  30
HETATM   30  C10 UNL     1      10.112 -13.987  -1.027  1.00  0.00     0.030 C 
BRANCH  30  31
HETATM   31  C9  UNL     1      11.061 -13.143  -0.268  1.00  0.00     0.003 C 
BRANCH  31  32
HETATM   32  C8  UNL     1      11.654 -13.591   0.978  1.00  0.00     0.020 C 
BRANCH  32  33
HETATM   33  C7  UNL     1      11.249 -13.179   2.324  1.00  0.00     0.130 C 
BRANCH  33  34
HETATM   34  N3  UNL     1      12.036 -13.717   3.411  1.00  0.00    -0.339 N 
HETATM   35  C4  UNL     1      11.561 -14.596   4.343  1.00  0.00     0.146 A 
HETATM   36  N2  UNL     1      12.533 -14.887   5.223  1.00  0.00    -0.348 N 
HETATM   37  C5  UNL     1      13.638 -14.214   4.885  1.00  0.00     0.107 A 
ATOM     38  H2  UNL     1      12.442 -15.519   6.020  1.00  0.00     0.167 HD
HETATM   39  C6  UNL     1      13.303 -13.496   3.760  1.00  0.00     0.109 A 
BRANCH  35  40
HETATM   40  C3  UNL     1      10.235 -15.165   4.442  1.00  0.00     0.142 C 
HETATM   41  S1  UNL     1       9.706 -16.115   3.219  1.00  0.00    -0.057 SA
BRANCH  40  42
HETATM   42  N1  UNL     1       9.377 -14.955   5.557  1.00  0.00    -0.378 N 
HETATM   43  C1  UNL     1       8.991 -16.000   6.487  1.00  0.00     0.150 C 
HETATM   44  C2  UNL     1       8.835 -13.632   5.815  1.00  0.00     0.150 C 
ENDBRANCH  40  42
ENDBRANCH  35  40
ENDBRANCH  33  34
ENDBRANCH  32  33
ENDBRANCH  31  32
ENDBRANCH  30  31
ENDBRANCH  29  30
ENDBRANCH   1  29
TORSDOF 12
ENDMDL
