MODEL 1
REMARK VINA RESULT: -8.174846339      0.000      0.000
REMARK  11 active torsions:
REMARK  status: ('A' for Active; 'I' for Inactive)
REMARK    1  A    between atoms: C3_5  and  C4_6 
REMARK    2  A    between atoms: N4_14  and  C7_15 
REMARK    3  A    between atoms: C7_15  and  C8_16 
REMARK    4  A    between atoms: C8_16  and  O2_17 
REMARK    5  A    between atoms: C8_16  and  N5_19 
REMARK       I    between atoms: N5_19  and  C9_21 
REMARK    6  A    between atoms: C9_21  and  C10_23 
REMARK    7  A    between atoms: C10_23  and  O4_24 
REMARK    8  A    between atoms: C10_23  and  C11_26 
REMARK    9  A    between atoms: C11_26  and  O5_29 
REMARK   10  A    between atoms: C14_31  and  N6_32 
REMARK   11  A    between atoms: C16_40  and  N10_41 
ROOT
HETATM    1  C4  UNL     1     -26.735  -8.912   5.252  1.00  0.00     0.166 A 
HETATM    2  N2  UNL     1     -27.249  -9.104   6.467  1.00  0.00    -0.170 N 
ATOM      3  H2  UNL     1     -28.156  -9.529   6.664  1.00  0.00     0.186 HD
HETATM    4  C5  UNL     1     -26.373  -8.642   7.410  1.00  0.00     0.724 A 
HETATM    5  N3  UNL     1     -26.412  -8.600   8.752  1.00  0.00    -0.138 N 
ATOM      6  H3  UNL     1     -27.218  -8.963   9.262  1.00  0.00     0.189 HD
HETATM    7  C6  UNL     1     -25.347  -8.061   9.419  1.00  0.00     0.355 A 
HETATM    8  O1  UNL     1     -25.388  -8.021  10.667  1.00  0.00    -0.245 OA
HETATM    9  N4  UNL     1     -24.274  -7.576   8.783  1.00  0.00    -0.126 N 
HETATM   10  C14 UNL     1     -24.264  -7.631   7.439  1.00  0.00     0.718 A 
HETATM   11  N7  UNL     1     -25.314  -8.165   6.739  1.00  0.00     0.092 N 
HETATM   12  N8  UNL     1     -25.537  -8.331   5.437  1.00  0.00    -0.247 N 
ATOM     13  H8  UNL     1     -24.896  -8.058   4.692  1.00  0.00     0.190 HD
ENDROOT
BRANCH   9  14
HETATM   14  C7  UNL     1     -23.180  -7.038   9.510  1.00  0.00     0.206 C 
BRANCH  14  15
HETATM   15  C8  UNL     1     -23.309  -5.636   9.992  1.00  0.00     0.239 C 
BRANCH  15  16
HETATM   16  O2  UNL     1     -22.490  -5.416  11.130  1.00  0.00    -0.375 OA
ATOM     17  H2  UNL     1     -22.959  -5.623  11.929  1.00  0.00     0.212 HD
ENDBRANCH  15  16
BRANCH  15  18
HETATM   18  N5  UNL     1     -22.889  -4.663   9.011  1.00  0.00    -0.331 N 
HETATM   19  C9  UNL     1     -23.788  -3.838   8.301  1.00  0.00     0.251 C 
HETATM   20  O3  UNL     1     -25.015  -3.959   8.532  1.00  0.00    -0.270 OA
ATOM     21  H5  UNL     1     -21.892  -4.567   8.820  1.00  0.00     0.165 HD
BRANCH  19  22
HETATM   22  C10 UNL     1     -23.291  -2.865   7.321  1.00  0.00     0.243 C 
BRANCH  22  23
HETATM   23  O4  UNL     1     -23.926  -3.110   6.104  1.00  0.00    -0.383 OA
ATOM     24  H4  UNL     1     -23.524  -3.875   5.708  1.00  0.00     0.210 HD
ENDBRANCH  22  23
BRANCH  22  25
HETATM   25  C11 UNL     1     -23.526  -1.423   7.689  1.00  0.00     0.085 C 
HETATM   26  C12 UNL     1     -23.005  -1.134   9.078  1.00  0.00     0.049 C 
HETATM   27  C13 UNL     1     -22.980  -0.466   6.674  1.00  0.00     0.049 C 
BRANCH  25  28
HETATM   28  O5  UNL     1     -24.914  -1.243   7.759  1.00  0.00    -0.388 OA
ATOM     29  H5  UNL     1     -25.228  -1.794   8.467  1.00  0.00     0.210 HD
ENDBRANCH  25  28
ENDBRANCH  22  25
ENDBRANCH  19  22
ENDBRANCH  15  18
ENDBRANCH  14  15
ENDBRANCH   9  14
BRANCH  10  30
HETATM   30  N6  UNL     1     -23.279  -7.204   6.732  1.00  0.00    -0.232 N 
ATOM     31  H62 UNL     1     -23.191  -6.190   6.660  1.00  0.00     0.174 HD
ATOM     32  H61 UNL     1     -22.625  -7.830   6.261  1.00  0.00     0.174 HD
ENDBRANCH  10  30
BRANCH   1  33
HETATM   33  C3  UNL     1     -27.282  -9.234   3.941  1.00  0.00     0.108 A 
HETATM   34  N1  UNL     1     -26.530  -9.284   2.831  1.00  0.00    -0.342 N 
HETATM   35  C2  UNL     1     -26.990  -9.573   1.622  1.00  0.00     0.079 A 
ATOM     36  H1  UNL     1     -25.534  -9.087   2.923  1.00  0.00     0.167 HD
HETATM   37  C1  UNL     1     -26.093  -9.612   0.418  1.00  0.00     0.089 C 
HETATM   38  N11 UNL     1     -28.305  -9.834   1.493  1.00  0.00    -0.331 N 
HETATM   39  C16 UNL     1     -29.142  -9.811   2.533  1.00  0.00     0.127 A 
ATOM     40  H11 UNL     1     -28.675 -10.056   0.569  1.00  0.00     0.168 HD
HETATM   41  C15 UNL     1     -28.640  -9.507   3.795  1.00  0.00     0.120 A 
HETATM   42  N9  UNL     1     -29.473  -9.463   4.953  1.00  0.00    -0.096 NA
BRANCH  39  43
HETATM   43  N10 UNL     1     -30.394 -10.062   2.402  1.00  0.00    -0.384 N 
ATOM     44 2H10 UNL     1     -31.041  -9.383   1.999  1.00  0.00     0.157 HD
ATOM     45 1H10 UNL     1     -30.755 -10.964   2.710  1.00  0.00     0.157 HD
ENDBRANCH  39  43
ENDBRANCH   1  33
TORSDOF 11
ENDMDL
MODEL 2
REMARK VINA RESULT: -7.977768853      1.303      1.372
REMARK  11 active torsions:
REMARK  status: ('A' for Active; 'I' for Inactive)
REMARK    1  A    between atoms: C3_5  and  C4_6 
REMARK    2  A    between atoms: N4_14  and  C7_15 
REMARK    3  A    between atoms: C7_15  and  C8_16 
REMARK    4  A    between atoms: C8_16  and  O2_17 
REMARK    5  A    between atoms: C8_16  and  N5_19 
REMARK       I    between atoms: N5_19  and  C9_21 
REMARK    6  A    between atoms: C9_21  and  C10_23 
REMARK    7  A    between atoms: C10_23  and  O4_24 
REMARK    8  A    between atoms: C10_23  and  C11_26 
REMARK    9  A    between atoms: C11_26  and  O5_29 
REMARK   10  A    between atoms: C14_31  and  N6_32 
REMARK   11  A    between atoms: C16_40  and  N10_41 
ROOT
HETATM    1  C4  UNL     1     -26.736  -8.933   5.244  1.00  0.00     0.166 A 
HETATM    2  N2  UNL     1     -27.259  -9.089   6.461  1.00  0.00    -0.170 N 
ATOM      3  H2  UNL     1     -28.185  -9.470   6.661  1.00  0.00     0.186 HD
HETATM    4  C5  UNL     1     -26.363  -8.659   7.400  1.00  0.00     0.724 A 
HETATM    5  N3  UNL     1     -26.401  -8.602   8.742  1.00  0.00    -0.138 N 
ATOM      6  H3  UNL     1     -27.223  -8.922   9.254  1.00  0.00     0.189 HD
HETATM    7  C6  UNL     1     -25.313  -8.105   9.404  1.00  0.00     0.355 A 
HETATM    8  O1  UNL     1     -25.352  -8.051  10.651  1.00  0.00    -0.245 OA
HETATM    9  N4  UNL     1     -24.218  -7.677   8.765  1.00  0.00    -0.126 N 
HETATM   10  C14 UNL     1     -24.210  -7.747   7.422  1.00  0.00     0.718 A 
HETATM   11  N7  UNL     1     -25.282  -8.238   6.725  1.00  0.00     0.092 N 
HETATM   12  N8  UNL     1     -25.512  -8.407   5.425  1.00  0.00    -0.247 N 
ATOM     13  H8  UNL     1     -24.859  -8.171   4.678  1.00  0.00     0.190 HD
ENDROOT
BRANCH   9  14
HETATM   14  C7  UNL     1     -23.101  -7.183   9.487  1.00  0.00     0.206 C 
BRANCH  14  15
HETATM   15  C8  UNL     1     -23.164  -5.771   9.954  1.00  0.00     0.239 C 
BRANCH  15  16
HETATM   16  O2  UNL     1     -23.152  -5.706  11.371  1.00  0.00    -0.375 OA
ATOM     17  H2  UNL     1     -22.263  -5.641  11.699  1.00  0.00     0.212 HD
ENDBRANCH  15  16
BRANCH  15  18
HETATM   18  N5  UNL     1     -22.036  -4.983   9.514  1.00  0.00    -0.331 N 
HETATM   19  C9  UNL     1     -21.988  -4.323   8.267  1.00  0.00     0.251 C 
HETATM   20  O3  UNL     1     -22.974  -4.432   7.500  1.00  0.00    -0.270 OA
ATOM     21  H5  UNL     1     -21.233  -4.898  10.137  1.00  0.00     0.165 HD
BRANCH  19  22
HETATM   22  C10 UNL     1     -20.812  -3.533   7.887  1.00  0.00     0.243 C 
BRANCH  22  23
HETATM   23  O4  UNL     1     -20.301  -4.056   6.700  1.00  0.00    -0.383 OA
ATOM     24  H4  UNL     1     -20.835  -3.738   5.981  1.00  0.00     0.210 HD
ENDBRANCH  22  23
BRANCH  22  25
HETATM   25  C11 UNL     1     -21.080  -2.066   7.675  1.00  0.00     0.085 C 
HETATM   26  C12 UNL     1     -21.578  -1.423   8.950  1.00  0.00     0.049 C 
HETATM   27  C13 UNL     1     -19.905  -1.336   7.101  1.00  0.00     0.049 C 
BRANCH  25  28
HETATM   28  O5  UNL     1     -22.141  -1.974   6.764  1.00  0.00    -0.388 OA
ATOM     29  H5  UNL     1     -22.397  -2.863   6.549  1.00  0.00     0.210 HD
ENDBRANCH  25  28
ENDBRANCH  22  25
ENDBRANCH  19  22
ENDBRANCH  15  18
ENDBRANCH  14  15
ENDBRANCH   9  14
BRANCH  10  30
HETATM   30  N6  UNL     1     -23.205  -7.373   6.711  1.00  0.00    -0.232 N 
ATOM     31  H62 UNL     1     -23.340  -6.521   6.165  1.00  0.00     0.174 HD
ATOM     32  H61 UNL     1     -22.327  -7.891   6.680  1.00  0.00     0.174 HD
ENDBRANCH  10  30
BRANCH   1  33
HETATM   33  C3  UNL     1     -27.296  -9.243   3.936  1.00  0.00     0.108 A 
HETATM   34  N1  UNL     1     -26.554  -9.292   2.819  1.00  0.00    -0.342 N 
HETATM   35  C2  UNL     1     -27.027  -9.569   1.613  1.00  0.00     0.079 A 
ATOM     36  H1  UNL     1     -25.556  -9.102   2.905  1.00  0.00     0.167 HD
HETATM   37  C1  UNL     1     -26.140  -9.607   0.400  1.00  0.00     0.089 C 
HETATM   38  N11 UNL     1     -28.344  -9.819   1.493  1.00  0.00    -0.331 N 
HETATM   39  C16 UNL     1     -29.172  -9.797   2.541  1.00  0.00     0.127 A 
ATOM     40  H11 UNL     1     -28.724 -10.033   0.571  1.00  0.00     0.168 HD
HETATM   41  C15 UNL     1     -28.658  -9.505   3.800  1.00  0.00     0.120 A 
HETATM   42  N9  UNL     1     -29.480  -9.463   4.965  1.00  0.00    -0.096 NA
BRANCH  39  43
HETATM   43  N10 UNL     1     -30.428 -10.038   2.419  1.00  0.00    -0.384 N 
ATOM     44 2H10 UNL     1     -31.026 -10.205   3.228  1.00  0.00     0.157 HD
ATOM     45 1H10 UNL     1     -30.840 -10.063   1.486  1.00  0.00     0.157 HD
ENDBRANCH  39  43
ENDBRANCH   1  33
TORSDOF 11
ENDMDL
MODEL 3
REMARK VINA RESULT: -7.933775860      0.850      1.024
REMARK  11 active torsions:
REMARK  status: ('A' for Active; 'I' for Inactive)
REMARK    1  A    between atoms: C3_5  and  C4_6 
REMARK    2  A    between atoms: N4_14  and  C7_15 
REMARK    3  A    between atoms: C7_15  and  C8_16 
REMARK    4  A    between atoms: C8_16  and  O2_17 
REMARK    5  A    between atoms: C8_16  and  N5_19 
REMARK       I    between atoms: N5_19  and  C9_21 
REMARK    6  A    between atoms: C9_21  and  C10_23 
REMARK    7  A    between atoms: C10_23  and  O4_24 
REMARK    8  A    between atoms: C10_23  and  C11_26 
REMARK    9  A    between atoms: C11_26  and  O5_29 
REMARK   10  A    between atoms: C14_31  and  N6_32 
REMARK   11  A    between atoms: C16_40  and  N10_41 
ROOT
HETATM    1  C4  UNL     1     -26.714  -8.913   5.216  1.00  0.00     0.166 A 
HETATM    2  N2  UNL     1     -27.237  -9.030   6.437  1.00  0.00    -0.170 N 
ATOM      3  H2  UNL     1     -28.171  -9.383   6.647  1.00  0.00     0.186 HD
HETATM    4  C5  UNL     1     -26.327  -8.602   7.365  1.00  0.00     0.724 A 
HETATM    5  N3  UNL     1     -26.360  -8.516   8.705  1.00  0.00    -0.138 N 
ATOM      6  H3  UNL     1     -27.188  -8.804   9.226  1.00  0.00     0.189 HD
HETATM    7  C6  UNL     1     -25.258  -8.032   9.354  1.00  0.00     0.355 A 
HETATM    8  O1  UNL     1     -25.293  -7.951  10.600  1.00  0.00    -0.245 OA
HETATM    9  N4  UNL     1     -24.155  -7.645   8.703  1.00  0.00    -0.126 N 
HETATM   10  C14 UNL     1     -24.153  -7.743   7.362  1.00  0.00     0.718 A 
HETATM   11  N7  UNL     1     -25.239  -8.223   6.679  1.00  0.00     0.092 N 
HETATM   12  N8  UNL     1     -25.477  -8.412   5.383  1.00  0.00    -0.247 N 
ATOM     13  H8  UNL     1     -24.820  -8.209   4.629  1.00  0.00     0.190 HD
ENDROOT
BRANCH   9  14
HETATM   14  C7  UNL     1     -23.024  -7.164   9.412  1.00  0.00     0.206 C 
BRANCH  14  15
HETATM   15  C8  UNL     1     -23.060  -5.747   9.866  1.00  0.00     0.239 C 
BRANCH  15  16
HETATM   16  O2  UNL     1     -22.122  -5.526  10.908  1.00  0.00    -0.375 OA
ATOM     17  H2  UNL     1     -22.489  -4.963  11.580  1.00  0.00     0.212 HD
ENDBRANCH  15  16
BRANCH  15  18
HETATM   18  N5  UNL     1     -22.713  -4.812   8.820  1.00  0.00    -0.331 N 
HETATM   19  C9  UNL     1     -22.544  -3.428   9.040  1.00  0.00     0.251 C 
HETATM   20  O3  UNL     1     -22.708  -2.987  10.202  1.00  0.00    -0.270 OA
ATOM     21  H5  UNL     1     -22.584  -5.171   7.875  1.00  0.00     0.165 HD
BRANCH  19  22
HETATM   22  C10 UNL     1     -22.185  -2.537   7.931  1.00  0.00     0.243 C 
BRANCH  22  23
HETATM   23  O4  UNL     1     -21.316  -3.223   7.084  1.00  0.00    -0.383 OA
ATOM     24  H4  UNL     1     -21.783  -3.964   6.717  1.00  0.00     0.210 HD
ENDBRANCH  22  23
BRANCH  22  25
HETATM   25  C11 UNL     1     -23.350  -2.049   7.111  1.00  0.00     0.085 C 
HETATM   26  C12 UNL     1     -24.541  -1.755   7.994  1.00  0.00     0.049 C 
HETATM   27  C13 UNL     1     -23.000  -0.886   6.234  1.00  0.00     0.049 C 
BRANCH  25  28
HETATM   28  O5  UNL     1     -23.742  -3.115   6.289  1.00  0.00    -0.388 OA
ATOM     29  H5  UNL     1     -24.097  -2.734   5.494  1.00  0.00     0.210 HD
ENDBRANCH  25  28
ENDBRANCH  22  25
ENDBRANCH  19  22
ENDBRANCH  15  18
ENDBRANCH  14  15
ENDBRANCH   9  14
BRANCH  10  30
HETATM   30  N6  UNL     1     -23.141  -7.409   6.641  1.00  0.00    -0.232 N 
ATOM     31  H62 UNL     1     -22.506  -8.166   6.389  1.00  0.00     0.174 HD
ATOM     32  H61 UNL     1     -22.970  -6.449   6.340  1.00  0.00     0.174 HD
ENDBRANCH  10  30
BRANCH   1  33
HETATM   33  C3  UNL     1     -27.285  -9.235   3.916  1.00  0.00     0.108 A 
HETATM   34  N1  UNL     1     -26.555  -9.288   2.792  1.00  0.00    -0.342 N 
HETATM   35  C2  UNL     1     -27.038  -9.578   1.593  1.00  0.00     0.079 A 
ATOM     36  H1  UNL     1     -25.557  -9.092   2.866  1.00  0.00     0.167 HD
HETATM   37  C1  UNL     1     -26.163  -9.620   0.372  1.00  0.00     0.089 C 
HETATM   38  N11 UNL     1     -28.355  -9.837   1.489  1.00  0.00    -0.331 N 
HETATM   39  C16 UNL     1     -29.173  -9.812   2.544  1.00  0.00     0.127 A 
ATOM     40  H11 UNL     1     -28.743 -10.061   0.572  1.00  0.00     0.168 HD
HETATM   41  C15 UNL     1     -28.647  -9.507   3.796  1.00  0.00     0.120 A 
HETATM   42  N9  UNL     1     -29.457  -9.461   4.969  1.00  0.00    -0.096 NA
BRANCH  39  43
HETATM   43  N10 UNL     1     -30.428 -10.062   2.437  1.00  0.00    -0.384 N 
ATOM     44 2H10 UNL     1     -30.919 -10.653   3.107  1.00  0.00     0.157 HD
ATOM     45 1H10 UNL     1     -30.949  -9.658   1.660  1.00  0.00     0.157 HD
ENDBRANCH  39  43
ENDBRANCH   1  33
TORSDOF 11
ENDMDL
MODEL 4
REMARK VINA RESULT: -7.903388023      0.837      1.068
REMARK  11 active torsions:
REMARK  status: ('A' for Active; 'I' for Inactive)
REMARK    1  A    between atoms: C3_5  and  C4_6 
REMARK    2  A    between atoms: N4_14  and  C7_15 
REMARK    3  A    between atoms: C7_15  and  C8_16 
REMARK    4  A    between atoms: C8_16  and  O2_17 
REMARK    5  A    between atoms: C8_16  and  N5_19 
REMARK       I    between atoms: N5_19  and  C9_21 
REMARK    6  A    between atoms: C9_21  and  C10_23 
REMARK    7  A    between atoms: C10_23  and  O4_24 
REMARK    8  A    between atoms: C10_23  and  C11_26 
REMARK    9  A    between atoms: C11_26  and  O5_29 
REMARK   10  A    between atoms: C14_31  and  N6_32 
REMARK   11  A    between atoms: C16_40  and  N10_41 
ROOT
HETATM    1  C4  UNL     1     -26.696  -8.906   5.229  1.00  0.00     0.166 A 
HETATM    2  N2  UNL     1     -27.197  -9.074   6.453  1.00  0.00    -0.170 N 
ATOM      3  H2  UNL     1     -28.110  -9.477   6.668  1.00  0.00     0.186 HD
HETATM    4  C5  UNL     1     -26.296  -8.623   7.378  1.00  0.00     0.724 A 
HETATM    5  N3  UNL     1     -26.314  -8.568   8.720  1.00  0.00    -0.138 N 
ATOM      6  H3  UNL     1     -27.120  -8.907   9.246  1.00  0.00     0.189 HD
HETATM    7  C6  UNL     1     -25.228  -8.046   9.366  1.00  0.00     0.355 A 
HETATM    8  O1  UNL     1     -25.249  -7.993  10.614  1.00  0.00    -0.245 OA
HETATM    9  N4  UNL     1     -24.154  -7.592   8.710  1.00  0.00    -0.126 N 
HETATM   10  C14 UNL     1     -24.165  -7.661   7.367  1.00  0.00     0.718 A 
HETATM   11  N7  UNL     1     -25.237  -8.177   6.687  1.00  0.00     0.092 N 
HETATM   12  N8  UNL     1     -25.483  -8.351   5.390  1.00  0.00    -0.247 N 
ATOM     13  H8  UNL     1     -24.847  -8.100   4.634  1.00  0.00     0.190 HD
ENDROOT
BRANCH   9  14
HETATM   14  C7  UNL     1     -23.037  -7.073   9.415  1.00  0.00     0.206 C 
BRANCH  14  15
HETATM   15  C8  UNL     1     -23.229  -5.785  10.136  1.00  0.00     0.239 C 
BRANCH  15  16
HETATM   16  O2  UNL     1     -21.982  -5.238  10.534  1.00  0.00    -0.375 OA
ATOM     17  H2  UNL     1     -21.497  -5.855  11.069  1.00  0.00     0.212 HD
ENDBRANCH  15  16
BRANCH  15  18
HETATM   18  N5  UNL     1     -23.860  -4.773   9.321  1.00  0.00    -0.331 N 
HETATM   19  C9  UNL     1     -23.232  -4.164   8.213  1.00  0.00     0.251 C 
HETATM   20  O3  UNL     1     -22.064  -4.518   7.924  1.00  0.00    -0.270 OA
ATOM     21  H5  UNL     1     -24.809  -4.483   9.558  1.00  0.00     0.165 HD
BRANCH  19  22
HETATM   22  C10 UNL     1     -23.936  -3.147   7.424  1.00  0.00     0.243 C 
BRANCH  22  23
HETATM   23  O4  UNL     1     -25.301  -3.262   7.683  1.00  0.00    -0.383 OA
ATOM     24  H4  UNL     1     -25.734  -2.486   7.346  1.00  0.00     0.210 HD
ENDBRANCH  22  23
BRANCH  22  25
HETATM   25  C11 UNL     1     -23.523  -1.727   7.713  1.00  0.00     0.085 C 
HETATM   26  C12 UNL     1     -23.009  -1.053   6.461  1.00  0.00     0.049 C 
HETATM   27  C13 UNL     1     -24.602  -0.930   8.377  1.00  0.00     0.049 C 
BRANCH  25  28
HETATM   28  O5  UNL     1     -22.427  -1.793   8.584  1.00  0.00    -0.388 OA
ATOM     29  H5  UNL     1     -22.774  -1.741   9.468  1.00  0.00     0.210 HD
ENDBRANCH  25  28
ENDBRANCH  22  25
ENDBRANCH  19  22
ENDBRANCH  15  18
ENDBRANCH  14  15
ENDBRANCH   9  14
BRANCH  10  30
HETATM   30  N6  UNL     1     -23.181  -7.263   6.640  1.00  0.00    -0.232 N 
ATOM     31  H62 UNL     1     -22.581  -7.998   6.265  1.00  0.00     0.174 HD
ATOM     32  H61 UNL     1     -22.996  -6.278   6.452  1.00  0.00     0.174 HD
ENDBRANCH  10  30
BRANCH   1  33
HETATM   33  C3  UNL     1     -27.270  -9.228   3.930  1.00  0.00     0.108 A 
HETATM   34  N1  UNL     1     -26.541  -9.285   2.805  1.00  0.00    -0.342 N 
HETATM   35  C2  UNL     1     -27.025  -9.573   1.606  1.00  0.00     0.079 A 
ATOM     36  H1  UNL     1     -25.542  -9.092   2.878  1.00  0.00     0.167 HD
HETATM   37  C1  UNL     1     -26.151  -9.619   0.385  1.00  0.00     0.089 C 
HETATM   38  N11 UNL     1     -28.343  -9.828   1.503  1.00  0.00    -0.331 N 
HETATM   39  C16 UNL     1     -29.160  -9.799   2.559  1.00  0.00     0.127 A 
ATOM     40  H11 UNL     1     -28.732 -10.051   0.587  1.00  0.00     0.168 HD
HETATM   41  C15 UNL     1     -28.633  -9.494   3.810  1.00  0.00     0.120 A 
HETATM   42  N9  UNL     1     -29.442  -9.444   4.984  1.00  0.00    -0.096 NA
BRANCH  39  43
HETATM   43  N10 UNL     1     -30.416 -10.043   2.453  1.00  0.00    -0.384 N 
ATOM     44 2H10 UNL     1     -31.115  -9.302   2.495  1.00  0.00     0.157 HD
ATOM     45 1H10 UNL     1     -30.725 -11.006   2.322  1.00  0.00     0.157 HD
ENDBRANCH  39  43
ENDBRANCH   1  33
TORSDOF 11
ENDMDL
MODEL 5
REMARK VINA RESULT: -7.871060958      4.033      9.323
REMARK  11 active torsions:
REMARK  status: ('A' for Active; 'I' for Inactive)
REMARK    1  A    between atoms: C3_5  and  C4_6 
REMARK    2  A    between atoms: N4_14  and  C7_15 
REMARK    3  A    between atoms: C7_15  and  C8_16 
REMARK    4  A    between atoms: C8_16  and  O2_17 
REMARK    5  A    between atoms: C8_16  and  N5_19 
REMARK       I    between atoms: N5_19  and  C9_21 
REMARK    6  A    between atoms: C9_21  and  C10_23 
REMARK    7  A    between atoms: C10_23  and  O4_24 
REMARK    8  A    between atoms: C10_23  and  C11_26 
REMARK    9  A    between atoms: C11_26  and  O5_29 
REMARK   10  A    between atoms: C14_31  and  N6_32 
REMARK   11  A    between atoms: C16_40  and  N10_41 
ROOT
HETATM    1  C4  UNL     1     -23.093  -5.550   7.994  1.00  0.00     0.166 A 
HETATM    2  N2  UNL     1     -24.093  -5.984   8.763  1.00  0.00    -0.170 N 
ATOM      3  H2  UNL     1     -24.311  -5.639   9.698  1.00  0.00     0.186 HD
HETATM    4  C5  UNL     1     -24.781  -6.964   8.102  1.00  0.00     0.724 A 
HETATM    5  N3  UNL     1     -25.849  -7.711   8.430  1.00  0.00    -0.138 N 
ATOM      6  H3  UNL     1     -26.308  -7.596   9.333  1.00  0.00     0.189 HD
HETATM    7  C6  UNL     1     -26.305  -8.628   7.524  1.00  0.00     0.355 A 
HETATM    8  O1  UNL     1     -27.297  -9.323   7.833  1.00  0.00    -0.245 OA
HETATM    9  N4  UNL     1     -25.728  -8.806   6.331  1.00  0.00    -0.126 N 
HETATM   10  C14 UNL     1     -24.661  -8.044   6.031  1.00  0.00     0.718 A 
HETATM   11  N7  UNL     1     -24.177  -7.115   6.914  1.00  0.00     0.092 N 
HETATM   12  N8  UNL     1     -23.159  -6.259   6.854  1.00  0.00    -0.247 N 
ATOM     13  H8  UNL     1     -22.525  -6.156   6.062  1.00  0.00     0.190 HD
ENDROOT
BRANCH   9  14
HETATM   14  C7  UNL     1     -26.241  -9.756   5.409  1.00  0.00     0.206 C 
BRANCH  14  15
HETATM   15  C8  UNL     1     -27.120  -9.243   4.324  1.00  0.00     0.239 C 
BRANCH  15  16
HETATM   16  O2  UNL     1     -26.449  -9.270   3.074  1.00  0.00    -0.375 OA
ATOM     17  H2  UNL     1     -26.885  -9.857   2.469  1.00  0.00     0.212 HD
ENDBRANCH  15  16
BRANCH  15  18
HETATM   18  N5  UNL     1     -28.315 -10.037   4.146  1.00  0.00    -0.331 N 
HETATM   19  C9  UNL     1     -29.231  -9.836   3.091  1.00  0.00     0.251 C 
HETATM   20  O3  UNL     1     -28.998  -8.918   2.269  1.00  0.00    -0.270 OA
ATOM     21  H5  UNL     1     -28.506 -10.781   4.817  1.00  0.00     0.165 HD
BRANCH  19  22
HETATM   22  C10 UNL     1     -30.422 -10.685   2.967  1.00  0.00     0.243 C 
BRANCH  22  23
HETATM   23  O4  UNL     1     -31.286 -10.091   2.048  1.00  0.00    -0.383 OA
ATOM     24  H4  UNL     1     -31.241 -10.584   1.237  1.00  0.00     0.210 HD
ENDBRANCH  22  23
BRANCH  22  25
HETATM   25  C11 UNL     1     -30.147 -12.093   2.509  1.00  0.00     0.085 C 
HETATM   26  C12 UNL     1     -28.982 -12.125   1.546  1.00  0.00     0.049 C 
HETATM   27  C13 UNL     1     -29.962 -13.050   3.646  1.00  0.00     0.049 C 
BRANCH  25  28
HETATM   28  O5  UNL     1     -31.263 -12.504   1.768  1.00  0.00    -0.388 OA
ATOM     29  H5  UNL     1     -30.966 -13.187   1.178  1.00  0.00     0.210 HD
ENDBRANCH  25  28
ENDBRANCH  22  25
ENDBRANCH  19  22
ENDBRANCH  15  18
ENDBRANCH  14  15
ENDBRANCH   9  14
BRANCH  10  30
HETATM   30  N6  UNL     1     -24.040  -8.125   4.908  1.00  0.00    -0.232 N 
ATOM     31  H62 UNL     1     -24.184  -8.988   4.383  1.00  0.00     0.174 HD
ATOM     32  H61 UNL     1     -23.431  -7.385   4.558  1.00  0.00     0.174 HD
ENDBRANCH  10  30
BRANCH   1  33
HETATM   33  C3  UNL     1     -22.091  -4.525   8.250  1.00  0.00     0.108 A 
HETATM   34  N1  UNL     1     -21.061  -4.708   9.090  1.00  0.00    -0.342 N 
HETATM   35  C2  UNL     1     -20.130  -3.801   9.350  1.00  0.00     0.079 A 
ATOM     36  H1  UNL     1     -20.989  -5.609   9.563  1.00  0.00     0.167 HD
HETATM   37  C1  UNL     1     -19.001  -4.071  10.304  1.00  0.00     0.089 C 
HETATM   38  N11 UNL     1     -20.220  -2.610   8.730  1.00  0.00    -0.331 N 
HETATM   39  C16 UNL     1     -21.205  -2.323   7.874  1.00  0.00     0.127 A 
ATOM     40  H11 UNL     1     -19.512  -1.900   8.920  1.00  0.00     0.168 HD
HETATM   41  C15 UNL     1     -22.173  -3.288   7.614  1.00  0.00     0.120 A 
HETATM   42  N9  UNL     1     -23.253  -3.055   6.713  1.00  0.00    -0.096 NA
BRANCH  39  43
HETATM   43  N10 UNL     1     -21.283  -1.184   7.286  1.00  0.00    -0.384 N 
ATOM     44 2H10 UNL     1     -22.177  -0.788   6.996  1.00  0.00     0.157 HD
ATOM     45 1H10 UNL     1     -20.428  -0.660   7.103  1.00  0.00     0.157 HD
ENDBRANCH  39  43
ENDBRANCH   1  33
TORSDOF 11
ENDMDL
