MODEL 1
REMARK VINA RESULT: -7.522619466      0.000      0.000
REMARK  10 active torsions:
REMARK  status: ('A' for Active; 'I' for Inactive)
REMARK    1  A    between atoms: C2_2  and  O1_3 
REMARK    2  A    between atoms: C2_2  and  C4_7 
REMARK    3  A    between atoms: C4_7  and  O2_8 
REMARK    4  A    between atoms: C4_7  and  C5_10 
REMARK    5  A    between atoms: C5_10  and  N2_11 
REMARK    6  A    between atoms: C6_14  and  N4_15 
REMARK    7  A    between atoms: N4_15  and  C7_17 
REMARK    8  A    between atoms: C8_21  and  C9_22 
REMARK    9  A    between atoms: C10_27  and  C11_28 
REMARK   10  A    between atoms: C14_36  and  N12_37 
ROOT
HETATM    1  C1  UNL     1     -28.200 -10.333   1.479  1.00  0.00     0.065 C 
HETATM    2  C2  UNL     1     -28.989  -9.753   2.613  1.00  0.00     0.169 C 
HETATM    3  C3  UNL     1     -30.005 -10.691   3.090  1.00  0.00     0.100 C 
HETATM    4  N1  UNL     1     -30.816 -11.435   3.451  1.00  0.00    -0.194 NA
ENDROOT
BRANCH   2   5
HETATM    5  O1  UNL     1     -29.596  -8.542   2.249  1.00  0.00    -0.373 OA
ATOM      6  H1  UNL     1     -29.359  -7.842   2.846  1.00  0.00     0.212 HD
ENDBRANCH   2   5
BRANCH   2   7
HETATM    7  C4  UNL     1     -28.020  -9.511   3.771  1.00  0.00     0.187 C 
BRANCH   7   8
HETATM    8  O2  UNL     1     -27.969 -10.574   4.640  1.00  0.00    -0.390 OA
ATOM      9  H2  UNL     1     -27.712 -11.382   4.209  1.00  0.00     0.210 HD
ENDBRANCH   7   8
BRANCH   7  10
HETATM   10  C5  UNL     1     -26.682  -9.184   3.185  1.00  0.00     0.204 C 
BRANCH  10  11
HETATM   11  N2  UNL     1     -25.752  -8.675   4.148  1.00  0.00    -0.107 N 
HETATM   12  N3  UNL     1     -25.847  -8.646   5.480  1.00  0.00    -0.115 N 
HETATM   13  C6  UNL     1     -24.773  -8.093   6.018  1.00  0.00     0.709 A 
ATOM     14  H3  UNL     1     -26.641  -9.002   6.012  1.00  0.00     0.206 HD
HETATM   15  N11 UNL     1     -23.955  -7.752   5.011  1.00  0.00    -0.020 N 
HETATM   16  C14 UNL     1     -24.570  -8.116   3.867  1.00  0.00     0.707 A 
ATOM     17  H11 UNL     1     -23.043  -7.304   5.094  1.00  0.00     0.203 HD
BRANCH  13  18
HETATM   18  N4  UNL     1     -24.472  -7.869   7.384  1.00  0.00    -0.196 N 
ATOM     19  H4  UNL     1     -24.343  -8.677   7.992  1.00  0.00     0.180 HD
BRANCH  18  20
HETATM   20  C7  UNL     1     -24.341  -6.563   7.949  1.00  0.00     0.272 C 
HETATM   21  N5  UNL     1     -23.587  -5.647   7.074  1.00  0.00    -0.110 NA
HETATM   22  N6  UNL     1     -23.713  -4.387   7.582  1.00  0.00    -0.132 NA
HETATM   23  N7  UNL     1     -23.716  -3.340   6.688  1.00  0.00    -0.113 NA
HETATM   24  C12 UNL     1     -22.783  -4.041   8.648  1.00  0.00     0.159 C 
HETATM   25  C8  UNL     1     -24.175  -2.147   7.348  1.00  0.00     0.282 C 
HETATM   26  N9  UNL     1     -24.193  -2.198   8.781  1.00  0.00    -0.361 N 
HETATM   27  C10 UNL     1     -23.531  -3.100   9.495  1.00  0.00     0.094 C 
ATOM     28  H9  UNL     1     -24.746  -1.501   9.281  1.00  0.00     0.161 HD
HETATM   29  C13 UNL     1     -22.155  -5.209   9.282  1.00  0.00     0.106 C 
HETATM   30  S1  UNL     1     -23.343  -6.595   9.499  1.00  0.00    -0.123 SA
BRANCH  25  31
HETATM   31  C9  UNL     1     -23.376  -0.988   6.861  1.00  0.00     0.271 C 
HETATM   32  N8  UNL     1     -23.215   0.115   7.734  1.00  0.00    -0.059 NA
HETATM   33  O3  UNL     1     -22.845  -0.941   5.730  1.00  0.00    -0.273 OA
ENDBRANCH  25  31
BRANCH  27  34
HETATM   34  C11 UNL     1     -23.629  -3.047  10.917  1.00  0.00     0.278 C 
HETATM   35  N10 UNL     1     -22.754  -2.225  11.672  1.00  0.00    -0.056 NA
HETATM   36  O4  UNL     1     -24.473  -3.711  11.537  1.00  0.00    -0.270 OA
ENDBRANCH  27  34
ENDBRANCH  18  20
ENDBRANCH  13  18
BRANCH  16  37
HETATM   37  N12 UNL     1     -24.005  -7.906   2.711  1.00  0.00    -0.233 N 
ATOM     38 2H12 UNL     1     -24.544  -7.541   1.926  1.00  0.00     0.174 HD
ATOM     39 1H12 UNL     1     -23.037  -8.054   2.425  1.00  0.00     0.174 HD
ENDBRANCH  16  37
ENDBRANCH  10  11
ENDBRANCH   7  10
ENDBRANCH   2   7
TORSDOF 10
ENDMDL
MODEL 2
REMARK VINA RESULT: -7.093483020      1.050      1.059
REMARK  10 active torsions:
REMARK  status: ('A' for Active; 'I' for Inactive)
REMARK    1  A    between atoms: C2_2  and  O1_3 
REMARK    2  A    between atoms: C2_2  and  C4_7 
REMARK    3  A    between atoms: C4_7  and  O2_8 
REMARK    4  A    between atoms: C4_7  and  C5_10 
REMARK    5  A    between atoms: C5_10  and  N2_11 
REMARK    6  A    between atoms: C6_14  and  N4_15 
REMARK    7  A    between atoms: N4_15  and  C7_17 
REMARK    8  A    between atoms: C8_21  and  C9_22 
REMARK    9  A    between atoms: C10_27  and  C11_28 
REMARK   10  A    between atoms: C14_36  and  N12_37 
ROOT
HETATM    1  C1  UNL     1     -28.522 -10.358   2.025  1.00  0.00     0.065 C 
HETATM    2  C2  UNL     1     -29.470  -9.726   2.998  1.00  0.00     0.169 C 
HETATM    3  C3  UNL     1     -30.432 -10.701   3.513  1.00  0.00     0.100 C 
HETATM    4  N1  UNL     1     -31.199 -11.476   3.903  1.00  0.00    -0.194 NA
ENDROOT
BRANCH   2   5
HETATM    5  O1  UNL     1     -30.153  -8.646   2.420  1.00  0.00    -0.373 OA
ATOM      6  H1  UNL     1     -30.984  -8.919   2.050  1.00  0.00     0.212 HD
ENDBRANCH   2   5
BRANCH   2   7
HETATM    7  C4  UNL     1     -28.648  -9.233   4.188  1.00  0.00     0.187 C 
BRANCH   7   8
HETATM    8  O2  UNL     1     -29.343  -9.308   5.371  1.00  0.00    -0.390 OA
ATOM      9  H2  UNL     1     -29.265 -10.162   5.782  1.00  0.00     0.210 HD
ENDBRANCH   7   8
BRANCH   7  10
HETATM   10  C5  UNL     1     -27.374 -10.019   4.219  1.00  0.00     0.204 C 
BRANCH  10  11
HETATM   11  N2  UNL     1     -26.225  -9.221   4.526  1.00  0.00    -0.107 N 
HETATM   12  N3  UNL     1     -25.661  -8.973   5.712  1.00  0.00    -0.115 N 
HETATM   13  C6  UNL     1     -24.607  -8.186   5.579  1.00  0.00     0.709 A 
ATOM     14  H3  UNL     1     -25.999  -9.342   6.602  1.00  0.00     0.206 HD
HETATM   15  N11 UNL     1     -24.479  -7.913   4.272  1.00  0.00    -0.020 N 
HETATM   16  C14 UNL     1     -25.480  -8.555   3.638  1.00  0.00     0.707 A 
ATOM     17  H11 UNL     1     -23.762  -7.330   3.841  1.00  0.00     0.203 HD
BRANCH  13  18
HETATM   18  N4  UNL     1     -23.734  -7.686   6.575  1.00  0.00    -0.196 N 
ATOM     19  H4  UNL     1     -22.910  -8.234   6.819  1.00  0.00     0.180 HD
BRANCH  18  20
HETATM   20  C7  UNL     1     -23.953  -6.448   7.254  1.00  0.00     0.272 C 
HETATM   21  N5  UNL     1     -23.071  -5.375   6.761  1.00  0.00    -0.110 NA
HETATM   22  N6  UNL     1     -23.507  -4.198   7.295  1.00  0.00    -0.132 NA
HETATM   23  N7  UNL     1     -23.343  -3.059   6.539  1.00  0.00    -0.113 NA
HETATM   24  C12 UNL     1     -23.025  -3.898   8.637  1.00  0.00     0.159 C 
HETATM   25  C8  UNL     1     -24.132  -1.994   7.098  1.00  0.00     0.282 C 
HETATM   26  N9  UNL     1     -24.612  -2.211   8.432  1.00  0.00    -0.361 N 
HETATM   27  C10 UNL     1     -24.117  -3.130   9.253  1.00  0.00     0.094 C 
ATOM     28  H9  UNL     1     -25.378  -1.627   8.770  1.00  0.00     0.161 HD
HETATM   29  C13 UNL     1     -22.504  -5.073   9.350  1.00  0.00     0.106 C 
HETATM   30  S1  UNL     1     -23.521  -6.571   9.042  1.00  0.00    -0.123 SA
BRANCH  25  31
HETATM   31  C9  UNL     1     -23.364  -0.722   7.004  1.00  0.00     0.271 C 
HETATM   32  N8  UNL     1     -22.648  -0.470   5.808  1.00  0.00    -0.059 NA
HETATM   33  O3  UNL     1     -23.321   0.129   7.920  1.00  0.00    -0.273 OA
ENDBRANCH  25  31
BRANCH  27  34
HETATM   34  C11 UNL     1     -24.680  -3.250  10.558  1.00  0.00     0.278 C 
HETATM   35  N10 UNL     1     -24.031  -2.677  11.682  1.00  0.00    -0.056 NA
HETATM   36  O4  UNL     1     -25.746  -3.852  10.754  1.00  0.00    -0.270 OA
ENDBRANCH  27  34
ENDBRANCH  18  20
ENDBRANCH  13  18
BRANCH  16  37
HETATM   37  N12 UNL     1     -25.611  -8.472   2.342  1.00  0.00    -0.233 N 
ATOM     38 2H12 UNL     1     -26.234  -7.781   1.925  1.00  0.00     0.174 HD
ATOM     39 1H12 UNL     1     -25.163  -9.021   1.608  1.00  0.00     0.174 HD
ENDBRANCH  16  37
ENDBRANCH  10  11
ENDBRANCH   7  10
ENDBRANCH   2   7
TORSDOF 10
ENDMDL
MODEL 3
REMARK VINA RESULT: -6.949621877      1.552      1.722
REMARK  10 active torsions:
REMARK  status: ('A' for Active; 'I' for Inactive)
REMARK    1  A    between atoms: C2_2  and  O1_3 
REMARK    2  A    between atoms: C2_2  and  C4_7 
REMARK    3  A    between atoms: C4_7  and  O2_8 
REMARK    4  A    between atoms: C4_7  and  C5_10 
REMARK    5  A    between atoms: C5_10  and  N2_11 
REMARK    6  A    between atoms: C6_14  and  N4_15 
REMARK    7  A    between atoms: N4_15  and  C7_17 
REMARK    8  A    between atoms: C8_21  and  C9_22 
REMARK    9  A    between atoms: C10_27  and  C11_28 
REMARK   10  A    between atoms: C14_36  and  N12_37 
ROOT
HETATM    1  C1  UNL     1     -30.212  -9.765   3.832  1.00  0.00     0.065 C 
HETATM    2  C2  UNL     1     -28.766 -10.153   3.748  1.00  0.00     0.169 C 
HETATM    3  C3  UNL     1     -28.237  -9.940   2.401  1.00  0.00     0.100 C 
HETATM    4  N1  UNL     1     -27.830  -9.783   1.327  1.00  0.00    -0.194 NA
ENDROOT
BRANCH   2   5
HETATM    5  O1  UNL     1     -28.571 -11.488   4.129  1.00  0.00    -0.373 OA
ATOM      6  H1  UNL     1     -29.250 -11.782   4.723  1.00  0.00     0.212 HD
ENDBRANCH   2   5
BRANCH   2   7
HETATM    7  C4  UNL     1     -27.987  -9.233   4.688  1.00  0.00     0.187 C 
BRANCH   7   8
HETATM    8  O2  UNL     1     -28.497  -9.238   5.964  1.00  0.00    -0.390 OA
ATOM      9  H2  UNL     1     -28.428 -10.092   6.377  1.00  0.00     0.210 HD
ENDBRANCH   7   8
BRANCH   7  10
HETATM   10  C5  UNL     1     -26.549  -9.646   4.641  1.00  0.00     0.204 C 
BRANCH  10  11
HETATM   11  N2  UNL     1     -25.698  -8.822   5.445  1.00  0.00    -0.107 N 
HETATM   12  N3  UNL     1     -25.782  -8.537   6.748  1.00  0.00    -0.115 N 
HETATM   13  C6  UNL     1     -24.800  -7.735   7.121  1.00  0.00     0.709 A 
ATOM     14  H3  UNL     1     -26.507  -8.892   7.372  1.00  0.00     0.206 HD
HETATM   15  N11 UNL     1     -24.055  -7.488   6.033  1.00  0.00    -0.020 N 
HETATM   16  C14 UNL     1     -24.618  -8.162   5.011  1.00  0.00     0.707 A 
ATOM     17  H11 UNL     1     -23.221  -6.903   5.988  1.00  0.00     0.203 HD
BRANCH  13  18
HETATM   18  N4  UNL     1     -24.522  -7.197   8.401  1.00  0.00    -0.196 N 
ATOM     19  H4  UNL     1     -24.376  -7.841   9.178  1.00  0.00     0.180 HD
BRANCH  18  20
HETATM   20  C7  UNL     1     -24.438  -5.793   8.656  1.00  0.00     0.272 C 
HETATM   21  N5  UNL     1     -23.461  -5.122   7.779  1.00  0.00    -0.110 NA
HETATM   22  N6  UNL     1     -23.618  -3.776   7.933  1.00  0.00    -0.132 NA
HETATM   23  N7  UNL     1     -23.367  -2.980   6.838  1.00  0.00    -0.113 NA
HETATM   24  C12 UNL     1     -22.920  -3.185   9.066  1.00  0.00     0.159 C 
HETATM   25  C8  UNL     1     -23.885  -1.658   7.077  1.00  0.00     0.282 C 
HETATM   26  N9  UNL     1     -24.213  -1.358   8.441  1.00  0.00    -0.361 N 
HETATM   27  C10 UNL     1     -23.775  -2.062   9.477  1.00  0.00     0.094 C 
ATOM     28  H9  UNL     1     -24.818  -0.557   8.625  1.00  0.00     0.161 HD
HETATM   29  C13 UNL     1     -22.514  -4.166  10.083  1.00  0.00     0.106 C 
HETATM   30  S1  UNL     1     -23.801  -5.451  10.351  1.00  0.00    -0.123 SA
BRANCH  25  31
HETATM   31  C9  UNL     1     -22.933  -0.658   6.521  1.00  0.00     0.271 C 
HETATM   32  N8  UNL     1     -22.206   0.142   7.436  1.00  0.00    -0.059 NA
HETATM   33  O3  UNL     1     -22.744  -0.491   5.296  1.00  0.00    -0.273 OA
ENDBRANCH  25  31
BRANCH  27  34
HETATM   34  C11 UNL     1     -24.172  -1.663  10.788  1.00  0.00     0.278 C 
HETATM   35  N10 UNL     1     -25.501  -1.877  11.238  1.00  0.00    -0.056 NA
HETATM   36  O4  UNL     1     -23.379  -1.121  11.572  1.00  0.00    -0.270 OA
ENDBRANCH  27  34
ENDBRANCH  18  20
ENDBRANCH  13  18
BRANCH  16  37
HETATM   37  N12 UNL     1     -24.104  -8.110   3.813  1.00  0.00    -0.233 N 
ATOM     38 2H12 UNL     1     -24.305  -8.838   3.128  1.00  0.00     0.174 HD
ATOM     39 1H12 UNL     1     -23.483  -7.412   3.404  1.00  0.00     0.174 HD
ENDBRANCH  16  37
ENDBRANCH  10  11
ENDBRANCH   7  10
ENDBRANCH   2   7
TORSDOF 10
ENDMDL
MODEL 4
REMARK VINA RESULT: -6.946411624      1.220      1.242
REMARK  10 active torsions:
REMARK  status: ('A' for Active; 'I' for Inactive)
REMARK    1  A    between atoms: C2_2  and  O1_3 
REMARK    2  A    between atoms: C2_2  and  C4_7 
REMARK    3  A    between atoms: C4_7  and  O2_8 
REMARK    4  A    between atoms: C4_7  and  C5_10 
REMARK    5  A    between atoms: C5_10  and  N2_11 
REMARK    6  A    between atoms: C6_14  and  N4_15 
REMARK    7  A    between atoms: N4_15  and  C7_17 
REMARK    8  A    between atoms: C8_21  and  C9_22 
REMARK    9  A    between atoms: C10_27  and  C11_28 
REMARK   10  A    between atoms: C14_36  and  N12_37 
ROOT
HETATM    1  C1  UNL     1     -29.353  -9.476   2.382  1.00  0.00     0.065 C 
HETATM    2  C2  UNL     1     -29.354 -10.248   3.666  1.00  0.00     0.169 C 
HETATM    3  C3  UNL     1     -29.441 -11.688   3.421  1.00  0.00     0.100 C 
HETATM    4  N1  UNL     1     -29.525 -12.825   3.218  1.00  0.00    -0.194 NA
ENDROOT
BRANCH   2   5
HETATM    5  O1  UNL     1     -30.404  -9.846   4.505  1.00  0.00    -0.373 OA
ATOM      6  H1  UNL     1     -30.473 -10.408   5.268  1.00  0.00     0.212 HD
ENDBRANCH   2   5
BRANCH   2   7
HETATM    7  C4  UNL     1     -28.017  -9.989   4.360  1.00  0.00     0.187 C 
BRANCH   7   8
HETATM    8  O2  UNL     1     -27.463 -11.138   4.872  1.00  0.00    -0.390 OA
ATOM      9  H2  UNL     1     -27.105 -11.010   5.743  1.00  0.00     0.210 HD
ENDBRANCH   7   8
BRANCH   7  10
HETATM   10  C5  UNL     1     -27.119  -9.306   3.378  1.00  0.00     0.204 C 
BRANCH  10  11
HETATM   11  N2  UNL     1     -25.948  -8.741   3.980  1.00  0.00    -0.107 N 
HETATM   12  N3  UNL     1     -25.636  -8.625   5.274  1.00  0.00    -0.115 N 
HETATM   13  C6  UNL     1     -24.457  -8.044   5.425  1.00  0.00     0.709 A 
ATOM     14  H3  UNL     1     -26.227  -8.943   6.042  1.00  0.00     0.206 HD
HETATM   15  N11 UNL     1     -23.989  -7.773   4.198  1.00  0.00    -0.020 N 
HETATM   16  C14 UNL     1     -24.915  -8.207   3.320  1.00  0.00     0.707 A 
ATOM     17  H11 UNL     1     -23.101  -7.325   3.973  1.00  0.00     0.203 HD
BRANCH  13  18
HETATM   18  N4  UNL     1     -23.761  -7.734   6.618  1.00  0.00    -0.196 N 
ATOM     19  H4  UNL     1     -23.118  -8.427   7.000  1.00  0.00     0.180 HD
BRANCH  18  20
HETATM   20  C7  UNL     1     -23.917  -6.495   7.313  1.00  0.00     0.272 C 
HETATM   21  N5  UNL     1     -23.088  -5.421   6.736  1.00  0.00    -0.110 NA
HETATM   22  N6  UNL     1     -23.473  -4.244   7.307  1.00  0.00    -0.132 NA
HETATM   23  N7  UNL     1     -23.385  -3.106   6.537  1.00  0.00    -0.113 NA
HETATM   24  C12 UNL     1     -22.867  -3.940   8.596  1.00  0.00     0.159 C 
HETATM   25  C8  UNL     1     -24.120  -2.041   7.167  1.00  0.00     0.282 C 
HETATM   26  N9  UNL     1     -24.470  -2.257   8.541  1.00  0.00    -0.361 N 
HETATM   27  C10 UNL     1     -23.896  -3.173   9.313  1.00  0.00     0.094 C 
ATOM     28  H9  UNL     1     -25.201  -1.674   8.949  1.00  0.00     0.161 HD
HETATM   29  C13 UNL     1     -22.277  -5.112   9.259  1.00  0.00     0.106 C 
HETATM   30  S1  UNL     1     -23.316  -6.614   9.051  1.00  0.00    -0.123 SA
BRANCH  25  31
HETATM   31  C9  UNL     1     -23.367  -0.768   6.997  1.00  0.00     0.271 C 
HETATM   32  N8  UNL     1     -22.639  -0.587   5.797  1.00  0.00    -0.059 NA
HETATM   33  O3  UNL     1     -23.346   0.142   7.855  1.00  0.00    -0.273 OA
ENDBRANCH  25  31
BRANCH  27  34
HETATM   34  C11 UNL     1     -24.332  -3.291  10.666  1.00  0.00     0.278 C 
HETATM   35  N10 UNL     1     -25.622  -3.799  10.969  1.00  0.00    -0.056 NA
HETATM   36  O4  UNL     1     -23.606  -2.959  11.615  1.00  0.00    -0.270 OA
ENDBRANCH  27  34
ENDBRANCH  18  20
ENDBRANCH  13  18
BRANCH  16  37
HETATM   37  N12 UNL     1     -24.729  -8.075   2.035  1.00  0.00    -0.233 N 
ATOM     38 2H12 UNL     1     -25.077  -7.253   1.541  1.00  0.00     0.174 HD
ATOM     39 1H12 UNL     1     -24.258  -8.699   1.380  1.00  0.00     0.174 HD
ENDBRANCH  16  37
ENDBRANCH  10  11
ENDBRANCH   7  10
ENDBRANCH   2   7
TORSDOF 10
ENDMDL
MODEL 5
REMARK VINA RESULT: -6.820954061      1.430      1.578
REMARK  10 active torsions:
REMARK  status: ('A' for Active; 'I' for Inactive)
REMARK    1  A    between atoms: C2_2  and  O1_3 
REMARK    2  A    between atoms: C2_2  and  C4_7 
REMARK    3  A    between atoms: C4_7  and  O2_8 
REMARK    4  A    between atoms: C4_7  and  C5_10 
REMARK    5  A    between atoms: C5_10  and  N2_11 
REMARK    6  A    between atoms: C6_14  and  N4_15 
REMARK    7  A    between atoms: N4_15  and  C7_17 
REMARK    8  A    between atoms: C8_21  and  C9_22 
REMARK    9  A    between atoms: C10_27  and  C11_28 
REMARK   10  A    between atoms: C14_36  and  N12_37 
ROOT
HETATM    1  C1  UNL     1     -27.839  -9.831   1.300  1.00  0.00     0.065 C 
HETATM    2  C2  UNL     1     -28.760  -9.837   2.483  1.00  0.00     0.169 C 
HETATM    3  C3  UNL     1     -29.312 -11.171   2.720  1.00  0.00     0.100 C 
HETATM    4  N1  UNL     1     -29.756 -12.227   2.892  1.00  0.00    -0.194 NA
ENDROOT
BRANCH   2   5
HETATM    5  O1  UNL     1     -29.803  -8.913   2.325  1.00  0.00    -0.373 OA
ATOM      6  H1  UNL     1     -30.313  -8.826   3.122  1.00  0.00     0.212 HD
ENDBRANCH   2   5
BRANCH   2   7
HETATM    7  C4  UNL     1     -27.932  -9.467   3.713  1.00  0.00     0.187 C 
BRANCH   7   8
HETATM    8  O2  UNL     1     -27.946 -10.454   4.669  1.00  0.00    -0.390 OA
ATOM      9  H2  UNL     1     -27.581 -10.162   5.496  1.00  0.00     0.210 HD
ENDBRANCH   7   8
BRANCH   7  10
HETATM   10  C5  UNL     1     -26.548  -9.137   3.248  1.00  0.00     0.204 C 
BRANCH  10  11
HETATM   11  N2  UNL     1     -25.701  -8.648   4.295  1.00  0.00    -0.107 N 
HETATM   12  N3  UNL     1     -25.900  -8.656   5.616  1.00  0.00    -0.115 N 
HETATM   13  C6  UNL     1     -24.877  -8.110   6.252  1.00  0.00     0.709 A 
ATOM     14  H3  UNL     1     -26.730  -9.034   6.074  1.00  0.00     0.206 HD
HETATM   15  N11 UNL     1     -23.987  -7.735   5.321  1.00  0.00    -0.020 N 
HETATM   16  C14 UNL     1     -24.507  -8.072   4.124  1.00  0.00     0.707 A 
ATOM     17  H11 UNL     1     -23.089  -7.282   5.488  1.00  0.00     0.203 HD
BRANCH  13  18
HETATM   18  N4  UNL     1     -24.687  -7.922   7.642  1.00  0.00    -0.196 N 
ATOM     19  H4  UNL     1     -24.921  -8.688   8.273  1.00  0.00     0.180 HD
BRANCH  18  20
HETATM   20  C7  UNL     1     -24.181  -6.708   8.203  1.00  0.00     0.272 C 
HETATM   21  N5  UNL     1     -22.856  -6.352   7.664  1.00  0.00    -0.110 NA
HETATM   22  N6  UNL     1     -22.566  -5.085   8.076  1.00  0.00    -0.132 NA
HETATM   23  N7  UNL     1     -21.804  -4.304   7.235  1.00  0.00    -0.113 NA
HETATM   24  C12 UNL     1     -21.990  -4.971   9.409  1.00  0.00     0.159 C 
HETATM   25  C8  UNL     1     -21.870  -2.932   7.663  1.00  0.00     0.282 C 
HETATM   26  N9  UNL     1     -22.382  -2.718   8.986  1.00  0.00    -0.361 N 
HETATM   27  C10 UNL     1     -22.472  -3.673   9.905  1.00  0.00     0.094 C 
ATOM     28  H9  UNL     1     -22.696  -1.780   9.235  1.00  0.00     0.161 HD
HETATM   29  C13 UNL     1     -22.201  -6.162  10.243  1.00  0.00     0.106 C 
HETATM   30  S1  UNL     1     -23.879  -6.875  10.013  1.00  0.00    -0.123 SA
BRANCH  25  31
HETATM   31  C9  UNL     1     -20.528  -2.309   7.499  1.00  0.00     0.271 C 
HETATM   32  N8  UNL     1     -19.529  -3.061   6.835  1.00  0.00    -0.059 NA
HETATM   33  O3  UNL     1     -20.241  -1.165   7.915  1.00  0.00    -0.273 OA
ENDBRANCH  25  31
BRANCH  27  34
HETATM   34  C11 UNL     1     -23.000  -3.335  11.186  1.00  0.00     0.278 C 
HETATM   35  N10 UNL     1     -22.137  -3.133  12.294  1.00  0.00    -0.056 NA
HETATM   36  O4  UNL     1     -24.219  -3.208  11.375  1.00  0.00    -0.270 OA
ENDBRANCH  27  34
ENDBRANCH  18  20
ENDBRANCH  13  18
BRANCH  16  37
HETATM   37  N12 UNL     1     -23.854  -7.825   3.021  1.00  0.00    -0.233 N 
ATOM     38 2H12 UNL     1     -23.500  -6.890   2.823  1.00  0.00     0.174 HD
ATOM     39 1H12 UNL     1     -23.614  -8.454   2.255  1.00  0.00     0.174 HD
ENDBRANCH  16  37
ENDBRANCH  10  11
ENDBRANCH   7  10
ENDBRANCH   2   7
TORSDOF 10
ENDMDL
