MODEL 1
REMARK VINA RESULT: -4.715334732      0.000      0.000
REMARK  0 active torsions:
REMARK  status: ('A' for Active; 'I' for Inactive)
ROOT
HETATM    1  C1  UNL     1      14.481   4.064  16.633  1.00  0.00     0.032 C 
HETATM    2  C2  UNL     1      15.572   3.048  16.934  1.00  0.00     0.235 C 
HETATM    3  N1  UNL     1      16.372   3.002  15.738  1.00  0.00    -0.047 N 
ATOM      4  H11 UNL     1      16.068   2.290  15.074  1.00  0.00     0.280 HD
ATOM      5  H12 UNL     1      17.312   2.636  15.893  1.00  0.00     0.280 HD
HETATM    6  C3  UNL     1      16.360   4.318  15.200  1.00  0.00     0.211 C 
HETATM    7  C4  UNL     1      15.238   5.089  15.827  1.00  0.00     0.064 C 
HETATM    8  C5  UNL     1      16.269   4.264  13.689  1.00  0.00     0.084 C 
HETATM    9  C6  UNL     1      16.956   5.583  13.339  1.00  0.00     0.143 C 
HETATM   10  N2  UNL     1      17.897   5.697  14.408  1.00  0.00    -0.338 N 
ATOM     11  H2  UNL     1      18.739   6.271  14.359  1.00  0.00     0.179 HD
HETATM   12  N3  UNL     1      17.589   5.036  15.387  1.00  0.00    -0.305 N 
ATOM     13  H3  UNL     1      18.144   4.998  16.241  1.00  0.00     0.182 HD
ENDROOT
TORSDOF 0
ENDMDL
MODEL 2
REMARK VINA RESULT: -4.623805684      4.306      5.455
REMARK  0 active torsions:
REMARK  status: ('A' for Active; 'I' for Inactive)
ROOT
HETATM    1  C1  UNL     1      19.747   4.217  10.503  1.00  0.00     0.032 C 
HETATM    2  C2  UNL     1      18.665   5.229  10.850  1.00  0.00     0.235 C 
HETATM    3  N1  UNL     1      17.451   4.459  10.925  1.00  0.00    -0.047 N 
ATOM      4  H11 UNL     1      16.946   4.414  10.040  1.00  0.00     0.280 HD
ATOM      5  H12 UNL     1      16.716   4.914  11.466  1.00  0.00     0.280 HD
HETATM    6  C3  UNL     1      17.819   3.183  11.432  1.00  0.00     0.211 C 
HETATM    7  C4  UNL     1      19.302   3.016  11.299  1.00  0.00     0.064 C 
HETATM    8  C5  UNL     1      17.035   2.095  10.727  1.00  0.00     0.084 C 
HETATM    9  C6  UNL     1      17.031   1.027  11.821  1.00  0.00     0.143 C 
HETATM   10  N2  UNL     1      17.027   1.837  12.998  1.00  0.00    -0.338 N 
ATOM     11  H2  UNL     1      16.713   1.504  13.909  1.00  0.00     0.179 HD
HETATM   12  N3  UNL     1      17.440   2.968  12.800  1.00  0.00    -0.305 N 
ATOM     13  H3  UNL     1      17.508   3.681  13.526  1.00  0.00     0.182 HD
ENDROOT
TORSDOF 0
ENDMDL
MODEL 3
REMARK VINA RESULT: -4.512297908      1.479      3.078
REMARK  0 active torsions:
REMARK  status: ('A' for Active; 'I' for Inactive)
ROOT
HETATM    1  C1  UNL     1      15.028   6.929  14.646  1.00  0.00     0.032 C 
HETATM    2  C2  UNL     1      16.463   7.191  14.213  1.00  0.00     0.235 C 
HETATM    3  N1  UNL     1      17.237   6.168  14.866  1.00  0.00    -0.047 N 
ATOM      4  H11 UNL     1      17.595   6.451  15.778  1.00  0.00     0.280 HD
ATOM      5  H12 UNL     1      18.140   5.999  14.423  1.00  0.00     0.280 HD
HETATM    6  C3  UNL     1      16.408   5.013  14.918  1.00  0.00     0.211 C 
HETATM    7  C4  UNL     1      14.989   5.422  14.665  1.00  0.00     0.064 C 
HETATM    8  C5  UNL     1      16.591   4.299  16.241  1.00  0.00     0.084 C 
HETATM    9  C6  UNL     1      16.238   2.873  15.818  1.00  0.00     0.143 C 
HETATM   10  N2  UNL     1      16.688   2.868  14.462  1.00  0.00    -0.338 N 
ATOM     11  H2  UNL     1      16.910   2.016  13.946  1.00  0.00     0.179 HD
HETATM   12  N3  UNL     1      16.779   3.987  13.985  1.00  0.00    -0.305 N 
ATOM     13  H3  UNL     1      17.084   4.172  13.030  1.00  0.00     0.182 HD
ENDROOT
TORSDOF 0
ENDMDL
MODEL 4
REMARK VINA RESULT: -4.438237368      4.305      5.419
REMARK  0 active torsions:
REMARK  status: ('A' for Active; 'I' for Inactive)
ROOT
HETATM    1  C1  UNL     1      19.142   0.527  11.211  1.00  0.00     0.032 C 
HETATM    2  C2  UNL     1      17.935  -0.396  11.275  1.00  0.00     0.235 C 
HETATM    3  N1  UNL     1      16.919   0.372  11.944  1.00  0.00    -0.047 N 
ATOM      4  H11 UNL     1      16.913   0.242  12.956  1.00  0.00     0.280 HD
ATOM      5  H12 UNL     1      15.973   0.034  11.768  1.00  0.00     0.280 HD
HETATM    6  C3  UNL     1      17.118   1.725  11.550  1.00  0.00     0.211 C 
HETATM    7  C4  UNL     1      18.488   1.862  10.959  1.00  0.00     0.064 C 
HETATM    8  C5  UNL     1      16.884   2.651  12.726  1.00  0.00     0.084 C 
HETATM    9  C6  UNL     1      16.455   3.914  11.980  1.00  0.00     0.143 C 
HETATM   10  N2  UNL     1      15.802   3.354  10.840  1.00  0.00    -0.338 N 
ATOM     11  H2  UNL     1      15.120   3.861  10.276  1.00  0.00     0.179 HD
HETATM   12  N3  UNL     1      16.146   2.206  10.609  1.00  0.00    -0.305 N 
ATOM     13  H3  UNL     1      15.783   1.651   9.834  1.00  0.00     0.182 HD
ENDROOT
TORSDOF 0
ENDMDL
MODEL 5
REMARK VINA RESULT: -4.354449345      3.411      4.677
REMARK  0 active torsions:
REMARK  status: ('A' for Active; 'I' for Inactive)
ROOT
HETATM    1  C1  UNL     1      17.036   5.281  13.395  1.00  0.00     0.032 C 
HETATM    2  C2  UNL     1      17.129   6.005  12.060  1.00  0.00     0.235 C 
HETATM    3  N1  UNL     1      17.638   5.020  11.143  1.00  0.00    -0.047 N 
ATOM      4  H11 UNL     1      18.655   5.021  11.070  1.00  0.00     0.280 HD
ATOM      5  H12 UNL     1      17.442   5.236  10.165  1.00  0.00     0.280 HD
HETATM    6  C3  UNL     1      17.104   3.770  11.563  1.00  0.00     0.211 C 
HETATM    7  C4  UNL     1      16.590   3.908  12.964  1.00  0.00     0.064 C 
HETATM    8  C5  UNL     1      18.146   2.681  11.418  1.00  0.00     0.084 C 
HETATM    9  C6  UNL     1      17.234   1.471  11.221  1.00  0.00     0.143 C 
HETATM   10  N2  UNL     1      16.126   2.068  10.544  1.00  0.00    -0.338 N 
ATOM     11  H2  UNL     1      15.465   1.541   9.974  1.00  0.00     0.179 HD
HETATM   12  N3  UNL     1      16.052   3.273  10.720  1.00  0.00    -0.305 N 
ATOM     13  H3  UNL     1      15.326   3.861  10.314  1.00  0.00     0.182 HD
ENDROOT
TORSDOF 0
ENDMDL
