MODEL 1
REMARK VINA RESULT: -5.304181700      0.000      0.000
REMARK  2 active torsions:
REMARK  status: ('A' for Active; 'I' for Inactive)
REMARK    1  A    between atoms: C2_2  and  O1_3 
REMARK    2  A    between atoms: O1_3  and  C3_4 
REMARK       I    between atoms: C3_4  and  N1_6 
REMARK       I    between atoms: N1_6  and  C5_8 
ROOT
HETATM    1  C3  UNL     1      16.342   3.960  13.731  1.00  0.00     0.368 C 
HETATM    2  O2  UNL     1      16.216   4.919  12.934  1.00  0.00    -0.238 OA
HETATM    3  N1  UNL     1      15.927   4.044  15.078  1.00  0.00    -0.272 N 
HETATM    4  C4  UNL     1      15.339   5.274  15.557  1.00  0.00     0.164 C 
HETATM    5  C5  UNL     1      16.078   2.953  15.956  1.00  0.00     0.192 C 
HETATM    6  N2  UNL     1      15.695   3.049  17.177  1.00  0.00    -0.373 N 
ATOM      7  H21 UNL     1      15.805   2.259  17.813  1.00  0.00     0.158 HD
ATOM      8  H22 UNL     1      15.278   3.909  17.534  1.00  0.00     0.158 HD
HETATM    9  N3  UNL     1      16.660   1.754  15.460  1.00  0.00    -0.063 NA
ENDROOT
BRANCH   1  10
HETATM   10  O1  UNL     1      16.909   2.804  13.230  1.00  0.00    -0.304 OA
BRANCH  10  11
HETATM   11  C2  UNL     1      16.793   2.353  11.913  1.00  0.00     0.176 C 
HETATM   12  C1  UNL     1      17.126   0.896  11.736  1.00  0.00     0.034 C 
ENDBRANCH  10  11
ENDBRANCH   1  10
TORSDOF 2
ENDMDL
MODEL 2
REMARK VINA RESULT: -5.224394629      0.972      1.004
REMARK  2 active torsions:
REMARK  status: ('A' for Active; 'I' for Inactive)
REMARK    1  A    between atoms: C2_2  and  O1_3 
REMARK    2  A    between atoms: O1_3  and  C3_4 
REMARK       I    between atoms: C3_4  and  N1_6 
REMARK       I    between atoms: N1_6  and  C5_8 
ROOT
HETATM    1  C3  UNL     1      15.866   4.385  14.567  1.00  0.00     0.368 C 
HETATM    2  O2  UNL     1      15.520   5.405  13.925  1.00  0.00    -0.238 OA
HETATM    3  N1  UNL     1      15.390   4.120  15.869  1.00  0.00    -0.272 N 
HETATM    4  C4  UNL     1      14.476   5.054  16.487  1.00  0.00     0.164 C 
HETATM    5  C5  UNL     1      15.792   2.967  16.571  1.00  0.00     0.192 C 
HETATM    6  N2  UNL     1      15.349   2.745  17.755  1.00  0.00    -0.373 N 
ATOM      7  H21 UNL     1      15.641   1.910  18.263  1.00  0.00     0.158 HD
ATOM      8  H22 UNL     1      14.703   3.392  18.207  1.00  0.00     0.158 HD
HETATM    9  N3  UNL     1      16.693   2.065  15.941  1.00  0.00    -0.063 NA
ENDROOT
BRANCH   1  10
HETATM   10  O1  UNL     1      16.742   3.520  13.937  1.00  0.00    -0.304 OA
BRANCH  10  11
HETATM   11  C2  UNL     1      16.767   3.254  12.566  1.00  0.00     0.176 C 
HETATM   12  C1  UNL     1      17.025   1.809  12.231  1.00  0.00     0.034 C 
ENDBRANCH  10  11
ENDBRANCH   1  10
TORSDOF 2
ENDMDL
MODEL 3
REMARK VINA RESULT: -5.028321269      2.193      3.783
REMARK  2 active torsions:
REMARK  status: ('A' for Active; 'I' for Inactive)
REMARK    1  A    between atoms: C2_2  and  O1_3 
REMARK    2  A    between atoms: O1_3  and  C3_4 
REMARK       I    between atoms: C3_4  and  N1_6 
REMARK       I    between atoms: N1_6  and  C5_8 
ROOT
HETATM    1  C3  UNL     1      16.010   4.405  15.617  1.00  0.00     0.368 C 
HETATM    2  O2  UNL     1      15.702   5.613  15.759  1.00  0.00    -0.238 OA
HETATM    3  N1  UNL     1      16.346   3.859  14.359  1.00  0.00    -0.272 N 
HETATM    4  C4  UNL     1      16.336   4.715  13.195  1.00  0.00     0.164 C 
HETATM    5  C5  UNL     1      16.689   2.500  14.224  1.00  0.00     0.192 C 
HETATM    6  N2  UNL     1      16.991   2.021  13.072  1.00  0.00    -0.373 N 
ATOM      7  H21 UNL     1      17.239   1.037  12.974  1.00  0.00     0.158 HD
ATOM      8  H22 UNL     1      16.989   2.610  12.239  1.00  0.00     0.158 HD
HETATM    9  N3  UNL     1      16.692   1.679  15.385  1.00  0.00    -0.063 NA
ENDROOT
BRANCH   1  10
HETATM   10  O1  UNL     1      16.007   3.623  16.757  1.00  0.00    -0.304 OA
BRANCH  10  11
HETATM   11  C2  UNL     1      15.010   3.627  17.735  1.00  0.00     0.176 C 
HETATM   12  C1  UNL     1      13.689   3.086  17.260  1.00  0.00     0.034 C 
ENDBRANCH  10  11
ENDBRANCH   1  10
TORSDOF 2
ENDMDL
MODEL 4
REMARK VINA RESULT: -4.978226670      1.408      2.450
REMARK  2 active torsions:
REMARK  status: ('A' for Active; 'I' for Inactive)
REMARK    1  A    between atoms: C2_2  and  O1_3 
REMARK    2  A    between atoms: O1_3  and  C3_4 
REMARK       I    between atoms: C3_4  and  N1_6 
REMARK       I    between atoms: N1_6  and  C5_8 
ROOT
HETATM    1  C3  UNL     1      16.452   2.654  14.812  1.00  0.00     0.368 C 
HETATM    2  O2  UNL     1      16.767   1.547  15.309  1.00  0.00    -0.238 OA
HETATM    3  N1  UNL     1      15.860   3.680  15.580  1.00  0.00    -0.272 N 
HETATM    4  C4  UNL     1      15.606   3.451  16.984  1.00  0.00     0.164 C 
HETATM    5  C5  UNL     1      15.514   4.917  15.000  1.00  0.00     0.192 C 
HETATM    6  N2  UNL     1      14.976   5.837  15.715  1.00  0.00    -0.373 N 
ATOM      7  H21 UNL     1      14.726   6.732  15.295  1.00  0.00     0.158 HD
ATOM      8  H22 UNL     1      14.790   5.694  16.707  1.00  0.00     0.158 HD
HETATM    9  N3  UNL     1      15.774   5.117  13.616  1.00  0.00    -0.063 NA
ENDROOT
BRANCH   1  10
HETATM   10  O1  UNL     1      16.713   2.830  13.466  1.00  0.00    -0.304 OA
BRANCH  10  11
HETATM   11  C2  UNL     1      16.997   1.806  12.559  1.00  0.00     0.176 C 
HETATM   12  C1  UNL     1      16.569   2.107  11.148  1.00  0.00     0.034 C 
ENDBRANCH  10  11
ENDBRANCH   1  10
TORSDOF 2
ENDMDL
MODEL 5
REMARK VINA RESULT: -4.964400322      2.491      3.924
REMARK  2 active torsions:
REMARK  status: ('A' for Active; 'I' for Inactive)
REMARK    1  A    between atoms: C2_2  and  O1_3 
REMARK    2  A    between atoms: O1_3  and  C3_4 
REMARK       I    between atoms: C3_4  and  N1_6 
REMARK       I    between atoms: N1_6  and  C5_8 
ROOT
HETATM    1  C3  UNL     1      14.809   4.778  16.273  1.00  0.00     0.368 C 
HETATM    2  O2  UNL     1      14.004   5.285  17.090  1.00  0.00    -0.238 OA
HETATM    3  N1  UNL     1      15.435   3.535  16.509  1.00  0.00    -0.272 N 
HETATM    4  C4  UNL     1      15.142   2.821  17.731  1.00  0.00     0.164 C 
HETATM    5  C5  UNL     1      16.336   2.984  15.577  1.00  0.00     0.192 C 
HETATM    6  N2  UNL     1      16.895   1.852  15.810  1.00  0.00    -0.373 N 
ATOM      7  H21 UNL     1      17.548   1.454  15.135  1.00  0.00     0.158 HD
ATOM      8  H22 UNL     1      16.700   1.334  16.667  1.00  0.00     0.158 HD
HETATM    9  N3  UNL     1      16.607   3.706  14.383  1.00  0.00    -0.063 NA
ENDROOT
BRANCH   1  10
HETATM   10  O1  UNL     1      15.060   5.495  15.118  1.00  0.00    -0.304 OA
BRANCH  10  11
HETATM   11  C2  UNL     1      15.190   6.884  15.043  1.00  0.00     0.176 C 
HETATM   12  C1  UNL     1      16.609   7.355  14.869  1.00  0.00     0.034 C 
ENDBRANCH  10  11
ENDBRANCH   1  10
TORSDOF 2
ENDMDL
