MODEL 1
REMARK VINA RESULT: -5.529184201      0.000      0.000
REMARK  0 active torsions:
REMARK  status: ('A' for Active; 'I' for Inactive)
ROOT
HETATM    1  C1  UNL     1      14.607   5.672  16.222  1.00  0.00     0.035 C 
HETATM    2  C2  UNL     1      15.515   4.554  16.625  1.00  0.00     0.107 C 
HETATM    3  N1  UNL     1      15.903   3.702  15.525  1.00  0.00    -0.358 N 
ATOM      4  H1  UNL     1      15.928   3.951  14.536  1.00  0.00     0.162 HD
HETATM    5  C3  UNL     1      16.243   2.448  16.099  1.00  0.00     0.185 C 
HETATM    6  N2  UNL     1      17.116   1.447  15.534  1.00  0.00    -0.064 NA
HETATM    7  N3  UNL     1      15.630   2.352  17.229  1.00  0.00    -0.354 N 
ATOM      8  H3  UNL     1      15.697   1.545  17.851  1.00  0.00     0.163 HD
HETATM    9  C4  UNL     1      14.832   3.529  17.508  1.00  0.00     0.045 C 
HETATM   10  C5  UNL     1      13.440   3.262  17.019  1.00  0.00     0.040 C 
HETATM   11  C6  UNL     1      14.896   3.938  18.942  1.00  0.00     0.040 C 
ENDROOT
TORSDOF 0
ENDMDL
MODEL 2
REMARK VINA RESULT: -5.244879002      1.791      3.084
REMARK  0 active torsions:
REMARK  status: ('A' for Active; 'I' for Inactive)
ROOT
HETATM    1  C1  UNL     1      14.904   6.484  15.400  1.00  0.00     0.035 C 
HETATM    2  C2  UNL     1      14.993   4.992  15.330  1.00  0.00     0.107 C 
HETATM    3  N1  UNL     1      15.051   4.358  16.627  1.00  0.00    -0.358 N 
ATOM      4  H1  UNL     1      14.705   4.735  17.509  1.00  0.00     0.162 HD
HETATM    5  C3  UNL     1      15.685   3.103  16.424  1.00  0.00     0.185 C 
HETATM    6  N2  UNL     1      15.562   1.928  17.253  1.00  0.00    -0.064 NA
HETATM    7  N3  UNL     1      16.403   3.192  15.357  1.00  0.00    -0.354 N 
ATOM      8  H3  UNL     1      16.969   2.430  14.981  1.00  0.00     0.163 HD
HETATM    9  C4  UNL     1      16.310   4.507  14.755  1.00  0.00     0.045 C 
HETATM   10  C5  UNL     1      17.446   5.331  15.282  1.00  0.00     0.040 C 
HETATM   11  C6  UNL     1      16.249   4.452  13.265  1.00  0.00     0.040 C 
ENDROOT
TORSDOF 0
ENDMDL
MODEL 3
REMARK VINA RESULT: -4.918031252      4.102      5.502
REMARK  0 active torsions:
REMARK  status: ('A' for Active; 'I' for Inactive)
ROOT
HETATM    1  C1  UNL     1      16.937   4.791  11.261  1.00  0.00     0.035 C 
HETATM    2  C2  UNL     1      16.446   3.579  11.988  1.00  0.00     0.107 C 
HETATM    3  N1  UNL     1      16.823   3.551  13.382  1.00  0.00    -0.358 N 
ATOM      4  H1  UNL     1      17.051   4.352  13.971  1.00  0.00     0.162 HD
HETATM    5  C3  UNL     1      16.812   2.184  13.766  1.00  0.00     0.185 C 
HETATM    6  N2  UNL     1      16.645   1.662  15.102  1.00  0.00    -0.064 NA
HETATM    7  N3  UNL     1      16.980   1.473  12.703  1.00  0.00    -0.354 N 
ATOM      8  H3  UNL     1      17.014   0.454  12.694  1.00  0.00     0.163 HD
HETATM    9  C4  UNL     1      17.116   2.301  11.521  1.00  0.00     0.045 C 
HETATM   10  C5  UNL     1      18.579   2.531  11.291  1.00  0.00     0.040 C 
HETATM   11  C6  UNL     1      16.404   1.732  10.339  1.00  0.00     0.040 C 
ENDROOT
TORSDOF 0
ENDMDL
MODEL 4
REMARK VINA RESULT: -4.683855976      1.648      2.601
REMARK  0 active torsions:
REMARK  status: ('A' for Active; 'I' for Inactive)
ROOT
HETATM    1  C1  UNL     1      17.564   5.720  14.636  1.00  0.00     0.035 C 
HETATM    2  C2  UNL     1      16.787   5.098  15.753  1.00  0.00     0.107 C 
HETATM    3  N1  UNL     1      16.873   3.656  15.779  1.00  0.00    -0.358 N 
ATOM      4  H1  UNL     1      17.618   3.079  15.390  1.00  0.00     0.162 HD
HETATM    5  C3  UNL     1      15.709   3.204  16.457  1.00  0.00     0.185 C 
HETATM    6  N2  UNL     1      15.545   1.950  17.152  1.00  0.00    -0.064 NA
HETATM    7  N3  UNL     1      14.807   4.120  16.346  1.00  0.00    -0.354 N 
ATOM      8  H3  UNL     1      13.869   4.051  16.742  1.00  0.00     0.163 HD
HETATM    9  C4  UNL     1      15.289   5.257  15.588  1.00  0.00     0.045 C 
HETATM   10  C5  UNL     1      14.895   5.051  14.157  1.00  0.00     0.040 C 
HETATM   11  C6  UNL     1      14.829   6.559  16.156  1.00  0.00     0.040 C 
ENDROOT
TORSDOF 0
ENDMDL
MODEL 5
REMARK VINA RESULT: -4.596242125      2.270      3.605
REMARK  0 active torsions:
REMARK  status: ('A' for Active; 'I' for Inactive)
ROOT
HETATM    1  C1  UNL     1      15.116   6.788  15.337  1.00  0.00     0.035 C 
HETATM    2  C2  UNL     1      15.334   5.395  14.837  1.00  0.00     0.107 C 
HETATM    3  N1  UNL     1      15.597   4.441  15.890  1.00  0.00    -0.358 N 
ATOM      4  H1  UNL     1      15.321   4.517  16.868  1.00  0.00     0.162 HD
HETATM    5  C3  UNL     1      16.318   3.376  15.285  1.00  0.00     0.185 C 
HETATM    6  N2  UNL     1      16.399   2.013  15.752  1.00  0.00    -0.064 NA
HETATM    7  N3  UNL     1      16.899   3.841  14.232  1.00  0.00    -0.354 N 
ATOM      8  H3  UNL     1      17.486   3.285  13.609  1.00  0.00     0.163 HD
HETATM    9  C4  UNL     1      16.616   5.249  14.041  1.00  0.00     0.045 C 
HETATM   10  C5  UNL     1      17.723   6.028  14.684  1.00  0.00     0.040 C 
HETATM   11  C6  UNL     1      16.391   5.599  12.607  1.00  0.00     0.040 C 
ENDROOT
TORSDOF 0
ENDMDL
