MODEL 1
REMARK VINA RESULT: -5.561401929      0.000      0.000
REMARK  1 active torsions:
REMARK  status: ('A' for Active; 'I' for Inactive)
REMARK    1  A    between atoms: N2_4  and  C2_6 
ROOT
HETATM    1  C2  UNL     1      16.364   3.691  16.205  1.00  0.00     0.156 A 
HETATM    2  N3  UNL     1      16.693   2.390  16.337  1.00  0.00    -0.267 N 
ATOM      3  H3  UNL     1      17.551   1.955  15.994  1.00  0.00     0.186 HD
HETATM    4  N4  UNL     1      15.719   1.773  16.984  1.00  0.00    -0.021 NA
HETATM    5  N5  UNL     1      14.746   2.613  17.292  1.00  0.00    -0.285 N 
ATOM      6  H5  UNL     1      13.881   2.398  17.789  1.00  0.00     0.184 HD
HETATM    7  C3  UNL     1      15.133   3.810  16.816  1.00  0.00     0.066 A 
HETATM    8  C4  UNL     1      14.368   5.081  16.917  1.00  0.00     0.073 C 
ENDROOT
BRANCH   1   9
HETATM    9  N2  UNL     1      17.139   4.701  15.571  1.00  0.00    -0.288 N 
HETATM   10  N1  UNL     1      17.148   4.879  14.336  1.00  0.00    -0.339 N 
HETATM   11  C1  UNL     1      16.387   4.102  13.381  1.00  0.00     0.167 C 
ATOM     12  H1  UNL     1      17.735   5.629  13.972  1.00  0.00     0.179 HD
ATOM     13  H2  UNL     1      17.715   5.310  16.154  1.00  0.00     0.188 HD
ENDBRANCH   1   9
TORSDOF 1
ENDMDL
MODEL 2
REMARK VINA RESULT: -5.013947533      1.576      3.060
REMARK  1 active torsions:
REMARK  status: ('A' for Active; 'I' for Inactive)
REMARK    1  A    between atoms: N2_4  and  C2_6 
ROOT
HETATM    1  C2  UNL     1      16.211   3.317  16.033  1.00  0.00     0.156 A 
HETATM    2  N3  UNL     1      16.601   2.044  15.822  1.00  0.00    -0.267 N 
ATOM      3  H3  UNL     1      16.686   1.321  16.537  1.00  0.00     0.186 HD
HETATM    4  N4  UNL     1      16.855   1.891  14.533  1.00  0.00    -0.021 NA
HETATM    5  N5  UNL     1      16.650   3.015  13.870  1.00  0.00    -0.285 N 
ATOM      6  H5  UNL     1      16.770   3.172  12.869  1.00  0.00     0.184 HD
HETATM    7  C3  UNL     1      16.247   3.912  14.789  1.00  0.00     0.066 A 
HETATM    8  C4  UNL     1      15.892   5.333  14.529  1.00  0.00     0.073 C 
ENDROOT
BRANCH   1   9
HETATM    9  N2  UNL     1      15.844   3.896  17.280  1.00  0.00    -0.288 N 
HETATM   10  N1  UNL     1      14.703   3.783  17.774  1.00  0.00    -0.339 N 
HETATM   11  C1  UNL     1      13.604   3.062  17.168  1.00  0.00     0.167 C 
ATOM     12  H1  UNL     1      14.533   4.233  18.673  1.00  0.00     0.179 HD
ATOM     13  H2  UNL     1      16.546   4.428  17.795  1.00  0.00     0.188 HD
ENDBRANCH   1   9
TORSDOF 1
ENDMDL
MODEL 3
REMARK VINA RESULT: -4.932794524      1.310      1.571
REMARK  1 active torsions:
REMARK  status: ('A' for Active; 'I' for Inactive)
REMARK    1  A    between atoms: N2_4  and  C2_6 
ROOT
HETATM    1  C2  UNL     1      15.768   4.139  16.159  1.00  0.00     0.156 A 
HETATM    2  N3  UNL     1      17.018   3.686  15.936  1.00  0.00    -0.267 N 
ATOM      3  H3  UNL     1      17.774   4.213  15.497  1.00  0.00     0.186 HD
HETATM    4  N4  UNL     1      17.100   2.443  16.381  1.00  0.00    -0.021 NA
HETATM    5  N5  UNL     1      15.950   2.044  16.896  1.00  0.00    -0.285 N 
ATOM      6  H5  UNL     1      15.741   1.134  17.306  1.00  0.00     0.184 HD
HETATM    7  C3  UNL     1      15.112   3.089  16.766  1.00  0.00     0.066 A 
HETATM    8  C4  UNL     1      13.690   3.130  17.200  1.00  0.00     0.073 C 
ENDROOT
BRANCH   1   9
HETATM    9  N2  UNL     1      15.263   5.428  15.831  1.00  0.00    -0.288 N 
HETATM   10  N1  UNL     1      15.334   5.916  14.685  1.00  0.00    -0.339 N 
HETATM   11  C1  UNL     1      15.927   5.261  13.539  1.00  0.00     0.167 C 
ATOM     12  H1  UNL     1      14.945   6.848  14.545  1.00  0.00     0.179 HD
ATOM     13  H2  UNL     1      14.822   5.979  16.568  1.00  0.00     0.188 HD
ENDBRANCH   1   9
TORSDOF 1
ENDMDL
MODEL 4
REMARK VINA RESULT: -4.864963593      1.341      1.516
REMARK  1 active torsions:
REMARK  status: ('A' for Active; 'I' for Inactive)
REMARK    1  A    between atoms: N2_4  and  C2_6 
ROOT
HETATM    1  C2  UNL     1      15.895   3.763  15.303  1.00  0.00     0.156 A 
HETATM    2  N3  UNL     1      16.717   2.748  14.971  1.00  0.00    -0.267 N 
ATOM      3  H3  UNL     1      17.181   2.627  14.070  1.00  0.00     0.186 HD
HETATM    4  N4  UNL     1      16.821   1.935  16.009  1.00  0.00    -0.021 NA
HETATM    5  N5  UNL     1      16.098   2.367  17.027  1.00  0.00    -0.285 N 
ATOM      6  H5  UNL     1      16.001   1.930  17.944  1.00  0.00     0.184 HD
HETATM    7  C3  UNL     1      15.517   3.504  16.604  1.00  0.00     0.066 A 
HETATM    8  C4  UNL     1      14.601   4.367  17.397  1.00  0.00     0.073 C 
ENDROOT
BRANCH   1   9
HETATM    9  N2  UNL     1      15.517   4.854  14.472  1.00  0.00    -0.288 N 
HETATM   10  N1  UNL     1      16.269   5.820  14.232  1.00  0.00    -0.339 N 
HETATM   11  C1  UNL     1      17.611   5.976  14.751  1.00  0.00     0.167 C 
ATOM     12  H1  UNL     1      15.911   6.557  13.625  1.00  0.00     0.179 HD
ATOM     13  H2  UNL     1      14.587   4.846  14.051  1.00  0.00     0.188 HD
ENDBRANCH   1   9
TORSDOF 1
ENDMDL
MODEL 5
REMARK VINA RESULT: -4.495882697      1.412      2.594
REMARK  1 active torsions:
REMARK  status: ('A' for Active; 'I' for Inactive)
REMARK    1  A    between atoms: N2_4  and  C2_6 
ROOT
HETATM    1  C2  UNL     1      16.210   3.702  16.032  1.00  0.00     0.156 A 
HETATM    2  N3  UNL     1      16.806   4.760  15.446  1.00  0.00    -0.267 N 
ATOM      3  H3  UNL     1      17.748   4.771  15.054  1.00  0.00     0.186 HD
HETATM    4  N4  UNL     1      15.964   5.780  15.464  1.00  0.00    -0.021 NA
HETATM    5  N5  UNL     1      14.824   5.446  16.041  1.00  0.00    -0.285 N 
ATOM      6  H5  UNL     1      14.008   6.042  16.186  1.00  0.00     0.184 HD
HETATM    7  C3  UNL     1      14.960   4.156  16.399  1.00  0.00     0.066 A 
HETATM    8  C4  UNL     1      13.937   3.326  17.088  1.00  0.00     0.073 C 
ENDROOT
BRANCH   1   9
HETATM    9  N2  UNL     1      16.771   2.408  16.217  1.00  0.00    -0.288 N 
HETATM   10  N1  UNL     1      17.014   1.630  15.272  1.00  0.00    -0.339 N 
HETATM   11  C1  UNL     1      16.770   1.918  13.875  1.00  0.00     0.167 C 
ATOM     12  H1  UNL     1      17.416   0.721  15.501  1.00  0.00     0.179 HD
ATOM     13  H2  UNL     1      16.984   2.101  17.166  1.00  0.00     0.188 HD
ENDBRANCH   1   9
TORSDOF 1
ENDMDL
