MODEL 1
REMARK VINA RESULT: -9.139391307      0.000      0.000
REMARK  6 active torsions:
REMARK  status: ('A' for Active; 'I' for Inactive)
REMARK       I    between atoms: C1_2  and  N1_3 
REMARK    1  A    between atoms: C1_2  and  C21_31 
REMARK    2  A    between atoms: N1_3  and  C2_5 
REMARK    3  A    between atoms: C4_7  and  C5_8 
REMARK    4  A    between atoms: C5_8  and  C6_9 
REMARK    5  A    between atoms: C6_9  and  N2_10 
REMARK       I    between atoms: N3_19  and  C13_20 
REMARK    6  A    between atoms: C13_20  and  C14_22 
ROOT
HETATM    1  C2  UNL     1      18.610  70.361  19.645  1.00  0.00     0.103 C 
HETATM    2  C3  UNL     1      17.714  69.660  18.687  1.00  0.00     0.033 C 
HETATM    3  C4  UNL     1      16.553  70.455  18.197  1.00  0.00     0.007 C 
HETATM    4  C12 UNL     1      15.941  71.390  19.176  1.00  0.00     0.130 C 
HETATM    5  N3  UNL     1      16.980  72.202  19.760  1.00  0.00    -0.349 N 
HETATM    6  C13 UNL     1      16.609  73.440  20.339  1.00  0.00     0.224 C 
HETATM    7  O2  UNL     1      15.379  73.788  20.332  1.00  0.00    -0.273 OA
HETATM    8  C20 UNL     1      18.364  71.827  19.798  1.00  0.00     0.150 C 
ENDROOT
BRANCH   1   9
HETATM    9  N1  UNL     1      18.447  69.750  20.950  1.00  0.00    -0.349 N 
HETATM   10  C1  UNL     1      19.543  69.451  21.784  1.00  0.00     0.275 C 
HETATM   11  O1  UNL     1      20.726  69.697  21.449  1.00  0.00    -0.265 OA
ATOM     12  H1  UNL     1      17.506  69.529  21.276  1.00  0.00     0.163 HD
BRANCH  10  13
HETATM   13  C21 UNL     1      19.313  68.828  23.102  1.00  0.00     0.146 A 
HETATM   14  C22 UNL     1      18.107  68.399  23.612  1.00  0.00     0.060 A 
HETATM   15  C23 UNL     1      18.318  67.876  24.875  1.00  0.00     0.036 A 
HETATM   16  C24 UNL     1      17.778  67.288  25.997  1.00  0.00     0.123 A 
HETATM   17  C25 UNL     1      19.676  68.011  25.085  1.00  0.00     0.174 A 
HETATM   18  N4  UNL     1      18.778  67.074  26.863  1.00  0.00    -0.309 N 
HETATM   19  N5  UNL     1      19.895  67.506  26.311  1.00  0.00    -0.279 N 
ATOM     20  H4  UNL     1      18.690  66.650  27.787  1.00  0.00     0.186 HD
ATOM     21  H5  UNL     1      20.810  67.461  26.759  1.00  0.00     0.189 HD
HETATM   22  O3  UNL     1      20.211  68.574  24.016  1.00  0.00    -0.286 OA
ENDBRANCH  10  13
ENDBRANCH   1   9
BRANCH   3  23
HETATM   23  C5  UNL     1      15.507  69.430  17.710  1.00  0.00     0.036 C 
BRANCH  23  24
HETATM   24  C6  UNL     1      15.503  68.210  18.561  1.00  0.00     0.273 C 
BRANCH  24  25
HETATM   25  N2  UNL     1      14.393  67.376  18.237  1.00  0.00     0.088 N 
HETATM   26  C7  UNL     1      13.695  67.816  17.037  1.00  0.00     0.278 C 
HETATM   27  C8  UNL     1      13.655  66.702  16.026  1.00  0.00     0.109 C 
HETATM   28  C9  UNL     1      14.993  66.083  15.796  1.00  0.00     0.246 C 
HETATM   29  F1  UNL     1      14.804  64.985  14.956  1.00  0.00    -0.206 F 
HETATM   30  F2  UNL     1      15.893  66.898  15.161  1.00  0.00    -0.206 F 
HETATM   31  C10 UNL     1      15.516  65.520  17.107  1.00  0.00     0.109 C 
HETATM   32  C11 UNL     1      14.629  65.973  18.244  1.00  0.00     0.278 C 
ENDBRANCH  24  25
ENDBRANCH  23  24
ENDBRANCH   3  23
BRANCH   6  33
HETATM   33  C14 UNL     1      17.600  74.363  20.960  1.00  0.00     0.078 C 
HETATM   34  C15 UNL     1      17.177  74.685  22.386  1.00  0.00     0.020 C 
HETATM   35  C16 UNL     1      18.353  75.375  23.021  1.00  0.00     0.080 C 
HETATM   36  C17 UNL     1      18.611  76.665  22.326  1.00  0.00     0.243 C 
HETATM   37  F3  UNL     1      19.973  76.804  22.102  1.00  0.00    -0.206 F 
HETATM   38  F4  UNL     1      18.264  77.691  23.213  1.00  0.00    -0.206 F 
HETATM   39  C18 UNL     1      17.806  76.851  21.086  1.00  0.00     0.080 C 
HETATM   40  C19 UNL     1      17.786  75.642  20.170  1.00  0.00     0.020 C 
ENDBRANCH   6  33
TORSDOF 6
ENDMDL
MODEL 2
REMARK VINA RESULT: -8.996338976      1.380      1.700
REMARK  6 active torsions:
REMARK  status: ('A' for Active; 'I' for Inactive)
REMARK       I    between atoms: C1_2  and  N1_3 
REMARK    1  A    between atoms: C1_2  and  C21_31 
REMARK    2  A    between atoms: N1_3  and  C2_5 
REMARK    3  A    between atoms: C4_7  and  C5_8 
REMARK    4  A    between atoms: C5_8  and  C6_9 
REMARK    5  A    between atoms: C6_9  and  N2_10 
REMARK       I    between atoms: N3_19  and  C13_20 
REMARK    6  A    between atoms: C13_20  and  C14_22 
ROOT
HETATM    1  C2  UNL     1      18.344  69.407  20.101  1.00  0.00     0.103 C 
HETATM    2  C3  UNL     1      17.480  68.456  19.351  1.00  0.00     0.033 C 
HETATM    3  C4  UNL     1      16.306  69.064  18.663  1.00  0.00     0.007 C 
HETATM    4  C12 UNL     1      15.656  70.202  19.363  1.00  0.00     0.130 C 
HETATM    5  N3  UNL     1      16.665  71.167  19.725  1.00  0.00    -0.349 N 
HETATM    6  C13 UNL     1      16.253  72.501  19.961  1.00  0.00     0.224 C 
HETATM    7  O2  UNL     1      15.015  72.800  19.855  1.00  0.00    -0.273 OA
HETATM    8  C20 UNL     1      18.058  70.855  19.867  1.00  0.00     0.150 C 
ENDROOT
BRANCH   1   9
HETATM    9  N1  UNL     1      18.179  69.149  21.519  1.00  0.00    -0.349 N 
HETATM   10  C1  UNL     1      19.050  68.309  22.239  1.00  0.00     0.275 C 
HETATM   11  O1  UNL     1      20.024  67.733  21.697  1.00  0.00    -0.265 OA
ATOM     12  H1  UNL     1      17.404  69.593  22.012  1.00  0.00     0.163 HD
BRANCH  10  13
HETATM   13  C21 UNL     1      18.830  68.085  23.680  1.00  0.00     0.146 A 
HETATM   14  C22 UNL     1      19.790  68.071  24.669  1.00  0.00     0.060 A 
HETATM   15  C23 UNL     1      19.175  67.827  25.884  1.00  0.00     0.036 A 
HETATM   16  C24 UNL     1      19.309  67.659  27.243  1.00  0.00     0.123 A 
HETATM   17  C25 UNL     1      17.834  67.700  25.576  1.00  0.00     0.174 A 
HETATM   18  N4  UNL     1      18.088  67.436  27.747  1.00  0.00    -0.309 N 
HETATM   19  N5  UNL     1      17.225  67.463  26.751  1.00  0.00    -0.279 N 
ATOM     20  H4  UNL     1      17.865  67.273  28.729  1.00  0.00     0.186 HD
ATOM     21  H5  UNL     1      16.221  67.322  26.858  1.00  0.00     0.189 HD
HETATM   22  O3  UNL     1      17.687  67.860  24.273  1.00  0.00    -0.286 OA
ENDBRANCH  10  13
ENDBRANCH   1   9
BRANCH   3  23
HETATM   23  C5  UNL     1      15.294  67.918  18.451  1.00  0.00     0.036 C 
BRANCH  23  24
HETATM   24  C6  UNL     1      15.943  66.586  18.585  1.00  0.00     0.273 C 
BRANCH  24  25
HETATM   25  N2  UNL     1      15.560  65.731  17.512  1.00  0.00     0.088 N 
HETATM   26  C7  UNL     1      14.685  66.393  16.554  1.00  0.00     0.278 C 
HETATM   27  C8  UNL     1      15.288  66.331  15.176  1.00  0.00     0.109 C 
HETATM   28  C9  UNL     1      16.713  66.770  15.150  1.00  0.00     0.246 C 
HETATM   29  F1  UNL     1      17.197  66.536  13.862  1.00  0.00    -0.206 F 
HETATM   30  F2  UNL     1      16.900  68.106  15.390  1.00  0.00    -0.206 F 
HETATM   31  C10 UNL     1      17.529  65.876  16.069  1.00  0.00     0.109 C 
HETATM   32  C11 UNL     1      16.601  64.998  16.879  1.00  0.00     0.278 C 
ENDBRANCH  24  25
ENDBRANCH  23  24
ENDBRANCH   3  23
BRANCH   6  33
HETATM   33  C14 UNL     1      17.211  73.582  20.328  1.00  0.00     0.078 C 
HETATM   34  C15 UNL     1      16.853  74.140  21.699  1.00  0.00     0.020 C 
HETATM   35  C16 UNL     1      18.012  75.005  22.109  1.00  0.00     0.080 C 
HETATM   36  C17 UNL     1      18.134  76.155  21.173  1.00  0.00     0.243 C 
HETATM   37  F3  UNL     1      19.466  76.331  20.829  1.00  0.00    -0.206 F 
HETATM   38  F4  UNL     1      17.768  77.307  21.880  1.00  0.00    -0.206 F 
HETATM   39  C18 UNL     1      17.244  76.057  19.982  1.00  0.00     0.080 C 
HETATM   40  C19 UNL     1      17.256  74.699  19.307  1.00  0.00     0.020 C 
ENDBRANCH   6  33
TORSDOF 6
ENDMDL
MODEL 3
REMARK VINA RESULT: -8.940281900      4.619      7.797
REMARK  6 active torsions:
REMARK  status: ('A' for Active; 'I' for Inactive)
REMARK       I    between atoms: C1_2  and  N1_3 
REMARK    1  A    between atoms: C1_2  and  C21_31 
REMARK    2  A    between atoms: N1_3  and  C2_5 
REMARK    3  A    between atoms: C4_7  and  C5_8 
REMARK    4  A    between atoms: C5_8  and  C6_9 
REMARK    5  A    between atoms: C6_9  and  N2_10 
REMARK       I    between atoms: N3_19  and  C13_20 
REMARK    6  A    between atoms: C13_20  and  C14_22 
ROOT
HETATM    1  C2  UNL     1      20.068  68.750  20.076  1.00  0.00     0.103 C 
HETATM    2  C3  UNL     1      19.681  70.150  19.755  1.00  0.00     0.033 C 
HETATM    3  C4  UNL     1      20.798  71.042  19.330  1.00  0.00     0.007 C 
HETATM    4  C12 UNL     1      22.108  70.808  19.990  1.00  0.00     0.130 C 
HETATM    5  N3  UNL     1      22.434  69.406  19.900  1.00  0.00    -0.349 N 
HETATM    6  C13 UNL     1      23.795  69.032  20.024  1.00  0.00     0.224 C 
HETATM    7  O2  UNL     1      24.676  69.937  20.217  1.00  0.00    -0.273 OA
HETATM    8  C20 UNL     1      21.464  68.369  19.702  1.00  0.00     0.150 C 
ENDROOT
BRANCH   1   9
HETATM    9  N1  UNL     1      19.928  68.557  21.507  1.00  0.00    -0.349 N 
HETATM   10  C1  UNL     1      18.705  68.192  22.102  1.00  0.00     0.275 C 
HETATM   11  O1  UNL     1      17.662  68.011  21.429  1.00  0.00    -0.265 OA
ATOM     12  H1  UNL     1      20.746  68.689  22.103  1.00  0.00     0.163 HD
BRANCH  10  13
HETATM   13  C21 UNL     1      18.625  68.011  23.564  1.00  0.00     0.146 A 
HETATM   14  C22 UNL     1      19.676  68.034  24.456  1.00  0.00     0.060 A 
HETATM   15  C23 UNL     1      19.182  67.823  25.731  1.00  0.00     0.036 A 
HETATM   16  C24 UNL     1      19.447  67.697  27.076  1.00  0.00     0.123 A 
HETATM   17  C25 UNL     1      17.820  67.677  25.557  1.00  0.00     0.174 A 
HETATM   18  N4  UNL     1      18.282  67.481  27.700  1.00  0.00    -0.309 N 
HETATM   19  N5  UNL     1      17.328  67.471  26.791  1.00  0.00    -0.279 N 
ATOM     20  H4  UNL     1      18.155  67.347  28.704  1.00  0.00     0.186 HD
ATOM     21  H5  UNL     1      16.340  67.326  26.998  1.00  0.00     0.189 HD
HETATM   22  O3  UNL     1      17.547  67.796  24.270  1.00  0.00    -0.286 OA
ENDBRANCH  10  13
ENDBRANCH   1   9
BRANCH   3  23
HETATM   23  C5  UNL     1      20.316  72.484  19.591  1.00  0.00     0.036 C 
BRANCH  23  24
HETATM   24  C6  UNL     1      18.842  72.603  19.437  1.00  0.00     0.273 C 
BRANCH  24  25
HETATM   25  N2  UNL     1      18.286  73.365  20.506  1.00  0.00     0.088 N 
HETATM   26  C7  UNL     1      17.200  74.231  20.069  1.00  0.00     0.278 C 
HETATM   27  C8  UNL     1      15.951  73.929  20.853  1.00  0.00     0.109 C 
HETATM   28  C9  UNL     1      15.632  72.472  20.889  1.00  0.00     0.246 C 
HETATM   29  F1  UNL     1      14.548  72.305  21.752  1.00  0.00    -0.206 F 
HETATM   30  F2  UNL     1      15.245  71.946  19.685  1.00  0.00    -0.206 F 
HETATM   31  C10 UNL     1      16.790  71.721  21.526  1.00  0.00     0.109 C 
HETATM   32  C11 UNL     1      17.968  72.654  21.696  1.00  0.00     0.278 C 
ENDBRANCH  24  25
ENDBRANCH  23  24
ENDBRANCH   3  23
BRANCH   6  33
HETATM   33  C14 UNL     1      24.247  67.615  19.936  1.00  0.00     0.078 C 
HETATM   34  C15 UNL     1      25.013  67.242  21.197  1.00  0.00     0.020 C 
HETATM   35  C16 UNL     1      25.181  65.748  21.153  1.00  0.00     0.080 C 
HETATM   36  C17 UNL     1      26.024  65.374  19.986  1.00  0.00     0.243 C 
HETATM   37  F3  UNL     1      25.456  64.287  19.336  1.00  0.00    -0.206 F 
HETATM   38  F4  UNL     1      27.250  64.919  20.488  1.00  0.00    -0.206 F 
HETATM   39  C18 UNL     1      26.310  66.507  19.063  1.00  0.00     0.080 C 
HETATM   40  C19 UNL     1      25.095  67.344  18.711  1.00  0.00     0.020 C 
ENDBRANCH   6  33
TORSDOF 6
ENDMDL
MODEL 4
REMARK VINA RESULT: -8.938213321      1.677      2.148
REMARK  6 active torsions:
REMARK  status: ('A' for Active; 'I' for Inactive)
REMARK       I    between atoms: C1_2  and  N1_3 
REMARK    1  A    between atoms: C1_2  and  C21_31 
REMARK    2  A    between atoms: N1_3  and  C2_5 
REMARK    3  A    between atoms: C4_7  and  C5_8 
REMARK    4  A    between atoms: C5_8  and  C6_9 
REMARK    5  A    between atoms: C6_9  and  N2_10 
REMARK       I    between atoms: N3_19  and  C13_20 
REMARK    6  A    between atoms: C13_20  and  C14_22 
ROOT
HETATM    1  C2  UNL     1      18.394  69.382  20.078  1.00  0.00     0.103 C 
HETATM    2  C3  UNL     1      17.556  68.410  19.326  1.00  0.00     0.033 C 
HETATM    3  C4  UNL     1      16.376  68.989  18.624  1.00  0.00     0.007 C 
HETATM    4  C12 UNL     1      15.697  70.119  19.310  1.00  0.00     0.130 C 
HETATM    5  N3  UNL     1      16.683  71.105  19.675  1.00  0.00    -0.349 N 
HETATM    6  C13 UNL     1      16.242  72.433  19.899  1.00  0.00     0.224 C 
HETATM    7  O2  UNL     1      14.999  72.706  19.779  1.00  0.00    -0.273 OA
HETATM    8  C20 UNL     1      18.080  70.823  19.833  1.00  0.00     0.150 C 
ENDROOT
BRANCH   1   9
HETATM    9  N1  UNL     1      18.220  69.130  21.496  1.00  0.00    -0.349 N 
HETATM   10  C1  UNL     1      19.095  68.304  22.228  1.00  0.00     0.275 C 
HETATM   11  O1  UNL     1      20.080  67.737  21.696  1.00  0.00    -0.265 OA
ATOM     12  H1  UNL     1      17.436  69.568  21.981  1.00  0.00     0.163 HD
BRANCH  10  13
HETATM   13  C21 UNL     1      18.866  68.085  23.669  1.00  0.00     0.146 A 
HETATM   14  C22 UNL     1      19.820  68.074  24.663  1.00  0.00     0.060 A 
HETATM   15  C23 UNL     1      19.197  67.835  25.875  1.00  0.00     0.036 A 
HETATM   16  C24 UNL     1      19.323  67.671  27.236  1.00  0.00     0.123 A 
HETATM   17  C25 UNL     1      17.859  67.706  25.560  1.00  0.00     0.174 A 
HETATM   18  N4  UNL     1      18.099  67.450  27.732  1.00  0.00    -0.309 N 
HETATM   19  N5  UNL     1      17.242  67.473  26.731  1.00  0.00    -0.279 N 
ATOM     20  H4  UNL     1      17.869  67.290  28.714  1.00  0.00     0.186 HD
ATOM     21  H5  UNL     1      16.237  67.332  26.832  1.00  0.00     0.189 HD
HETATM   22  O3  UNL     1      17.719  67.861  24.255  1.00  0.00    -0.286 OA
ENDBRANCH  10  13
ENDBRANCH   1   9
BRANCH   3  23
HETATM   23  C5  UNL     1      15.390  67.822  18.410  1.00  0.00     0.036 C 
BRANCH  23  24
HETATM   24  C6  UNL     1      14.329  68.177  17.430  1.00  0.00     0.273 C 
BRANCH  24  25
HETATM   25  N2  UNL     1      14.646  67.664  16.139  1.00  0.00     0.088 N 
HETATM   26  C7  UNL     1      14.126  66.320  15.929  1.00  0.00     0.278 C 
HETATM   27  C8  UNL     1      13.239  66.295  14.713  1.00  0.00     0.109 C 
HETATM   28  C9  UNL     1      12.217  67.382  14.722  1.00  0.00     0.246 C 
HETATM   29  F1  UNL     1      11.556  67.342  13.493  1.00  0.00    -0.206 F 
HETATM   30  F2  UNL     1      11.248  67.241  15.680  1.00  0.00    -0.206 F 
HETATM   31  C10 UNL     1      12.919  68.728  14.773  1.00  0.00     0.109 C 
HETATM   32  C11 UNL     1      14.395  68.522  15.034  1.00  0.00     0.278 C 
ENDBRANCH  24  25
ENDBRANCH  23  24
ENDBRANCH   3  23
BRANCH   6  33
HETATM   33  C14 UNL     1      17.174  73.535  20.269  1.00  0.00     0.078 C 
HETATM   34  C15 UNL     1      16.806  74.078  21.643  1.00  0.00     0.020 C 
HETATM   35  C16 UNL     1      17.945  74.970  22.054  1.00  0.00     0.080 C 
HETATM   36  C17 UNL     1      18.036  76.126  21.122  1.00  0.00     0.243 C 
HETATM   37  F3  UNL     1      19.363  76.336  20.775  1.00  0.00    -0.206 F 
HETATM   38  F4  UNL     1      17.644  77.266  21.835  1.00  0.00    -0.206 F 
HETATM   39  C18 UNL     1      17.146  76.011  19.933  1.00  0.00     0.080 C 
HETATM   40  C19 UNL     1      17.189  74.657  19.252  1.00  0.00     0.020 C 
ENDBRANCH   6  33
TORSDOF 6
ENDMDL
MODEL 5
REMARK VINA RESULT: -8.918011684      4.280      8.416
REMARK  6 active torsions:
REMARK  status: ('A' for Active; 'I' for Inactive)
REMARK       I    between atoms: C1_2  and  N1_3 
REMARK    1  A    between atoms: C1_2  and  C21_31 
REMARK    2  A    between atoms: N1_3  and  C2_5 
REMARK    3  A    between atoms: C4_7  and  C5_8 
REMARK    4  A    between atoms: C5_8  and  C6_9 
REMARK    5  A    between atoms: C6_9  and  N2_10 
REMARK       I    between atoms: N3_19  and  C13_20 
REMARK    6  A    between atoms: C13_20  and  C14_22 
ROOT
HETATM    1  C2  UNL     1      19.644  68.770  20.003  1.00  0.00     0.103 C 
HETATM    2  C3  UNL     1      19.158  70.142  19.695  1.00  0.00     0.033 C 
HETATM    3  C4  UNL     1      20.196  71.094  19.206  1.00  0.00     0.007 C 
HETATM    4  C12 UNL     1      21.550  70.944  19.798  1.00  0.00     0.130 C 
HETATM    5  N3  UNL     1      21.954  69.563  19.699  1.00  0.00    -0.349 N 
HETATM    6  C13 UNL     1      23.339  69.271  19.754  1.00  0.00     0.224 C 
HETATM    7  O2  UNL     1      24.173  70.229  19.895  1.00  0.00    -0.273 OA
HETATM    8  C20 UNL     1      21.039  68.468  19.558  1.00  0.00     0.150 C 
ENDROOT
BRANCH   1   9
HETATM    9  N1  UNL     1      19.591  68.581  21.440  1.00  0.00    -0.349 N 
HETATM   10  C1  UNL     1      18.426  68.143  22.101  1.00  0.00     0.275 C 
HETATM   11  O1  UNL     1      17.364  67.887  21.484  1.00  0.00    -0.265 OA
ATOM     12  H1  UNL     1      20.427  68.772  21.993  1.00  0.00     0.163 HD
BRANCH  10  13
HETATM   13  C21 UNL     1      18.433  67.970  23.565  1.00  0.00     0.146 A 
HETATM   14  C22 UNL     1      19.535  68.000  24.394  1.00  0.00     0.060 A 
HETATM   15  C23 UNL     1      19.118  67.796  25.697  1.00  0.00     0.036 A 
HETATM   16  C24 UNL     1      19.463  67.679  27.024  1.00  0.00     0.123 A 
HETATM   17  C25 UNL     1      17.748  67.648  25.605  1.00  0.00     0.174 A 
HETATM   18  N4  UNL     1      18.337  67.465  27.718  1.00  0.00    -0.309 N 
HETATM   19  N5  UNL     1      17.330  67.449  26.867  1.00  0.00    -0.279 N 
ATOM     20  H4  UNL     1      18.270  67.337  28.728  1.00  0.00     0.186 HD
ATOM     21  H5  UNL     1      16.357  67.305  27.133  1.00  0.00     0.189 HD
HETATM   22  O3  UNL     1      17.399  67.759  24.335  1.00  0.00    -0.286 OA
ENDBRANCH  10  13
ENDBRANCH   1   9
BRANCH   3  23
HETATM   23  C5  UNL     1      19.643  72.507  19.484  1.00  0.00     0.036 C 
BRANCH  23  24
HETATM   24  C6  UNL     1      19.601  72.800  20.942  1.00  0.00     0.273 C 
BRANCH  24  25
HETATM   25  N2  UNL     1      19.926  74.165  21.189  1.00  0.00     0.088 N 
HETATM   26  C7  UNL     1      18.993  75.085  20.554  1.00  0.00     0.278 C 
HETATM   27  C8  UNL     1      18.383  75.996  21.585  1.00  0.00     0.109 C 
HETATM   28  C9  UNL     1      17.848  75.256  22.764  1.00  0.00     0.246 C 
HETATM   29  F1  UNL     1      17.442  76.205  23.703  1.00  0.00    -0.206 F 
HETATM   30  F2  UNL     1      16.745  74.488  22.498  1.00  0.00    -0.206 F 
HETATM   31  C10 UNL     1      18.975  74.477  23.421  1.00  0.00     0.109 C 
HETATM   32  C11 UNL     1      20.203  74.519  22.538  1.00  0.00     0.278 C 
ENDBRANCH  24  25
ENDBRANCH  23  24
ENDBRANCH   3  23
BRANCH   6  33
HETATM   33  C14 UNL     1      23.870  67.883  19.650  1.00  0.00     0.078 C 
HETATM   34  C15 UNL     1      24.243  67.372  21.035  1.00  0.00     0.020 C 
HETATM   35  C16 UNL     1      24.494  65.898  20.878  1.00  0.00     0.080 C 
HETATM   36  C17 UNL     1      25.665  65.681  19.987  1.00  0.00     0.243 C 
HETATM   37  F3  UNL     1      25.374  64.673  19.080  1.00  0.00    -0.206 F 
HETATM   38  F4  UNL     1      26.707  65.189  20.783  1.00  0.00    -0.206 F 
HETATM   39  C18 UNL     1      26.154  66.923  19.325  1.00  0.00     0.080 C 
HETATM   40  C19 UNL     1      25.058  67.776  18.717  1.00  0.00     0.020 C 
ENDBRANCH   6  33
TORSDOF 6
ENDMDL
