MODEL 1
REMARK VINA RESULT: -7.762399560      0.000      0.000
REMARK  7 active torsions:
REMARK  status: ('A' for Active; 'I' for Inactive)
REMARK    1  A    between atoms: C1_2  and  C2_3 
REMARK       I    between atoms: C1_2  and  N4_33 
REMARK    2  A    between atoms: C2_3  and  C3_4 
REMARK    3  A    between atoms: C8_9  and  N1_10 
REMARK       I    between atoms: N1_10  and  C9_12 
REMARK    4  A    between atoms: C9_12  and  C10_14 
REMARK    5  A    between atoms: C10_14  and  O3_15 
REMARK    6  A    between atoms: N2_20  and  C14_21 
REMARK    7  A    between atoms: C14_21  and  C15_22 
ROOT
HETATM    1  C10 UNL     1      17.694  74.025  21.157  1.00  0.00     0.140 C 
HETATM    2  C11 UNL     1      18.025  75.004  20.085  1.00  0.00     0.049 C 
HETATM    3  C12 UNL     1      17.434  76.351  20.551  1.00  0.00     0.023 C 
HETATM    4  C13 UNL     1      18.677  77.173  21.033  1.00  0.00     0.122 C 
HETATM    5  N2  UNL     1      18.912  76.802  22.322  1.00  0.00    -0.389 N 
HETATM    6  C20 UNL     1      19.341  75.431  22.474  1.00  0.00     0.125 C 
HETATM    7  C21 UNL     1      18.169  74.473  22.528  1.00  0.00     0.068 C 
ENDROOT
BRANCH   1   8
HETATM    8  C9  UNL     1      18.170  72.647  20.894  1.00  0.00     0.252 C 
HETATM    9  N1  UNL     1      19.355  72.097  21.406  1.00  0.00    -0.353 N 
ATOM     10  H1  UNL     1      19.823  72.695  22.086  1.00  0.00     0.163 HD
HETATM   11  O2  UNL     1      17.438  71.971  20.136  1.00  0.00    -0.270 OA
BRANCH   9  12
HETATM   12  C8  UNL     1      20.020  70.895  21.169  1.00  0.00     0.089 C 
HETATM   13  C3  UNL     1      19.592  69.625  20.664  1.00  0.00     0.017 C 
HETATM   14  C4  UNL     1      19.597  69.491  19.152  1.00  0.00     0.007 C 
HETATM   15  C5  UNL     1      21.073  69.265  18.739  1.00  0.00     0.001 C 
HETATM   16  C6  UNL     1      21.878  70.151  19.663  1.00  0.00     0.002 C 
HETATM   17  C7  UNL     1      21.109  71.362  20.056  1.00  0.00     0.025 C 
BRANCH  13  18
HETATM   18  C2  UNL     1      18.432  68.855  21.226  1.00  0.00     0.109 C 
BRANCH  18  19
HETATM   19  C1  UNL     1      19.055  68.012  22.319  1.00  0.00     0.220 C 
HETATM   20  O1  UNL     1      20.236  67.536  22.180  1.00  0.00    -0.273 OA
HETATM   21  N4  UNL     1      18.395  67.724  23.524  1.00  0.00    -0.341 N 
HETATM   22  C22 UNL     1      17.088  67.813  24.102  1.00  0.00     0.206 C 
HETATM   23  C24 UNL     1      18.884  67.332  24.872  1.00  0.00     0.206 C 
HETATM   24  C23 UNL     1      17.512  67.065  25.371  1.00  0.00     0.275 C 
HETATM   25  F1  UNL     1      17.095  65.774  25.375  1.00  0.00    -0.203 F 
HETATM   26  F2  UNL     1      17.137  67.719  26.534  1.00  0.00    -0.203 F 
ENDBRANCH  18  19
ENDBRANCH  13  18
ENDBRANCH   9  12
ENDBRANCH   1   8
BRANCH   1  27
HETATM   27  O3  UNL     1      16.265  74.051  21.210  1.00  0.00    -0.380 OA
ATOM     28  H3  UNL     1      15.902  73.515  20.514  1.00  0.00     0.211 HD
ENDBRANCH   1  27
BRANCH   5  29
HETATM   29  C14 UNL     1      19.453  77.593  23.316  1.00  0.00     0.100 C 
BRANCH  29  30
HETATM   30  C15 UNL     1      18.743  78.826  23.739  1.00  0.00     0.025 A 
HETATM   31  C16 UNL     1      19.262  80.027  23.226  1.00  0.00     0.062 A 
HETATM   32 CL1  UNL     1      20.732  79.972  22.273  1.00  0.00    -0.082 Cl
HETATM   33  C17 UNL     1      18.601  81.182  23.497  1.00  0.00     0.112 A 
HETATM   34  N3  UNL     1      17.467  81.221  24.239  1.00  0.00    -0.372 N 
HETATM   35  C18 UNL     1      16.983  80.082  24.713  1.00  0.00     0.112 A 
ATOM     36  H3  UNL     1      16.997  82.106  24.427  1.00  0.00     0.164 HD
HETATM   37  C19 UNL     1      17.615  78.851  24.467  1.00  0.00     0.062 A 
HETATM   38 CL2  UNL     1      16.725  77.397  24.929  1.00  0.00    -0.082 Cl
ENDBRANCH  29  30
ENDBRANCH   5  29
TORSDOF 7
ENDMDL
MODEL 2
REMARK VINA RESULT: -7.699030786      0.248      1.543
REMARK  7 active torsions:
REMARK  status: ('A' for Active; 'I' for Inactive)
REMARK    1  A    between atoms: C1_2  and  C2_3 
REMARK       I    between atoms: C1_2  and  N4_33 
REMARK    2  A    between atoms: C2_3  and  C3_4 
REMARK    3  A    between atoms: C8_9  and  N1_10 
REMARK       I    between atoms: N1_10  and  C9_12 
REMARK    4  A    between atoms: C9_12  and  C10_14 
REMARK    5  A    between atoms: C10_14  and  O3_15 
REMARK    6  A    between atoms: N2_20  and  C14_21 
REMARK    7  A    between atoms: C14_21  and  C15_22 
ROOT
HETATM    1  C10 UNL     1      17.635  74.257  20.999  1.00  0.00     0.140 C 
HETATM    2  C11 UNL     1      18.088  75.247  19.984  1.00  0.00     0.049 C 
HETATM    3  C12 UNL     1      17.474  76.596  20.411  1.00  0.00     0.023 C 
HETATM    4  C13 UNL     1      18.675  77.389  21.030  1.00  0.00     0.122 C 
HETATM    5  N2  UNL     1      18.773  76.993  22.330  1.00  0.00    -0.389 N 
HETATM    6  C20 UNL     1      19.163  75.613  22.499  1.00  0.00     0.125 C 
HETATM    7  C21 UNL     1      17.976  74.675  22.419  1.00  0.00     0.068 C 
ENDROOT
BRANCH   1   8
HETATM    8  C9  UNL     1      18.114  72.875  20.762  1.00  0.00     0.252 C 
HETATM    9  N1  UNL     1      19.240  72.301  21.370  1.00  0.00    -0.353 N 
ATOM     10  H1  UNL     1      19.653  72.884  22.098  1.00  0.00     0.163 HD
HETATM   11  O2  UNL     1      17.443  72.220  19.932  1.00  0.00    -0.270 OA
BRANCH   9  12
HETATM   12  C8  UNL     1      19.906  71.092  21.178  1.00  0.00     0.089 C 
HETATM   13  C3  UNL     1      19.478  69.801  20.728  1.00  0.00     0.017 C 
HETATM   14  C4  UNL     1      19.473  69.606  19.222  1.00  0.00     0.007 C 
HETATM   15  C5  UNL     1      20.946  69.367  18.809  1.00  0.00     0.001 C 
HETATM   16  C6  UNL     1      21.756  70.292  19.690  1.00  0.00     0.002 C 
HETATM   17  C7  UNL     1      20.986  71.516  20.039  1.00  0.00     0.025 C 
BRANCH  13  18
HETATM   18  C2  UNL     1      18.324  69.052  21.329  1.00  0.00     0.109 C 
BRANCH  18  19
HETATM   19  C1  UNL     1      18.980  68.128  22.335  1.00  0.00     0.220 C 
HETATM   20  O1  UNL     1      20.135  67.626  22.101  1.00  0.00    -0.273 OA
HETATM   21  N4  UNL     1      18.379  67.791  23.558  1.00  0.00    -0.341 N 
HETATM   22  C22 UNL     1      17.109  67.885  24.215  1.00  0.00     0.206 C 
HETATM   23  C24 UNL     1      18.930  67.307  24.851  1.00  0.00     0.206 C 
HETATM   24  C23 UNL     1      17.580  67.053  25.413  1.00  0.00     0.275 C 
HETATM   25  F1  UNL     1      17.120  65.777  25.369  1.00  0.00    -0.203 F 
HETATM   26  F2  UNL     1      17.291  67.649  26.631  1.00  0.00    -0.203 F 
ENDBRANCH  18  19
ENDBRANCH  13  18
ENDBRANCH   9  12
ENDBRANCH   1   8
BRANCH   1  27
HETATM   27  O3  UNL     1      16.209  74.307  20.909  1.00  0.00    -0.380 OA
ATOM     28  H3  UNL     1      15.943  74.972  20.284  1.00  0.00     0.211 HD
ENDBRANCH   1  27
BRANCH   5  29
HETATM   29  C14 UNL     1      19.224  77.759  23.387  1.00  0.00     0.100 C 
BRANCH  29  30
HETATM   30  C15 UNL     1      18.602  79.081  23.651  1.00  0.00     0.025 A 
HETATM   31  C16 UNL     1      17.454  79.055  24.462  1.00  0.00     0.062 A 
HETATM   32 CL1  UNL     1      16.807  77.504  24.959  1.00  0.00    -0.082 Cl
HETATM   33  C17 UNL     1      16.892  80.239  24.820  1.00  0.00     0.112 A 
HETATM   34  N3  UNL     1      17.393  81.436  24.429  1.00  0.00    -0.372 N 
HETATM   35  C18 UNL     1      18.479  81.449  23.670  1.00  0.00     0.112 A 
ATOM     36  H3  UNL     1      16.945  82.307  24.713  1.00  0.00     0.164 HD
HETATM   37  C19 UNL     1      19.112  80.261  23.266  1.00  0.00     0.062 A 
HETATM   38 CL2  UNL     1      20.689  80.429  22.486  1.00  0.00    -0.082 Cl
ENDBRANCH  29  30
ENDBRANCH   5  29
TORSDOF 7
ENDMDL
MODEL 3
REMARK VINA RESULT: -7.691865625      3.125      4.927
REMARK  7 active torsions:
REMARK  status: ('A' for Active; 'I' for Inactive)
REMARK    1  A    between atoms: C1_2  and  C2_3 
REMARK       I    between atoms: C1_2  and  N4_33 
REMARK    2  A    between atoms: C2_3  and  C3_4 
REMARK    3  A    between atoms: C8_9  and  N1_10 
REMARK       I    between atoms: N1_10  and  C9_12 
REMARK    4  A    between atoms: C9_12  and  C10_14 
REMARK    5  A    between atoms: C10_14  and  O3_15 
REMARK    6  A    between atoms: N2_20  and  C14_21 
REMARK    7  A    between atoms: C14_21  and  C15_22 
ROOT
HETATM    1  C10 UNL     1      16.000  71.647  21.223  1.00  0.00     0.140 C 
HETATM    2  C11 UNL     1      15.598  71.902  19.812  1.00  0.00     0.049 C 
HETATM    3  C12 UNL     1      15.216  73.395  19.749  1.00  0.00     0.023 C 
HETATM    4  C13 UNL     1      16.430  74.076  19.030  1.00  0.00     0.122 C 
HETATM    5  N2  UNL     1      17.360  74.328  19.994  1.00  0.00    -0.389 N 
HETATM    6  C20 UNL     1      17.941  73.143  20.580  1.00  0.00     0.125 C 
HETATM    7  C21 UNL     1      17.089  72.590  21.703  1.00  0.00     0.068 C 
ENDROOT
BRANCH   1   8
HETATM    8  C9  UNL     1      16.399  70.247  21.501  1.00  0.00     0.252 C 
HETATM    9  N1  UNL     1      17.253  69.849  22.541  1.00  0.00    -0.353 N 
ATOM     10  H1  UNL     1      17.496  70.603  23.182  1.00  0.00     0.163 HD
HETATM   11  O2  UNL     1      15.931  69.397  20.709  1.00  0.00    -0.270 OA
BRANCH   9  12
HETATM   12  C8  UNL     1      17.834  68.626  22.871  1.00  0.00     0.089 C 
HETATM   13  C3  UNL     1      19.064  68.271  23.514  1.00  0.00     0.017 C 
HETATM   14  C4  UNL     1      19.018  68.231  25.031  1.00  0.00     0.007 C 
HETATM   15  C5  UNL     1      18.324  66.900  25.410  1.00  0.00     0.001 C 
HETATM   16  C6  UNL     1      17.237  66.715  24.375  1.00  0.00     0.002 C 
HETATM   17  C7  UNL     1      16.723  68.025  23.893  1.00  0.00     0.025 C 
BRANCH  13  18
HETATM   18  C2  UNL     1      20.408  68.775  23.072  1.00  0.00     0.109 C 
BRANCH  18  19
HETATM   19  C1  UNL     1      20.529  68.276  21.646  1.00  0.00     0.220 C 
HETATM   20  O1  UNL     1      20.882  67.068  21.407  1.00  0.00    -0.273 OA
HETATM   21  N4  UNL     1      20.251  69.086  20.534  1.00  0.00    -0.341 N 
HETATM   22  C22 UNL     1      20.029  70.464  20.214  1.00  0.00     0.206 C 
HETATM   23  C24 UNL     1      19.871  68.775  19.131  1.00  0.00     0.206 C 
HETATM   24  C23 UNL     1      20.001  70.191  18.706  1.00  0.00     0.275 C 
HETATM   25  F1  UNL     1      21.156  70.550  18.093  1.00  0.00    -0.203 F 
HETATM   26  F2  UNL     1      18.901  70.753  18.076  1.00  0.00    -0.203 F 
ENDBRANCH  18  19
ENDBRANCH  13  18
ENDBRANCH   9  12
ENDBRANCH   1   8
BRANCH   1  27
HETATM   27  O3  UNL     1      14.831  71.984  21.974  1.00  0.00    -0.380 OA
ATOM     28  H3  UNL     1      14.081  71.500  21.650  1.00  0.00     0.211 HD
ENDBRANCH   1  27
BRANCH   5  29
HETATM   29  C14 UNL     1      18.266  75.370  20.004  1.00  0.00     0.100 C 
BRANCH  29  30
HETATM   30  C15 UNL     1      17.849  76.699  20.517  1.00  0.00     0.025 A 
HETATM   31  C16 UNL     1      18.223  76.978  21.843  1.00  0.00     0.062 A 
HETATM   32 CL1  UNL     1      19.006  75.720  22.781  1.00  0.00    -0.082 Cl
HETATM   33  C17 UNL     1      17.956  78.213  22.342  1.00  0.00     0.112 A 
HETATM   34  N3  UNL     1      17.346  79.181  21.615  1.00  0.00    -0.372 N 
HETATM   35  C18 UNL     1      17.003  78.909  20.364  1.00  0.00     0.112 A 
ATOM     36  H3  UNL     1      17.156  80.097  22.021  1.00  0.00     0.164 HD
HETATM   37  C19 UNL     1      17.253  77.653  19.785  1.00  0.00     0.062 A 
HETATM   38 CL2  UNL     1      16.988  77.517  18.043  1.00  0.00    -0.082 Cl
ENDBRANCH  29  30
ENDBRANCH   5  29
TORSDOF 7
ENDMDL
MODEL 4
REMARK VINA RESULT: -7.415293020      4.089      9.306
REMARK  7 active torsions:
REMARK  status: ('A' for Active; 'I' for Inactive)
REMARK    1  A    between atoms: C1_2  and  C2_3 
REMARK       I    between atoms: C1_2  and  N4_33 
REMARK    2  A    between atoms: C2_3  and  C3_4 
REMARK    3  A    between atoms: C8_9  and  N1_10 
REMARK       I    between atoms: N1_10  and  C9_12 
REMARK    4  A    between atoms: C9_12  and  C10_14 
REMARK    5  A    between atoms: C10_14  and  O3_15 
REMARK    6  A    between atoms: N2_20  and  C14_21 
REMARK    7  A    between atoms: C14_21  and  C15_22 
ROOT
HETATM    1  C10 UNL     1      19.021  72.342  21.272  1.00  0.00     0.140 C 
HETATM    2  C11 UNL     1      18.785  71.652  19.974  1.00  0.00     0.049 C 
HETATM    3  C12 UNL     1      19.590  70.339  20.046  1.00  0.00     0.023 C 
HETATM    4  C13 UNL     1      18.508  69.233  20.291  1.00  0.00     0.122 C 
HETATM    5  N2  UNL     1      18.285  69.199  21.634  1.00  0.00    -0.389 N 
HETATM    6  C20 UNL     1      17.668  70.393  22.162  1.00  0.00     0.125 C 
HETATM    7  C21 UNL     1      18.687  71.470  22.470  1.00  0.00     0.068 C 
ENDROOT
BRANCH   1   8
HETATM    8  C9  UNL     1      18.334  73.648  21.405  1.00  0.00     0.252 C 
HETATM    9  N1  UNL     1      17.957  74.468  20.330  1.00  0.00    -0.353 N 
ATOM     10  H1  UNL     1      18.091  74.034  19.418  1.00  0.00     0.163 HD
HETATM   11  O2  UNL     1      18.117  74.013  22.583  1.00  0.00    -0.270 OA
BRANCH   9  12
HETATM   12  C8  UNL     1      17.435  75.759  20.263  1.00  0.00     0.089 C 
HETATM   13  C3  UNL     1      18.036  77.048  20.097  1.00  0.00     0.017 C 
HETATM   14  C4  UNL     1      18.275  77.475  18.660  1.00  0.00     0.007 C 
HETATM   15  C5  UNL     1      16.904  77.937  18.109  1.00  0.00     0.001 C 
HETATM   16  C6  UNL     1      15.897  76.982  18.710  1.00  0.00     0.002 C 
HETATM   17  C7  UNL     1      16.497  75.641  18.941  1.00  0.00     0.025 C 
BRANCH  13  18
HETATM   18  C2  UNL     1      19.154  77.561  20.959  1.00  0.00     0.109 C 
BRANCH  18  19
HETATM   19  C1  UNL     1      18.485  78.599  21.837  1.00  0.00     0.220 C 
HETATM   20  O1  UNL     1      18.447  79.828  21.478  1.00  0.00    -0.273 OA
HETATM   21  N4  UNL     1      17.869  78.277  23.056  1.00  0.00    -0.341 N 
HETATM   22  C22 UNL     1      17.785  77.189  23.984  1.00  0.00     0.206 C 
HETATM   23  C24 UNL     1      16.816  78.949  23.862  1.00  0.00     0.206 C 
HETATM   24  C23 UNL     1      16.991  78.016  25.003  1.00  0.00     0.275 C 
HETATM   25  F1  UNL     1      17.760  78.439  26.037  1.00  0.00    -0.203 F 
HETATM   26  F2  UNL     1      15.853  77.366  25.454  1.00  0.00    -0.203 F 
ENDBRANCH  18  19
ENDBRANCH  13  18
ENDBRANCH   9  12
ENDBRANCH   1   8
BRANCH   1  27
HETATM   27  O3  UNL     1      20.439  72.525  21.306  1.00  0.00    -0.380 OA
ATOM     28  H3  UNL     1      20.655  73.329  21.765  1.00  0.00     0.211 HD
ENDBRANCH   1  27
BRANCH   5  29
HETATM   29  C14 UNL     1      17.917  68.093  22.375  1.00  0.00     0.100 C 
BRANCH  29  30
HETATM   30  C15 UNL     1      18.380  67.965  23.780  1.00  0.00     0.025 A 
HETATM   31  C16 UNL     1      17.444  67.420  24.676  1.00  0.00     0.062 A 
HETATM   32 CL1  UNL     1      15.825  67.076  24.099  1.00  0.00    -0.082 Cl
HETATM   33  C17 UNL     1      17.837  67.188  25.955  1.00  0.00     0.112 A 
HETATM   34  N3  UNL     1      19.089  67.459  26.398  1.00  0.00    -0.372 N 
HETATM   35  C18 UNL     1      19.965  67.968  25.544  1.00  0.00     0.112 A 
ATOM     36  H3  UNL     1      19.351  67.277  27.367  1.00  0.00     0.164 HD
HETATM   37  C19 UNL     1      19.626  68.230  24.206  1.00  0.00     0.062 A 
HETATM   38 CL2  UNL     1      20.953  68.653  23.119  1.00  0.00    -0.082 Cl
ENDBRANCH  29  30
ENDBRANCH   5  29
TORSDOF 7
ENDMDL
MODEL 5
REMARK VINA RESULT: -7.320625183      3.914      8.653
REMARK  7 active torsions:
REMARK  status: ('A' for Active; 'I' for Inactive)
REMARK    1  A    between atoms: C1_2  and  C2_3 
REMARK       I    between atoms: C1_2  and  N4_33 
REMARK    2  A    between atoms: C2_3  and  C3_4 
REMARK    3  A    between atoms: C8_9  and  N1_10 
REMARK       I    between atoms: N1_10  and  C9_12 
REMARK    4  A    between atoms: C9_12  and  C10_14 
REMARK    5  A    between atoms: C10_14  and  O3_15 
REMARK    6  A    between atoms: N2_20  and  C14_21 
REMARK    7  A    between atoms: C14_21  and  C15_22 
ROOT
HETATM    1  C10 UNL     1      17.130  74.284  20.948  1.00  0.00     0.140 C 
HETATM    2  C11 UNL     1      15.972  73.653  21.640  1.00  0.00     0.049 C 
HETATM    3  C12 UNL     1      15.527  72.488  20.733  1.00  0.00     0.023 C 
HETATM    4  C13 UNL     1      16.055  71.206  21.462  1.00  0.00     0.122 C 
HETATM    5  N2  UNL     1      17.351  71.046  21.074  1.00  0.00    -0.389 N 
HETATM    6  C20 UNL     1      18.240  72.084  21.539  1.00  0.00     0.125 C 
HETATM    7  C21 UNL     1      18.231  73.290  20.624  1.00  0.00     0.068 C 
ENDROOT
BRANCH   1   8
HETATM    8  C9  UNL     1      17.707  75.448  21.660  1.00  0.00     0.252 C 
HETATM    9  N1  UNL     1      17.785  75.577  23.054  1.00  0.00    -0.353 N 
ATOM     10  H1  UNL     1      17.511  74.735  23.559  1.00  0.00     0.163 HD
HETATM   11  O2  UNL     1      18.122  76.368  20.917  1.00  0.00    -0.270 OA
BRANCH   9  12
HETATM   12  C8  UNL     1      18.163  76.628  23.888  1.00  0.00     0.089 C 
HETATM   13  C3  UNL     1      18.787  77.895  23.642  1.00  0.00     0.017 C 
HETATM   14  C4  UNL     1      17.843  79.024  23.272  1.00  0.00     0.007 C 
HETATM   15  C5  UNL     1      17.188  79.495  24.594  1.00  0.00     0.001 C 
HETATM   16  C6  UNL     1      16.964  78.231  25.393  1.00  0.00     0.002 C 
HETATM   17  C7  UNL     1      16.723  77.065  24.502  1.00  0.00     0.025 C 
BRANCH  13  18
HETATM   18  C2  UNL     1      20.072  78.054  22.882  1.00  0.00     0.109 C 
BRANCH  18  19
HETATM   19  C1  UNL     1      21.027  77.113  23.589  1.00  0.00     0.220 C 
HETATM   20  O1  UNL     1      21.480  77.399  24.752  1.00  0.00    -0.273 OA
HETATM   21  N4  UNL     1      21.448  75.897  23.028  1.00  0.00    -0.341 N 
HETATM   22  C22 UNL     1      21.429  75.209  21.772  1.00  0.00     0.206 C 
HETATM   23  C24 UNL     1      21.982  74.645  23.623  1.00  0.00     0.206 C 
HETATM   24  C23 UNL     1      22.308  74.067  22.295  1.00  0.00     0.275 C 
HETATM   25  F1  UNL     1      23.594  74.170  21.874  1.00  0.00    -0.203 F 
HETATM   26  F2  UNL     1      21.786  72.813  22.018  1.00  0.00    -0.203 F 
ENDBRANCH  18  19
ENDBRANCH  13  18
ENDBRANCH   9  12
ENDBRANCH   1   8
BRANCH   1  27
HETATM   27  O3  UNL     1      16.590  74.694  19.689  1.00  0.00    -0.380 OA
ATOM     28  H3  UNL     1      17.018  74.227  18.981  1.00  0.00     0.211 HD
ENDBRANCH   1  27
BRANCH   5  29
HETATM   29  C14 UNL     1      18.026  69.847  20.950  1.00  0.00     0.100 C 
BRANCH  29  30
HETATM   30  C15 UNL     1      19.190  69.568  21.829  1.00  0.00     0.025 A 
HETATM   31  C16 UNL     1      18.897  68.870  23.013  1.00  0.00     0.062 A 
HETATM   32 CL1  UNL     1      17.222  68.522  23.396  1.00  0.00    -0.082 Cl
HETATM   33  C17 UNL     1      19.930  68.500  23.814  1.00  0.00     0.112 A 
HETATM   34  N3  UNL     1      21.223  68.774  23.518  1.00  0.00    -0.372 N 
HETATM   35  C18 UNL     1      21.488  69.428  22.396  1.00  0.00     0.112 A 
ATOM     36  H3  UNL     1      21.975  68.485  24.143  1.00  0.00     0.164 HD
HETATM   37  C19 UNL     1      20.468  69.838  21.520  1.00  0.00     0.062 A 
HETATM   38 CL2  UNL     1      20.976  70.457  19.945  1.00  0.00    -0.082 Cl
ENDBRANCH  29  30
ENDBRANCH   5  29
TORSDOF 7
ENDMDL
