MODEL 1
REMARK VINA RESULT: -8.045261551      0.000      0.000
REMARK  7 active torsions:
REMARK  status: ('A' for Active; 'I' for Inactive)
REMARK    1  A    between atoms: N1_2  and  C10_18 
REMARK    2  A    between atoms: C2_3  and  O1_4 
REMARK    3  A    between atoms: C2_3  and  C3_6 
REMARK    4  A    between atoms: C4_7  and  O2_8 
REMARK    5  A    between atoms: O2_8  and  C5_9 
REMARK    6  A    between atoms: C16_26  and  N3_27 
REMARK       I    between atoms: N3_27  and  C17_29 
REMARK    7  A    between atoms: C17_29  and  C18_31 
ROOT
HETATM    1  C10 UNL     1      16.695  67.669  17.343  1.00  0.00     0.128 C 
HETATM    2  C11 UNL     1      17.354  67.933  15.976  1.00  0.00     0.036 C 
HETATM    3  C12 UNL     1      18.671  68.628  16.233  1.00  0.00     0.010 C 
HETATM    4  C13 UNL     1      19.129  69.317  14.975  1.00  0.00     0.009 C 
HETATM    5  C14 UNL     1      18.405  70.553  15.446  1.00  0.00     0.026 C 
HETATM    6  C15 UNL     1      18.425  69.991  16.824  1.00  0.00     0.082 C 
HETATM    7  N2  UNL     1      17.251  70.088  17.603  1.00  0.00    -0.395 N 
ATOM      8  H2  UNL     1      16.840  71.006  17.770  1.00  0.00     0.155 HD
HETATM    9  C16 UNL     1      16.642  68.960  18.151  1.00  0.00     0.203 C 
ENDROOT
BRANCH   1  10
HETATM   10  N1  UNL     1      15.397  67.218  17.048  1.00  0.00    -0.357 N 
HETATM   11  C1  UNL     1      14.362  68.000  17.859  1.00  0.00     0.152 C 
HETATM   12  C2  UNL     1      14.860  66.208  16.313  1.00  0.00     0.154 C 
BRANCH  12  13
HETATM   13  O1  UNL     1      13.531  66.128  16.604  1.00  0.00    -0.345 OA
ATOM     14  H1  UNL     1      13.435  65.680  17.435  1.00  0.00     0.219 HD
ENDBRANCH  12  13
BRANCH  12  15
HETATM   15  C3  UNL     1      15.193  65.204  15.351  1.00  0.00     0.088 A 
HETATM   16  C4  UNL     1      14.972  65.535  13.974  1.00  0.00     0.092 A 
HETATM   17  C6  UNL     1      15.331  64.624  13.019  1.00  0.00     0.040 A 
HETATM   18  C7  UNL     1      15.896  63.404  13.342  1.00  0.00     0.030 A 
HETATM   19  C8  UNL     1      16.107  63.091  14.650  1.00  0.00     0.073 A 
HETATM   20 CL1  UNL     1      16.818  61.565  15.125  1.00  0.00    -0.081 Cl
HETATM   21  C9  UNL     1      15.756  63.992  15.644  1.00  0.00     0.155 A 
HETATM   22  F3  UNL     1      16.073  63.602  16.921  1.00  0.00    -0.203 F 
BRANCH  16  23
HETATM   23  O2  UNL     1      14.407  66.748  13.655  1.00  0.00    -0.289 OA
BRANCH  23  24
HETATM   24  C5  UNL     1      13.155  66.927  13.119  1.00  0.00     0.505 C 
HETATM   25  F1  UNL     1      12.183  66.144  13.746  1.00  0.00    -0.184 F 
HETATM   26  F2  UNL     1      12.681  68.241  13.310  1.00  0.00    -0.184 F 
ENDBRANCH  23  24
ENDBRANCH  16  23
ENDBRANCH  12  15
ENDBRANCH   1  10
BRANCH   9  27
HETATM   27  N3  UNL     1      17.254  68.685  19.435  1.00  0.00    -0.336 N 
HETATM   28  C17 UNL     1      16.815  69.271  20.649  1.00  0.00     0.248 C 
HETATM   29  O3  UNL     1      15.842  70.065  20.563  1.00  0.00    -0.271 OA
ATOM     30  H3  UNL     1      18.041  68.038  19.467  1.00  0.00     0.164 HD
BRANCH  28  31
HETATM   31  C18 UNL     1      17.477  68.958  21.959  1.00  0.00     0.213 C 
HETATM   32  C19 UNL     1      18.974  68.972  21.662  1.00  0.00     0.044 C 
HETATM   33  C20 UNL     1      19.680  67.839  22.396  1.00  0.00     0.038 C 
HETATM   34  C21 UNL     1      19.661  68.063  23.900  1.00  0.00     0.159 A 
HETATM   35  O4  UNL     1      18.876  69.125  24.290  1.00  0.00    -0.367 OA
HETATM   36  C22 UNL     1      18.261  67.938  24.462  1.00  0.00     0.105 A 
HETATM   37  C23 UNL     1      18.149  67.485  25.924  1.00  0.00     0.051 C 
HETATM   38  C24 UNL     1      17.411  67.217  23.523  1.00  0.00     0.209 C 
HETATM   39  O5  UNL     1      17.122  67.716  22.324  1.00  0.00    -0.373 OA
ENDBRANCH  28  31
ENDBRANCH   9  27
TORSDOF 7
ENDMDL
MODEL 2
REMARK VINA RESULT: -7.906837007      3.297      4.535
REMARK  7 active torsions:
REMARK  status: ('A' for Active; 'I' for Inactive)
REMARK    1  A    between atoms: N1_2  and  C10_18 
REMARK    2  A    between atoms: C2_3  and  O1_4 
REMARK    3  A    between atoms: C2_3  and  C3_6 
REMARK    4  A    between atoms: C4_7  and  O2_8 
REMARK    5  A    between atoms: O2_8  and  C5_9 
REMARK    6  A    between atoms: C16_26  and  N3_27 
REMARK       I    between atoms: N3_27  and  C17_29 
REMARK    7  A    between atoms: C17_29  and  C18_31 
ROOT
HETATM    1  C10 UNL     1      17.235  72.119  18.216  1.00  0.00     0.128 C 
HETATM    2  C11 UNL     1      16.762  73.552  17.907  1.00  0.00     0.036 C 
HETATM    3  C12 UNL     1      16.485  74.232  19.228  1.00  0.00     0.010 C 
HETATM    4  C13 UNL     1      15.600  75.429  19.000  1.00  0.00     0.009 C 
HETATM    5  C14 UNL     1      14.409  74.533  19.231  1.00  0.00     0.026 C 
HETATM    6  C15 UNL     1      15.319  73.570  19.911  1.00  0.00     0.082 C 
HETATM    7  N2  UNL     1      15.174  72.195  19.622  1.00  0.00    -0.395 N 
ATOM      8  H2  UNL     1      14.269  71.749  19.767  1.00  0.00     0.155 HD
HETATM    9  C16 UNL     1      16.239  71.433  19.144  1.00  0.00     0.203 C 
ENDROOT
BRANCH   1  10
HETATM   10  N1  UNL     1      17.277  71.467  16.971  1.00  0.00    -0.357 N 
HETATM   11  C1  UNL     1      18.362  72.079  16.082  1.00  0.00     0.152 C 
HETATM   12  C2  UNL     1      16.532  70.519  16.342  1.00  0.00     0.154 C 
BRANCH  12  13
HETATM   13  O1  UNL     1      16.923  70.465  15.037  1.00  0.00    -0.345 OA
ATOM     14  H1  UNL     1      16.182  70.706  14.495  1.00  0.00     0.219 HD
ENDBRANCH  12  13
BRANCH  12  15
HETATM   15  C3  UNL     1      15.489  69.565  16.562  1.00  0.00     0.088 A 
HETATM   16  C4  UNL     1      14.230  69.834  15.934  1.00  0.00     0.092 A 
HETATM   17  C6  UNL     1      13.224  68.918  16.071  1.00  0.00     0.040 A 
HETATM   18  C7  UNL     1      13.388  67.749  16.793  1.00  0.00     0.030 A 
HETATM   19  C8  UNL     1      14.585  67.495  17.388  1.00  0.00     0.073 A 
HETATM   20 CL1  UNL     1      14.857  66.035  18.314  1.00  0.00    -0.081 Cl
HETATM   21  C9  UNL     1      15.627  68.402  17.267  1.00  0.00     0.155 A 
HETATM   22  F3  UNL     1      16.807  68.013  17.851  1.00  0.00    -0.203 F 
BRANCH  16  23
HETATM   23  O2  UNL     1      14.068  70.998  15.219  1.00  0.00    -0.289 OA
BRANCH  23  24
HETATM   24  C5  UNL     1      13.531  72.165  15.707  1.00  0.00     0.505 C 
HETATM   25  F1  UNL     1      13.322  72.126  17.087  1.00  0.00    -0.184 F 
HETATM   26  F2  UNL     1      14.407  73.258  15.546  1.00  0.00    -0.184 F 
ENDBRANCH  23  24
ENDBRANCH  16  23
ENDBRANCH  12  15
ENDBRANCH   1  10
BRANCH   9  27
HETATM   27  N3  UNL     1      16.989  70.930  20.277  1.00  0.00    -0.336 N 
HETATM   28  C17 UNL     1      16.607  69.783  21.017  1.00  0.00     0.248 C 
HETATM   29  O3  UNL     1      15.557  69.202  20.639  1.00  0.00    -0.271 OA
ATOM     30  H3  UNL     1      17.835  71.427  20.556  1.00  0.00     0.164 HD
BRANCH  28  31
HETATM   31  C18 UNL     1      17.413  69.295  22.184  1.00  0.00     0.213 C 
HETATM   32  C19 UNL     1      18.853  69.246  21.683  1.00  0.00     0.044 C 
HETATM   33  C20 UNL     1      19.563  68.001  22.199  1.00  0.00     0.038 C 
HETATM   34  C21 UNL     1      19.762  68.067  23.705  1.00  0.00     0.159 A 
HETATM   35  O4  UNL     1      19.120  69.130  24.300  1.00  0.00    -0.367 OA
HETATM   36  C22 UNL     1      18.445  67.972  24.444  1.00  0.00     0.105 A 
HETATM   37  C23 UNL     1      18.497  67.377  25.858  1.00  0.00     0.051 C 
HETATM   38  C24 UNL     1      17.425  67.408  23.571  1.00  0.00     0.209 C 
HETATM   39  O5  UNL     1      17.016  68.045  22.477  1.00  0.00    -0.373 OA
ENDBRANCH  28  31
ENDBRANCH   9  27
TORSDOF 7
ENDMDL
MODEL 3
REMARK VINA RESULT: -7.871884852      6.950      9.893
REMARK  7 active torsions:
REMARK  status: ('A' for Active; 'I' for Inactive)
REMARK    1  A    between atoms: N1_2  and  C10_18 
REMARK    2  A    between atoms: C2_3  and  O1_4 
REMARK    3  A    between atoms: C2_3  and  C3_6 
REMARK    4  A    between atoms: C4_7  and  O2_8 
REMARK    5  A    between atoms: O2_8  and  C5_9 
REMARK    6  A    between atoms: C16_26  and  N3_27 
REMARK       I    between atoms: N3_27  and  C17_29 
REMARK    7  A    between atoms: C17_29  and  C18_31 
ROOT
HETATM    1  C10 UNL     1      16.845  74.646  20.447  1.00  0.00     0.128 C 
HETATM    2  C11 UNL     1      15.627  75.001  19.573  1.00  0.00     0.036 C 
HETATM    3  C12 UNL     1      14.804  73.744  19.408  1.00  0.00     0.010 C 
HETATM    4  C13 UNL     1      13.890  73.894  18.222  1.00  0.00     0.009 C 
HETATM    5  C14 UNL     1      14.971  73.277  17.371  1.00  0.00     0.026 C 
HETATM    6  C15 UNL     1      15.577  72.725  18.614  1.00  0.00     0.082 C 
HETATM    7  N2  UNL     1      16.979  72.804  18.767  1.00  0.00    -0.395 N 
ATOM      8  H2  UNL     1      17.580  72.393  18.054  1.00  0.00     0.155 HD
HETATM    9  C16 UNL     1      17.560  73.430  19.868  1.00  0.00     0.203 C 
ENDROOT
BRANCH   1  10
HETATM   10  N1  UNL     1      17.679  75.776  20.397  1.00  0.00    -0.357 N 
HETATM   11  C1  UNL     1      17.136  76.798  19.396  1.00  0.00     0.152 C 
HETATM   12  C2  UNL     1      18.879  76.125  20.931  1.00  0.00     0.154 C 
BRANCH  12  13
HETATM   13  O1  UNL     1      19.301  77.271  20.323  1.00  0.00    -0.345 OA
ATOM     14  H1  UNL     1      18.774  77.991  20.648  1.00  0.00     0.219 HD
ENDBRANCH  12  13
BRANCH  12  15
HETATM   15  C3  UNL     1      19.853  75.719  21.897  1.00  0.00     0.088 A 
HETATM   16  C4  UNL     1      19.849  76.420  23.147  1.00  0.00     0.092 A 
HETATM   17  C6  UNL     1      20.725  76.024  24.119  1.00  0.00     0.040 A 
HETATM   18  C7  UNL     1      21.608  74.976  23.930  1.00  0.00     0.030 A 
HETATM   19  C8  UNL     1      21.610  74.310  22.743  1.00  0.00     0.073 A 
HETATM   20 CL1  UNL     1      22.701  72.976  22.441  1.00  0.00    -0.081 Cl
HETATM   21  C9  UNL     1      20.733  74.685  21.736  1.00  0.00     0.155 A 
HETATM   22  F3  UNL     1      20.776  73.904  20.608  1.00  0.00    -0.203 F 
BRANCH  16  23
HETATM   23  O2  UNL     1      18.972  77.464  23.331  1.00  0.00    -0.289 OA
BRANCH  23  24
HETATM   24  C5  UNL     1      17.740  77.372  23.932  1.00  0.00     0.505 C 
HETATM   25  F1  UNL     1      17.225  76.074  23.911  1.00  0.00    -0.184 F 
HETATM   26  F2  UNL     1      17.800  77.671  25.309  1.00  0.00    -0.184 F 
ENDBRANCH  23  24
ENDBRANCH  16  23
ENDBRANCH  12  15
ENDBRANCH   1  10
BRANCH   9  27
HETATM   27  N3  UNL     1      17.680  72.458  20.937  1.00  0.00    -0.336 N 
HETATM   28  C17 UNL     1      18.463  71.281  20.836  1.00  0.00     0.248 C 
HETATM   29  O3  UNL     1      19.068  71.108  19.746  1.00  0.00    -0.271 OA
ATOM     30  H3  UNL     1      17.175  72.631  21.807  1.00  0.00     0.164 HD
BRANCH  28  31
HETATM   31  C18 UNL     1      18.561  70.301  21.968  1.00  0.00     0.213 C 
HETATM   32  C19 UNL     1      19.928  69.643  21.810  1.00  0.00     0.044 C 
HETATM   33  C20 UNL     1      19.846  68.150  22.099  1.00  0.00     0.038 C 
HETATM   34  C21 UNL     1      19.546  67.890  23.567  1.00  0.00     0.159 A 
HETATM   35  O4  UNL     1      19.245  69.030  24.278  1.00  0.00    -0.367 OA
HETATM   36  C22 UNL     1      18.145  68.329  23.933  1.00  0.00     0.105 A 
HETATM   37  C23 UNL     1      17.477  67.582  25.095  1.00  0.00     0.051 C 
HETATM   38  C24 UNL     1      17.334  68.458  22.730  1.00  0.00     0.209 C 
HETATM   39  O5  UNL     1      17.611  69.367  21.798  1.00  0.00    -0.373 OA
ENDBRANCH  28  31
ENDBRANCH   9  27
TORSDOF 7
ENDMDL
MODEL 4
REMARK VINA RESULT: -7.831434189      4.728      8.908
REMARK  7 active torsions:
REMARK  status: ('A' for Active; 'I' for Inactive)
REMARK    1  A    between atoms: N1_2  and  C10_18 
REMARK    2  A    between atoms: C2_3  and  O1_4 
REMARK    3  A    between atoms: C2_3  and  C3_6 
REMARK    4  A    between atoms: C4_7  and  O2_8 
REMARK    5  A    between atoms: O2_8  and  C5_9 
REMARK    6  A    between atoms: C16_26  and  N3_27 
REMARK       I    between atoms: N3_27  and  C17_29 
REMARK    7  A    between atoms: C17_29  and  C18_31 
ROOT
HETATM    1  C10 UNL     1      19.216  69.380  21.419  1.00  0.00     0.128 C 
HETATM    2  C11 UNL     1      19.638  69.008  22.853  1.00  0.00     0.036 C 
HETATM    3  C12 UNL     1      19.050  67.649  23.161  1.00  0.00     0.010 C 
HETATM    4  C13 UNL     1      19.022  67.441  24.652  1.00  0.00     0.009 C 
HETATM    5  C14 UNL     1      17.631  68.025  24.659  1.00  0.00     0.026 C 
HETATM    6  C15 UNL     1      17.548  67.738  23.200  1.00  0.00     0.082 C 
HETATM    7  N2  UNL     1      16.997  68.726  22.355  1.00  0.00    -0.395 N 
ATOM      8  H2  UNL     1      16.057  69.073  22.543  1.00  0.00     0.155 HD
HETATM    9  C16 UNL     1      17.706  69.238  21.270  1.00  0.00     0.203 C 
ENDROOT
BRANCH   1  10
HETATM   10  N1  UNL     1      19.603  70.722  21.257  1.00  0.00    -0.357 N 
HETATM   11  C1  UNL     1      21.072  70.906  21.642  1.00  0.00     0.152 C 
HETATM   12  C2  UNL     1      18.972  71.887  20.952  1.00  0.00     0.154 C 
BRANCH  12  13
HETATM   13  O1  UNL     1      19.838  72.915  21.181  1.00  0.00    -0.345 OA
ATOM     14  H1  UNL     1      19.357  73.730  21.107  1.00  0.00     0.219 HD
ENDBRANCH  12  13
BRANCH  12  15
HETATM   15  C3  UNL     1      17.729  72.414  20.479  1.00  0.00     0.088 A 
HETATM   16  C4  UNL     1      17.132  73.454  21.264  1.00  0.00     0.092 A 
HETATM   17  C6  UNL     1      15.973  74.025  20.817  1.00  0.00     0.040 A 
HETATM   18  C7  UNL     1      15.367  73.631  19.637  1.00  0.00     0.030 A 
HETATM   19  C8  UNL     1      15.936  72.644  18.892  1.00  0.00     0.073 A 
HETATM   20 CL1  UNL     1      15.220  72.100  17.391  1.00  0.00    -0.081 Cl
HETATM   21  C9  UNL     1      17.112  72.045  19.316  1.00  0.00     0.155 A 
HETATM   22  F3  UNL     1      17.631  71.110  18.455  1.00  0.00    -0.203 F 
BRANCH  16  23
HETATM   23  O2  UNL     1      17.735  73.842  22.438  1.00  0.00    -0.289 OA
BRANCH  23  24
HETATM   24  C5  UNL     1      18.037  75.136  22.788  1.00  0.00     0.505 C 
HETATM   25  F1  UNL     1      17.098  75.692  23.659  1.00  0.00    -0.184 F 
HETATM   26  F2  UNL     1      19.241  75.219  23.518  1.00  0.00    -0.184 F 
ENDBRANCH  23  24
ENDBRANCH  16  23
ENDBRANCH  12  15
ENDBRANCH   1  10
BRANCH   9  27
HETATM   27  N3  UNL     1      17.471  68.383  20.123  1.00  0.00    -0.336 N 
HETATM   28  C17 UNL     1      16.245  68.355  19.411  1.00  0.00     0.248 C 
HETATM   29  O3  UNL     1      15.341  69.125  19.830  1.00  0.00    -0.271 OA
ATOM     30  H3  UNL     1      18.225  67.772  19.813  1.00  0.00     0.164 HD
BRANCH  28  31
HETATM   31  C18 UNL     1      16.042  67.455  18.228  1.00  0.00     0.213 C 
HETATM   32  C19 UNL     1      15.129  68.234  17.286  1.00  0.00     0.044 C 
HETATM   33  C20 UNL     1      14.091  67.313  16.657  1.00  0.00     0.038 C 
HETATM   34  C21 UNL     1      14.741  66.320  15.706  1.00  0.00     0.159 A 
HETATM   35  O4  UNL     1      16.118  66.342  15.744  1.00  0.00    -0.367 OA
HETATM   36  C22 UNL     1      15.598  65.318  16.451  1.00  0.00     0.105 A 
HETATM   37  C23 UNL     1      15.765  63.941  15.794  1.00  0.00     0.051 C 
HETATM   38  C24 UNL     1      15.223  65.293  17.858  1.00  0.00     0.209 C 
HETATM   39  O5  UNL     1      15.395  66.354  18.643  1.00  0.00    -0.373 OA
ENDBRANCH  28  31
ENDBRANCH   9  27
TORSDOF 7
ENDMDL
MODEL 5
REMARK VINA RESULT: -7.757001060      4.333      8.734
REMARK  7 active torsions:
REMARK  status: ('A' for Active; 'I' for Inactive)
REMARK    1  A    between atoms: N1_2  and  C10_18 
REMARK    2  A    between atoms: C2_3  and  O1_4 
REMARK    3  A    between atoms: C2_3  and  C3_6 
REMARK    4  A    between atoms: C4_7  and  O2_8 
REMARK    5  A    between atoms: O2_8  and  C5_9 
REMARK    6  A    between atoms: C16_26  and  N3_27 
REMARK       I    between atoms: N3_27  and  C17_29 
REMARK    7  A    between atoms: C17_29  and  C18_31 
ROOT
HETATM    1  C10 UNL     1      19.185  68.503  22.133  1.00  0.00     0.128 C 
HETATM    2  C11 UNL     1      19.343  68.015  23.586  1.00  0.00     0.036 C 
HETATM    3  C12 UNL     1      18.236  67.020  23.853  1.00  0.00     0.010 C 
HETATM    4  C13 UNL     1      18.047  66.866  25.339  1.00  0.00     0.009 C 
HETATM    5  C14 UNL     1      17.019  67.967  25.274  1.00  0.00     0.026 C 
HETATM    6  C15 UNL     1      16.901  67.715  23.811  1.00  0.00     0.082 C 
HETATM    7  N2  UNL     1      16.847  68.828  22.943  1.00  0.00    -0.395 N 
ATOM      8  H2  UNL     1      16.122  69.531  23.082  1.00  0.00     0.155 HD
HETATM    9  C16 UNL     1      17.759  68.987  21.901  1.00  0.00     0.203 C 
ENDROOT
BRANCH   1  10
HETATM   10  N1  UNL     1      20.094  69.567  22.000  1.00  0.00    -0.357 N 
HETATM   11  C1  UNL     1      21.518  69.096  22.302  1.00  0.00     0.152 C 
HETATM   12  C2  UNL     1      20.001  70.905  21.779  1.00  0.00     0.154 C 
BRANCH  12  13
HETATM   13  O1  UNL     1      21.227  71.460  21.995  1.00  0.00    -0.345 OA
ATOM     14  H1  UNL     1      21.237  72.323  21.598  1.00  0.00     0.219 HD
ENDBRANCH  12  13
BRANCH  12  15
HETATM   15  C3  UNL     1      19.079  71.932  21.404  1.00  0.00     0.088 A 
HETATM   16  C4  UNL     1      18.478  71.815  20.108  1.00  0.00     0.092 A 
HETATM   17  C6  UNL     1      17.548  72.744  19.734  1.00  0.00     0.040 A 
HETATM   18  C7  UNL     1      17.174  73.785  20.565  1.00  0.00     0.030 A 
HETATM   19  C8  UNL     1      17.744  73.895  21.796  1.00  0.00     0.073 A 
HETATM   20 CL1  UNL     1      17.315  75.188  22.893  1.00  0.00    -0.081 Cl
HETATM   21  C9  UNL     1      18.691  72.969  22.207  1.00  0.00     0.155 A 
HETATM   22  F3  UNL     1      19.150  73.137  23.489  1.00  0.00    -0.203 F 
BRANCH  16  23
HETATM   23  O2  UNL     1      18.854  70.780  19.283  1.00  0.00    -0.289 OA
BRANCH  23  24
HETATM   24  C5  UNL     1      18.883  70.827  17.910  1.00  0.00     0.505 C 
HETATM   25  F1  UNL     1      19.586  69.759  17.349  1.00  0.00    -0.184 F 
HETATM   26  F2  UNL     1      17.596  70.693  17.350  1.00  0.00    -0.184 F 
ENDBRANCH  23  24
ENDBRANCH  16  23
ENDBRANCH  12  15
ENDBRANCH   1  10
BRANCH   9  27
HETATM   27  N3  UNL     1      17.255  68.284  20.738  1.00  0.00    -0.336 N 
HETATM   28  C17 UNL     1      16.180  68.760  19.945  1.00  0.00     0.248 C 
HETATM   29  O3  UNL     1      15.665  69.851  20.305  1.00  0.00    -0.271 OA
ATOM     30  H3  UNL     1      17.695  67.403  20.477  1.00  0.00     0.164 HD
BRANCH  28  31
HETATM   31  C18 UNL     1      15.689  68.001  18.748  1.00  0.00     0.213 C 
HETATM   32  C19 UNL     1      16.948  67.487  18.058  1.00  0.00     0.044 C 
HETATM   33  C20 UNL     1      16.821  67.607  16.544  1.00  0.00     0.038 C 
HETATM   34  C21 UNL     1      15.763  66.658  16.004  1.00  0.00     0.159 A 
HETATM   35  O4  UNL     1      15.033  66.029  16.988  1.00  0.00    -0.367 OA
HETATM   36  C22 UNL     1      14.374  67.070  16.441  1.00  0.00     0.105 A 
HETATM   37  C23 UNL     1      13.220  66.674  15.509  1.00  0.00     0.051 C 
HETATM   38  C24 UNL     1      14.378  68.464  16.863  1.00  0.00     0.209 C 
HETATM   39  O5  UNL     1      15.070  68.866  17.927  1.00  0.00    -0.373 OA
ENDBRANCH  28  31
ENDBRANCH   9  27
TORSDOF 7
ENDMDL
