MODEL 1
REMARK VINA RESULT: -7.428586695      0.000      0.000
REMARK  13 active torsions:
REMARK  status: ('A' for Active; 'I' for Inactive)
REMARK    1  A    between atoms: C2_2  and  C4_4 
REMARK    2  A    between atoms: C4_4  and  N1_5 
REMARK    3  A    between atoms: C4_4  and  C7_12 
REMARK       I    between atoms: N1_5  and  C5_7 
REMARK    4  A    between atoms: C5_7  and  C6_9 
REMARK    5  A    between atoms: C7_12  and  C8_13 
REMARK    6  A    between atoms: C7_12  and  N4_30 
REMARK    7  A    between atoms: C9_14  and  C10_15 
REMARK    8  A    between atoms: C10_15  and  C11_16 
REMARK    9  A    between atoms: C11_16  and  C13_19 
REMARK   10  A    between atoms: C13_19  and  O2_20 
REMARK   11  A    between atoms: C13_19  and  N3_22 
REMARK       I    between atoms: N4_30  and  C19_32 
REMARK   12  A    between atoms: C19_32  and  O4_34 
REMARK   13  A    between atoms: O4_34  and  C20_35 
ROOT
HETATM    1  C11 UNL     1       6.333  31.793  21.606  1.00  0.00     0.103 C 
HETATM    2  C12 UNL     1       5.255  30.883  21.719  1.00  0.00     0.104 C 
HETATM    3  N2  UNL     1       4.371  30.117  21.781  1.00  0.00    -0.191 NA
ENDROOT
BRANCH   1   4
HETATM    4  C10 UNL     1       7.228  31.488  20.635  1.00  0.00     0.091 C 
BRANCH   4   5
HETATM    5  C9  UNL     1       6.762  30.872  19.448  1.00  0.00    -0.075 C 
HETATM    6  C8  UNL     1       6.348  30.351  18.452  1.00  0.00    -0.074 C 
BRANCH   6   7
HETATM    7  C7  UNL     1       5.815  29.692  17.230  1.00  0.00     0.190 C 
BRANCH   7   8
HETATM    8  C4  UNL     1       4.476  30.248  16.896  1.00  0.00     0.122 C 
BRANCH   8   9
HETATM    9  C2  UNL     1       3.781  30.832  18.075  1.00  0.00     0.003 C 
HETATM   10  C1  UNL     1       2.630  30.038  18.568  1.00  0.00     0.011 C 
HETATM   11  C3  UNL     1       3.326  32.273  17.791  1.00  0.00     0.011 C 
ENDBRANCH   8   9
BRANCH   8  12
HETATM   12  N1  UNL     1       3.665  29.305  16.162  1.00  0.00    -0.351 N 
HETATM   13  C5  UNL     1       3.779  29.135  14.757  1.00  0.00     0.251 C 
HETATM   14  O1  UNL     1       4.596  29.807  14.113  1.00  0.00    -0.271 OA
ATOM     15  H1  UNL     1       2.985  28.740  16.671  1.00  0.00     0.163 HD
BRANCH  13  16
HETATM   16  C6  UNL     1       2.902  28.140  14.087  1.00  0.00     0.269 C 
HETATM   17 CL1  UNL     1       2.954  28.455  12.349  1.00  0.00    -0.098 Cl
HETATM   18 CL2  UNL     1       3.451  26.501  14.480  1.00  0.00    -0.098 Cl
ENDBRANCH  13  16
ENDBRANCH   8  12
ENDBRANCH   7   8
BRANCH   7  19
HETATM   19  N4  UNL     1       6.803  29.704  16.194  1.00  0.00    -0.320 N 
HETATM   20  C19 UNL     1       7.924  28.800  16.221  1.00  0.00     0.362 C 
HETATM   21  O3  UNL     1       8.057  27.982  17.157  1.00  0.00    -0.238 OA
ATOM     22  H4  UNL     1       6.712  30.364  15.423  1.00  0.00     0.166 HD
BRANCH  20  23
HETATM   23  O4  UNL     1       8.851  28.830  15.228  1.00  0.00    -0.294 OA
BRANCH  23  24
HETATM   24  C20 UNL     1       8.887  27.970  14.114  1.00  0.00     0.061 C 
HETATM   25  C21 UNL     1       7.481  27.450  13.894  1.00  0.00     0.046 C 
HETATM   26  C22 UNL     1       9.749  26.771  14.461  1.00  0.00     0.046 C 
HETATM   27  C23 UNL     1       9.394  28.616  12.873  1.00  0.00     0.046 C 
ENDBRANCH  23  24
ENDBRANCH  20  23
ENDBRANCH   7  19
ENDBRANCH   6   7
ENDBRANCH   4   5
ENDBRANCH   1   4
BRANCH   1  28
HETATM   28  C13 UNL     1       6.588  32.987  22.359  1.00  0.00     0.159 C 
BRANCH  28  29
HETATM   29  O2  UNL     1       6.142  32.971  23.600  1.00  0.00    -0.345 OA
ATOM     30  H2  UNL     1       5.197  32.929  23.687  1.00  0.00     0.219 HD
ENDBRANCH  28  29
BRANCH  28  31
HETATM   31  N3  UNL     1       7.231  34.162  22.007  1.00  0.00    -0.360 N 
HETATM   32  C14 UNL     1       6.915  35.000  20.905  1.00  0.00     0.131 C 
HETATM   33  C15 UNL     1       7.991  34.707  19.855  1.00  0.00     0.099 C 
HETATM   34  C16 UNL     1       9.345  34.782  20.476  1.00  0.00     0.246 C 
HETATM   35  F1  UNL     1       9.984  33.549  20.285  1.00  0.00    -0.206 F 
HETATM   36  F2  UNL     1      10.094  35.686  19.709  1.00  0.00    -0.206 F 
HETATM   37  C17 UNL     1       9.412  35.253  21.883  1.00  0.00     0.099 C 
HETATM   38  C18 UNL     1       8.392  34.625  22.807  1.00  0.00     0.131 C 
ENDBRANCH  28  31
ENDBRANCH   1  28
TORSDOF 13
ENDMDL
MODEL 2
REMARK VINA RESULT: -7.373914404      1.772      2.480
REMARK  13 active torsions:
REMARK  status: ('A' for Active; 'I' for Inactive)
REMARK    1  A    between atoms: C2_2  and  C4_4 
REMARK    2  A    between atoms: C4_4  and  N1_5 
REMARK    3  A    between atoms: C4_4  and  C7_12 
REMARK       I    between atoms: N1_5  and  C5_7 
REMARK    4  A    between atoms: C5_7  and  C6_9 
REMARK    5  A    between atoms: C7_12  and  C8_13 
REMARK    6  A    between atoms: C7_12  and  N4_30 
REMARK    7  A    between atoms: C9_14  and  C10_15 
REMARK    8  A    between atoms: C10_15  and  C11_16 
REMARK    9  A    between atoms: C11_16  and  C13_19 
REMARK   10  A    between atoms: C13_19  and  O2_20 
REMARK   11  A    between atoms: C13_19  and  N3_22 
REMARK       I    between atoms: N4_30  and  C19_32 
REMARK   12  A    between atoms: C19_32  and  O4_34 
REMARK   13  A    between atoms: O4_34  and  C20_35 
ROOT
HETATM    1  C11 UNL     1       4.697  33.830  19.846  1.00  0.00     0.103 C 
HETATM    2  C12 UNL     1       3.582  34.685  20.012  1.00  0.00     0.104 C 
HETATM    3  N2  UNL     1       2.663  35.405  20.116  1.00  0.00    -0.191 NA
ENDROOT
BRANCH   1   4
HETATM    4  C10 UNL     1       5.064  33.626  18.558  1.00  0.00     0.091 C 
BRANCH   4   5
HETATM    5  C9  UNL     1       5.214  32.295  18.094  1.00  0.00    -0.075 C 
HETATM    6  C8  UNL     1       5.354  31.167  17.719  1.00  0.00    -0.074 C 
BRANCH   6   7
HETATM    7  C7  UNL     1       5.555  29.765  17.262  1.00  0.00     0.190 C 
BRANCH   7   8
HETATM    8  C4  UNL     1       4.239  29.121  17.009  1.00  0.00     0.122 C 
BRANCH   8   9
HETATM    9  C2  UNL     1       3.796  28.247  18.129  1.00  0.00     0.003 C 
HETATM   10  C1  UNL     1       4.896  27.724  18.976  1.00  0.00     0.011 C 
HETATM   11  C3  UNL     1       2.945  27.074  17.614  1.00  0.00     0.011 C 
ENDBRANCH   8   9
BRANCH   8  12
HETATM   12  N1  UNL     1       4.193  28.468  15.721  1.00  0.00    -0.351 N 
HETATM   13  C5  UNL     1       3.623  29.083  14.576  1.00  0.00     0.251 C 
HETATM   14  O1  UNL     1       3.140  30.221  14.656  1.00  0.00    -0.271 OA
ATOM     15  H1  UNL     1       4.585  27.530  15.631  1.00  0.00     0.163 HD
BRANCH  13  16
HETATM   16  C6  UNL     1       3.621  28.335  13.292  1.00  0.00     0.269 C 
HETATM   17 CL1  UNL     1       3.811  26.618  13.665  1.00  0.00    -0.098 Cl
HETATM   18 CL2  UNL     1       2.115  28.660  12.414  1.00  0.00    -0.098 Cl
ENDBRANCH  13  16
ENDBRANCH   8  12
ENDBRANCH   7   8
BRANCH   7  19
HETATM   19  N4  UNL     1       6.515  29.727  16.201  1.00  0.00    -0.320 N 
HETATM   20  C19 UNL     1       7.719  28.943  16.310  1.00  0.00     0.362 C 
HETATM   21  O3  UNL     1       7.950  28.276  17.341  1.00  0.00    -0.238 OA
ATOM     22  H4  UNL     1       6.344  30.266  15.352  1.00  0.00     0.166 HD
BRANCH  20  23
HETATM   23  O4  UNL     1       8.617  28.924  15.290  1.00  0.00    -0.294 OA
BRANCH  23  24
HETATM   24  C20 UNL     1       8.723  27.918  14.311  1.00  0.00     0.061 C 
HETATM   25  C21 UNL     1       9.293  28.556  13.061  1.00  0.00     0.046 C 
HETATM   26  C22 UNL     1       7.327  27.438  13.961  1.00  0.00     0.046 C 
HETATM   27  C23 UNL     1       9.565  26.763  14.727  1.00  0.00     0.046 C 
ENDBRANCH  23  24
ENDBRANCH  20  23
ENDBRANCH   7  19
ENDBRANCH   6   7
ENDBRANCH   4   5
ENDBRANCH   1   4
BRANCH   1  28
HETATM   28  C13 UNL     1       5.488  33.175  20.848  1.00  0.00     0.159 C 
BRANCH  28  29
HETATM   29  O2  UNL     1       4.817  32.382  21.660  1.00  0.00    -0.345 OA
ATOM     30  H2  UNL     1       4.120  31.884  21.251  1.00  0.00     0.219 HD
ENDBRANCH  28  29
BRANCH  28  31
HETATM   31  N3  UNL     1       6.847  33.229  21.110  1.00  0.00    -0.360 N 
HETATM   32  C14 UNL     1       7.499  34.107  22.015  1.00  0.00     0.131 C 
HETATM   33  C15 UNL     1       8.153  35.178  21.137  1.00  0.00     0.099 C 
HETATM   34  C16 UNL     1       8.934  34.533  20.042  1.00  0.00     0.246 C 
HETATM   35  F1  UNL     1       8.437  34.999  18.816  1.00  0.00    -0.206 F 
HETATM   36  F2  UNL     1      10.235  35.053  20.111  1.00  0.00    -0.206 F 
HETATM   37  C17 UNL     1       9.058  33.054  20.088  1.00  0.00     0.099 C 
HETATM   38  C18 UNL     1       7.766  32.322  20.378  1.00  0.00     0.131 C 
ENDBRANCH  28  31
ENDBRANCH   1  28
TORSDOF 13
ENDMDL
MODEL 3
REMARK VINA RESULT: -7.350685369      2.760      4.769
REMARK  13 active torsions:
REMARK  status: ('A' for Active; 'I' for Inactive)
REMARK    1  A    between atoms: C2_2  and  C4_4 
REMARK    2  A    between atoms: C4_4  and  N1_5 
REMARK    3  A    between atoms: C4_4  and  C7_12 
REMARK       I    between atoms: N1_5  and  C5_7 
REMARK    4  A    between atoms: C5_7  and  C6_9 
REMARK    5  A    between atoms: C7_12  and  C8_13 
REMARK    6  A    between atoms: C7_12  and  N4_30 
REMARK    7  A    between atoms: C9_14  and  C10_15 
REMARK    8  A    between atoms: C10_15  and  C11_16 
REMARK    9  A    between atoms: C11_16  and  C13_19 
REMARK   10  A    between atoms: C13_19  and  O2_20 
REMARK   11  A    between atoms: C13_19  and  N3_22 
REMARK       I    between atoms: N4_30  and  C19_32 
REMARK   12  A    between atoms: C19_32  and  O4_34 
REMARK   13  A    between atoms: O4_34  and  C20_35 
ROOT
HETATM    1  C11 UNL     1       4.489  32.642  19.498  1.00  0.00     0.103 C 
HETATM    2  C12 UNL     1       3.180  33.130  19.721  1.00  0.00     0.104 C 
HETATM    3  N2  UNL     1       2.097  33.550  19.873  1.00  0.00    -0.191 NA
ENDROOT
BRANCH   1   4
HETATM    4  C10 UNL     1       4.882  32.654  18.201  1.00  0.00     0.091 C 
BRANCH   4   5
HETATM    5  C9  UNL     1       5.389  31.460  17.631  1.00  0.00    -0.075 C 
HETATM    6  C8  UNL     1       5.836  30.454  17.160  1.00  0.00    -0.074 C 
BRANCH   6   7
HETATM    7  C7  UNL     1       6.417  29.215  16.576  1.00  0.00     0.190 C 
BRANCH   7   8
HETATM    8  C4  UNL     1       7.262  28.525  17.585  1.00  0.00     0.122 C 
BRANCH   8   9
HETATM    9  C2  UNL     1       8.580  28.099  17.044  1.00  0.00     0.003 C 
HETATM   10  C1  UNL     1       8.683  28.137  15.565  1.00  0.00     0.011 C 
HETATM   11  C3  UNL     1       8.959  26.695  17.548  1.00  0.00     0.011 C 
ENDBRANCH   8   9
BRANCH   8  12
HETATM   12  N1  UNL     1       6.548  27.463  18.256  1.00  0.00    -0.351 N 
HETATM   13  C5  UNL     1       6.070  27.589  19.586  1.00  0.00     0.251 C 
HETATM   14  O1  UNL     1       6.259  28.636  20.219  1.00  0.00    -0.271 OA
ATOM     15  H1  UNL     1       6.380  26.590  17.754  1.00  0.00     0.163 HD
BRANCH  13  16
HETATM   16  C6  UNL     1       5.345  26.443  20.194  1.00  0.00     0.269 C 
HETATM   17 CL1  UNL     1       6.506  25.132  20.433  1.00  0.00    -0.098 Cl
HETATM   18 CL2  UNL     1       4.597  26.951  21.719  1.00  0.00    -0.098 Cl
ENDBRANCH  13  16
ENDBRANCH   8  12
ENDBRANCH   7   8
BRANCH   7  19
HETATM   19  N4  UNL     1       5.390  28.442  15.945  1.00  0.00    -0.320 N 
HETATM   20  C19 UNL     1       5.160  28.523  14.525  1.00  0.00     0.362 C 
HETATM   21  O3  UNL     1       5.856  29.276  13.811  1.00  0.00    -0.238 OA
ATOM     22  H4  UNL     1       4.811  27.823  16.511  1.00  0.00     0.166 HD
BRANCH  20  23
HETATM   23  O4  UNL     1       4.178  27.781  13.948  1.00  0.00    -0.294 OA
BRANCH  23  24
HETATM   24  C20 UNL     1       2.813  28.120  13.904  1.00  0.00     0.061 C 
HETATM   25  C21 UNL     1       2.304  27.785  12.517  1.00  0.00     0.046 C 
HETATM   26  C22 UNL     1       2.687  29.623  14.066  1.00  0.00     0.046 C 
HETATM   27  C23 UNL     1       1.989  27.430  14.933  1.00  0.00     0.046 C 
ENDBRANCH  23  24
ENDBRANCH  20  23
ENDBRANCH   7  19
ENDBRANCH   6   7
ENDBRANCH   4   5
ENDBRANCH   1   4
BRANCH   1  28
HETATM   28  C13 UNL     1       5.447  32.160  20.451  1.00  0.00     0.159 C 
BRANCH  28  29
HETATM   29  O2  UNL     1       5.060  31.111  21.150  1.00  0.00    -0.345 OA
ATOM     30  H2  UNL     1       5.763  30.607  21.543  1.00  0.00     0.219 HD
ENDBRANCH  28  29
BRANCH  28  31
HETATM   31  N3  UNL     1       6.720  32.608  20.765  1.00  0.00    -0.360 N 
HETATM   32  C14 UNL     1       7.047  33.690  21.625  1.00  0.00     0.131 C 
HETATM   33  C15 UNL     1       7.435  34.842  20.692  1.00  0.00     0.099 C 
HETATM   34  C16 UNL     1       8.429  34.370  19.686  1.00  0.00     0.246 C 
HETATM   35  F1  UNL     1       7.902  34.599  18.407  1.00  0.00    -0.206 F 
HETATM   36  F2  UNL     1       9.530  35.236  19.768  1.00  0.00    -0.206 F 
HETATM   37  C17 UNL     1       8.953  32.991  19.855  1.00  0.00     0.099 C 
HETATM   38  C18 UNL     1       7.896  31.948  20.147  1.00  0.00     0.131 C 
ENDBRANCH  28  31
ENDBRANCH   1  28
TORSDOF 13
ENDMDL
MODEL 4
REMARK VINA RESULT: -7.315325435      2.828      5.080
REMARK  13 active torsions:
REMARK  status: ('A' for Active; 'I' for Inactive)
REMARK    1  A    between atoms: C2_2  and  C4_4 
REMARK    2  A    between atoms: C4_4  and  N1_5 
REMARK    3  A    between atoms: C4_4  and  C7_12 
REMARK       I    between atoms: N1_5  and  C5_7 
REMARK    4  A    between atoms: C5_7  and  C6_9 
REMARK    5  A    between atoms: C7_12  and  C8_13 
REMARK    6  A    between atoms: C7_12  and  N4_30 
REMARK    7  A    between atoms: C9_14  and  C10_15 
REMARK    8  A    between atoms: C10_15  and  C11_16 
REMARK    9  A    between atoms: C11_16  and  C13_19 
REMARK   10  A    between atoms: C13_19  and  O2_20 
REMARK   11  A    between atoms: C13_19  and  N3_22 
REMARK       I    between atoms: N4_30  and  C19_32 
REMARK   12  A    between atoms: C19_32  and  O4_34 
REMARK   13  A    between atoms: O4_34  and  C20_35 
ROOT
HETATM    1  C11 UNL     1       4.985  33.764  17.436  1.00  0.00     0.103 C 
HETATM    2  C12 UNL     1       4.214  34.804  16.863  1.00  0.00     0.104 C 
HETATM    3  N2  UNL     1       3.552  35.640  16.379  1.00  0.00    -0.191 NA
ENDROOT
BRANCH   1   4
HETATM    4  C10 UNL     1       4.315  32.600  17.616  1.00  0.00     0.091 C 
BRANCH   4   5
HETATM    5  C9  UNL     1       4.955  31.384  17.269  1.00  0.00    -0.075 C 
HETATM    6  C8  UNL     1       5.491  30.361  16.954  1.00  0.00    -0.074 C 
BRANCH   6   7
HETATM    7  C7  UNL     1       6.142  29.088  16.542  1.00  0.00     0.190 C 
BRANCH   7   8
HETATM    8  C4  UNL     1       6.900  28.512  17.684  1.00  0.00     0.122 C 
BRANCH   8   9
HETATM    9  C2  UNL     1       8.301  28.160  17.331  1.00  0.00     0.003 C 
HETATM   10  C1  UNL     1       8.601  28.197  15.879  1.00  0.00     0.011 C 
HETATM   11  C3  UNL     1       8.686  26.783  17.899  1.00  0.00     0.011 C 
ENDBRANCH   8   9
BRANCH   8  12
HETATM   12  N1  UNL     1       6.181  27.433  18.322  1.00  0.00    -0.351 N 
HETATM   13  C5  UNL     1       5.757  27.497  19.675  1.00  0.00     0.251 C 
HETATM   14  O1  UNL     1       5.997  28.502  20.356  1.00  0.00    -0.271 OA
ATOM     15  H1  UNL     1       5.972  26.594  17.780  1.00  0.00     0.163 HD
BRANCH  13  16
HETATM   16  C6  UNL     1       5.023  26.337  20.246  1.00  0.00     0.269 C 
HETATM   17 CL1  UNL     1       3.726  25.910  19.125  1.00  0.00    -0.098 Cl
HETATM   18 CL2  UNL     1       6.146  24.990  20.505  1.00  0.00    -0.098 Cl
ENDBRANCH  13  16
ENDBRANCH   8  12
ENDBRANCH   7   8
BRANCH   7  19
HETATM   19  N4  UNL     1       5.190  28.238  15.894  1.00  0.00    -0.320 N 
HETATM   20  C19 UNL     1       4.936  28.341  14.480  1.00  0.00     0.362 C 
HETATM   21  O3  UNL     1       5.546  29.182  13.785  1.00  0.00    -0.238 OA
ATOM     22  H4  UNL     1       4.681  27.546  16.445  1.00  0.00     0.166 HD
BRANCH  20  23
HETATM   23  O4  UNL     1       4.026  27.524  13.887  1.00  0.00    -0.294 OA
BRANCH  23  24
HETATM   24  C20 UNL     1       2.628  27.684  13.933  1.00  0.00     0.061 C 
HETATM   25  C21 UNL     1       2.094  27.434  12.538  1.00  0.00     0.046 C 
HETATM   26  C22 UNL     1       2.321  29.132  14.268  1.00  0.00     0.046 C 
HETATM   27  C23 UNL     1       1.953  26.785  14.909  1.00  0.00     0.046 C 
ENDBRANCH  23  24
ENDBRANCH  20  23
ENDBRANCH   7  19
ENDBRANCH   6   7
ENDBRANCH   4   5
ENDBRANCH   1   4
BRANCH   1  28
HETATM   28  C13 UNL     1       6.365  33.775  17.827  1.00  0.00     0.159 C 
BRANCH  28  29
HETATM   29  O2  UNL     1       7.208  34.162  16.891  1.00  0.00    -0.345 OA
ATOM     30  H2  UNL     1       8.091  33.822  16.978  1.00  0.00     0.219 HD
ENDBRANCH  28  29
BRANCH  28  31
HETATM   31  N3  UNL     1       6.970  33.449  19.030  1.00  0.00    -0.360 N 
HETATM   32  C14 UNL     1       6.575  33.889  20.321  1.00  0.00     0.131 C 
HETATM   33  C15 UNL     1       7.586  34.975  20.703  1.00  0.00     0.099 C 
HETATM   34  C16 UNL     1       8.975  34.478  20.484  1.00  0.00     0.246 C 
HETATM   35  F1  UNL     1       9.616  35.347  19.590  1.00  0.00    -0.206 F 
HETATM   36  F2  UNL     1       9.663  34.652  21.694  1.00  0.00    -0.206 F 
HETATM   37  C17 UNL     1       9.125  33.049  20.106  1.00  0.00     0.099 C 
HETATM   38  C18 UNL     1       8.173  32.580  19.028  1.00  0.00     0.131 C 
ENDBRANCH  28  31
ENDBRANCH   1  28
TORSDOF 13
ENDMDL
MODEL 5
REMARK VINA RESULT: -7.219861113      3.272      5.535
REMARK  13 active torsions:
REMARK  status: ('A' for Active; 'I' for Inactive)
REMARK    1  A    between atoms: C2_2  and  C4_4 
REMARK    2  A    between atoms: C4_4  and  N1_5 
REMARK    3  A    between atoms: C4_4  and  C7_12 
REMARK       I    between atoms: N1_5  and  C5_7 
REMARK    4  A    between atoms: C5_7  and  C6_9 
REMARK    5  A    between atoms: C7_12  and  C8_13 
REMARK    6  A    between atoms: C7_12  and  N4_30 
REMARK    7  A    between atoms: C9_14  and  C10_15 
REMARK    8  A    between atoms: C10_15  and  C11_16 
REMARK    9  A    between atoms: C11_16  and  C13_19 
REMARK   10  A    between atoms: C13_19  and  O2_20 
REMARK   11  A    between atoms: C13_19  and  N3_22 
REMARK       I    between atoms: N4_30  and  C19_32 
REMARK   12  A    between atoms: C19_32  and  O4_34 
REMARK   13  A    between atoms: O4_34  and  C20_35 
ROOT
HETATM    1  C11 UNL     1       7.745  33.567  19.011  1.00  0.00     0.103 C 
HETATM    2  C12 UNL     1       8.569  34.474  19.719  1.00  0.00     0.104 C 
HETATM    3  N2  UNL     1       9.259  35.198  20.330  1.00  0.00    -0.191 NA
ENDROOT
BRANCH   1   4
HETATM    4  C10 UNL     1       7.943  32.264  19.322  1.00  0.00     0.091 C 
BRANCH   4   5
HETATM    5  C9  UNL     1       7.539  31.272  18.394  1.00  0.00    -0.075 C 
HETATM    6  C8  UNL     1       7.216  30.437  17.600  1.00  0.00    -0.074 C 
BRANCH   6   7
HETATM    7  C7  UNL     1       6.830  29.411  16.594  1.00  0.00     0.190 C 
BRANCH   7   8
HETATM    8  C4  UNL     1       7.585  28.153  16.836  1.00  0.00     0.122 C 
BRANCH   8   9
HETATM    9  C2  UNL     1       7.993  27.986  18.257  1.00  0.00     0.003 C 
HETATM   10  C1  UNL     1       9.353  27.427  18.448  1.00  0.00     0.011 C 
HETATM   11  C3  UNL     1       6.975  27.130  19.028  1.00  0.00     0.011 C 
ENDBRANCH   8   9
BRANCH   8  12
HETATM   12  N1  UNL     1       8.677  27.988  15.904  1.00  0.00    -0.351 N 
HETATM   13  C5  UNL     1       8.496  27.435  14.610  1.00  0.00     0.251 C 
HETATM   14  O1  UNL     1       7.371  27.071  14.240  1.00  0.00    -0.271 OA
ATOM     15  H1  UNL     1       9.613  28.281  16.186  1.00  0.00     0.163 HD
BRANCH  13  16
HETATM   16  C6  UNL     1       9.678  27.304  13.719  1.00  0.00     0.269 C 
HETATM   17 CL1  UNL     1       9.787  28.774  12.744  1.00  0.00    -0.098 Cl
HETATM   18 CL2  UNL     1      11.135  27.046  14.696  1.00  0.00    -0.098 Cl
ENDBRANCH  13  16
ENDBRANCH   8  12
ENDBRANCH   7   8
BRANCH   7  19
HETATM   19  N4  UNL     1       5.404  29.311  16.516  1.00  0.00    -0.320 N 
HETATM   20  C19 UNL     1       4.711  29.470  15.262  1.00  0.00     0.362 C 
HETATM   21  O3  UNL     1       5.346  29.699  14.211  1.00  0.00    -0.238 OA
ATOM     22  H4  UNL     1       4.869  29.125  17.363  1.00  0.00     0.166 HD
BRANCH  20  23
HETATM   23  O4  UNL     1       3.357  29.373  15.213  1.00  0.00    -0.294 OA
BRANCH  23  24
HETATM   24  C20 UNL     1       2.631  28.385  14.522  1.00  0.00     0.061 C 
HETATM   25  C21 UNL     1       1.270  28.276  15.177  1.00  0.00     0.046 C 
HETATM   26  C22 UNL     1       3.323  27.050  14.724  1.00  0.00     0.046 C 
HETATM   27  C23 UNL     1       2.478  28.660  13.067  1.00  0.00     0.046 C 
ENDBRANCH  23  24
ENDBRANCH  20  23
ENDBRANCH   7  19
ENDBRANCH   6   7
ENDBRANCH   4   5
ENDBRANCH   1   4
BRANCH   1  28
HETATM   28  C13 UNL     1       6.731  33.844  18.034  1.00  0.00     0.159 C 
BRANCH  28  29
HETATM   29  O2  UNL     1       7.180  34.234  16.858  1.00  0.00    -0.345 OA
ATOM     30  H2  UNL     1       6.775  35.022  16.513  1.00  0.00     0.219 HD
ENDBRANCH  28  29
BRANCH  28  31
HETATM   31  N3  UNL     1       5.350  33.769  18.113  1.00  0.00    -0.360 N 
HETATM   32  C14 UNL     1       4.537  34.248  19.175  1.00  0.00     0.131 C 
HETATM   33  C15 UNL     1       4.131  33.000  19.965  1.00  0.00     0.099 C 
HETATM   34  C16 UNL     1       3.599  31.960  19.038  1.00  0.00     0.246 C 
HETATM   35  F1  UNL     1       4.374  30.801  19.189  1.00  0.00    -0.206 F 
HETATM   36  F2  UNL     1       2.333  31.598  19.520  1.00  0.00    -0.206 F 
HETATM   37  C17 UNL     1       3.423  32.354  17.617  1.00  0.00     0.099 C 
HETATM   38  C18 UNL     1       4.594  33.106  17.023  1.00  0.00     0.131 C 
ENDBRANCH  28  31
ENDBRANCH   1  28
TORSDOF 13
ENDMDL
