MODEL 1
REMARK VINA RESULT: -6.864948114      0.000      0.000
REMARK  8 active torsions:
REMARK  status: ('A' for Active; 'I' for Inactive)
REMARK    1  A    between atoms: C2_2  and  N1_4 
REMARK    2  A    between atoms: N2_7  and  C5_8 
REMARK    3  A    between atoms: C5_8  and  C6_9 
REMARK    4  A    between atoms: C6_9  and  C7_10 
REMARK    5  A    between atoms: C7_10  and  O1_11 
REMARK    6  A    between atoms: O1_11  and  C8_12 
REMARK    7  A    between atoms: C13_19  and  O2_20 
REMARK    8  A    between atoms: C16_25  and  C17_26 
ROOT
HETATM    1  C7  UNL     1       6.519  31.998  19.767  1.00  0.00     0.181 C 
ENDROOT
BRANCH   1   2
HETATM    2  C6  UNL     1       7.247  30.984  18.987  1.00  0.00     0.071 C 
BRANCH   2   3
HETATM    3  C5  UNL     1       6.785  30.766  17.587  1.00  0.00     0.060 C 
BRANCH   3   4
HETATM    4  N2  UNL     1       6.060  29.647  17.205  1.00  0.00    -0.390 N 
HETATM    5  C4  UNL     1       4.680  29.686  16.953  1.00  0.00     0.141 C 
HETATM    6  C3  UNL     1       4.449  30.032  15.469  1.00  0.00     0.143 C 
HETATM    7  N1  UNL     1       5.031  28.796  14.794  1.00  0.00    -0.367 N 
HETATM    8  C16 UNL     1       6.423  28.693  14.997  1.00  0.00     0.116 C 
HETATM    9  C15 UNL     1       6.778  28.626  16.471  1.00  0.00     0.148 C 
BRANCH   7  10
HETATM   10  C2  UNL     1       4.109  28.009  14.136  1.00  0.00     0.072 C 
HETATM   11  C1  UNL     1       3.780  28.292  12.691  1.00  0.00     0.081 C 
HETATM   12  S1  UNL     1       3.300  26.796  14.836  1.00  0.00    -0.066 SA
ENDBRANCH   7  10
BRANCH   8  13
HETATM   13  C17 UNL     1       7.180  27.753  14.189  1.00  0.00     0.141 C 
HETATM   14 CL1  UNL     1       8.631  28.532  13.491  1.00  0.00    -0.128 Cl
ENDBRANCH   8  13
ENDBRANCH   3   4
ENDBRANCH   2   3
ENDBRANCH   1   2
BRANCH   1  15
HETATM   15  O1  UNL     1       7.101  32.344  21.000  1.00  0.00    -0.346 OA
BRANCH  15  16
HETATM   16  C8  UNL     1       7.667  33.489  21.420  1.00  0.00     0.128 A 
HETATM   17  C9  UNL     1       8.813  33.979  20.847  1.00  0.00     0.158 A 
HETATM   18  F1  UNL     1       9.431  33.334  19.815  1.00  0.00    -0.203 F 
HETATM   19  C10 UNL     1       9.430  35.149  21.243  1.00  0.00    -0.000 A 
HETATM   20  C11 UNL     1      10.678  35.649  20.596  1.00  0.00     0.053 C 
HETATM   21  C12 UNL     1       8.857  35.858  22.272  1.00  0.00     0.054 A 
HETATM   22 BR1  UNL     1       9.681  37.490  22.851  1.00  0.00    -0.047 Br
HETATM   23  C13 UNL     1       7.698  35.400  22.879  1.00  0.00     0.103 A 
HETATM   24  C14 UNL     1       7.106  34.231  22.465  1.00  0.00     0.082 A 
HETATM   25 BR2  UNL     1       5.501  33.644  23.340  1.00  0.00    -0.045 Br
BRANCH  23  26
HETATM   26  O2  UNL     1       7.120  36.136  23.931  1.00  0.00    -0.358 OA
ATOM     27  H2  UNL     1       6.218  36.427  23.866  1.00  0.00     0.217 HD
ENDBRANCH  23  26
ENDBRANCH  15  16
ENDBRANCH   1  15
TORSDOF 8
ENDMDL
MODEL 2
REMARK VINA RESULT: -6.857756989      2.285      3.057
REMARK  8 active torsions:
REMARK  status: ('A' for Active; 'I' for Inactive)
REMARK    1  A    between atoms: C2_2  and  N1_4 
REMARK    2  A    between atoms: N2_7  and  C5_8 
REMARK    3  A    between atoms: C5_8  and  C6_9 
REMARK    4  A    between atoms: C6_9  and  C7_10 
REMARK    5  A    between atoms: C7_10  and  O1_11 
REMARK    6  A    between atoms: O1_11  and  C8_12 
REMARK    7  A    between atoms: C13_19  and  O2_20 
REMARK    8  A    between atoms: C16_25  and  C17_26 
ROOT
HETATM    1  C7  UNL     1       5.749  30.901  18.998  1.00  0.00     0.181 C 
ENDROOT
BRANCH   1   2
HETATM    2  C6  UNL     1       5.201  29.546  18.823  1.00  0.00     0.071 C 
BRANCH   2   3
HETATM    3  C5  UNL     1       6.043  28.583  18.059  1.00  0.00     0.060 C 
BRANCH   3   4
HETATM    4  N2  UNL     1       6.861  28.973  17.010  1.00  0.00    -0.390 N 
HETATM    5  C4  UNL     1       8.259  28.864  17.056  1.00  0.00     0.141 C 
HETATM    6  C3  UNL     1       8.673  27.476  16.530  1.00  0.00     0.143 C 
HETATM    7  N1  UNL     1       8.242  27.582  15.072  1.00  0.00    -0.367 N 
HETATM    8  C16 UNL     1       6.841  27.687  14.945  1.00  0.00     0.116 C 
HETATM    9  C15 UNL     1       6.294  28.898  15.680  1.00  0.00     0.148 C 
BRANCH   7  10
HETATM   10  C2  UNL     1       9.278  27.575  14.161  1.00  0.00     0.072 C 
HETATM   11  C1  UNL     1      10.408  26.589  14.323  1.00  0.00     0.081 C 
HETATM   12  S1  UNL     1       9.392  28.607  12.921  1.00  0.00    -0.066 SA
ENDBRANCH   7  10
BRANCH   8  13
HETATM   13  C17 UNL     1       6.242  27.501  13.635  1.00  0.00     0.141 C 
HETATM   14 CL1  UNL     1       4.492  27.159  13.775  1.00  0.00    -0.128 Cl
ENDBRANCH   8  13
ENDBRANCH   3   4
ENDBRANCH   2   3
ENDBRANCH   1   2
BRANCH   1  15
HETATM   15  O1  UNL     1       6.596  31.071  20.108  1.00  0.00    -0.346 OA
BRANCH  15  16
HETATM   16  C8  UNL     1       7.046  32.184  20.715  1.00  0.00     0.128 A 
HETATM   17  C9  UNL     1       8.092  32.909  20.206  1.00  0.00     0.158 A 
HETATM   18  F1  UNL     1       8.724  32.545  19.052  1.00  0.00    -0.203 F 
HETATM   19  C10 UNL     1       8.589  34.057  20.793  1.00  0.00    -0.000 A 
HETATM   20  C11 UNL     1       9.731  34.820  20.210  1.00  0.00     0.053 C 
HETATM   21  C12 UNL     1       7.993  34.490  21.954  1.00  0.00     0.054 A 
HETATM   22 BR1  UNL     1       8.650  36.081  22.799  1.00  0.00    -0.047 Br
HETATM   23  C13 UNL     1       6.933  33.788  22.504  1.00  0.00     0.103 A 
HETATM   24  C14 UNL     1       6.460  32.648  21.898  1.00  0.00     0.082 A 
HETATM   25 BR2  UNL     1       4.987  31.714  22.701  1.00  0.00    -0.045 Br
BRANCH  23  26
HETATM   26  O2  UNL     1       6.331  34.242  23.693  1.00  0.00    -0.358 OA
ATOM     27  H2  UNL     1       5.833  33.639  24.231  1.00  0.00     0.217 HD
ENDBRANCH  23  26
ENDBRANCH  15  16
ENDBRANCH   1  15
TORSDOF 8
ENDMDL
MODEL 3
REMARK VINA RESULT: -6.688945061      2.064      2.799
REMARK  8 active torsions:
REMARK  status: ('A' for Active; 'I' for Inactive)
REMARK    1  A    between atoms: C2_2  and  N1_4 
REMARK    2  A    between atoms: N2_7  and  C5_8 
REMARK    3  A    between atoms: C5_8  and  C6_9 
REMARK    4  A    between atoms: C6_9  and  C7_10 
REMARK    5  A    between atoms: C7_10  and  O1_11 
REMARK    6  A    between atoms: O1_11  and  C8_12 
REMARK    7  A    between atoms: C13_19  and  O2_20 
REMARK    8  A    between atoms: C16_25  and  C17_26 
ROOT
HETATM    1  C7  UNL     1       5.527  32.641  20.967  1.00  0.00     0.181 C 
ENDROOT
BRANCH   1   2
HETATM    2  C6  UNL     1       5.515  33.356  19.681  1.00  0.00     0.071 C 
BRANCH   2   3
HETATM    3  C5  UNL     1       5.055  32.580  18.495  1.00  0.00     0.060 C 
BRANCH   3   4
HETATM    4  N2  UNL     1       5.932  31.936  17.636  1.00  0.00    -0.390 N 
HETATM    5  C4  UNL     1       7.264  31.656  17.981  1.00  0.00     0.141 C 
HETATM    6  C3  UNL     1       7.326  30.279  18.670  1.00  0.00     0.143 C 
HETATM    7  N1  UNL     1       6.919  29.365  17.521  1.00  0.00    -0.367 N 
HETATM    8  C16 UNL     1       5.584  29.583  17.124  1.00  0.00     0.116 C 
HETATM    9  C15 UNL     1       5.351  31.017  16.680  1.00  0.00     0.148 C 
BRANCH   7  10
HETATM   10  C2  UNL     1       7.914  28.520  17.075  1.00  0.00     0.072 C 
HETATM   11  C1  UNL     1       8.334  28.560  15.626  1.00  0.00     0.081 C 
HETATM   12  S1  UNL     1       8.653  27.428  18.011  1.00  0.00    -0.066 SA
ENDBRANCH   7  10
BRANCH   8  13
HETATM   13  C17 UNL     1       4.945  28.611  16.254  1.00  0.00     0.141 C 
HETATM   14 CL1  UNL     1       4.882  29.204  14.568  1.00  0.00    -0.128 Cl
ENDBRANCH   8  13
ENDBRANCH   3   4
ENDBRANCH   2   3
ENDBRANCH   1   2
BRANCH   1  15
HETATM   15  O1  UNL     1       6.673  32.842  21.759  1.00  0.00    -0.346 OA
BRANCH  15  16
HETATM   16  C8  UNL     1       7.428  33.937  21.959  1.00  0.00     0.128 A 
HETATM   17  C9  UNL     1       8.605  34.133  21.282  1.00  0.00     0.158 A 
HETATM   18  F1  UNL     1       9.063  33.233  20.365  1.00  0.00    -0.203 F 
HETATM   19  C10 UNL     1       9.413  35.240  21.453  1.00  0.00    -0.000 A 
HETATM   20  C11 UNL     1      10.688  35.418  20.700  1.00  0.00     0.053 C 
HETATM   21  C12 UNL     1       9.008  36.195  22.356  1.00  0.00     0.054 A 
HETATM   22 BR1  UNL     1      10.101  37.748  22.621  1.00  0.00    -0.047 Br
HETATM   23  C13 UNL     1       7.826  36.037  23.061  1.00  0.00     0.103 A 
HETATM   24  C14 UNL     1       7.041  34.924  22.871  1.00  0.00     0.082 A 
HETATM   25 BR2  UNL     1       5.412  34.758  23.873  1.00  0.00    -0.045 Br
BRANCH  23  26
HETATM   26  O2  UNL     1       7.421  37.022  23.982  1.00  0.00    -0.358 OA
ATOM     27  H2  UNL     1       7.706  36.969  24.887  1.00  0.00     0.217 HD
ENDBRANCH  23  26
ENDBRANCH  15  16
ENDBRANCH   1  15
TORSDOF 8
ENDMDL
MODEL 4
REMARK VINA RESULT: -6.687470682      2.104      2.976
REMARK  8 active torsions:
REMARK  status: ('A' for Active; 'I' for Inactive)
REMARK    1  A    between atoms: C2_2  and  N1_4 
REMARK    2  A    between atoms: N2_7  and  C5_8 
REMARK    3  A    between atoms: C5_8  and  C6_9 
REMARK    4  A    between atoms: C6_9  and  C7_10 
REMARK    5  A    between atoms: C7_10  and  O1_11 
REMARK    6  A    between atoms: O1_11  and  C8_12 
REMARK    7  A    between atoms: C13_19  and  O2_20 
REMARK    8  A    between atoms: C16_25  and  C17_26 
ROOT
HETATM    1  C7  UNL     1       7.763  32.721  18.445  1.00  0.00     0.181 C 
ENDROOT
BRANCH   1   2
HETATM    2  C6  UNL     1       7.999  31.650  19.428  1.00  0.00     0.071 C 
BRANCH   2   3
HETATM    3  C5  UNL     1       6.805  30.873  19.862  1.00  0.00     0.060 C 
BRANCH   3   4
HETATM    4  N2  UNL     1       6.243  29.869  19.089  1.00  0.00    -0.390 N 
HETATM    5  C4  UNL     1       5.035  30.031  18.394  1.00  0.00     0.141 C 
HETATM    6  C3  UNL     1       5.332  30.598  16.992  1.00  0.00     0.143 C 
HETATM    7  N1  UNL     1       6.097  29.436  16.370  1.00  0.00    -0.367 N 
HETATM    8  C16 UNL     1       7.332  29.216  17.013  1.00  0.00     0.116 C 
HETATM    9  C15 UNL     1       7.158  28.918  18.492  1.00  0.00     0.148 C 
BRANCH   7  10
HETATM   10  C2  UNL     1       5.448  28.810  15.326  1.00  0.00     0.072 C 
HETATM   11  C1  UNL     1       5.953  28.993  13.916  1.00  0.00     0.081 C 
HETATM   12  S1  UNL     1       4.121  27.903  15.506  1.00  0.00    -0.066 SA
ENDBRANCH   7  10
BRANCH   8  13
HETATM   13  C17 UNL     1       8.310  28.354  16.374  1.00  0.00     0.141 C 
HETATM   14 CL1  UNL     1       9.061  27.247  17.561  1.00  0.00    -0.128 Cl
ENDBRANCH   8  13
ENDBRANCH   3   4
ENDBRANCH   2   3
ENDBRANCH   1   2
BRANCH   1  15
HETATM   15  O1  UNL     1       7.726  34.025  18.971  1.00  0.00    -0.346 OA
BRANCH  15  16
HETATM   16  C8  UNL     1       7.374  34.479  20.187  1.00  0.00     0.128 A 
HETATM   17  C9  UNL     1       6.071  34.460  20.613  1.00  0.00     0.158 A 
HETATM   18  F1  UNL     1       5.067  33.971  19.829  1.00  0.00    -0.203 F 
HETATM   19  C10 UNL     1       5.661  34.915  21.851  1.00  0.00    -0.000 A 
HETATM   20  C11 UNL     1       4.233  34.880  22.279  1.00  0.00     0.053 C 
HETATM   21  C12 UNL     1       6.622  35.413  22.699  1.00  0.00     0.054 A 
HETATM   22 BR1  UNL     1       6.096  36.052  24.429  1.00  0.00    -0.047 Br
HETATM   23  C13 UNL     1       7.952  35.450  22.310  1.00  0.00     0.103 A 
HETATM   24  C14 UNL     1       8.330  34.992  21.070  1.00  0.00     0.082 A 
HETATM   25 BR2  UNL     1      10.186  35.065  20.583  1.00  0.00    -0.045 Br
BRANCH  23  26
HETATM   26  O2  UNL     1       8.926  35.962  23.188  1.00  0.00    -0.358 OA
ATOM     27  H2  UNL     1       9.073  35.543  24.028  1.00  0.00     0.217 HD
ENDBRANCH  23  26
ENDBRANCH  15  16
ENDBRANCH   1  15
TORSDOF 8
ENDMDL
MODEL 5
REMARK VINA RESULT: -6.586918234      1.763      2.001
REMARK  8 active torsions:
REMARK  status: ('A' for Active; 'I' for Inactive)
REMARK    1  A    between atoms: C2_2  and  N1_4 
REMARK    2  A    between atoms: N2_7  and  C5_8 
REMARK    3  A    between atoms: C5_8  and  C6_9 
REMARK    4  A    between atoms: C6_9  and  C7_10 
REMARK    5  A    between atoms: C7_10  and  O1_11 
REMARK    6  A    between atoms: O1_11  and  C8_12 
REMARK    7  A    between atoms: C13_19  and  O2_20 
REMARK    8  A    between atoms: C16_25  and  C17_26 
ROOT
HETATM    1  C7  UNL     1       6.011  32.106  20.264  1.00  0.00     0.181 C 
ENDROOT
BRANCH   1   2
HETATM    2  C6  UNL     1       6.144  30.714  19.806  1.00  0.00     0.071 C 
BRANCH   2   3
HETATM    3  C5  UNL     1       4.958  30.124  19.123  1.00  0.00     0.060 C 
BRANCH   3   4
HETATM    4  N2  UNL     1       5.067  29.143  18.150  1.00  0.00    -0.390 N 
HETATM    5  C4  UNL     1       4.472  29.260  16.884  1.00  0.00     0.141 C 
HETATM    6  C3  UNL     1       5.457  29.961  15.928  1.00  0.00     0.143 C 
HETATM    7  N1  UNL     1       6.568  28.921  15.848  1.00  0.00    -0.367 N 
HETATM    8  C16 UNL     1       7.220  28.754  17.087  1.00  0.00     0.116 C 
HETATM    9  C15 UNL     1       6.260  28.323  18.181  1.00  0.00     0.148 C 
BRANCH   7  10
HETATM   10  C2  UNL     1       6.719  28.330  14.611  1.00  0.00     0.072 C 
HETATM   11  C1  UNL     1       5.589  27.518  14.028  1.00  0.00     0.081 C 
HETATM   12  S1  UNL     1       8.075  28.413  13.734  1.00  0.00    -0.066 SA
ENDBRANCH   7  10
BRANCH   8  13
HETATM   13  C17 UNL     1       8.480  28.030  17.123  1.00  0.00     0.141 C 
HETATM   14 CL1  UNL     1       9.027  27.781  18.807  1.00  0.00    -0.128 Cl
ENDBRANCH   8  13
ENDBRANCH   3   4
ENDBRANCH   2   3
ENDBRANCH   1   2
BRANCH   1  15
HETATM   15  O1  UNL     1       6.788  32.450  21.386  1.00  0.00    -0.346 OA
BRANCH  15  16
HETATM   16  C8  UNL     1       7.456  33.577  21.688  1.00  0.00     0.128 A 
HETATM   17  C9  UNL     1       8.612  33.925  21.037  1.00  0.00     0.158 A 
HETATM   18  F1  UNL     1       9.136  33.151  20.044  1.00  0.00    -0.203 F 
HETATM   19  C10 UNL     1       9.332  35.071  21.312  1.00  0.00    -0.000 A 
HETATM   20  C11 UNL     1      10.587  35.416  20.583  1.00  0.00     0.053 C 
HETATM   21  C12 UNL     1       8.856  35.906  22.295  1.00  0.00     0.054 A 
HETATM   22 BR1  UNL     1       9.825  37.509  22.705  1.00  0.00    -0.047 Br
HETATM   23  C13 UNL     1       7.691  35.593  22.978  1.00  0.00     0.103 A 
HETATM   24  C14 UNL     1       6.995  34.444  22.684  1.00  0.00     0.082 A 
HETATM   25 BR2  UNL     1       5.387  34.060  23.660  1.00  0.00    -0.045 Br
BRANCH  23  26
HETATM   26  O2  UNL     1       7.214  36.456  23.983  1.00  0.00    -0.358 OA
ATOM     27  H2  UNL     1       7.795  37.102  24.367  1.00  0.00     0.217 HD
ENDBRANCH  23  26
ENDBRANCH  15  16
ENDBRANCH   1  15
TORSDOF 8
ENDMDL
