MODEL 1
REMARK VINA RESULT: -5.883414140      0.000      0.000
REMARK  8 active torsions:
REMARK  status: ('A' for Active; 'I' for Inactive)
REMARK    1  A    between atoms: O1_2  and  C2_3 
REMARK    2  A    between atoms: C2_3  and  C3_4 
REMARK    3  A    between atoms: C2_3  and  C13_20 
REMARK    4  A    between atoms: C10_13  and  O2_14 
REMARK    5  A    between atoms: C13_20  and  O3_21 
REMARK    6  A    between atoms: C13_20  and  C14_23 
REMARK    7  A    between atoms: C14_23  and  C17_26 
REMARK    8  A    between atoms: C17_26  and  O4_28 
ROOT
HETATM    1  C3  UNL     1       6.102  33.386  21.823  1.00  0.00     0.025 C 
HETATM    2  C4  UNL     1       6.780  34.369  22.753  1.00  0.00     0.009 C 
HETATM    3  C5  UNL     1       7.635  35.305  21.925  1.00  0.00     0.016 C 
HETATM    4  C6  UNL     1       8.745  34.383  21.401  1.00  0.00     0.062 C 
HETATM    5 BR1  UNL     1      10.034  35.331  20.365  1.00  0.00    -0.091 Br
HETATM    6  C7  UNL     1       8.169  33.280  20.559  1.00  0.00     0.009 C 
HETATM    7  C8  UNL     1       7.729  33.884  19.269  1.00  0.00     0.024 C 
HETATM    8  C9  UNL     1       6.997  32.992  18.335  1.00  0.00     0.090 C 
HETATM    9 BR2  UNL     1       6.120  34.117  17.007  1.00  0.00    -0.088 Br
HETATM   10  C10 UNL     1       5.903  32.222  19.046  1.00  0.00     0.171 C 
HETATM   11  C11 UNL     1       6.617  31.511  20.202  1.00  0.00     0.144 C 
HETATM   12 CL1  UNL     1       5.757  30.098  20.747  1.00  0.00    -0.098 Cl
HETATM   13 CL2  UNL     1       8.113  30.852  19.421  1.00  0.00    -0.098 Cl
HETATM   14  C12 UNL     1       7.082  32.468  21.261  1.00  0.00     0.039 C 
ENDROOT
BRANCH   1  15
HETATM   15  C2  UNL     1       4.839  32.861  22.446  1.00  0.00     0.155 C 
BRANCH  15  16
HETATM   16  O1  UNL     1       3.819  33.467  21.688  1.00  0.00    -0.388 OA
HETATM   17  C1  UNL     1       2.988  32.519  21.108  1.00  0.00     0.202 C 
ENDBRANCH  15  16
BRANCH  15  18
HETATM   18  C13 UNL     1       4.631  33.185  23.858  1.00  0.00     0.157 C 
BRANCH  18  19
HETATM   19  O3  UNL     1       3.424  33.857  24.122  1.00  0.00    -0.392 OA
ATOM     20  H3  UNL     1       3.423  34.348  24.935  1.00  0.00     0.210 HD
ENDBRANCH  18  19
BRANCH  18  21
HETATM   21  C14 UNL     1       4.620  32.042  24.849  1.00  0.00     0.006 C 
HETATM   22  C15 UNL     1       3.104  31.723  24.982  1.00  0.00     0.020 C 
HETATM   23  C16 UNL     1       5.211  30.761  24.334  1.00  0.00     0.020 C 
BRANCH  21  24
HETATM   24  C17 UNL     1       5.037  32.414  26.234  1.00  0.00     0.124 C 
HETATM   25  C18 UNL     1       3.817  32.323  27.129  1.00  0.00     0.040 C 
BRANCH  24  26
HETATM   26  O4  UNL     1       5.403  33.762  26.233  1.00  0.00    -0.395 OA
ATOM     27  H4  UNL     1       5.586  34.022  27.128  1.00  0.00     0.210 HD
ENDBRANCH  24  26
ENDBRANCH  21  24
ENDBRANCH  18  21
ENDBRANCH  15  18
ENDBRANCH   1  15
BRANCH  10  28
HETATM   28  O2  UNL     1       5.416  31.246  18.183  1.00  0.00    -0.391 OA
ATOM     29  H2  UNL     1       6.054  31.109  17.492  1.00  0.00     0.210 HD
ENDBRANCH  10  28
TORSDOF 8
ENDMDL
MODEL 2
REMARK VINA RESULT: -5.737499322      3.177      6.467
REMARK  8 active torsions:
REMARK  status: ('A' for Active; 'I' for Inactive)
REMARK    1  A    between atoms: O1_2  and  C2_3 
REMARK    2  A    between atoms: C2_3  and  C3_4 
REMARK    3  A    between atoms: C2_3  and  C13_20 
REMARK    4  A    between atoms: C10_13  and  O2_14 
REMARK    5  A    between atoms: C13_20  and  O3_21 
REMARK    6  A    between atoms: C13_20  and  C14_23 
REMARK    7  A    between atoms: C14_23  and  C17_26 
REMARK    8  A    between atoms: C17_26  and  O4_28 
ROOT
HETATM    1  C3  UNL     1       6.441  31.260  19.463  1.00  0.00     0.025 C 
HETATM    2  C4  UNL     1       7.860  31.303  18.937  1.00  0.00     0.009 C 
HETATM    3  C5  UNL     1       8.671  32.233  19.814  1.00  0.00     0.016 C 
HETATM    4  C6  UNL     1       8.064  33.610  19.508  1.00  0.00     0.062 C 
HETATM    5 BR1  UNL     1       8.960  35.011  20.439  1.00  0.00    -0.091 Br
HETATM    6  C7  UNL     1       6.607  33.644  19.875  1.00  0.00     0.009 C 
HETATM    7  C8  UNL     1       6.520  33.668  21.363  1.00  0.00     0.024 C 
HETATM    8  C9  UNL     1       5.160  33.563  21.949  1.00  0.00     0.090 C 
HETATM    9 BR2  UNL     1       5.363  33.116  23.836  1.00  0.00    -0.088 Br
HETATM   10  C10 UNL     1       4.370  32.436  21.316  1.00  0.00     0.171 C 
HETATM   11  C11 UNL     1       4.410  32.731  19.812  1.00  0.00     0.144 C 
HETATM   12 CL1  UNL     1       3.082  31.999  18.955  1.00  0.00    -0.098 Cl
HETATM   13 CL2  UNL     1       4.073  34.509  19.730  1.00  0.00    -0.098 Cl
HETATM   14  C12 UNL     1       5.779  32.535  19.227  1.00  0.00     0.039 C 
ENDROOT
BRANCH   1  15
HETATM   15  C2  UNL     1       5.774  29.973  19.065  1.00  0.00     0.155 C 
BRANCH  15  16
HETATM   16  O1  UNL     1       6.116  29.088  20.105  1.00  0.00    -0.388 OA
HETATM   17  C1  UNL     1       5.034  28.844  20.940  1.00  0.00     0.202 C 
ENDBRANCH  15  16
BRANCH  15  18
HETATM   18  C13 UNL     1       6.200  29.390  17.792  1.00  0.00     0.157 C 
BRANCH  18  19
HETATM   19  O3  UNL     1       6.555  28.032  17.872  1.00  0.00    -0.392 OA
ATOM     20  H3  UNL     1       6.076  27.470  17.275  1.00  0.00     0.210 HD
ENDBRANCH  18  19
BRANCH  18  21
HETATM   21  C14 UNL     1       5.223  29.429  16.637  1.00  0.00     0.006 C 
HETATM   22  C15 UNL     1       3.905  28.928  17.291  1.00  0.00     0.020 C 
HETATM   23  C16 UNL     1       4.880  30.810  16.154  1.00  0.00     0.020 C 
BRANCH  21  24
HETATM   24  C17 UNL     1       5.495  28.435  15.557  1.00  0.00     0.124 C 
HETATM   25  C18 UNL     1       5.325  29.137  14.224  1.00  0.00     0.040 C 
BRANCH  24  26
HETATM   26  O4  UNL     1       4.496  27.459  15.599  1.00  0.00    -0.395 OA
ATOM     27  H4  UNL     1       4.914  26.608  15.643  1.00  0.00     0.210 HD
ENDBRANCH  24  26
ENDBRANCH  21  24
ENDBRANCH  18  21
ENDBRANCH  15  18
ENDBRANCH   1  15
BRANCH  10  28
HETATM   28  O2  UNL     1       3.047  32.535  21.733  1.00  0.00    -0.391 OA
ATOM     29  H2  UNL     1       2.685  31.660  21.802  1.00  0.00     0.210 HD
ENDBRANCH  10  28
TORSDOF 8
ENDMDL
MODEL 3
REMARK VINA RESULT: -5.667216593      4.318      7.078
REMARK  8 active torsions:
REMARK  status: ('A' for Active; 'I' for Inactive)
REMARK    1  A    between atoms: O1_2  and  C2_3 
REMARK    2  A    between atoms: C2_3  and  C3_4 
REMARK    3  A    between atoms: C2_3  and  C13_20 
REMARK    4  A    between atoms: C10_13  and  O2_14 
REMARK    5  A    between atoms: C13_20  and  O3_21 
REMARK    6  A    between atoms: C13_20  and  C14_23 
REMARK    7  A    between atoms: C14_23  and  C17_26 
REMARK    8  A    between atoms: C17_26  and  O4_28 
ROOT
HETATM    1  C3  UNL     1       6.763  31.339  18.454  1.00  0.00     0.025 C 
HETATM    2  C4  UNL     1       8.209  31.260  18.895  1.00  0.00     0.009 C 
HETATM    3  C5  UNL     1       8.429  32.260  20.010  1.00  0.00     0.016 C 
HETATM    4  C6  UNL     1       8.277  33.610  19.295  1.00  0.00     0.062 C 
HETATM    5 BR1  UNL     1       8.583  35.080  20.469  1.00  0.00    -0.091 Br
HETATM    6  C7  UNL     1       6.905  33.747  18.699  1.00  0.00     0.009 C 
HETATM    7  C8  UNL     1       5.948  33.962  19.823  1.00  0.00     0.024 C 
HETATM    8  C9  UNL     1       4.506  33.984  19.471  1.00  0.00     0.090 C 
HETATM    9 BR2  UNL     1       3.491  33.770  21.121  1.00  0.00    -0.088 Br
HETATM   10  C10 UNL     1       4.137  32.819  18.576  1.00  0.00     0.171 C 
HETATM   11  C11 UNL     1       5.100  32.921  17.388  1.00  0.00     0.144 C 
HETATM   12 CL1  UNL     1       4.479  32.141  15.959  1.00  0.00    -0.098 Cl
HETATM   13 CL2  UNL     1       5.072  34.687  16.983  1.00  0.00    -0.098 Cl
HETATM   14  C12 UNL     1       6.515  32.599  17.769  1.00  0.00     0.039 C 
ENDROOT
BRANCH   1  15
HETATM   15  C2  UNL     1       6.333  30.040  17.832  1.00  0.00     0.155 C 
BRANCH  15  16
HETATM   16  O1  UNL     1       6.981  29.067  18.618  1.00  0.00    -0.388 OA
HETATM   17  C1  UNL     1       6.114  28.507  19.546  1.00  0.00     0.202 C 
ENDBRANCH  15  16
BRANCH  15  18
HETATM   18  C13 UNL     1       6.708  29.838  16.432  1.00  0.00     0.157 C 
BRANCH  18  19
HETATM   19  O3  UNL     1       8.028  29.390  16.249  1.00  0.00    -0.392 OA
ATOM     20  H3  UNL     1       8.687  30.061  16.377  1.00  0.00     0.210 HD
ENDBRANCH  18  19
BRANCH  18  21
HETATM   21  C14 UNL     1       5.890  28.858  15.618  1.00  0.00     0.006 C 
HETATM   22  C15 UNL     1       6.862  27.657  15.454  1.00  0.00     0.020 C 
HETATM   23  C16 UNL     1       4.714  28.270  16.345  1.00  0.00     0.020 C 
BRANCH  21  24
HETATM   24  C17 UNL     1       5.608  29.294  14.218  1.00  0.00     0.124 C 
HETATM   25  C18 UNL     1       4.886  28.162  13.514  1.00  0.00     0.040 C 
BRANCH  24  26
HETATM   26  O4  UNL     1       6.827  29.436  13.551  1.00  0.00    -0.395 OA
ATOM     27  H4  UNL     1       6.718  30.085  12.867  1.00  0.00     0.210 HD
ENDBRANCH  24  26
ENDBRANCH  21  24
ENDBRANCH  18  21
ENDBRANCH  15  18
ENDBRANCH   1  15
BRANCH  10  28
HETATM   28  O2  UNL     1       2.847  33.022  18.096  1.00  0.00    -0.391 OA
ATOM     29  H2  UNL     1       2.864  32.961  17.148  1.00  0.00     0.210 HD
ENDBRANCH  10  28
TORSDOF 8
ENDMDL
MODEL 4
REMARK VINA RESULT: -5.631651187      4.488      6.954
REMARK  8 active torsions:
REMARK  status: ('A' for Active; 'I' for Inactive)
REMARK    1  A    between atoms: O1_2  and  C2_3 
REMARK    2  A    between atoms: C2_3  and  C3_4 
REMARK    3  A    between atoms: C2_3  and  C13_20 
REMARK    4  A    between atoms: C10_13  and  O2_14 
REMARK    5  A    between atoms: C13_20  and  O3_21 
REMARK    6  A    between atoms: C13_20  and  C14_23 
REMARK    7  A    between atoms: C14_23  and  C17_26 
REMARK    8  A    between atoms: C17_26  and  O4_28 
ROOT
HETATM    1  C3  UNL     1       5.066  32.607  17.068  1.00  0.00     0.025 C 
HETATM    2  C4  UNL     1       5.664  33.964  16.761  1.00  0.00     0.009 C 
HETATM    3  C5  UNL     1       7.079  34.000  17.300  1.00  0.00     0.016 C 
HETATM    4  C6  UNL     1       6.868  33.964  18.820  1.00  0.00     0.062 C 
HETATM    5 BR1  UNL     1       8.514  34.076  19.775  1.00  0.00    -0.091 Br
HETATM    6  C7  UNL     1       6.158  32.706  19.231  1.00  0.00     0.009 C 
HETATM    7  C8  UNL     1       7.127  31.580  19.096  1.00  0.00     0.024 C 
HETATM    8  C9  UNL     1       6.592  30.214  19.319  1.00  0.00     0.090 C 
HETATM    9 BR2  UNL     1       7.888  28.946  18.605  1.00  0.00    -0.088 Br
HETATM   10  C10 UNL     1       5.301  29.994  18.558  1.00  0.00     0.171 C 
HETATM   11  C11 UNL     1       4.383  31.136  19.011  1.00  0.00     0.144 C 
HETATM   12 CL1  UNL     1       2.696  30.754  18.809  1.00  0.00    -0.098 Cl
HETATM   13 CL2  UNL     1       4.623  31.172  20.807  1.00  0.00    -0.098 Cl
HETATM   14  C12 UNL     1       4.837  32.472  18.499  1.00  0.00     0.039 C 
ENDROOT
BRANCH   1  15
HETATM   15  C2  UNL     1       3.972  32.284  16.090  1.00  0.00     0.155 C 
BRANCH  15  16
HETATM   16  O1  UNL     1       4.614  31.480  15.128  1.00  0.00    -0.388 OA
HETATM   17  C1  UNL     1       4.139  30.176  15.160  1.00  0.00     0.202 C 
ENDBRANCH  15  16
BRANCH  15  18
HETATM   18  C13 UNL     1       3.353  33.424  15.412  1.00  0.00     0.157 C 
BRANCH  18  19
HETATM   19  O3  UNL     1       3.302  33.301  14.012  1.00  0.00    -0.392 OA
ATOM     20  H3  UNL     1       4.070  33.636  13.565  1.00  0.00     0.210 HD
ENDBRANCH  18  19
BRANCH  18  21
HETATM   21  C14 UNL     1       1.929  33.777  15.784  1.00  0.00     0.006 C 
HETATM   22  C15 UNL     1       1.157  32.470  15.452  1.00  0.00     0.020 C 
HETATM   23  C16 UNL     1       1.696  33.965  17.256  1.00  0.00     0.020 C 
BRANCH  21  24
HETATM   24  C17 UNL     1       1.294  34.808  14.911  1.00  0.00     0.124 C 
HETATM   25  C18 UNL     1       0.173  35.458  15.697  1.00  0.00     0.040 C 
BRANCH  24  26
HETATM   26  O4  UNL     1       0.675  34.154  13.843  1.00  0.00    -0.395 OA
ATOM     27  H4  UNL     1       0.536  34.787  13.148  1.00  0.00     0.210 HD
ENDBRANCH  24  26
ENDBRANCH  21  24
ENDBRANCH  18  21
ENDBRANCH  15  18
ENDBRANCH   1  15
BRANCH  10  28
HETATM   28  O2  UNL     1       4.733  28.798  18.986  1.00  0.00    -0.391 OA
ATOM     29  H2  UNL     1       3.893  28.691  18.556  1.00  0.00     0.210 HD
ENDBRANCH  10  28
TORSDOF 8
ENDMDL
MODEL 5
REMARK VINA RESULT: -5.626192737      3.360      6.548
REMARK  8 active torsions:
REMARK  status: ('A' for Active; 'I' for Inactive)
REMARK    1  A    between atoms: O1_2  and  C2_3 
REMARK    2  A    between atoms: C2_3  and  C3_4 
REMARK    3  A    between atoms: C2_3  and  C13_20 
REMARK    4  A    between atoms: C10_13  and  O2_14 
REMARK    5  A    between atoms: C13_20  and  O3_21 
REMARK    6  A    between atoms: C13_20  and  C14_23 
REMARK    7  A    between atoms: C14_23  and  C17_26 
REMARK    8  A    between atoms: C17_26  and  O4_28 
ROOT
HETATM    1  C3  UNL     1       5.830  33.345  19.100  1.00  0.00     0.025 C 
HETATM    2  C4  UNL     1       7.132  33.711  18.421  1.00  0.00     0.009 C 
HETATM    3  C5  UNL     1       8.245  33.645  19.445  1.00  0.00     0.016 C 
HETATM    4  C6  UNL     1       7.915  34.812  20.386  1.00  0.00     0.062 C 
HETATM    5 BR1  UNL     1       9.221  35.016  21.760  1.00  0.00    -0.091 Br
HETATM    6  C7  UNL     1       6.570  34.617  21.027  1.00  0.00     0.009 C 
HETATM    7  C8  UNL     1       6.707  33.527  22.035  1.00  0.00     0.024 C 
HETATM    8  C9  UNL     1       5.457  33.072  22.693  1.00  0.00     0.090 C 
HETATM    9 BR2  UNL     1       5.828  31.361  23.549  1.00  0.00    -0.088 Br
HETATM   10  C10 UNL     1       4.356  32.825  21.682  1.00  0.00     0.171 C 
HETATM   11  C11 UNL     1       4.242  34.141  20.904  1.00  0.00     0.144 C 
HETATM   12 CL1  UNL     1       2.676  34.345  20.168  1.00  0.00    -0.098 Cl
HETATM   13 CL2  UNL     1       4.292  35.399  22.207  1.00  0.00    -0.098 Cl
HETATM   14  C12 UNL     1       5.435  34.394  20.029  1.00  0.00     0.039 C 
ENDROOT
BRANCH   1  15
HETATM   15  C2  UNL     1       4.847  32.811  18.095  1.00  0.00     0.155 C 
BRANCH  15  16
HETATM   16  O1  UNL     1       5.173  31.444  18.008  1.00  0.00    -0.388 OA
HETATM   17  C1  UNL     1       4.240  30.658  18.671  1.00  0.00     0.202 C 
ENDBRANCH  15  16
BRANCH  15  18
HETATM   18  C13 UNL     1       4.911  33.395  16.755  1.00  0.00     0.157 C 
BRANCH  18  19
HETATM   19  O3  UNL     1       5.108  32.456  15.727  1.00  0.00    -0.392 OA
ATOM     20  H3  UNL     1       5.035  32.817  14.852  1.00  0.00     0.210 HD
ENDBRANCH  18  19
BRANCH  18  21
HETATM   21  C14 UNL     1       3.716  34.192  16.277  1.00  0.00     0.006 C 
HETATM   22  C15 UNL     1       2.542  33.193  16.472  1.00  0.00     0.020 C 
HETATM   23  C16 UNL     1       3.346  35.354  17.154  1.00  0.00     0.020 C 
BRANCH  21  24
HETATM   24  C17 UNL     1       3.708  34.484  14.812  1.00  0.00     0.124 C 
HETATM   25  C18 UNL     1       2.946  35.776  14.598  1.00  0.00     0.040 C 
BRANCH  24  26
HETATM   26  O4  UNL     1       2.956  33.494  14.174  1.00  0.00    -0.395 OA
ATOM     27  H4  UNL     1       3.123  33.549  13.241  1.00  0.00     0.210 HD
ENDBRANCH  24  26
ENDBRANCH  21  24
ENDBRANCH  18  21
ENDBRANCH  15  18
ENDBRANCH   1  15
BRANCH  10  28
HETATM   28  O2  UNL     1       3.162  32.631  22.367  1.00  0.00    -0.391 OA
ATOM     29  H2  UNL     1       2.474  33.109  21.917  1.00  0.00     0.210 HD
ENDBRANCH  10  28
TORSDOF 8
ENDMDL
