MODEL 1
REMARK VINA RESULT: -9.067566333      0.000      0.000
REMARK  12 active torsions:
REMARK  status: ('A' for Active; 'I' for Inactive)
REMARK    1  A    between atoms: C5_5  and  C6_6 
REMARK    2  A    between atoms: C6_6  and  C7_7 
REMARK    3  A    between atoms: C7_7  and  C8_8 
REMARK    4  A    between atoms: C7_7  and  C19_24 
REMARK    5  A    between atoms: C7_7  and  C25_34 
REMARK    6  A    between atoms: C9_9  and  C10_10 
REMARK    7  A    between atoms: C10_10  and  C11_11 
REMARK    8  A    between atoms: C11_11  and  O1_12 
REMARK    9  A    between atoms: C11_11  and  C12_14 
REMARK   10  A    between atoms: C13_15  and  C14_16 
REMARK   11  A    between atoms: C18_21  and  O2_22 
REMARK   12  A    between atoms: C19_24  and  O3_25 
ROOT
HETATM    1  C7  UNL     1       6.345  31.007  17.878  1.00  0.00     0.203 C 
ENDROOT
BRANCH   1   2
HETATM    2  C6  UNL     1       7.200  32.158  17.809  1.00  0.00     0.016 C 
BRANCH   2   3
HETATM    3  C5  UNL     1       7.785  32.893  18.923  1.00  0.00    -0.078 C 
HETATM    4  C4  UNL     1       8.865  32.316  19.744  1.00  0.00     0.061 C 
HETATM    5  C3  UNL     1       9.522  33.480  20.460  1.00  0.00    -0.020 C 
HETATM    6  C2  UNL     1       8.930  34.623  20.661  1.00  0.00    -0.087 C 
HETATM    7  C1  UNL     1       9.690  35.697  21.382  1.00  0.00     0.043 C 
HETATM    8  C27 UNL     1       7.544  34.973  20.238  1.00  0.00     0.038 C 
HETATM    9  C26 UNL     1       6.804  33.694  19.786  1.00  0.00     0.038 C 
ENDBRANCH   2   3
ENDBRANCH   1   2
BRANCH   1  10
HETATM   10  C8  UNL     1       7.237  29.828  17.456  1.00  0.00    -0.074 C 
HETATM   11  C9  UNL     1       7.925  28.890  17.154  1.00  0.00    -0.102 C 
BRANCH  11  12
HETATM   12  C10 UNL     1       8.779  27.758  16.807  1.00  0.00     0.129 C 
BRANCH  12  13
HETATM   13  C11 UNL     1       8.307  27.128  15.494  1.00  0.00     0.151 C 
BRANCH  13  14
HETATM   14  O1  UNL     1       7.153  27.768  15.117  1.00  0.00    -0.391 OA
ATOM     15  H1  UNL     1       7.089  27.714  14.171  1.00  0.00     0.210 HD
ENDBRANCH  13  14
BRANCH  13  16
HETATM   16  C12 UNL     1       9.381  27.143  14.502  1.00  0.00     0.002 C 
HETATM   17  C13 UNL     1       9.326  28.006  13.493  1.00  0.00    -0.021 C 
BRANCH  17  18
HETATM   18  C14 UNL     1      10.424  28.022  12.475  1.00  0.00     0.038 C 
HETATM   19  C15 UNL     1      11.755  27.870  13.197  1.00  0.00     0.031 C 
HETATM   20  C16 UNL     1      12.656  28.932  12.639  1.00  0.00     0.085 C 
HETATM   21 CL1  UNL     1      14.223  28.285  12.154  1.00  0.00    -0.125 Cl
HETATM   22  C17 UNL     1      11.952  29.470  11.397  1.00  0.00     0.052 C 
HETATM   23  C18 UNL     1      10.505  29.370  11.812  1.00  0.00     0.127 C 
BRANCH  23  24
HETATM   24  O2  UNL     1       9.644  29.368  10.725  1.00  0.00    -0.395 OA
ATOM     25  H2  UNL     1      10.113  29.018   9.978  1.00  0.00     0.210 HD
ENDBRANCH  23  24
ENDBRANCH  17  18
ENDBRANCH  13  16
ENDBRANCH  12  13
ENDBRANCH  11  12
ENDBRANCH   1  10
BRANCH   1  26
HETATM   26  C19 UNL     1       5.311  31.081  16.812  1.00  0.00     0.148 C 
HETATM   27  N1  UNL     1       4.245  31.899  16.596  1.00  0.00    -0.360 N 
HETATM   28  C20 UNL     1       3.423  31.639  15.367  1.00  0.00     0.155 C 
HETATM   29  C24 UNL     1       3.762  32.992  17.349  1.00  0.00     0.155 C 
HETATM   30  C21 UNL     1       2.748  32.925  14.998  1.00  0.00     0.291 C 
HETATM   31  N2  UNL     1       3.642  34.027  15.184  1.00  0.00     0.087 N 
HETATM   32  C22 UNL     1       3.002  35.230  14.641  1.00  0.00     0.310 C 
HETATM   33  C23 UNL     1       3.932  34.309  16.581  1.00  0.00     0.291 C 
BRANCH  26  34
HETATM   34  O3  UNL     1       5.462  30.146  15.877  1.00  0.00    -0.348 OA
ATOM     35  H3  UNL     1       4.654  29.943  15.421  1.00  0.00     0.219 HD
ENDBRANCH  26  34
ENDBRANCH   1  26
BRANCH   1  36
HETATM   36  C25 UNL     1       5.686  30.573  19.133  1.00  0.00     0.417 C 
HETATM   37  F1  UNL     1       4.929  29.415  18.817  1.00  0.00    -0.168 F 
HETATM   38  F2  UNL     1       6.625  30.007  20.034  1.00  0.00    -0.168 F 
HETATM   39  F3  UNL     1       4.863  31.407  19.769  1.00  0.00    -0.168 F 
ENDBRANCH   1  36
TORSDOF 12
ENDMDL
MODEL 2
REMARK VINA RESULT: -8.722467901      2.805      4.382
REMARK  12 active torsions:
REMARK  status: ('A' for Active; 'I' for Inactive)
REMARK    1  A    between atoms: C5_5  and  C6_6 
REMARK    2  A    between atoms: C6_6  and  C7_7 
REMARK    3  A    between atoms: C7_7  and  C8_8 
REMARK    4  A    between atoms: C7_7  and  C19_24 
REMARK    5  A    between atoms: C7_7  and  C25_34 
REMARK    6  A    between atoms: C9_9  and  C10_10 
REMARK    7  A    between atoms: C10_10  and  C11_11 
REMARK    8  A    between atoms: C11_11  and  O1_12 
REMARK    9  A    between atoms: C11_11  and  C12_14 
REMARK   10  A    between atoms: C13_15  and  C14_16 
REMARK   11  A    between atoms: C18_21  and  O2_22 
REMARK   12  A    between atoms: C19_24  and  O3_25 
ROOT
HETATM    1  C7  UNL     1       6.092  30.964  18.807  1.00  0.00     0.203 C 
ENDROOT
BRANCH   1   2
HETATM    2  C6  UNL     1       5.679  32.307  19.098  1.00  0.00     0.016 C 
BRANCH   2   3
HETATM    3  C5  UNL     1       6.486  33.375  19.675  1.00  0.00    -0.078 C 
HETATM    4  C4  UNL     1       5.961  34.246  20.741  1.00  0.00     0.061 C 
HETATM    5  C3  UNL     1       7.169  34.888  21.397  1.00  0.00    -0.020 C 
HETATM    6  C2  UNL     1       8.325  35.004  20.810  1.00  0.00    -0.087 C 
HETATM    7  C1  UNL     1       9.443  35.658  21.567  1.00  0.00     0.043 C 
HETATM    8  C27 UNL     1       8.652  34.540  19.431  1.00  0.00     0.038 C 
HETATM    9  C26 UNL     1       7.349  34.169  18.688  1.00  0.00     0.038 C 
ENDBRANCH   2   3
ENDBRANCH   1   2
BRANCH   1  10
HETATM   10  C8  UNL     1       5.488  30.658  17.426  1.00  0.00    -0.074 C 
HETATM   11  C9  UNL     1       4.996  30.396  16.362  1.00  0.00    -0.102 C 
BRANCH  11  12
HETATM   12  C10 UNL     1       4.411  30.055  15.068  1.00  0.00     0.129 C 
BRANCH  12  13
HETATM   13  C11 UNL     1       5.074  28.794  14.508  1.00  0.00     0.151 C 
BRANCH  13  14
HETATM   14  O1  UNL     1       4.434  28.474  13.336  1.00  0.00    -0.391 OA
ATOM     15  H1  UNL     1       5.101  28.267  12.692  1.00  0.00     0.210 HD
ENDBRANCH  13  14
BRANCH  13  16
HETATM   16  C12 UNL     1       6.520  28.980  14.399  1.00  0.00     0.002 C 
HETATM   17  C13 UNL     1       7.337  28.083  14.942  1.00  0.00    -0.021 C 
BRANCH  17  18
HETATM   18  C14 UNL     1       8.818  28.273  14.832  1.00  0.00     0.038 C 
HETATM   19  C15 UNL     1       9.171  28.488  13.368  1.00  0.00     0.031 C 
HETATM   20  C16 UNL     1      10.329  27.579  13.079  1.00  0.00     0.085 C 
HETATM   21 CL1  UNL     1      11.648  28.422  12.269  1.00  0.00    -0.125 Cl
HETATM   22  C17 UNL     1      10.828  27.093  14.436  1.00  0.00     0.052 C 
HETATM   23  C18 UNL     1       9.538  27.008  15.212  1.00  0.00     0.127 C 
BRANCH  23  24
HETATM   24  O2  UNL     1       9.745  27.026  16.583  1.00  0.00    -0.395 OA
ATOM     25  H2  UNL     1      10.639  27.305  16.742  1.00  0.00     0.210 HD
ENDBRANCH  23  24
ENDBRANCH  17  18
ENDBRANCH  13  16
ENDBRANCH  12  13
ENDBRANCH  11  12
ENDBRANCH   1  10
BRANCH   1  26
HETATM   26  C19 UNL     1       5.406  30.013  19.722  1.00  0.00     0.148 C 
HETATM   27  N1  UNL     1       5.262  29.953  21.074  1.00  0.00    -0.360 N 
HETATM   28  C20 UNL     1       4.472  28.802  21.627  1.00  0.00     0.155 C 
HETATM   29  C24 UNL     1       5.739  30.817  22.086  1.00  0.00     0.155 C 
HETATM   30  C21 UNL     1       3.930  29.227  22.957  1.00  0.00     0.291 C 
HETATM   31  N2  UNL     1       3.493  30.589  22.903  1.00  0.00     0.087 N 
HETATM   32  C22 UNL     1       2.809  30.898  24.165  1.00  0.00     0.310 C 
HETATM   33  C23 UNL     1       4.581  31.544  22.781  1.00  0.00     0.291 C 
BRANCH  26  34
HETATM   34  O3  UNL     1       4.810  29.011  19.079  1.00  0.00    -0.348 OA
ATOM     35  H3  UNL     1       4.158  28.567  19.608  1.00  0.00     0.219 HD
ENDBRANCH  26  34
ENDBRANCH   1  26
BRANCH   1  36
HETATM   36  C25 UNL     1       7.517  30.566  18.711  1.00  0.00     0.417 C 
HETATM   37  F1  UNL     1       8.047  31.221  17.568  1.00  0.00    -0.168 F 
HETATM   38  F2  UNL     1       8.290  31.190  19.725  1.00  0.00    -0.168 F 
HETATM   39  F3  UNL     1       7.837  29.278  18.597  1.00  0.00    -0.168 F 
ENDBRANCH   1  36
TORSDOF 12
ENDMDL
MODEL 3
REMARK VINA RESULT: -8.558470858      2.711      4.604
REMARK  12 active torsions:
REMARK  status: ('A' for Active; 'I' for Inactive)
REMARK    1  A    between atoms: C5_5  and  C6_6 
REMARK    2  A    between atoms: C6_6  and  C7_7 
REMARK    3  A    between atoms: C7_7  and  C8_8 
REMARK    4  A    between atoms: C7_7  and  C19_24 
REMARK    5  A    between atoms: C7_7  and  C25_34 
REMARK    6  A    between atoms: C9_9  and  C10_10 
REMARK    7  A    between atoms: C10_10  and  C11_11 
REMARK    8  A    between atoms: C11_11  and  O1_12 
REMARK    9  A    between atoms: C11_11  and  C12_14 
REMARK   10  A    between atoms: C13_15  and  C14_16 
REMARK   11  A    between atoms: C18_21  and  O2_22 
REMARK   12  A    between atoms: C19_24  and  O3_25 
ROOT
HETATM    1  C7  UNL     1       6.117  31.035  18.492  1.00  0.00     0.203 C 
ENDROOT
BRANCH   1   2
HETATM    2  C6  UNL     1       5.778  32.421  18.646  1.00  0.00     0.016 C 
BRANCH   2   3
HETATM    3  C5  UNL     1       6.498  33.428  19.417  1.00  0.00    -0.078 C 
HETATM    4  C4  UNL     1       5.816  34.254  20.429  1.00  0.00     0.061 C 
HETATM    5  C3  UNL     1       6.906  34.817  21.320  1.00  0.00    -0.020 C 
HETATM    6  C2  UNL     1       8.149  34.928  20.948  1.00  0.00    -0.087 C 
HETATM    7  C1  UNL     1       9.133  35.502  21.924  1.00  0.00     0.043 C 
HETATM    8  C27 UNL     1       8.699  34.534  19.619  1.00  0.00     0.038 C 
HETATM    9  C26 UNL     1       7.536  34.248  18.643  1.00  0.00     0.038 C 
ENDBRANCH   2   3
ENDBRANCH   1   2
BRANCH   1  10
HETATM   10  C8  UNL     1       5.422  30.602  17.191  1.00  0.00    -0.074 C 
HETATM   11  C9  UNL     1       4.908  30.250  16.164  1.00  0.00    -0.102 C 
BRANCH  11  12
HETATM   12  C10 UNL     1       4.296  29.842  14.902  1.00  0.00     0.129 C 
BRANCH  12  13
HETATM   13  C11 UNL     1       5.062  28.659  14.305  1.00  0.00     0.151 C 
BRANCH  13  14
HETATM   14  O1  UNL     1       4.500  28.374  13.085  1.00  0.00    -0.391 OA
ATOM     15  H1  UNL     1       4.683  29.104  12.506  1.00  0.00     0.210 HD
ENDBRANCH  13  14
BRANCH  13  16
HETATM   16  C12 UNL     1       6.498  28.937  14.280  1.00  0.00     0.002 C 
HETATM   17  C13 UNL     1       7.356  27.966  14.574  1.00  0.00    -0.021 C 
BRANCH  17  18
HETATM   18  C14 UNL     1       8.826  28.249  14.551  1.00  0.00     0.038 C 
HETATM   19  C15 UNL     1       9.247  28.501  13.111  1.00  0.00     0.031 C 
HETATM   20  C16 UNL     1      10.474  27.669  12.883  1.00  0.00     0.085 C 
HETATM   21 CL1  UNL     1      11.782  28.601  12.156  1.00  0.00    -0.125 Cl
HETATM   22  C17 UNL     1      10.926  27.201  14.263  1.00  0.00     0.052 C 
HETATM   23  C18 UNL     1       9.601  27.028  14.964  1.00  0.00     0.127 C 
BRANCH  23  24
HETATM   24  O2  UNL     1       9.729  27.045  16.345  1.00  0.00    -0.395 OA
ATOM     25  H2  UNL     1      10.250  26.294  16.602  1.00  0.00     0.210 HD
ENDBRANCH  23  24
ENDBRANCH  17  18
ENDBRANCH  13  16
ENDBRANCH  12  13
ENDBRANCH  11  12
ENDBRANCH   1  10
BRANCH   1  26
HETATM   26  C19 UNL     1       5.448  30.229  19.548  1.00  0.00     0.148 C 
HETATM   27  N1  UNL     1       5.155  28.906  19.672  1.00  0.00    -0.360 N 
HETATM   28  C20 UNL     1       4.454  28.477  20.929  1.00  0.00     0.155 C 
HETATM   29  C24 UNL     1       5.408  27.826  18.797  1.00  0.00     0.155 C 
HETATM   30  C21 UNL     1       4.770  27.029  21.146  1.00  0.00     0.291 C 
HETATM   31  N2  UNL     1       6.139  26.764  20.824  1.00  0.00     0.087 N 
HETATM   32  C22 UNL     1       6.443  25.386  21.224  1.00  0.00     0.310 C 
HETATM   33  C23 UNL     1       6.429  26.854  19.402  1.00  0.00     0.291 C 
BRANCH  26  34
HETATM   34  O3  UNL     1       5.053  30.961  20.588  1.00  0.00    -0.348 OA
ATOM     35  H3  UNL     1       4.408  30.520  21.128  1.00  0.00     0.219 HD
ENDBRANCH  26  34
ENDBRANCH   1  26
BRANCH   1  36
HETATM   36  C25 UNL     1       7.517  30.562  18.367  1.00  0.00     0.417 C 
HETATM   37  F1  UNL     1       7.491  29.431  17.509  1.00  0.00    -0.168 F 
HETATM   38  F2  UNL     1       8.287  31.450  17.571  1.00  0.00    -0.168 F 
HETATM   39  F3  UNL     1       8.191  30.199  19.458  1.00  0.00    -0.168 F 
ENDBRANCH   1  36
TORSDOF 12
ENDMDL
MODEL 4
REMARK VINA RESULT: -8.321880344      1.424      1.960
REMARK  12 active torsions:
REMARK  status: ('A' for Active; 'I' for Inactive)
REMARK    1  A    between atoms: C5_5  and  C6_6 
REMARK    2  A    between atoms: C6_6  and  C7_7 
REMARK    3  A    between atoms: C7_7  and  C8_8 
REMARK    4  A    between atoms: C7_7  and  C19_24 
REMARK    5  A    between atoms: C7_7  and  C25_34 
REMARK    6  A    between atoms: C9_9  and  C10_10 
REMARK    7  A    between atoms: C10_10  and  C11_11 
REMARK    8  A    between atoms: C11_11  and  O1_12 
REMARK    9  A    between atoms: C11_11  and  C12_14 
REMARK   10  A    between atoms: C13_15  and  C14_16 
REMARK   11  A    between atoms: C18_21  and  O2_22 
REMARK   12  A    between atoms: C19_24  and  O3_25 
ROOT
HETATM    1  C7  UNL     1       5.699  29.902  17.931  1.00  0.00     0.203 C 
ENDROOT
BRANCH   1   2
HETATM    2  C6  UNL     1       6.056  31.209  17.458  1.00  0.00     0.016 C 
BRANCH   2   3
HETATM    3  C5  UNL     1       6.910  32.187  18.120  1.00  0.00    -0.078 C 
HETATM    4  C4  UNL     1       6.983  33.584  17.655  1.00  0.00     0.061 C 
HETATM    5  C3  UNL     1       7.560  34.384  18.808  1.00  0.00    -0.020 C 
HETATM    6  C2  UNL     1       8.268  33.853  19.764  1.00  0.00    -0.087 C 
HETATM    7  C1  UNL     1       8.782  34.754  20.849  1.00  0.00     0.043 C 
HETATM    8  C27 UNL     1       8.624  32.411  19.887  1.00  0.00     0.038 C 
HETATM    9  C26 UNL     1       8.285  31.681  18.568  1.00  0.00     0.038 C 
ENDBRANCH   2   3
ENDBRANCH   1   2
BRANCH   1  10
HETATM   10  C8  UNL     1       6.868  28.998  17.508  1.00  0.00    -0.074 C 
HETATM   11  C9  UNL     1       7.803  28.309  17.198  1.00  0.00    -0.102 C 
BRANCH  11  12
HETATM   12  C10 UNL     1       8.947  27.493  16.804  1.00  0.00     0.129 C 
BRANCH  12  13
HETATM   13  C11 UNL     1       8.633  26.735  15.512  1.00  0.00     0.151 C 
BRANCH  13  14
HETATM   14  O1  UNL     1       7.374  27.107  15.108  1.00  0.00    -0.391 OA
ATOM     15  H1  UNL     1       7.415  28.018  14.842  1.00  0.00     0.210 HD
ENDBRANCH  13  14
BRANCH  13  16
HETATM   16  C12 UNL     1       9.691  26.942  14.524  1.00  0.00     0.002 C 
HETATM   17  C13 UNL     1       9.442  27.672  13.443  1.00  0.00    -0.021 C 
BRANCH  17  18
HETATM   18  C14 UNL     1      10.524  27.884  12.430  1.00  0.00     0.038 C 
HETATM   19  C15 UNL     1      11.870  27.778  13.131  1.00  0.00     0.031 C 
HETATM   20  C16 UNL     1      12.670  28.964  12.680  1.00  0.00     0.085 C 
HETATM   21 CL1  UNL     1      14.282  28.506  12.131  1.00  0.00    -0.125 Cl
HETATM   22  C17 UNL     1      11.910  29.559  11.499  1.00  0.00     0.052 C 
HETATM   23  C18 UNL     1      10.481  29.293  11.904  1.00  0.00     0.127 C 
BRANCH  23  24
HETATM   24  O2  UNL     1       9.612  29.324  10.824  1.00  0.00    -0.395 OA
ATOM     25  H2  UNL     1       9.736  30.148  10.370  1.00  0.00     0.210 HD
ENDBRANCH  23  24
ENDBRANCH  17  18
ENDBRANCH  13  16
ENDBRANCH  12  13
ENDBRANCH  11  12
ENDBRANCH   1  10
BRANCH   1  26
HETATM   26  C19 UNL     1       4.539  29.382  17.158  1.00  0.00     0.148 C 
HETATM   27  N1  UNL     1       3.252  29.797  17.008  1.00  0.00    -0.360 N 
HETATM   28  C20 UNL     1       2.369  28.976  16.113  1.00  0.00     0.155 C 
HETATM   29  C24 UNL     1       2.576  30.907  17.564  1.00  0.00     0.155 C 
HETATM   30  C21 UNL     1       1.279  29.873  15.613  1.00  0.00     0.291 C 
HETATM   31  N2  UNL     1       1.803  31.169  15.305  1.00  0.00     0.087 N 
HETATM   32  C22 UNL     1       0.743  31.946  14.653  1.00  0.00     0.310 C 
HETATM   33  C23 UNL     1       2.205  31.926  16.479  1.00  0.00     0.291 C 
BRANCH  26  34
HETATM   34  O3  UNL     1       4.826  28.278  16.471  1.00  0.00    -0.348 OA
ATOM     35  H3  UNL     1       4.530  28.315  15.570  1.00  0.00     0.219 HD
ENDBRANCH  26  34
ENDBRANCH   1  26
BRANCH   1  36
HETATM   36  C25 UNL     1       5.469  29.604  19.365  1.00  0.00     0.417 C 
HETATM   37  F1  UNL     1       4.749  30.705  19.900  1.00  0.00    -0.168 F 
HETATM   38  F2  UNL     1       4.498  28.581  19.525  1.00  0.00    -0.168 F 
HETATM   39  F3  UNL     1       6.510  29.400  20.172  1.00  0.00    -0.168 F 
ENDBRANCH   1  36
TORSDOF 12
ENDMDL
MODEL 5
REMARK VINA RESULT: -8.303230389      2.564      3.893
REMARK  12 active torsions:
REMARK  status: ('A' for Active; 'I' for Inactive)
REMARK    1  A    between atoms: C5_5  and  C6_6 
REMARK    2  A    between atoms: C6_6  and  C7_7 
REMARK    3  A    between atoms: C7_7  and  C8_8 
REMARK    4  A    between atoms: C7_7  and  C19_24 
REMARK    5  A    between atoms: C7_7  and  C25_34 
REMARK    6  A    between atoms: C9_9  and  C10_10 
REMARK    7  A    between atoms: C10_10  and  C11_11 
REMARK    8  A    between atoms: C11_11  and  O1_12 
REMARK    9  A    between atoms: C11_11  and  C12_14 
REMARK   10  A    between atoms: C13_15  and  C14_16 
REMARK   11  A    between atoms: C18_21  and  O2_22 
REMARK   12  A    between atoms: C19_24  and  O3_25 
ROOT
HETATM    1  C7  UNL     1       5.885  30.707  18.247  1.00  0.00     0.203 C 
ENDROOT
BRANCH   1   2
HETATM    2  C6  UNL     1       6.571  31.939  17.981  1.00  0.00     0.016 C 
BRANCH   2   3
HETATM    3  C5  UNL     1       7.427  32.690  18.891  1.00  0.00    -0.078 C 
HETATM    4  C4  UNL     1       8.466  32.023  19.696  1.00  0.00     0.061 C 
HETATM    5  C3  UNL     1       9.426  33.112  20.134  1.00  0.00    -0.020 C 
HETATM    6  C2  UNL     1       9.102  34.373  20.189  1.00  0.00    -0.087 C 
HETATM    7  C1  UNL     1      10.145  35.354  20.639  1.00  0.00     0.043 C 
HETATM    8  C27 UNL     1       7.770  34.946  19.841  1.00  0.00     0.038 C 
HETATM    9  C26 UNL     1       6.740  33.804  19.689  1.00  0.00     0.038 C 
ENDBRANCH   2   3
ENDBRANCH   1   2
BRANCH   1  10
HETATM   10  C8  UNL     1       5.248  30.313  16.904  1.00  0.00    -0.074 C 
HETATM   11  C9  UNL     1       4.776  29.982  15.850  1.00  0.00    -0.102 C 
BRANCH  11  12
HETATM   12  C10 UNL     1       4.222  29.596  14.556  1.00  0.00     0.129 C 
BRANCH  12  13
HETATM   13  C11 UNL     1       5.019  28.427  13.971  1.00  0.00     0.151 C 
BRANCH  13  14
HETATM   14  O1  UNL     1       4.467  28.116  12.753  1.00  0.00    -0.391 OA
ATOM     15  H1  UNL     1       5.039  27.485  12.331  1.00  0.00     0.210 HD
ENDBRANCH  13  14
BRANCH  13  16
HETATM   16  C12 UNL     1       6.447  28.740  13.947  1.00  0.00     0.002 C 
HETATM   17  C13 UNL     1       7.307  27.916  14.537  1.00  0.00    -0.021 C 
BRANCH  17  18
HETATM   18  C14 UNL     1       8.769  28.236  14.514  1.00  0.00     0.038 C 
HETATM   19  C15 UNL     1       9.185  28.497  13.074  1.00  0.00     0.031 C 
HETATM   20  C16 UNL     1      10.433  27.696  12.848  1.00  0.00     0.085 C 
HETATM   21 CL1  UNL     1      11.718  28.661  12.121  1.00  0.00    -0.125 Cl
HETATM   22  C17 UNL     1      10.895  27.241  14.229  1.00  0.00     0.052 C 
HETATM   23  C18 UNL     1       9.575  27.034  14.928  1.00  0.00     0.127 C 
BRANCH  23  24
HETATM   24  O2  UNL     1       9.701  27.056  16.309  1.00  0.00    -0.395 OA
ATOM     25  H2  UNL     1       9.184  27.780  16.641  1.00  0.00     0.210 HD
ENDBRANCH  23  24
ENDBRANCH  17  18
ENDBRANCH  13  16
ENDBRANCH  12  13
ENDBRANCH  11  12
ENDBRANCH   1  10
BRANCH   1  26
HETATM   26  C19 UNL     1       4.723  30.958  19.141  1.00  0.00     0.148 C 
HETATM   27  N1  UNL     1       4.556  30.931  20.491  1.00  0.00    -0.360 N 
HETATM   28  C20 UNL     1       3.188  31.255  21.018  1.00  0.00     0.155 C 
HETATM   29  C24 UNL     1       5.479  30.645  21.523  1.00  0.00     0.155 C 
HETATM   30  C21 UNL     1       3.354  31.759  22.419  1.00  0.00     0.291 C 
HETATM   31  N2  UNL     1       4.504  32.607  22.509  1.00  0.00     0.087 N 
HETATM   32  C22 UNL     1       4.518  33.215  23.844  1.00  0.00     0.310 C 
HETATM   33  C23 UNL     1       5.763  31.893  22.369  1.00  0.00     0.291 C 
BRANCH  26  34
HETATM   34  O3  UNL     1       3.613  31.272  18.475  1.00  0.00    -0.348 OA
ATOM     35  H3  UNL     1       2.840  31.281  19.026  1.00  0.00     0.219 HD
ENDBRANCH  26  34
ENDBRANCH   1  26
BRANCH   1  36
HETATM   36  C25 UNL     1       6.581  29.489  18.726  1.00  0.00     0.417 C 
HETATM   37  F1  UNL     1       5.597  28.472  18.835  1.00  0.00    -0.168 F 
HETATM   38  F2  UNL     1       7.392  28.929  17.704  1.00  0.00    -0.168 F 
HETATM   39  F3  UNL     1       7.235  29.516  19.887  1.00  0.00    -0.168 F 
ENDBRANCH   1  36
TORSDOF 12
ENDMDL
