MODEL 1
REMARK VINA RESULT: -9.312514704      0.000      0.000
REMARK  7 active torsions:
REMARK  status: ('A' for Active; 'I' for Inactive)
REMARK       I    between atoms: N2_3  and  C2_5 
REMARK       I    between atoms: C2_5  and  N5_16 
REMARK    1  A    between atoms: N3_6  and  C3_8 
REMARK    2  A    between atoms: C3_8  and  C4_9 
REMARK    3  A    between atoms: C4_9  and  N4_10 
REMARK    4  A    between atoms: N5_16  and  C10_18 
REMARK    5  A    between atoms: N6_21  and  C13_22 
REMARK    6  A    between atoms: C16_25  and  C17_26 
REMARK    7  A    between atoms: C21_34  and  N7_35 
ROOT
HETATM    1  N1  UNL     1       9.195  27.517  18.680  1.00  0.00    -0.171 NA
HETATM    2  C1  UNL     1       8.071  27.863  18.610  1.00  0.00     0.196 C 
HETATM    3  N2  UNL     1       6.754  28.303  18.526  1.00  0.00    -0.126 N 
ATOM      4  H2  UNL     1       6.077  28.057  19.248  1.00  0.00     0.197 HD
HETATM    5  C2  UNL     1       6.356  29.124  17.387  1.00  0.00     0.687 C 
HETATM    6  N3  UNL     1       6.425  28.538  16.294  1.00  0.00    -0.203 N 
ATOM      7  H3  UNL     1       6.757  27.589  16.465  1.00  0.00     0.183 HD
HETATM    8  N5  UNL     1       5.953  30.475  17.598  1.00  0.00    -0.218 N 
ATOM      9  H5  UNL     1       5.120  30.800  17.108  1.00  0.00     0.178 HD
ENDROOT
BRANCH   6  10
HETATM   10  C3  UNL     1       6.223  28.685  14.934  1.00  0.00     0.109 C 
BRANCH  10  11
HETATM   11  C4  UNL     1       7.139  27.835  14.096  1.00  0.00     0.317 C 
BRANCH  11  12
HETATM   12  N4  UNL     1       8.562  28.141  14.245  1.00  0.00     0.093 N 
HETATM   13  C5  UNL     1       9.172  26.917  14.657  1.00  0.00     0.273 C 
HETATM   14  C6  UNL     1      10.643  26.862  14.756  1.00  0.00     0.030 C 
HETATM   15  C7  UNL     1      11.309  27.716  13.737  1.00  0.00     0.003 C 
HETATM   16  C8  UNL     1      10.392  28.039  12.567  1.00  0.00     0.030 C 
HETATM   17  C9  UNL     1       9.112  28.667  13.042  1.00  0.00     0.273 C 
ENDBRANCH  11  12
ENDBRANCH  10  11
ENDBRANCH   6  10
BRANCH   8  18
HETATM   18  C10 UNL     1       6.623  31.407  18.440  1.00  0.00     0.139 C 
HETATM   19  C11 UNL     1       6.149  32.848  18.206  1.00  0.00     0.048 C 
HETATM   20  C12 UNL     1       7.373  33.677  18.521  1.00  0.00     0.130 C 
HETATM   21  N6  UNL     1       7.934  33.338  19.846  1.00  0.00    -0.357 N 
HETATM   22  C20 UNL     1       7.886  32.034  20.358  1.00  0.00     0.102 C 
HETATM   23  C21 UNL     1       6.722  31.155  19.898  1.00  0.00     0.284 C 
BRANCH  21  24
HETATM   24  C13 UNL     1       8.518  34.497  20.468  1.00  0.00     0.056 A 
HETATM   25  C14 UNL     1       9.820  34.855  20.142  1.00  0.00     0.032 A 
HETATM   26  C15 UNL     1      10.446  35.897  20.785  1.00  0.00     0.018 A 
HETATM   27  C16 UNL     1       9.795  36.616  21.773  1.00  0.00     0.049 A 
HETATM   28  C18 UNL     1       8.512  36.267  22.095  1.00  0.00     0.042 A 
HETATM   29  C19 UNL     1       7.896  35.208  21.430  1.00  0.00     0.061 A 
HETATM   30 CL1  UNL     1       6.273  34.836  21.913  1.00  0.00    -0.082 Cl
BRANCH  27  31
HETATM   31  C17 UNL     1      10.494  37.723  22.497  1.00  0.00     0.417 C 
HETATM   32  F1  UNL     1      10.459  37.577  23.861  1.00  0.00    -0.166 F 
HETATM   33  F2  UNL     1      11.821  37.778  22.123  1.00  0.00    -0.166 F 
HETATM   34  F3  UNL     1       9.903  38.943  22.156  1.00  0.00    -0.166 F 
ENDBRANCH  27  31
ENDBRANCH  21  24
BRANCH  23  35
HETATM   35  N7  UNL     1       5.518  31.473  20.677  1.00  0.00     0.100 N 
HETATM   36  C22 UNL     1       4.616  30.337  20.546  1.00  0.00     0.273 C 
HETATM   37  C23 UNL     1       3.509  30.329  21.590  1.00  0.00     0.030 C 
HETATM   38  C24 UNL     1       4.192  30.092  22.924  1.00  0.00     0.003 C 
HETATM   39  C25 UNL     1       5.034  31.333  23.123  1.00  0.00     0.030 C 
HETATM   40  C26 UNL     1       6.009  31.586  22.041  1.00  0.00     0.273 C 
ENDBRANCH  23  35
ENDBRANCH   8  18
TORSDOF 7
ENDMDL
MODEL 2
REMARK VINA RESULT: -8.993978437      1.822      3.225
REMARK  7 active torsions:
REMARK  status: ('A' for Active; 'I' for Inactive)
REMARK       I    between atoms: N2_3  and  C2_5 
REMARK       I    between atoms: C2_5  and  N5_16 
REMARK    1  A    between atoms: N3_6  and  C3_8 
REMARK    2  A    between atoms: C3_8  and  C4_9 
REMARK    3  A    between atoms: C4_9  and  N4_10 
REMARK    4  A    between atoms: N5_16  and  C10_18 
REMARK    5  A    between atoms: N6_21  and  C13_22 
REMARK    6  A    between atoms: C16_25  and  C17_26 
REMARK    7  A    between atoms: C21_34  and  N7_35 
ROOT
HETATM    1  N1  UNL     1       9.032  27.338  18.653  1.00  0.00    -0.171 NA
HETATM    2  C1  UNL     1       7.904  27.441  18.327  1.00  0.00     0.196 C 
HETATM    3  N2  UNL     1       6.577  27.595  17.940  1.00  0.00    -0.126 N 
ATOM      4  H2  UNL     1       5.820  27.263  18.538  1.00  0.00     0.197 HD
HETATM    5  C2  UNL     1       6.284  28.242  16.666  1.00  0.00     0.687 C 
HETATM    6  N3  UNL     1       6.693  27.613  15.676  1.00  0.00    -0.203 N 
ATOM      7  H3  UNL     1       7.153  26.765  16.007  1.00  0.00     0.183 HD
HETATM    8  N5  UNL     1       5.601  29.493  16.650  1.00  0.00    -0.218 N 
ATOM      9  H5  UNL     1       4.846  29.607  15.974  1.00  0.00     0.178 HD
ENDROOT
BRANCH   6  10
HETATM   10  C3  UNL     1       6.762  27.628  14.294  1.00  0.00     0.109 C 
BRANCH  10  11
HETATM   11  C4  UNL     1       7.784  28.592  13.755  1.00  0.00     0.317 C 
BRANCH  11  12
HETATM   12  N4  UNL     1       8.952  27.961  13.139  1.00  0.00     0.093 N 
HETATM   13  C5  UNL     1       9.705  29.033  12.571  1.00  0.00     0.273 C 
HETATM   14  C6  UNL     1      11.029  28.735  11.992  1.00  0.00     0.030 C 
HETATM   15  C7  UNL     1      11.728  27.642  12.719  1.00  0.00     0.003 C 
HETATM   16  C8  UNL     1      11.174  27.436  14.120  1.00  0.00     0.030 C 
HETATM   17  C9  UNL     1       9.691  27.194  14.084  1.00  0.00     0.273 C 
ENDBRANCH  11  12
ENDBRANCH  10  11
ENDBRANCH   6  10
BRANCH   8  18
HETATM   18  C10 UNL     1       5.889  30.594  17.504  1.00  0.00     0.139 C 
HETATM   19  C11 UNL     1       7.296  31.160  17.269  1.00  0.00     0.048 C 
HETATM   20  C12 UNL     1       7.694  31.689  18.628  1.00  0.00     0.130 C 
HETATM   21  N6  UNL     1       6.666  32.594  19.184  1.00  0.00    -0.357 N 
HETATM   22  C20 UNL     1       5.300  32.399  18.941  1.00  0.00     0.102 C 
HETATM   23  C21 UNL     1       4.925  31.713  17.626  1.00  0.00     0.284 C 
BRANCH  21  24
HETATM   24  C13 UNL     1       7.270  33.628  19.982  1.00  0.00     0.056 A 
HETATM   25  C14 UNL     1       8.281  34.404  19.429  1.00  0.00     0.032 A 
HETATM   26  C15 UNL     1       8.949  35.336  20.188  1.00  0.00     0.018 A 
HETATM   27  C16 UNL     1       8.631  35.526  21.522  1.00  0.00     0.049 A 
HETATM   28  C18 UNL     1       7.633  34.765  22.069  1.00  0.00     0.042 A 
HETATM   29  C19 UNL     1       6.970  33.826  21.281  1.00  0.00     0.061 A 
HETATM   30 CL1  UNL     1       5.727  32.904  22.065  1.00  0.00    -0.082 Cl
BRANCH  27  31
HETATM   31  C17 UNL     1       9.386  36.513  22.354  1.00  0.00     0.417 C 
HETATM   32  F1  UNL     1       8.643  37.620  22.681  1.00  0.00    -0.166 F 
HETATM   33  F2  UNL     1       9.796  35.930  23.535  1.00  0.00    -0.166 F 
HETATM   34  F3  UNL     1      10.529  36.924  21.661  1.00  0.00    -0.166 F 
ENDBRANCH  27  31
ENDBRANCH  21  24
BRANCH  23  35
HETATM   35  N7  UNL     1       4.949  32.691  16.529  1.00  0.00     0.100 N 
HETATM   36  C22 UNL     1       3.818  32.385  15.664  1.00  0.00     0.273 C 
HETATM   37  C23 UNL     1       3.469  33.519  14.711  1.00  0.00     0.030 C 
HETATM   38  C24 UNL     1       2.959  34.654  15.581  1.00  0.00     0.003 C 
HETATM   39  C25 UNL     1       4.170  35.059  16.392  1.00  0.00     0.030 C 
HETATM   40  C26 UNL     1       4.755  33.966  17.198  1.00  0.00     0.273 C 
ENDBRANCH  23  35
ENDBRANCH   8  18
TORSDOF 7
ENDMDL
MODEL 3
REMARK VINA RESULT: -8.816810999      2.406      3.868
REMARK  7 active torsions:
REMARK  status: ('A' for Active; 'I' for Inactive)
REMARK       I    between atoms: N2_3  and  C2_5 
REMARK       I    between atoms: C2_5  and  N5_16 
REMARK    1  A    between atoms: N3_6  and  C3_8 
REMARK    2  A    between atoms: C3_8  and  C4_9 
REMARK    3  A    between atoms: C4_9  and  N4_10 
REMARK    4  A    between atoms: N5_16  and  C10_18 
REMARK    5  A    between atoms: N6_21  and  C13_22 
REMARK    6  A    between atoms: C16_25  and  C17_26 
REMARK    7  A    between atoms: C21_34  and  N7_35 
ROOT
HETATM    1  N1  UNL     1       8.674  27.299  19.404  1.00  0.00    -0.171 NA
HETATM    2  C1  UNL     1       7.787  27.488  18.651  1.00  0.00     0.196 C 
HETATM    3  N2  UNL     1       6.743  27.743  17.767  1.00  0.00    -0.126 N 
ATOM      4  H2  UNL     1       5.830  27.312  17.905  1.00  0.00     0.197 HD
HETATM    5  C2  UNL     1       6.977  28.639  16.639  1.00  0.00     0.687 C 
HETATM    6  N3  UNL     1       7.811  28.214  15.822  1.00  0.00    -0.203 N 
ATOM      7  H3  UNL     1       8.143  27.307  16.152  1.00  0.00     0.183 HD
HETATM    8  N5  UNL     1       6.280  29.880  16.568  1.00  0.00    -0.218 N 
ATOM      9  H5  UNL     1       5.878  30.143  15.669  1.00  0.00     0.178 HD
ENDROOT
BRANCH   6  10
HETATM   10  C3  UNL     1       8.459  28.504  14.635  1.00  0.00     0.109 C 
BRANCH  10  11
HETATM   11  C4  UNL     1       9.173  27.322  14.038  1.00  0.00     0.317 C 
BRANCH  11  12
HETATM   12  N4  UNL     1       9.960  27.625  12.842  1.00  0.00     0.093 N 
HETATM   13  C5  UNL     1       9.706  29.001  12.560  1.00  0.00     0.273 C 
HETATM   14  C6  UNL     1      10.474  29.653  11.482  1.00  0.00     0.030 C 
HETATM   15  C7  UNL     1      11.856  29.117  11.371  1.00  0.00     0.003 C 
HETATM   16  C8  UNL     1      12.307  28.418  12.645  1.00  0.00     0.030 C 
HETATM   17  C9  UNL     1      11.340  27.336  13.038  1.00  0.00     0.273 C 
ENDBRANCH  11  12
ENDBRANCH  10  11
ENDBRANCH   6  10
BRANCH   8  18
HETATM   18  C10 UNL     1       6.101  30.781  17.655  1.00  0.00     0.139 C 
HETATM   19  C11 UNL     1       7.353  31.628  17.921  1.00  0.00     0.048 C 
HETATM   20  C12 UNL     1       7.296  31.883  19.410  1.00  0.00     0.130 C 
HETATM   21  N6  UNL     1       5.986  32.433  19.819  1.00  0.00    -0.357 N 
HETATM   22  C20 UNL     1       4.796  32.061  19.180  1.00  0.00     0.102 C 
HETATM   23  C21 UNL     1       4.901  31.650  17.711  1.00  0.00     0.284 C 
BRANCH  21  24
HETATM   24  C13 UNL     1       6.134  33.340  20.927  1.00  0.00     0.056 A 
HETATM   25  C14 UNL     1       5.339  33.167  22.052  1.00  0.00     0.032 A 
HETATM   26  C15 UNL     1       5.381  34.068  23.090  1.00  0.00     0.018 A 
HETATM   27  C16 UNL     1       6.217  35.170  23.040  1.00  0.00     0.049 A 
HETATM   28  C18 UNL     1       7.004  35.343  21.933  1.00  0.00     0.042 A 
HETATM   29  C19 UNL     1       6.945  34.416  20.894  1.00  0.00     0.061 A 
HETATM   30 CL1  UNL     1       7.973  34.723  19.531  1.00  0.00    -0.082 Cl
BRANCH  27  31
HETATM   31  C17 UNL     1       6.231  36.169  24.154  1.00  0.00     0.417 C 
HETATM   32  F1  UNL     1       6.458  35.601  25.382  1.00  0.00    -0.166 F 
HETATM   33  F2  UNL     1       7.222  37.106  23.945  1.00  0.00    -0.166 F 
HETATM   34  F3  UNL     1       5.007  36.843  24.186  1.00  0.00    -0.166 F 
ENDBRANCH  27  31
ENDBRANCH  21  24
BRANCH  23  35
HETATM   35  N7  UNL     1       4.948  32.847  16.860  1.00  0.00     0.100 N 
HETATM   36  C22 UNL     1       4.081  32.590  15.719  1.00  0.00     0.273 C 
HETATM   37  C23 UNL     1       3.710  33.852  14.952  1.00  0.00     0.030 C 
HETATM   38  C24 UNL     1       2.838  34.669  15.888  1.00  0.00     0.003 C 
HETATM   39  C25 UNL     1       3.774  35.046  17.015  1.00  0.00     0.030 C 
HETATM   40  C26 UNL     1       4.392  33.892  17.704  1.00  0.00     0.273 C 
ENDBRANCH  23  35
ENDBRANCH   8  18
TORSDOF 7
ENDMDL
MODEL 4
REMARK VINA RESULT: -8.730434843      2.786      4.500
REMARK  7 active torsions:
REMARK  status: ('A' for Active; 'I' for Inactive)
REMARK       I    between atoms: N2_3  and  C2_5 
REMARK       I    between atoms: C2_5  and  N5_16 
REMARK    1  A    between atoms: N3_6  and  C3_8 
REMARK    2  A    between atoms: C3_8  and  C4_9 
REMARK    3  A    between atoms: C4_9  and  N4_10 
REMARK    4  A    between atoms: N5_16  and  C10_18 
REMARK    5  A    between atoms: N6_21  and  C13_22 
REMARK    6  A    between atoms: C16_25  and  C17_26 
REMARK    7  A    between atoms: C21_34  and  N7_35 
ROOT
HETATM    1  N1  UNL     1       8.971  28.928  13.738  1.00  0.00    -0.171 NA
HETATM    2  C1  UNL     1       8.170  28.272  14.302  1.00  0.00     0.196 C 
HETATM    3  N2  UNL     1       7.215  27.525  14.985  1.00  0.00    -0.126 N 
ATOM      4  H2  UNL     1       7.484  26.690  15.504  1.00  0.00     0.197 HD
HETATM    5  C2  UNL     1       5.821  27.957  14.946  1.00  0.00     0.687 C 
HETATM    6  N3  UNL     1       5.313  27.917  13.814  1.00  0.00    -0.203 N 
ATOM      7  H3  UNL     1       6.020  27.580  13.160  1.00  0.00     0.183 HD
HETATM    8  N5  UNL     1       5.184  28.387  16.145  1.00  0.00    -0.218 N 
ATOM      9  H5  UNL     1       4.241  28.042  16.327  1.00  0.00     0.178 HD
ENDROOT
BRANCH   6  10
HETATM   10  C3  UNL     1       4.150  28.156  13.103  1.00  0.00     0.109 C 
BRANCH  10  11
HETATM   11  C4  UNL     1       3.130  27.058  13.235  1.00  0.00     0.317 C 
BRANCH  11  12
HETATM   12  N4  UNL     1       2.017  27.364  14.135  1.00  0.00     0.093 N 
HETATM   13  C5  UNL     1       2.261  26.595  15.313  1.00  0.00     0.273 C 
HETATM   14  C6  UNL     1       1.379  26.795  16.480  1.00  0.00     0.030 C 
HETATM   15  C7  UNL     1       0.909  28.201  16.596  1.00  0.00     0.003 C 
HETATM   16  C8  UNL     1       1.794  29.170  15.827  1.00  0.00     0.030 C 
HETATM   17  C9  UNL     1       1.917  28.762  14.386  1.00  0.00     0.273 C 
ENDBRANCH  11  12
ENDBRANCH  10  11
ENDBRANCH   6  10
BRANCH   8  18
HETATM   18  C10 UNL     1       5.758  29.261  17.110  1.00  0.00     0.139 C 
HETATM   19  C11 UNL     1       5.102  30.649  17.102  1.00  0.00     0.048 C 
HETATM   20  C12 UNL     1       6.222  31.571  17.525  1.00  0.00     0.130 C 
HETATM   21  N6  UNL     1       6.863  31.114  18.776  1.00  0.00    -0.357 N 
HETATM   22  C20 UNL     1       6.992  29.753  19.085  1.00  0.00     0.102 C 
HETATM   23  C21 UNL     1       5.933  28.811  18.512  1.00  0.00     0.284 C 
BRANCH  21  24
HETATM   24  C13 UNL     1       7.317  32.233  19.559  1.00  0.00     0.056 A 
HETATM   25  C14 UNL     1       8.647  32.622  19.473  1.00  0.00     0.032 A 
HETATM   26  C15 UNL     1       9.142  33.622  20.275  1.00  0.00     0.018 A 
HETATM   27  C16 UNL     1       8.328  34.268  21.189  1.00  0.00     0.049 A 
HETATM   28  C18 UNL     1       7.015  33.889  21.275  1.00  0.00     0.042 A 
HETATM   29  C19 UNL     1       6.535  32.872  20.451  1.00  0.00     0.061 A 
HETATM   30 CL1  UNL     1       4.862  32.456  20.638  1.00  0.00    -0.082 Cl
BRANCH  27  31
HETATM   31  C17 UNL     1       8.880  35.329  22.088  1.00  0.00     0.417 C 
HETATM   32  F1  UNL     1       7.932  36.236  22.492  1.00  0.00    -0.166 F 
HETATM   33  F2  UNL     1       9.416  34.762  23.226  1.00  0.00    -0.166 F 
HETATM   34  F3  UNL     1       9.905  36.009  21.425  1.00  0.00    -0.166 F 
ENDBRANCH  27  31
ENDBRANCH  21  24
BRANCH  23  35
HETATM   35  N7  UNL     1       4.723  28.854  19.345  1.00  0.00     0.100 N 
HETATM   36  C22 UNL     1       3.990  27.622  19.090  1.00  0.00     0.273 C 
HETATM   37  C23 UNL     1       2.931  27.327  20.143  1.00  0.00     0.030 C 
HETATM   38  C24 UNL     1       3.687  27.036  21.427  1.00  0.00     0.003 C 
HETATM   39  C25 UNL     1       4.349  28.354  21.762  1.00  0.00     0.030 C 
HETATM   40  C26 UNL     1       5.240  28.875  20.703  1.00  0.00     0.273 C 
ENDBRANCH  23  35
ENDBRANCH   8  18
TORSDOF 7
ENDMDL
MODEL 5
REMARK VINA RESULT: -8.624128235      4.720      8.627
REMARK  7 active torsions:
REMARK  status: ('A' for Active; 'I' for Inactive)
REMARK       I    between atoms: N2_3  and  C2_5 
REMARK       I    between atoms: C2_5  and  N5_16 
REMARK    1  A    between atoms: N3_6  and  C3_8 
REMARK    2  A    between atoms: C3_8  and  C4_9 
REMARK    3  A    between atoms: C4_9  and  N4_10 
REMARK    4  A    between atoms: N5_16  and  C10_18 
REMARK    5  A    between atoms: N6_21  and  C13_22 
REMARK    6  A    between atoms: C16_25  and  C17_26 
REMARK    7  A    between atoms: C21_34  and  N7_35 
ROOT
HETATM    1  N1  UNL     1       4.560  34.449  17.206  1.00  0.00    -0.171 NA
HETATM    2  C1  UNL     1       4.036  33.687  17.937  1.00  0.00     0.196 C 
HETATM    3  N2  UNL     1       3.445  32.768  18.797  1.00  0.00    -0.126 N 
ATOM      4  H2  UNL     1       2.546  32.344  18.566  1.00  0.00     0.197 HD
HETATM    5  C2  UNL     1       4.131  32.418  20.036  1.00  0.00     0.687 C 
HETATM    6  N3  UNL     1       4.251  33.365  20.831  1.00  0.00    -0.203 N 
ATOM      7  H3  UNL     1       3.824  34.189  20.407  1.00  0.00     0.183 HD
HETATM    8  N5  UNL     1       4.606  31.088  20.228  1.00  0.00    -0.218 N 
ATOM      9  H5  UNL     1       4.434  30.654  21.135  1.00  0.00     0.178 HD
ENDROOT
BRANCH   6  10
HETATM   10  C3  UNL     1       4.743  33.726  22.072  1.00  0.00     0.109 C 
BRANCH  10  11
HETATM   11  C4  UNL     1       5.802  34.793  22.010  1.00  0.00     0.317 C 
BRANCH  11  12
HETATM   12  N4  UNL     1       7.135  34.309  21.648  1.00  0.00     0.093 N 
HETATM   13  C5  UNL     1       7.286  34.619  20.262  1.00  0.00     0.273 C 
HETATM   14  C6  UNL     1       8.596  34.380  19.625  1.00  0.00     0.030 C 
HETATM   15  C7  UNL     1       9.728  34.608  20.563  1.00  0.00     0.003 C 
HETATM   16  C8  UNL     1       9.328  35.474  21.748  1.00  0.00     0.030 C 
HETATM   17  C9  UNL     1       8.143  34.892  22.467  1.00  0.00     0.273 C 
ENDBRANCH  11  12
ENDBRANCH  10  11
ENDBRANCH   6  10
BRANCH   8  18
HETATM   18  C10 UNL     1       5.302  30.319  19.254  1.00  0.00     0.139 C 
HETATM   19  C11 UNL     1       6.807  30.621  19.239  1.00  0.00     0.048 C 
HETATM   20  C12 UNL     1       7.199  30.385  17.799  1.00  0.00     0.130 C 
HETATM   21  N6  UNL     1       6.753  29.060  17.322  1.00  0.00    -0.357 N 
HETATM   22  C20 UNL     1       5.562  28.474  17.772  1.00  0.00     0.102 C 
HETATM   23  C21 UNL     1       5.096  28.853  19.178  1.00  0.00     0.284 C 
BRANCH  21  24
HETATM   24  C13 UNL     1       7.682  28.520  16.364  1.00  0.00     0.056 A 
HETATM   25  C14 UNL     1       8.856  27.933  16.818  1.00  0.00     0.032 A 
HETATM   26  C15 UNL     1       9.812  27.493  15.933  1.00  0.00     0.018 A 
HETATM   27  C16 UNL     1       9.629  27.624  14.567  1.00  0.00     0.049 A 
HETATM   28  C18 UNL     1       8.473  28.201  14.116  1.00  0.00     0.042 A 
HETATM   29  C19 UNL     1       7.517  28.639  15.031  1.00  0.00     0.061 A 
HETATM   30 CL1  UNL     1       6.089  29.363  14.365  1.00  0.00    -0.082 Cl
BRANCH  27  31
HETATM   31  C17 UNL     1      10.689  27.181  13.609  1.00  0.00     0.417 C 
HETATM   32  F1  UNL     1      10.935  25.831  13.667  1.00  0.00    -0.166 F 
HETATM   33  F2  UNL     1      10.318  27.475  12.313  1.00  0.00    -0.166 F 
HETATM   34  F3  UNL     1      11.876  27.869  13.881  1.00  0.00    -0.166 F 
ENDBRANCH  27  31
ENDBRANCH  21  24
BRANCH  23  35
HETATM   35  N7  UNL     1       5.827  28.060  20.176  1.00  0.00     0.100 N 
HETATM   36  C22 UNL     1       4.871  27.702  21.215  1.00  0.00     0.273 C 
HETATM   37  C23 UNL     1       5.356  26.570  22.110  1.00  0.00     0.030 C 
HETATM   38  C24 UNL     1       5.410  25.334  21.232  1.00  0.00     0.003 C 
HETATM   39  C25 UNL     1       6.495  25.654  20.226  1.00  0.00     0.030 C 
HETATM   40  C26 UNL     1       6.251  26.881  19.438  1.00  0.00     0.273 C 
ENDBRANCH  23  35
ENDBRANCH   8  18
TORSDOF 7
ENDMDL
