MODEL 1
REMARK VINA RESULT: -8.110350938      0.000      0.000
REMARK  7 active torsions:
REMARK  status: ('A' for Active; 'I' for Inactive)
REMARK    1  A    between atoms: N1_2  and  C2_3 
REMARK    2  A    between atoms: N1_2  and  C14_25 
REMARK    3  A    between atoms: C2_3  and  C3_4 
REMARK       I    between atoms: C3_4  and  N2_6 
REMARK    4  A    between atoms: C6_10  and  O2_11 
REMARK    5  A    between atoms: C6_10  and  N3_13 
REMARK       I    between atoms: N3_13  and  C7_15 
REMARK    6  A    between atoms: C7_15  and  C8_17 
REMARK    7  A    between atoms: C14_25  and  C15_26 
ROOT
HETATM    1  C3  UNL     1       5.155  41.972  62.951  1.00  0.00     0.265 C 
HETATM    2  O1  UNL     1       5.051  41.485  64.100  1.00  0.00    -0.266 OA
HETATM    3  N2  UNL     1       4.853  41.149  61.834  1.00  0.00    -0.292 N 
HETATM    4  C4  UNL     1       4.920  41.598  60.464  1.00  0.00     0.088 C 
HETATM    5  S1  UNL     1       5.414  42.996  59.831  1.00  0.00    -0.065 SA
HETATM    6  C5  UNL     1       4.415  40.485  59.575  1.00  0.00     0.133 C 
HETATM    7  C6  UNL     1       4.870  39.310  60.395  1.00  0.00     0.166 C 
HETATM    8  C9  UNL     1       4.432  39.790  61.787  1.00  0.00     0.091 C 
HETATM    9  C10 UNL     1       2.924  39.655  61.779  1.00  0.00     0.037 C 
HETATM   10  C11 UNL     1       2.651  39.141  63.170  1.00  0.00     0.003 C 
HETATM   11  C12 UNL     1       3.780  38.190  63.401  1.00  0.00     0.003 C 
HETATM   12  C13 UNL     1       4.982  38.844  62.764  1.00  0.00     0.037 C 
ENDROOT
BRANCH   1  13
HETATM   13  C2  UNL     1       5.582  43.360  62.823  1.00  0.00     0.165 C 
BRANCH  13  14
HETATM   14  N1  UNL     1       6.905  43.642  63.203  1.00  0.00    -0.365 N 
HETATM   15  C1  UNL     1       7.983  43.103  62.497  1.00  0.00     0.155 C 
BRANCH  14  16
HETATM   16  C14 UNL     1       7.113  44.557  64.234  1.00  0.00     0.103 C 
BRANCH  16  17
HETATM   17  C15 UNL     1       8.529  44.658  64.652  1.00  0.00     0.003 A 
HETATM   18  C16 UNL     1       9.082  43.833  65.585  1.00  0.00     0.038 A 
HETATM   19  C17 UNL     1      10.438  43.977  65.903  1.00  0.00     0.035 A 
HETATM   20 CL3  UNL     1      11.122  42.904  67.102  1.00  0.00    -0.084 Cl
HETATM   21  C18 UNL     1      11.245  44.924  65.311  1.00  0.00     0.025 A 
HETATM   22  C19 UNL     1      10.656  45.731  64.383  1.00  0.00     0.026 A 
HETATM   23  C20 UNL     1       9.339  45.630  64.039  1.00  0.00     0.045 A 
HETATM   24 CL4  UNL     1       8.646  46.698  62.838  1.00  0.00    -0.083 Cl
ENDBRANCH  16  17
ENDBRANCH  14  16
ENDBRANCH  13  14
ENDBRANCH   1  13
BRANCH   7  25
HETATM   25  O2  UNL     1       4.172  38.142  60.066  1.00  0.00    -0.368 OA
ATOM     26  H2  UNL     1       4.197  37.966  59.133  1.00  0.00     0.212 HD
ENDBRANCH   7  25
BRANCH   7  27
HETATM   27  N3  UNL     1       6.293  39.114  60.340  1.00  0.00    -0.325 N 
HETATM   28  C7  UNL     1       6.864  38.487  59.210  1.00  0.00     0.253 C 
HETATM   29  O3  UNL     1       6.175  38.084  58.241  1.00  0.00    -0.270 OA
ATOM     30  H3  UNL     1       6.885  39.425  61.109  1.00  0.00     0.165 HD
BRANCH  28  31
HETATM   31  C8  UNL     1       8.340  38.288  59.143  1.00  0.00     0.269 C 
HETATM   32 CL1  UNL     1       9.063  39.929  59.088  1.00  0.00    -0.098 Cl
HETATM   33 CL2  UNL     1       8.735  37.335  57.716  1.00  0.00    -0.098 Cl
ENDBRANCH  28  31
ENDBRANCH   7  27
TORSDOF 7
ENDMDL
MODEL 2
REMARK VINA RESULT: -7.564384931      2.623      7.996
REMARK  7 active torsions:
REMARK  status: ('A' for Active; 'I' for Inactive)
REMARK    1  A    between atoms: N1_2  and  C2_3 
REMARK    2  A    between atoms: N1_2  and  C14_25 
REMARK    3  A    between atoms: C2_3  and  C3_4 
REMARK       I    between atoms: C3_4  and  N2_6 
REMARK    4  A    between atoms: C6_10  and  O2_11 
REMARK    5  A    between atoms: C6_10  and  N3_13 
REMARK       I    between atoms: N3_13  and  C7_15 
REMARK    6  A    between atoms: C7_15  and  C8_17 
REMARK    7  A    between atoms: C14_25  and  C15_26 
ROOT
HETATM    1  C3  UNL     1       6.616  41.528  61.005  1.00  0.00     0.265 C 
HETATM    2  O1  UNL     1       7.328  41.448  59.978  1.00  0.00    -0.266 OA
HETATM    3  N2  UNL     1       6.649  42.728  61.763  1.00  0.00    -0.292 N 
HETATM    4  C4  UNL     1       5.864  42.947  62.954  1.00  0.00     0.088 C 
HETATM    5  S1  UNL     1       4.889  41.960  63.776  1.00  0.00    -0.065 SA
HETATM    6  C5  UNL     1       6.077  44.374  63.406  1.00  0.00     0.133 C 
HETATM    7  C6  UNL     1       7.498  44.551  62.949  1.00  0.00     0.166 C 
HETATM    8  C9  UNL     1       7.393  43.923  61.552  1.00  0.00     0.091 C 
HETATM    9  C10 UNL     1       6.627  44.941  60.733  1.00  0.00     0.037 C 
HETATM   10  C11 UNL     1       7.348  44.883  59.411  1.00  0.00     0.003 C 
HETATM   11  C12 UNL     1       8.779  44.740  59.819  1.00  0.00     0.003 C 
HETATM   12  C13 UNL     1       8.755  43.824  61.019  1.00  0.00     0.037 C 
ENDROOT
BRANCH   1  13
HETATM   13  C2  UNL     1       5.791  40.381  61.367  1.00  0.00     0.165 C 
BRANCH  13  14
HETATM   14  N1  UNL     1       6.247  39.125  60.934  1.00  0.00    -0.365 N 
HETATM   15  C1  UNL     1       7.204  38.419  61.667  1.00  0.00     0.155 C 
BRANCH  14  16
HETATM   16  C14 UNL     1       5.643  38.556  59.814  1.00  0.00     0.103 C 
BRANCH  16  17
HETATM   17  C15 UNL     1       6.601  38.214  58.739  1.00  0.00     0.003 A 
HETATM   18  C16 UNL     1       7.929  38.018  58.972  1.00  0.00     0.038 A 
HETATM   19  C17 UNL     1       8.763  37.669  57.902  1.00  0.00     0.035 A 
HETATM   20 CL3  UNL     1      10.463  37.423  58.229  1.00  0.00    -0.084 Cl
HETATM   21  C18 UNL     1       8.298  37.515  56.615  1.00  0.00     0.025 A 
HETATM   22  C19 UNL     1       6.963  37.720  56.422  1.00  0.00     0.026 A 
HETATM   23  C20 UNL     1       6.110  38.060  57.431  1.00  0.00     0.045 A 
HETATM   24 CL4  UNL     1       4.407  38.307  57.114  1.00  0.00    -0.083 Cl
ENDBRANCH  16  17
ENDBRANCH  14  16
ENDBRANCH  13  14
ENDBRANCH   1  13
BRANCH   7  25
HETATM   25  O2  UNL     1       7.842  45.903  62.826  1.00  0.00    -0.368 OA
ATOM     26  H2  UNL     1       8.662  46.018  62.361  1.00  0.00     0.212 HD
ENDBRANCH   7  25
BRANCH   7  27
HETATM   27  N3  UNL     1       8.436  43.836  63.769  1.00  0.00    -0.325 N 
HETATM   28  C7  UNL     1       9.301  44.554  64.624  1.00  0.00     0.253 C 
HETATM   29  O3  UNL     1       9.290  45.807  64.697  1.00  0.00    -0.270 OA
ATOM     30  H3  UNL     1       8.478  42.817  63.734  1.00  0.00     0.165 HD
BRANCH  28  31
HETATM   31  C8  UNL     1      10.272  43.817  65.483  1.00  0.00     0.269 C 
HETATM   32 CL1  UNL     1       9.355  43.289  66.932  1.00  0.00    -0.098 Cl
HETATM   33 CL2  UNL     1      11.613  44.882  65.892  1.00  0.00    -0.098 Cl
ENDBRANCH  28  31
ENDBRANCH   7  27
TORSDOF 7
ENDMDL
MODEL 3
REMARK VINA RESULT: -7.554813887      2.710      3.485
REMARK  7 active torsions:
REMARK  status: ('A' for Active; 'I' for Inactive)
REMARK    1  A    between atoms: N1_2  and  C2_3 
REMARK    2  A    between atoms: N1_2  and  C14_25 
REMARK    3  A    between atoms: C2_3  and  C3_4 
REMARK       I    between atoms: C3_4  and  N2_6 
REMARK    4  A    between atoms: C6_10  and  O2_11 
REMARK    5  A    between atoms: C6_10  and  N3_13 
REMARK       I    between atoms: N3_13  and  C7_15 
REMARK    6  A    between atoms: C7_15  and  C8_17 
REMARK    7  A    between atoms: C14_25  and  C15_26 
ROOT
HETATM    1  C3  UNL     1       7.064  42.939  61.867  1.00  0.00     0.265 C 
HETATM    2  O1  UNL     1       8.253  42.563  61.983  1.00  0.00    -0.266 OA
HETATM    3  N2  UNL     1       6.212  42.230  60.979  1.00  0.00    -0.292 N 
HETATM    4  C4  UNL     1       4.821  42.556  60.771  1.00  0.00     0.088 C 
HETATM    5  S1  UNL     1       3.921  43.768  61.337  1.00  0.00    -0.065 SA
HETATM    6  C5  UNL     1       4.223  41.513  59.854  1.00  0.00     0.133 C 
HETATM    7  C6  UNL     1       5.440  41.207  59.028  1.00  0.00     0.166 C 
HETATM    8  C9  UNL     1       6.486  41.108  60.148  1.00  0.00     0.091 C 
HETATM    9  C10 UNL     1       6.184  39.794  60.838  1.00  0.00     0.037 C 
HETATM   10  C11 UNL     1       7.567  39.263  61.113  1.00  0.00     0.003 C 
HETATM   11  C12 UNL     1       8.321  39.642  59.880  1.00  0.00     0.003 C 
HETATM   12  C13 UNL     1       7.801  41.008  59.505  1.00  0.00     0.037 C 
ENDROOT
BRANCH   1  13
HETATM   13  C2  UNL     1       6.620  44.085  62.652  1.00  0.00     0.165 C 
BRANCH  13  14
HETATM   14  N1  UNL     1       6.558  43.900  64.043  1.00  0.00    -0.365 N 
HETATM   15  C1  UNL     1       6.057  42.716  64.587  1.00  0.00     0.155 C 
BRANCH  14  16
HETATM   16  C14 UNL     1       7.107  44.886  64.862  1.00  0.00     0.103 C 
BRANCH  16  17
HETATM   17  C15 UNL     1       8.574  44.769  65.019  1.00  0.00     0.003 A 
HETATM   18  C16 UNL     1       9.153  43.936  65.928  1.00  0.00     0.038 A 
HETATM   19  C17 UNL     1      10.551  43.864  65.992  1.00  0.00     0.035 A 
HETATM   20 CL3  UNL     1      11.267  42.786  67.168  1.00  0.00    -0.084 Cl
HETATM   21  C18 UNL     1      11.372  44.603  65.170  1.00  0.00     0.025 A 
HETATM   22  C19 UNL     1      10.756  45.425  64.273  1.00  0.00     0.026 A 
HETATM   23  C20 UNL     1       9.399  45.530  64.172  1.00  0.00     0.045 A 
HETATM   24 CL4  UNL     1       8.672  46.605  62.997  1.00  0.00    -0.083 Cl
ENDBRANCH  16  17
ENDBRANCH  14  16
ENDBRANCH  13  14
ENDBRANCH   1  13
BRANCH   7  25
HETATM   25  O2  UNL     1       5.334  39.969  58.382  1.00  0.00    -0.368 OA
ATOM     26  H2  UNL     1       6.011  39.853  57.726  1.00  0.00     0.212 HD
ENDBRANCH   7  25
BRANCH   7  27
HETATM   27  N3  UNL     1       5.765  42.261  58.108  1.00  0.00    -0.325 N 
HETATM   28  C7  UNL     1       5.027  42.390  56.910  1.00  0.00     0.253 C 
HETATM   29  O3  UNL     1       4.091  41.610  56.607  1.00  0.00    -0.270 OA
ATOM     30  H3  UNL     1       6.522  42.912  58.317  1.00  0.00     0.165 HD
BRANCH  28  31
HETATM   31  C8  UNL     1       5.355  43.487  55.954  1.00  0.00     0.269 C 
HETATM   32 CL1  UNL     1       3.835  44.408  55.713  1.00  0.00    -0.098 Cl
HETATM   33 CL2  UNL     1       5.959  42.791  54.454  1.00  0.00    -0.098 Cl
ENDBRANCH  28  31
ENDBRANCH   7  27
TORSDOF 7
ENDMDL
MODEL 4
REMARK VINA RESULT: -7.404121131      3.238      7.434
REMARK  7 active torsions:
REMARK  status: ('A' for Active; 'I' for Inactive)
REMARK    1  A    between atoms: N1_2  and  C2_3 
REMARK    2  A    between atoms: N1_2  and  C14_25 
REMARK    3  A    between atoms: C2_3  and  C3_4 
REMARK       I    between atoms: C3_4  and  N2_6 
REMARK    4  A    between atoms: C6_10  and  O2_11 
REMARK    5  A    between atoms: C6_10  and  N3_13 
REMARK       I    between atoms: N3_13  and  C7_15 
REMARK    6  A    between atoms: C7_15  and  C8_17 
REMARK    7  A    between atoms: C14_25  and  C15_26 
ROOT
HETATM    1  C3  UNL     1       5.249  41.199  62.119  1.00  0.00     0.265 C 
HETATM    2  O1  UNL     1       4.103  41.333  62.607  1.00  0.00    -0.266 OA
HETATM    3  N2  UNL     1       6.202  42.230  62.331  1.00  0.00    -0.292 N 
HETATM    4  C4  UNL     1       7.557  42.185  61.834  1.00  0.00     0.088 C 
HETATM    5  S1  UNL     1       8.302  41.114  60.886  1.00  0.00    -0.065 SA
HETATM    6  C5  UNL     1       8.295  43.395  62.359  1.00  0.00     0.133 C 
HETATM    7  C6  UNL     1       7.146  44.364  62.403  1.00  0.00     0.166 C 
HETATM    8  C9  UNL     1       6.078  43.460  63.036  1.00  0.00     0.091 C 
HETATM    9  C10 UNL     1       6.495  43.335  64.487  1.00  0.00     0.037 C 
HETATM   10  C11 UNL     1       5.168  43.400  65.198  1.00  0.00     0.003 C 
HETATM   11  C12 UNL     1       4.421  44.431  64.414  1.00  0.00     0.003 C 
HETATM   12  C13 UNL     1       4.805  44.185  62.976  1.00  0.00     0.037 C 
ENDROOT
BRANCH   1  13
HETATM   13  C2  UNL     1       5.541  39.989  61.359  1.00  0.00     0.165 C 
BRANCH  13  14
HETATM   14  N1  UNL     1       5.038  39.941  60.049  1.00  0.00    -0.365 N 
HETATM   15  C1  UNL     1       4.783  41.115  59.335  1.00  0.00     0.155 C 
BRANCH  14  16
HETATM   16  C14 UNL     1       4.901  38.694  59.442  1.00  0.00     0.103 C 
BRANCH  16  17
HETATM   17  C15 UNL     1       6.007  38.367  58.514  1.00  0.00     0.003 A 
HETATM   18  C16 UNL     1       7.278  38.121  58.941  1.00  0.00     0.038 A 
HETATM   19  C17 UNL     1       8.260  37.790  57.999  1.00  0.00     0.035 A 
HETATM   20 CL3  UNL     1       9.881  37.479  58.576  1.00  0.00    -0.084 Cl
HETATM   21  C18 UNL     1       7.998  37.702  56.650  1.00  0.00     0.025 A 
HETATM   22  C19 UNL     1       6.716  37.956  56.261  1.00  0.00     0.026 A 
HETATM   23  C20 UNL     1       5.724  38.281  57.140  1.00  0.00     0.045 A 
HETATM   24 CL4  UNL     1       4.097  38.593  56.573  1.00  0.00    -0.083 Cl
ENDBRANCH  16  17
ENDBRANCH  14  16
ENDBRANCH  13  14
ENDBRANCH   1  13
BRANCH   7  25
HETATM   25  O2  UNL     1       7.406  45.443  63.257  1.00  0.00    -0.368 OA
ATOM     26  H2  UNL     1       6.606  45.825  63.598  1.00  0.00     0.212 HD
ENDBRANCH   7  25
BRANCH   7  27
HETATM   27  N3  UNL     1       6.742  44.805  61.096  1.00  0.00    -0.325 N 
HETATM   28  C7  UNL     1       7.597  45.649  60.354  1.00  0.00     0.253 C 
HETATM   29  O3  UNL     1       8.706  46.042  60.792  1.00  0.00    -0.270 OA
ATOM     30  H3  UNL     1       5.847  44.510  60.708  1.00  0.00     0.165 HD
BRANCH  28  31
HETATM   31  C8  UNL     1       7.186  46.105  58.994  1.00  0.00     0.269 C 
HETATM   32 CL1  UNL     1       7.666  47.830  58.881  1.00  0.00    -0.098 Cl
HETATM   33 CL2  UNL     1       5.451  45.880  58.804  1.00  0.00    -0.098 Cl
ENDBRANCH  28  31
ENDBRANCH   7  27
TORSDOF 7
ENDMDL
MODEL 5
REMARK VINA RESULT: -7.324655263      2.386      7.593
REMARK  7 active torsions:
REMARK  status: ('A' for Active; 'I' for Inactive)
REMARK    1  A    between atoms: N1_2  and  C2_3 
REMARK    2  A    between atoms: N1_2  and  C14_25 
REMARK    3  A    between atoms: C2_3  and  C3_4 
REMARK       I    between atoms: C3_4  and  N2_6 
REMARK    4  A    between atoms: C6_10  and  O2_11 
REMARK    5  A    between atoms: C6_10  and  N3_13 
REMARK       I    between atoms: N3_13  and  C7_15 
REMARK    6  A    between atoms: C7_15  and  C8_17 
REMARK    7  A    between atoms: C14_25  and  C15_26 
ROOT
HETATM    1  C3  UNL     1       5.626  41.107  59.938  1.00  0.00     0.265 C 
HETATM    2  O1  UNL     1       5.846  41.757  58.890  1.00  0.00    -0.266 OA
HETATM    3  N2  UNL     1       5.270  41.816  61.115  1.00  0.00    -0.292 N 
HETATM    4  C4  UNL     1       4.978  41.180  62.377  1.00  0.00     0.088 C 
HETATM    5  S1  UNL     1       5.063  39.635  62.830  1.00  0.00    -0.065 SA
HETATM    6  C5  UNL     1       4.527  42.246  63.351  1.00  0.00     0.133 C 
HETATM    7  C6  UNL     1       5.350  43.393  62.835  1.00  0.00     0.166 C 
HETATM    8  C9  UNL     1       5.114  43.215  61.328  1.00  0.00     0.091 C 
HETATM    9  C10 UNL     1       3.687  43.674  61.109  1.00  0.00     0.037 C 
HETATM   10  C11 UNL     1       3.798  44.419  59.804  1.00  0.00     0.003 C 
HETATM   11  C12 UNL     1       5.110  45.123  59.933  1.00  0.00     0.003 C 
HETATM   12  C13 UNL     1       6.015  44.141  60.636  1.00  0.00     0.037 C 
ENDROOT
BRANCH   1  13
HETATM   13  C2  UNL     1       5.748  39.655  59.890  1.00  0.00     0.165 C 
BRANCH  13  14
HETATM   14  N1  UNL     1       7.053  39.138  59.937  1.00  0.00    -0.365 N 
HETATM   15  C1  UNL     1       7.381  38.097  60.810  1.00  0.00     0.155 C 
BRANCH  14  16
HETATM   16  C14 UNL     1       7.985  39.617  59.018  1.00  0.00     0.103 C 
BRANCH  16  17
HETATM   17  C15 UNL     1       8.535  38.564  58.136  1.00  0.00     0.003 A 
HETATM   18  C16 UNL     1       9.686  37.893  58.419  1.00  0.00     0.038 A 
HETATM   19  C17 UNL     1      10.122  36.889  57.545  1.00  0.00     0.035 A 
HETATM   20 CL3  UNL     1      11.602  36.044  57.934  1.00  0.00    -0.084 Cl
HETATM   21  C18 UNL     1       9.434  36.547  56.402  1.00  0.00     0.025 A 
HETATM   22  C19 UNL     1       8.287  37.241  56.152  1.00  0.00     0.026 A 
HETATM   23  C20 UNL     1       7.821  38.226  56.972  1.00  0.00     0.045 A 
HETATM   24 CL4  UNL     1       6.339  39.077  56.592  1.00  0.00    -0.083 Cl
ENDBRANCH  16  17
ENDBRANCH  14  16
ENDBRANCH  13  14
ENDBRANCH   1  13
BRANCH   7  25
HETATM   25  O2  UNL     1       4.836  44.629  63.243  1.00  0.00    -0.368 OA
ATOM     26  H2  UNL     1       4.023  44.838  62.798  1.00  0.00     0.212 HD
ENDBRANCH   7  25
BRANCH   7  27
HETATM   27  N3  UNL     1       6.745  43.263  63.159  1.00  0.00    -0.325 N 
HETATM   28  C7  UNL     1       7.323  44.142  64.101  1.00  0.00     0.253 C 
HETATM   29  O3  UNL     1       6.666  45.046  64.673  1.00  0.00    -0.270 OA
ATOM     30  H3  UNL     1       7.312  42.543  62.712  1.00  0.00     0.165 HD
BRANCH  28  31
HETATM   31  C8  UNL     1       8.768  44.008  64.447  1.00  0.00     0.269 C 
HETATM   32 CL1  UNL     1       8.822  43.430  66.144  1.00  0.00    -0.098 Cl
HETATM   33 CL2  UNL     1       9.561  45.567  64.246  1.00  0.00    -0.098 Cl
ENDBRANCH  28  31
ENDBRANCH   7  27
TORSDOF 7
ENDMDL
