MODEL 1
REMARK VINA RESULT: -7.639055816      0.000      0.000
REMARK  10 active torsions:
REMARK  status: ('A' for Active; 'I' for Inactive)
REMARK    1  A    between atoms: N1_2  and  C2_3 
REMARK    2  A    between atoms: N1_2  and  C22_35 
REMARK    3  A    between atoms: C2_3  and  C3_4 
REMARK    4  A    between atoms: C3_4  and  N2_5 
REMARK    5  A    between atoms: N2_5  and  C4_7 
REMARK    6  A    between atoms: C11_20  and  C12_21 
REMARK    7  A    between atoms: C13_22  and  C14_23 
REMARK    8  A    between atoms: C14_23  and  O1_24 
REMARK    9  A    between atoms: C22_35  and  C23_36 
REMARK   10  A    between atoms: C23_36  and  C24_38 
ROOT
HETATM    1  C4  UNL     1       5.661  37.904  54.918  1.00  0.00     0.678 A 
HETATM    2  N3  UNL     1       6.043  38.684  55.964  1.00  0.00    -0.191 N 
ATOM      3  H3  UNL     1       5.483  39.502  56.207  1.00  0.00     0.184 HD
HETATM    4  C5  UNL     1       7.136  38.405  56.682  1.00  0.00     0.069 A 
HETATM    5  C6  UNL     1       7.919  37.315  56.391  1.00  0.00    -0.014 A 
HETATM    6  C7  UNL     1       7.529  36.525  55.330  1.00  0.00     0.115 A 
HETATM    7  N4  UNL     1       6.408  36.831  54.611  1.00  0.00    -0.201 N 
ATOM      8  H4  UNL     1       6.135  36.236  53.829  1.00  0.00     0.183 HD
HETATM    9  C8  UNL     1       9.127  36.935  57.121  1.00  0.00     0.048 A 
HETATM   10  C9  UNL     1       9.519  37.794  58.257  1.00  0.00     0.062 A 
HETATM   11  C10 UNL     1       8.644  38.935  58.509  1.00  0.00     0.023 A 
HETATM   12  N5  UNL     1       8.748  39.882  59.460  1.00  0.00    -0.352 N 
ATOM     13  H5  UNL     1       9.488  39.926  60.160  1.00  0.00     0.166 HD
HETATM   14  C11 UNL     1       7.743  40.756  59.355  1.00  0.00     0.088 A 
HETATM   15  C20 UNL     1       6.926  40.391  58.295  1.00  0.00     0.054 A 
HETATM   16  C21 UNL     1       7.517  39.245  57.785  1.00  0.00     0.017 A 
ENDROOT
BRANCH   1  17
HETATM   17  N2  UNL     1       4.597  38.229  54.267  1.00  0.00    -0.224 N 
ATOM     18  H2  UNL     1       3.739  38.350  54.805  1.00  0.00     0.177 HD
BRANCH  17  19
HETATM   19  C3  UNL     1       4.519  38.435  52.855  1.00  0.00     0.157 C 
BRANCH  19  20
HETATM   20  C2  UNL     1       3.354  39.309  52.458  1.00  0.00     0.137 C 
BRANCH  20  21
HETATM   21  N1  UNL     1       3.636  40.687  52.715  1.00  0.00    -0.408 N 
HETATM   22  C1  UNL     1       3.910  41.484  51.561  1.00  0.00     0.143 C 
BRANCH  21  23
HETATM   23  C22 UNL     1       2.801  41.304  53.697  1.00  0.00     0.195 C 
BRANCH  23  24
HETATM   24  C23 UNL     1       3.494  41.492  54.984  1.00  0.00     0.158 C 
HETATM   25  O2  UNL     1       3.501  40.626  55.870  1.00  0.00    -0.295 OA
BRANCH  24  26
HETATM   26  C24 UNL     1       4.222  42.750  55.274  1.00  0.00     0.089 A 
HETATM   27  C25 UNL     1       3.396  44.004  55.107  1.00  0.00     0.030 C 
HETATM   28  C26 UNL     1       5.193  42.747  56.408  1.00  0.00     0.103 A 
HETATM   29  C27 UNL     1       5.670  42.763  54.943  1.00  0.00     0.259 A 
HETATM   30  F3  UNL     1       6.171  43.922  54.434  1.00  0.00    -0.205 F 
HETATM   31  F4  UNL     1       6.233  41.559  54.517  1.00  0.00    -0.205 F 
ENDBRANCH  24  26
ENDBRANCH  23  24
ENDBRANCH  21  23
ENDBRANCH  20  21
ENDBRANCH  19  20
ENDBRANCH  17  19
ENDBRANCH   1  17
BRANCH  14  32
HETATM   32  C12 UNL     1       7.471  41.920  60.165  1.00  0.00    -0.046 C 
HETATM   33  C13 UNL     1       7.264  42.893  60.845  1.00  0.00    -0.061 C 
BRANCH  33  34
HETATM   34  C14 UNL     1       7.019  44.086  61.671  1.00  0.00     0.121 C 
HETATM   35  C15 UNL     1       7.221  43.689  63.119  1.00  0.00     0.057 C 
HETATM   36  C16 UNL     1       8.725  43.725  63.357  1.00  0.00     0.083 C 
HETATM   37  C17 UNL     1       9.115  45.173  63.503  1.00  0.00     0.244 C 
HETATM   38  F1  UNL     1       8.518  45.621  64.690  1.00  0.00    -0.206 F 
HETATM   39  F2  UNL     1      10.483  45.322  63.605  1.00  0.00    -0.206 F 
HETATM   40  C18 UNL     1       8.520  45.961  62.387  1.00  0.00     0.083 C 
HETATM   41  C19 UNL     1       8.006  45.145  61.240  1.00  0.00     0.057 C 
BRANCH  34  42
HETATM   42  O1  UNL     1       5.699  44.478  61.520  1.00  0.00    -0.378 OA
ATOM     43  H1  UNL     1       5.165  44.025  62.162  1.00  0.00     0.211 HD
ENDBRANCH  34  42
ENDBRANCH  33  34
ENDBRANCH  14  32
TORSDOF 10
ENDMDL
MODEL 2
REMARK VINA RESULT: -7.559780533      5.869      9.711
REMARK  10 active torsions:
REMARK  status: ('A' for Active; 'I' for Inactive)
REMARK    1  A    between atoms: N1_2  and  C2_3 
REMARK    2  A    between atoms: N1_2  and  C22_35 
REMARK    3  A    between atoms: C2_3  and  C3_4 
REMARK    4  A    between atoms: C3_4  and  N2_5 
REMARK    5  A    between atoms: N2_5  and  C4_7 
REMARK    6  A    between atoms: C11_20  and  C12_21 
REMARK    7  A    between atoms: C13_22  and  C14_23 
REMARK    8  A    between atoms: C14_23  and  O1_24 
REMARK    9  A    between atoms: C22_35  and  C23_36 
REMARK   10  A    between atoms: C23_36  and  C24_38 
ROOT
HETATM    1  C4  UNL     1       7.285  43.709  63.425  1.00  0.00     0.678 A 
HETATM    2  N3  UNL     1       6.345  42.727  63.376  1.00  0.00    -0.191 N 
ATOM      3  H3  UNL     1       6.484  41.935  62.748  1.00  0.00     0.184 HD
HETATM    4  C5  UNL     1       5.242  42.776  64.131  1.00  0.00     0.069 A 
HETATM    5  C6  UNL     1       5.014  43.823  64.989  1.00  0.00    -0.014 A 
HETATM    6  C7  UNL     1       5.969  44.817  65.037  1.00  0.00     0.115 A 
HETATM    7  N4  UNL     1       7.087  44.745  64.257  1.00  0.00    -0.201 N 
ATOM      8  H4  UNL     1       7.783  45.489  64.305  1.00  0.00     0.183 HD
HETATM    9  C8  UNL     1       3.839  43.958  65.849  1.00  0.00     0.048 A 
HETATM   10  C9  UNL     1       2.835  42.877  65.782  1.00  0.00     0.062 A 
HETATM   11  C10 UNL     1       3.140  41.797  64.848  1.00  0.00     0.023 A 
HETATM   12  N5  UNL     1       2.421  40.694  64.573  1.00  0.00    -0.352 N 
ATOM     13  H5  UNL     1       1.526  40.460  65.003  1.00  0.00     0.166 HD
HETATM   14  C11 UNL     1       3.046  39.949  63.657  1.00  0.00     0.088 A 
HETATM   15  C20 UNL     1       4.234  40.568  63.296  1.00  0.00     0.054 A 
HETATM   16  C21 UNL     1       4.265  41.724  64.060  1.00  0.00     0.017 A 
ENDROOT
BRANCH   1  17
HETATM   17  N2  UNL     1       8.325  43.600  62.671  1.00  0.00    -0.224 N 
ATOM     18  H2  UNL     1       8.959  42.824  62.860  1.00  0.00     0.177 HD
BRANCH  17  19
HETATM   19  C3  UNL     1       8.663  44.476  61.594  1.00  0.00     0.157 C 
BRANCH  19  20
HETATM   20  C2  UNL     1       8.621  43.789  60.250  1.00  0.00     0.137 C 
BRANCH  20  21
HETATM   21  N1  UNL     1       7.453  42.973  60.129  1.00  0.00    -0.408 N 
HETATM   22  C1  UNL     1       6.260  43.660  59.744  1.00  0.00     0.143 C 
BRANCH  21  23
HETATM   23  C22 UNL     1       7.660  41.709  59.493  1.00  0.00     0.195 C 
BRANCH  23  24
HETATM   24  C23 UNL     1       7.786  40.607  60.464  1.00  0.00     0.158 C 
HETATM   25  O2  UNL     1       8.089  40.797  61.650  1.00  0.00    -0.295 OA
BRANCH  24  26
HETATM   26  C24 UNL     1       7.552  39.204  60.050  1.00  0.00     0.089 A 
HETATM   27  C25 UNL     1       6.798  38.370  61.060  1.00  0.00     0.030 C 
HETATM   28  C26 UNL     1       7.236  38.945  58.614  1.00  0.00     0.103 A 
HETATM   29  C27 UNL     1       8.609  38.581  59.211  1.00  0.00     0.259 A 
HETATM   30  F3  UNL     1       8.888  37.271  59.452  1.00  0.00    -0.205 F 
HETATM   31  F4  UNL     1       9.650  39.409  58.786  1.00  0.00    -0.205 F 
ENDBRANCH  24  26
ENDBRANCH  23  24
ENDBRANCH  21  23
ENDBRANCH  20  21
ENDBRANCH  19  20
ENDBRANCH  17  19
ENDBRANCH   1  17
BRANCH  14  32
HETATM   32  C12 UNL     1       2.630  38.694  63.078  1.00  0.00    -0.046 C 
HETATM   33  C13 UNL     1       2.278  37.656  62.576  1.00  0.00    -0.061 C 
BRANCH  33  34
HETATM   34  C14 UNL     1       1.852  36.391  61.957  1.00  0.00     0.121 C 
HETATM   35  C15 UNL     1       3.093  35.695  61.439  1.00  0.00     0.057 C 
HETATM   36  C16 UNL     1       3.714  34.998  62.642  1.00  0.00     0.083 C 
HETATM   37  C17 UNL     1       2.899  33.758  62.905  1.00  0.00     0.244 C 
HETATM   38  F1  UNL     1       3.110  32.911  61.808  1.00  0.00    -0.206 F 
HETATM   39  F2  UNL     1       3.312  33.114  64.054  1.00  0.00    -0.206 F 
HETATM   40  C18 UNL     1       1.452  34.110  62.917  1.00  0.00     0.083 C 
HETATM   41  C19 UNL     1       1.158  35.577  63.023  1.00  0.00     0.057 C 
BRANCH  34  42
HETATM   42  O1  UNL     1       1.039  36.670  60.870  1.00  0.00    -0.378 OA
ATOM     43  H1  UNL     1       1.371  37.440  60.423  1.00  0.00     0.211 HD
ENDBRANCH  34  42
ENDBRANCH  33  34
ENDBRANCH  14  32
TORSDOF 10
ENDMDL
MODEL 3
REMARK VINA RESULT: -7.551740261      1.223      1.479
REMARK  10 active torsions:
REMARK  status: ('A' for Active; 'I' for Inactive)
REMARK    1  A    between atoms: N1_2  and  C2_3 
REMARK    2  A    between atoms: N1_2  and  C22_35 
REMARK    3  A    between atoms: C2_3  and  C3_4 
REMARK    4  A    between atoms: C3_4  and  N2_5 
REMARK    5  A    between atoms: N2_5  and  C4_7 
REMARK    6  A    between atoms: C11_20  and  C12_21 
REMARK    7  A    between atoms: C13_22  and  C14_23 
REMARK    8  A    between atoms: C14_23  and  O1_24 
REMARK    9  A    between atoms: C22_35  and  C23_36 
REMARK   10  A    between atoms: C23_36  and  C24_38 
ROOT
HETATM    1  C4  UNL     1       5.936  37.577  55.050  1.00  0.00     0.678 A 
HETATM    2  N3  UNL     1       6.232  38.417  56.078  1.00  0.00    -0.191 N 
ATOM      3  H3  UNL     1       5.593  39.182  56.296  1.00  0.00     0.184 HD
HETATM    4  C5  UNL     1       7.340  38.264  56.810  1.00  0.00     0.069 A 
HETATM    5  C6  UNL     1       8.229  37.249  56.552  1.00  0.00    -0.014 A 
HETATM    6  C7  UNL     1       7.926  36.399  55.509  1.00  0.00     0.115 A 
HETATM    7  N4  UNL     1       6.787  36.575  54.776  1.00  0.00    -0.201 N 
ATOM      8  H4  UNL     1       6.580  35.936  54.008  1.00  0.00     0.183 HD
HETATM    9  C8  UNL     1       9.462  37.008  57.299  1.00  0.00     0.048 A 
HETATM   10  C9  UNL     1       9.759  37.930  58.413  1.00  0.00     0.062 A 
HETATM   11  C10 UNL     1       8.774  38.986  58.630  1.00  0.00     0.023 A 
HETATM   12  N5  UNL     1       8.777  39.962  59.557  1.00  0.00    -0.352 N 
ATOM     13  H5  UNL     1       9.504  40.096  60.260  1.00  0.00     0.166 HD
HETATM   14  C11 UNL     1       7.693  40.731  59.423  1.00  0.00     0.088 A 
HETATM   15  C20 UNL     1       6.924  40.260  58.368  1.00  0.00     0.054 A 
HETATM   16  C21 UNL     1       7.629  39.166  57.892  1.00  0.00     0.017 A 
ENDROOT
BRANCH   1  17
HETATM   17  N2  UNL     1       4.851  37.780  54.385  1.00  0.00    -0.224 N 
ATOM     18  H2  UNL     1       3.976  37.789  54.910  1.00  0.00     0.177 HD
BRANCH  17  19
HETATM   19  C3  UNL     1       4.771  37.993  52.974  1.00  0.00     0.157 C 
BRANCH  19  20
HETATM   20  C2  UNL     1       3.544  38.776  52.573  1.00  0.00     0.137 C 
BRANCH  20  21
HETATM   21  N1  UNL     1       3.749  40.179  52.757  1.00  0.00    -0.408 N 
HETATM   22  C1  UNL     1       3.978  40.929  51.562  1.00  0.00     0.143 C 
BRANCH  21  23
HETATM   23  C22 UNL     1       2.879  40.800  53.707  1.00  0.00     0.195 C 
BRANCH  23  24
HETATM   24  C23 UNL     1       3.555  41.081  54.986  1.00  0.00     0.158 C 
HETATM   25  O2  UNL     1       3.621  40.248  55.901  1.00  0.00    -0.295 OA
BRANCH  24  26
HETATM   26  C24 UNL     1       4.192  42.396  55.232  1.00  0.00     0.089 A 
HETATM   27  C25 UNL     1       3.292  43.584  54.984  1.00  0.00     0.030 C 
HETATM   28  C26 UNL     1       5.131  42.510  56.387  1.00  0.00     0.103 A 
HETATM   29  C27 UNL     1       5.645  42.488  54.935  1.00  0.00     0.259 A 
HETATM   30  F3  UNL     1       6.084  43.652  54.382  1.00  0.00    -0.205 F 
HETATM   31  F4  UNL     1       6.296  41.305  54.581  1.00  0.00    -0.205 F 
ENDBRANCH  24  26
ENDBRANCH  23  24
ENDBRANCH  21  23
ENDBRANCH  20  21
ENDBRANCH  19  20
ENDBRANCH  17  19
ENDBRANCH   1  17
BRANCH  14  32
HETATM   32  C12 UNL     1       7.301  41.883  60.201  1.00  0.00    -0.046 C 
HETATM   33  C13 UNL     1       6.987  42.837  60.867  1.00  0.00    -0.061 C 
BRANCH  33  34
HETATM   34  C14 UNL     1       6.612  44.003  61.681  1.00  0.00     0.121 C 
HETATM   35  C15 UNL     1       5.261  43.712  62.303  1.00  0.00     0.057 C 
HETATM   36  C16 UNL     1       5.541  42.841  63.520  1.00  0.00     0.083 C 
HETATM   37  C17 UNL     1       6.055  43.750  64.606  1.00  0.00     0.244 C 
HETATM   38  F1  UNL     1       4.985  44.585  64.957  1.00  0.00    -0.206 F 
HETATM   39  F2  UNL     1       6.451  43.037  65.720  1.00  0.00    -0.206 F 
HETATM   40  C18 UNL     1       7.130  44.622  64.055  1.00  0.00     0.083 C 
HETATM   41  C19 UNL     1       7.682  44.185  62.731  1.00  0.00     0.057 C 
BRANCH  34  42
HETATM   42  O1  UNL     1       6.468  45.106  60.855  1.00  0.00    -0.378 OA
ATOM     43  H1  UNL     1       7.037  45.006  60.101  1.00  0.00     0.211 HD
ENDBRANCH  34  42
ENDBRANCH  33  34
ENDBRANCH  14  32
TORSDOF 10
ENDMDL
MODEL 4
REMARK VINA RESULT: -7.507713235      2.455      2.870
REMARK  10 active torsions:
REMARK  status: ('A' for Active; 'I' for Inactive)
REMARK    1  A    between atoms: N1_2  and  C2_3 
REMARK    2  A    between atoms: N1_2  and  C22_35 
REMARK    3  A    between atoms: C2_3  and  C3_4 
REMARK    4  A    between atoms: C3_4  and  N2_5 
REMARK    5  A    between atoms: N2_5  and  C4_7 
REMARK    6  A    between atoms: C11_20  and  C12_21 
REMARK    7  A    between atoms: C13_22  and  C14_23 
REMARK    8  A    between atoms: C14_23  and  O1_24 
REMARK    9  A    between atoms: C22_35  and  C23_36 
REMARK   10  A    between atoms: C23_36  and  C24_38 
ROOT
HETATM    1  C4  UNL     1       5.840  37.909  54.830  1.00  0.00     0.678 A 
HETATM    2  N3  UNL     1       6.191  38.690  55.887  1.00  0.00    -0.191 N 
ATOM      3  H3  UNL     1       5.634  39.517  56.104  1.00  0.00     0.184 HD
HETATM    4  C5  UNL     1       7.250  38.399  56.650  1.00  0.00     0.069 A 
HETATM    5  C6  UNL     1       8.029  37.296  56.395  1.00  0.00    -0.014 A 
HETATM    6  C7  UNL     1       7.670  36.507  55.323  1.00  0.00     0.115 A 
HETATM    7  N4  UNL     1       6.583  36.825  54.559  1.00  0.00    -0.201 N 
ATOM      8  H4  UNL     1       6.333  36.229  53.769  1.00  0.00     0.183 HD
HETATM    9  C8  UNL     1       9.202  36.903  57.174  1.00  0.00     0.048 A 
HETATM   10  C9  UNL     1       9.560  37.763  58.321  1.00  0.00     0.062 A 
HETATM   11  C10 UNL     1       8.692  38.917  58.533  1.00  0.00     0.023 A 
HETATM   12  N5  UNL     1       8.772  39.867  59.482  1.00  0.00    -0.352 N 
ATOM     13  H5  UNL     1       9.484  39.904  60.211  1.00  0.00     0.166 HD
HETATM   14  C11 UNL     1       7.784  40.755  59.334  1.00  0.00     0.088 A 
HETATM   15  C20 UNL     1       7.004  40.395  58.244  1.00  0.00     0.054 A 
HETATM   16  C21 UNL     1       7.599  39.239  57.763  1.00  0.00     0.017 A 
ENDROOT
BRANCH   1  17
HETATM   17  N2  UNL     1       4.807  38.246  54.136  1.00  0.00    -0.224 N 
ATOM     18  H2  UNL     1       4.775  39.202  53.780  1.00  0.00     0.177 HD
BRANCH  17  19
HETATM   19  C3  UNL     1       3.704  37.394  53.824  1.00  0.00     0.157 C 
BRANCH  19  20
HETATM   20  C2  UNL     1       2.753  37.224  54.985  1.00  0.00     0.137 C 
BRANCH  20  21
HETATM   21  N1  UNL     1       2.048  38.439  55.251  1.00  0.00    -0.408 N 
HETATM   22  C1  UNL     1       0.918  38.690  54.413  1.00  0.00     0.143 C 
BRANCH  21  23
HETATM   23  C22 UNL     1       1.858  38.738  56.636  1.00  0.00     0.195 C 
BRANCH  23  24
HETATM   24  C23 UNL     1       3.030  39.404  57.231  1.00  0.00     0.158 C 
HETATM   25  O2  UNL     1       3.749  40.184  56.592  1.00  0.00    -0.295 OA
BRANCH  24  26
HETATM   26  C24 UNL     1       3.402  39.160  58.645  1.00  0.00     0.089 A 
HETATM   27  C25 UNL     1       3.609  40.414  59.463  1.00  0.00     0.030 C 
HETATM   28  C26 UNL     1       2.753  38.014  59.348  1.00  0.00     0.103 A 
HETATM   29  C27 UNL     1       4.228  37.954  58.909  1.00  0.00     0.259 A 
HETATM   30  F3  UNL     1       5.196  38.071  59.859  1.00  0.00    -0.205 F 
HETATM   31  F4  UNL     1       4.465  37.100  57.830  1.00  0.00    -0.205 F 
ENDBRANCH  24  26
ENDBRANCH  23  24
ENDBRANCH  21  23
ENDBRANCH  20  21
ENDBRANCH  19  20
ENDBRANCH  17  19
ENDBRANCH   1  17
BRANCH  14  32
HETATM   32  C12 UNL     1       7.496  41.926  60.127  1.00  0.00    -0.046 C 
HETATM   33  C13 UNL     1       7.271  42.898  60.804  1.00  0.00    -0.061 C 
BRANCH  33  34
HETATM   34  C14 UNL     1       7.004  44.086  61.630  1.00  0.00     0.121 C 
HETATM   35  C15 UNL     1       7.113  43.666  63.082  1.00  0.00     0.057 C 
HETATM   36  C16 UNL     1       8.601  43.666  63.406  1.00  0.00     0.083 C 
HETATM   37  C17 UNL     1       9.014  45.103  63.594  1.00  0.00     0.244 C 
HETATM   38  F1  UNL     1       8.359  45.550  64.750  1.00  0.00    -0.206 F 
HETATM   39  F2  UNL     1      10.377  45.219  63.777  1.00  0.00    -0.206 F 
HETATM   40  C18 UNL     1       8.502  45.918  62.457  1.00  0.00     0.083 C 
HETATM   41  C19 UNL     1       8.037  45.127  61.271  1.00  0.00     0.057 C 
BRANCH  34  42
HETATM   42  O1  UNL     1       5.704  44.509  61.409  1.00  0.00    -0.378 OA
ATOM     43  H1  UNL     1       5.465  45.142  62.076  1.00  0.00     0.211 HD
ENDBRANCH  34  42
ENDBRANCH  33  34
ENDBRANCH  14  32
TORSDOF 10
ENDMDL
MODEL 5
REMARK VINA RESULT: -7.502955900      1.168      1.318
REMARK  10 active torsions:
REMARK  status: ('A' for Active; 'I' for Inactive)
REMARK    1  A    between atoms: N1_2  and  C2_3 
REMARK    2  A    between atoms: N1_2  and  C22_35 
REMARK    3  A    between atoms: C2_3  and  C3_4 
REMARK    4  A    between atoms: C3_4  and  N2_5 
REMARK    5  A    between atoms: N2_5  and  C4_7 
REMARK    6  A    between atoms: C11_20  and  C12_21 
REMARK    7  A    between atoms: C13_22  and  C14_23 
REMARK    8  A    between atoms: C14_23  and  O1_24 
REMARK    9  A    between atoms: C22_35  and  C23_36 
REMARK   10  A    between atoms: C23_36  and  C24_38 
ROOT
HETATM    1  C4  UNL     1       5.784  37.813  54.863  1.00  0.00     0.678 A 
HETATM    2  N3  UNL     1       6.146  38.618  55.898  1.00  0.00    -0.191 N 
ATOM      3  H3  UNL     1       5.586  39.445  56.106  1.00  0.00     0.184 HD
HETATM    4  C5  UNL     1       7.219  38.351  56.650  1.00  0.00     0.069 A 
HETATM    5  C6  UNL     1       8.002  37.249  56.406  1.00  0.00    -0.014 A 
HETATM    6  C7  UNL     1       7.632  36.435  55.356  1.00  0.00     0.115 A 
HETATM    7  N4  UNL     1       6.531  36.728  54.602  1.00  0.00    -0.201 N 
ATOM      8  H4  UNL     1       6.273  36.115  53.830  1.00  0.00     0.183 HD
HETATM    9  C8  UNL     1       9.190  36.881  57.174  1.00  0.00     0.048 A 
HETATM   10  C9  UNL     1       9.560  37.767  58.297  1.00  0.00     0.062 A 
HETATM   11  C10 UNL     1       8.686  38.919  58.498  1.00  0.00     0.023 A 
HETATM   12  N5  UNL     1       8.773  39.889  59.426  1.00  0.00    -0.352 N 
ATOM     13  H5  UNL     1       9.497  39.947  60.143  1.00  0.00     0.166 HD
HETATM   14  C11 UNL     1       7.777  40.766  59.275  1.00  0.00     0.088 A 
HETATM   15  C20 UNL     1       6.983  40.379  58.205  1.00  0.00     0.054 A 
HETATM   16  C21 UNL     1       7.579  39.217  57.739  1.00  0.00     0.017 A 
ENDROOT
BRANCH   1  17
HETATM   17  N2  UNL     1       4.738  38.128  54.178  1.00  0.00    -0.224 N 
ATOM     18  H2  UNL     1       4.854  38.233  53.171  1.00  0.00     0.177 HD
BRANCH  17  19
HETATM   19  C3  UNL     1       3.431  38.343  54.714  1.00  0.00     0.157 C 
BRANCH  19  20
HETATM   20  C2  UNL     1       2.616  39.312  53.890  1.00  0.00     0.137 C 
BRANCH  20  21
HETATM   21  N1  UNL     1       3.250  40.592  53.832  1.00  0.00    -0.408 N 
HETATM   22  C1  UNL     1       2.898  41.401  52.707  1.00  0.00     0.143 C 
BRANCH  21  23
HETATM   23  C22 UNL     1       3.332  41.287  55.079  1.00  0.00     0.195 C 
BRANCH  23  24
HETATM   24  C23 UNL     1       4.656  41.898  55.293  1.00  0.00     0.158 C 
HETATM   25  O2  UNL     1       5.712  41.298  55.056  1.00  0.00    -0.295 OA
BRANCH  24  26
HETATM   26  C24 UNL     1       4.774  43.281  55.813  1.00  0.00     0.089 A 
HETATM   27  C25 UNL     1       5.636  44.194  54.971  1.00  0.00     0.030 C 
HETATM   28  C26 UNL     1       3.563  43.900  56.429  1.00  0.00     0.103 A 
HETATM   29  C27 UNL     1       4.752  43.433  57.290  1.00  0.00     0.259 A 
HETATM   30  F3  UNL     1       5.581  44.373  57.822  1.00  0.00    -0.205 F 
HETATM   31  F4  UNL     1       4.492  42.285  58.041  1.00  0.00    -0.205 F 
ENDBRANCH  24  26
ENDBRANCH  23  24
ENDBRANCH  21  23
ENDBRANCH  20  21
ENDBRANCH  19  20
ENDBRANCH  17  19
ENDBRANCH   1  17
BRANCH  14  32
HETATM   32  C12 UNL     1       7.493  41.952  60.048  1.00  0.00    -0.046 C 
HETATM   33  C13 UNL     1       7.271  42.937  60.708  1.00  0.00    -0.061 C 
BRANCH  33  34
HETATM   34  C14 UNL     1       7.008  44.139  61.513  1.00  0.00     0.121 C 
HETATM   35  C15 UNL     1       7.105  43.743  62.972  1.00  0.00     0.057 C 
HETATM   36  C16 UNL     1       8.591  43.736  63.305  1.00  0.00     0.083 C 
HETATM   37  C17 UNL     1       9.014  45.173  63.473  1.00  0.00     0.244 C 
HETATM   38  F1  UNL     1       8.355  45.643  64.618  1.00  0.00    -0.206 F 
HETATM   39  F2  UNL     1      10.376  45.282  63.663  1.00  0.00    -0.206 F 
HETATM   40  C18 UNL     1       8.515  45.973  62.320  1.00  0.00     0.083 C 
HETATM   41  C19 UNL     1       8.051  45.167  61.144  1.00  0.00     0.057 C 
BRANCH  34  42
HETATM   42  O1  UNL     1       5.713  44.569  61.277  1.00  0.00    -0.378 OA
ATOM     43  H1  UNL     1       5.473  45.210  61.936  1.00  0.00     0.211 HD
ENDBRANCH  34  42
ENDBRANCH  33  34
ENDBRANCH  14  32
TORSDOF 10
ENDMDL
