MODEL 1
REMARK VINA RESULT: -7.135355087      0.000      0.000
REMARK  8 active torsions:
REMARK  status: ('A' for Active; 'I' for Inactive)
REMARK    1  A    between atoms: C2_2  and  N1_3 
REMARK    2  A    between atoms: N1_3  and  C3_5 
REMARK    3  A    between atoms: C3_5  and  C4_6 
REMARK    4  A    between atoms: C4_6  and  C5_7 
REMARK    5  A    between atoms: C5_7  and  N2_8 
REMARK       I    between atoms: N2_8  and  C7_10 
REMARK    6  A    between atoms: C7_10  and  C8_12 
REMARK    7  A    between atoms: C8_12  and  O2_13 
REMARK    8  A    between atoms: C8_12  and  C9_15 
ROOT
HETATM    1  C9  UNL     1       4.904  40.718  61.941  1.00  0.00     0.101 C 
HETATM    2  C10 UNL     1       5.624  41.778  61.208  1.00  0.00     0.148 C 
HETATM    3  O3  UNL     1       5.164  42.666  60.551  1.00  0.00    -0.296 OA
HETATM    4  C11 UNL     1       7.132  41.640  61.365  1.00  0.00     0.129 C 
HETATM    5 BR1  UNL     1       8.028  42.376  59.820  1.00  0.00    -0.083 Br
HETATM    6  C12 UNL     1       7.507  40.223  61.656  1.00  0.00     0.038 C 
HETATM    7  C13 UNL     1       6.601  39.181  61.056  1.00  0.00    -0.007 C 
HETATM    8  C14 UNL     1       6.795  37.960  61.992  1.00  0.00     0.021 C 
HETATM    9  C15 UNL     1       7.159  38.710  59.772  1.00  0.00    -0.017 A 
HETATM   10  C16 UNL     1       8.375  38.061  59.755  1.00  0.00     0.054 A 
HETATM   11  C17 UNL     1       8.898  37.622  58.531  1.00  0.00     0.141 A 
HETATM   12  F1  UNL     1      10.090  36.983  58.487  1.00  0.00    -0.204 F 
HETATM   13  C18 UNL     1       8.230  37.823  57.345  1.00  0.00     0.113 A 
HETATM   14 CL1  UNL     1       8.884  37.274  55.799  1.00  0.00    -0.078 Cl
HETATM   15  C19 UNL     1       7.012  38.473  57.372  1.00  0.00     0.168 A 
HETATM   16  F2  UNL     1       6.348  38.675  56.218  1.00  0.00    -0.202 F 
HETATM   17  C20 UNL     1       6.516  38.897  58.591  1.00  0.00     0.076 A 
HETATM   18  N3  UNL     1       5.272  39.557  58.604  1.00  0.00    -0.387 N 
ATOM     19  H3  UNL     1       4.933  39.966  57.733  1.00  0.00     0.159 HD
HETATM   20  C21 UNL     1       4.463  39.685  59.772  1.00  0.00     0.126 C 
HETATM   21  C22 UNL     1       5.149  39.473  61.067  1.00  0.00     0.030 C 
ENDROOT
BRANCH   1  22
HETATM   22  C8  UNL     1       3.490  40.947  62.280  1.00  0.00     0.221 C 
BRANCH  22  23
HETATM   23  C7  UNL     1       3.280  41.852  63.414  1.00  0.00     0.249 C 
HETATM   24  N2  UNL     1       2.677  43.131  63.360  1.00  0.00    -0.354 N 
HETATM   25  C6  UNL     1       2.199  43.740  62.149  1.00  0.00     0.152 C 
HETATM   26  O1  UNL     1       3.660  41.503  64.589  1.00  0.00    -0.270 OA
BRANCH  24  27
HETATM   27  C5  UNL     1       2.533  43.892  64.588  1.00  0.00     0.127 C 
BRANCH  27  28
HETATM   28  C4  UNL     1       3.344  45.147  64.587  1.00  0.00     0.039 C 
BRANCH  28  29
HETATM   29  C3  UNL     1       4.763  44.877  65.030  1.00  0.00     0.115 C 
BRANCH  29  30
HETATM   30  N1  UNL     1       5.699  44.733  63.953  1.00  0.00    -0.421 N 
ATOM     31  H1  UNL     1       5.405  44.587  62.987  1.00  0.00     0.153 HD
BRANCH  30  32
HETATM   32  C2  UNL     1       7.078  44.809  64.334  1.00  0.00     0.109 C 
HETATM   33  C1  UNL     1       7.903  44.864  63.075  1.00  0.00     0.026 C 
ENDBRANCH  30  32
ENDBRANCH  29  30
ENDBRANCH  28  29
ENDBRANCH  27  28
ENDBRANCH  24  27
ENDBRANCH  22  23
BRANCH  22  34
HETATM   34  O2  UNL     1       2.891  39.696  62.444  1.00  0.00    -0.385 OA
ATOM     35  H2  UNL     1       2.196  39.522  61.820  1.00  0.00     0.210 HD
ENDBRANCH  22  34
ENDBRANCH   1  22
TORSDOF 8
ENDMDL
MODEL 2
REMARK VINA RESULT: -7.092497175      2.530      3.881
REMARK  8 active torsions:
REMARK  status: ('A' for Active; 'I' for Inactive)
REMARK    1  A    between atoms: C2_2  and  N1_3 
REMARK    2  A    between atoms: N1_3  and  C3_5 
REMARK    3  A    between atoms: C3_5  and  C4_6 
REMARK    4  A    between atoms: C4_6  and  C5_7 
REMARK    5  A    between atoms: C5_7  and  N2_8 
REMARK       I    between atoms: N2_8  and  C7_10 
REMARK    6  A    between atoms: C7_10  and  C8_12 
REMARK    7  A    between atoms: C8_12  and  O2_13 
REMARK    8  A    between atoms: C8_12  and  C9_15 
ROOT
HETATM    1  C9  UNL     1       5.722  42.318  60.171  1.00  0.00     0.101 C 
HETATM    2  C10 UNL     1       5.679  41.154  61.078  1.00  0.00     0.148 C 
HETATM    3  O3  UNL     1       6.215  41.023  62.139  1.00  0.00    -0.296 OA
HETATM    4  C11 UNL     1       4.825  40.031  60.505  1.00  0.00     0.129 C 
HETATM    5 BR1  UNL     1       5.446  38.325  61.164  1.00  0.00    -0.083 Br
HETATM    6  C12 UNL     1       4.773  40.112  59.013  1.00  0.00     0.038 C 
HETATM    7  C13 UNL     1       6.000  40.687  58.357  1.00  0.00    -0.007 C 
HETATM    8  C14 UNL     1       5.457  41.243  57.014  1.00  0.00     0.021 C 
HETATM    9  C15 UNL     1       6.898  39.595  57.929  1.00  0.00    -0.017 A 
HETATM   10  C16 UNL     1       6.470  38.697  56.975  1.00  0.00     0.054 A 
HETATM   11  C17 UNL     1       7.327  37.661  56.578  1.00  0.00     0.141 A 
HETATM   12  F1  UNL     1       6.931  36.765  55.645  1.00  0.00    -0.204 F 
HETATM   13  C18 UNL     1       8.586  37.518  57.117  1.00  0.00     0.113 A 
HETATM   14 CL1  UNL     1       9.671  36.214  56.622  1.00  0.00    -0.078 Cl
HETATM   15  C19 UNL     1       9.005  38.423  58.071  1.00  0.00     0.168 A 
HETATM   16  F2  UNL     1      10.235  38.294  58.605  1.00  0.00    -0.202 F 
HETATM   17  C20 UNL     1       8.143  39.436  58.446  1.00  0.00     0.076 A 
HETATM   18  N3  UNL     1       8.584  40.354  59.419  1.00  0.00    -0.387 N 
ATOM     19  H3  UNL     1       9.362  40.083  60.020  1.00  0.00     0.159 HD
HETATM   20  C21 UNL     1       8.000  41.642  59.607  1.00  0.00     0.126 C 
HETATM   21  C22 UNL     1       6.647  41.833  59.038  1.00  0.00     0.030 C 
ENDROOT
BRANCH   1  22
HETATM   22  C8  UNL     1       6.097  43.624  60.737  1.00  0.00     0.221 C 
BRANCH  22  23
HETATM   23  C7  UNL     1       6.053  43.682  62.201  1.00  0.00     0.249 C 
HETATM   24  N2  UNL     1       7.169  43.767  63.066  1.00  0.00    -0.354 N 
HETATM   25  C6  UNL     1       8.532  43.783  62.614  1.00  0.00     0.152 C 
HETATM   26  O1  UNL     1       4.922  43.657  62.807  1.00  0.00    -0.270 OA
BRANCH  24  27
HETATM   27  C5  UNL     1       6.943  43.832  64.499  1.00  0.00     0.127 C 
BRANCH  27  28
HETATM   28  C4  UNL     1       8.088  44.447  65.236  1.00  0.00     0.039 C 
BRANCH  28  29
HETATM   29  C3  UNL     1       8.768  43.433  66.126  1.00  0.00     0.115 C 
BRANCH  29  30
HETATM   30  N1  UNL     1      10.118  43.769  66.477  1.00  0.00    -0.421 N 
ATOM     31  H1  UNL     1      10.635  43.271  67.202  1.00  0.00     0.153 HD
BRANCH  30  32
HETATM   32  C2  UNL     1      10.686  44.853  65.732  1.00  0.00     0.109 C 
HETATM   33  C1  UNL     1      12.105  44.483  65.389  1.00  0.00     0.026 C 
ENDBRANCH  30  32
ENDBRANCH  29  30
ENDBRANCH  28  29
ENDBRANCH  27  28
ENDBRANCH  24  27
ENDBRANCH  22  23
BRANCH  22  34
HETATM   34  O2  UNL     1       5.306  44.592  60.114  1.00  0.00    -0.385 OA
ATOM     35  H2  UNL     1       5.654  45.473  60.187  1.00  0.00     0.210 HD
ENDBRANCH  22  34
ENDBRANCH   1  22
TORSDOF 8
ENDMDL
MODEL 3
REMARK VINA RESULT: -6.980377003      2.101      3.849
REMARK  8 active torsions:
REMARK  status: ('A' for Active; 'I' for Inactive)
REMARK    1  A    between atoms: C2_2  and  N1_3 
REMARK    2  A    between atoms: N1_3  and  C3_5 
REMARK    3  A    between atoms: C3_5  and  C4_6 
REMARK    4  A    between atoms: C4_6  and  C5_7 
REMARK    5  A    between atoms: C5_7  and  N2_8 
REMARK       I    between atoms: N2_8  and  C7_10 
REMARK    6  A    between atoms: C7_10  and  C8_12 
REMARK    7  A    between atoms: C8_12  and  O2_13 
REMARK    8  A    between atoms: C8_12  and  C9_15 
ROOT
HETATM    1  C9  UNL     1       5.825  42.109  60.192  1.00  0.00     0.101 C 
HETATM    2  C10 UNL     1       5.618  40.876  60.978  1.00  0.00     0.148 C 
HETATM    3  O3  UNL     1       6.043  40.611  62.064  1.00  0.00    -0.296 OA
HETATM    4  C11 UNL     1       4.746  39.878  60.229  1.00  0.00     0.129 C 
HETATM    5 BR1  UNL     1       5.184  38.077  60.776  1.00  0.00    -0.083 Br
HETATM    6  C12 UNL     1       4.839  40.094  58.753  1.00  0.00     0.038 C 
HETATM    7  C13 UNL     1       6.158  40.628  58.263  1.00  0.00    -0.007 C 
HETATM    8  C14 UNL     1       5.782  41.340  56.937  1.00  0.00     0.021 C 
HETATM    9  C15 UNL     1       7.014  39.512  57.812  1.00  0.00    -0.017 A 
HETATM   10  C16 UNL     1       6.617  38.737  56.744  1.00  0.00     0.054 A 
HETATM   11  C17 UNL     1       7.434  37.678  56.326  1.00  0.00     0.141 A 
HETATM   12  F1  UNL     1       7.065  36.901  55.282  1.00  0.00    -0.204 F 
HETATM   13  C18 UNL     1       8.624  37.391  56.956  1.00  0.00     0.113 A 
HETATM   14 CL1  UNL     1       9.658  36.057  56.436  1.00  0.00    -0.078 Cl
HETATM   15  C19 UNL     1       9.014  38.174  58.024  1.00  0.00     0.168 A 
HETATM   16  F2  UNL     1      10.177  37.903  58.647  1.00  0.00    -0.202 F 
HETATM   17  C20 UNL     1       8.192  39.213  58.417  1.00  0.00     0.076 A 
HETATM   18  N3  UNL     1       8.603  40.004  59.507  1.00  0.00    -0.387 N 
ATOM     19  H3  UNL     1       9.301  39.622  60.145  1.00  0.00     0.159 HD
HETATM   20  C21 UNL     1       8.094  41.312  59.765  1.00  0.00     0.126 C 
HETATM   21  C22 UNL     1       6.816  41.656  59.102  1.00  0.00     0.030 C 
ENDROOT
BRANCH   1  22
HETATM   22  C8  UNL     1       6.234  43.327  60.910  1.00  0.00     0.221 C 
BRANCH  22  23
HETATM   23  C7  UNL     1       5.354  43.699  62.021  1.00  0.00     0.249 C 
HETATM   24  N2  UNL     1       5.758  43.988  63.345  1.00  0.00    -0.354 N 
HETATM   25  C6  UNL     1       7.121  43.932  63.796  1.00  0.00     0.152 C 
HETATM   26  O1  UNL     1       4.087  43.783  61.831  1.00  0.00    -0.270 OA
BRANCH  24  27
HETATM   27  C5  UNL     1       4.749  44.356  64.323  1.00  0.00     0.127 C 
BRANCH  27  28
HETATM   28  C4  UNL     1       4.531  43.296  65.353  1.00  0.00     0.039 C 
BRANCH  28  29
HETATM   29  C3  UNL     1       3.403  42.374  64.953  1.00  0.00     0.115 C 
BRANCH  29  30
HETATM   30  N1  UNL     1       3.788  41.329  64.049  1.00  0.00    -0.421 N 
ATOM     31  H1  UNL     1       4.738  41.238  63.689  1.00  0.00     0.153 HD
BRANCH  30  32
HETATM   32  C2  UNL     1       2.738  40.422  63.690  1.00  0.00     0.109 C 
HETATM   33  C1  UNL     1       3.210  39.025  63.998  1.00  0.00     0.026 C 
ENDBRANCH  30  32
ENDBRANCH  29  30
ENDBRANCH  28  29
ENDBRANCH  27  28
ENDBRANCH  24  27
ENDBRANCH  22  23
BRANCH  22  34
HETATM   34  O2  UNL     1       6.394  44.338  59.959  1.00  0.00    -0.385 OA
ATOM     35  H2  UNL     1       7.164  44.230  59.413  1.00  0.00     0.210 HD
ENDBRANCH  22  34
ENDBRANCH   1  22
TORSDOF 8
ENDMDL
MODEL 4
REMARK VINA RESULT: -6.820642072      2.098      3.819
REMARK  8 active torsions:
REMARK  status: ('A' for Active; 'I' for Inactive)
REMARK    1  A    between atoms: C2_2  and  N1_3 
REMARK    2  A    between atoms: N1_3  and  C3_5 
REMARK    3  A    between atoms: C3_5  and  C4_6 
REMARK    4  A    between atoms: C4_6  and  C5_7 
REMARK    5  A    between atoms: C5_7  and  N2_8 
REMARK       I    between atoms: N2_8  and  C7_10 
REMARK    6  A    between atoms: C7_10  and  C8_12 
REMARK    7  A    between atoms: C8_12  and  O2_13 
REMARK    8  A    between atoms: C8_12  and  C9_15 
ROOT
HETATM    1  C9  UNL     1       5.837  42.100  60.206  1.00  0.00     0.101 C 
HETATM    2  C10 UNL     1       5.637  40.869  60.997  1.00  0.00     0.148 C 
HETATM    3  O3  UNL     1       6.074  40.604  62.078  1.00  0.00    -0.296 OA
HETATM    4  C11 UNL     1       4.754  39.871  60.260  1.00  0.00     0.129 C 
HETATM    5 BR1  UNL     1       5.195  38.070  60.804  1.00  0.00    -0.083 Br
HETATM    6  C12 UNL     1       4.829  40.084  58.783  1.00  0.00     0.038 C 
HETATM    7  C13 UNL     1       6.143  40.615  58.276  1.00  0.00    -0.007 C 
HETATM    8  C14 UNL     1       5.753  41.326  56.954  1.00  0.00     0.021 C 
HETATM    9  C15 UNL     1       6.992  39.497  57.816  1.00  0.00    -0.017 A 
HETATM   10  C16 UNL     1       6.580  38.721  56.754  1.00  0.00     0.054 A 
HETATM   11  C17 UNL     1       7.390  37.660  56.328  1.00  0.00     0.141 A 
HETATM   12  F1  UNL     1       7.008  36.882  55.289  1.00  0.00    -0.204 F 
HETATM   13  C18 UNL     1       8.587  37.372  56.943  1.00  0.00     0.113 A 
HETATM   14 CL1  UNL     1       9.612  36.034  56.413  1.00  0.00    -0.078 Cl
HETATM   15  C19 UNL     1       8.992  38.155  58.006  1.00  0.00     0.168 A 
HETATM   16  F2  UNL     1      10.162  37.884  58.616  1.00  0.00    -0.202 F 
HETATM   17  C20 UNL     1       8.176  39.197  58.407  1.00  0.00     0.076 A 
HETATM   18  N3  UNL     1       8.602  39.989  59.491  1.00  0.00    -0.387 N 
ATOM     19  H3  UNL     1       9.307  39.606  60.121  1.00  0.00     0.159 HD
HETATM   20  C21 UNL     1       8.099  41.298  59.754  1.00  0.00     0.126 C 
HETATM   21  C22 UNL     1       6.813  41.643  59.106  1.00  0.00     0.030 C 
ENDROOT
BRANCH   1  22
HETATM   22  C8  UNL     1       6.257  43.318  60.917  1.00  0.00     0.221 C 
BRANCH  22  23
HETATM   23  C7  UNL     1       5.400  43.684  62.048  1.00  0.00     0.249 C 
HETATM   24  N2  UNL     1       5.829  43.938  63.373  1.00  0.00    -0.354 N 
HETATM   25  C6  UNL     1       7.196  43.845  63.802  1.00  0.00     0.152 C 
HETATM   26  O1  UNL     1       4.133  43.797  61.878  1.00  0.00    -0.270 OA
BRANCH  24  27
HETATM   27  C5  UNL     1       4.841  44.305  64.372  1.00  0.00     0.127 C 
BRANCH  27  28
HETATM   28  C4  UNL     1       4.626  43.234  65.391  1.00  0.00     0.039 C 
BRANCH  28  29
HETATM   29  C3  UNL     1       3.163  42.871  65.496  1.00  0.00     0.115 C 
BRANCH  29  30
HETATM   30  N1  UNL     1       2.374  43.268  64.366  1.00  0.00    -0.421 N 
ATOM     31  H1  UNL     1       2.723  43.214  63.408  1.00  0.00     0.153 HD
BRANCH  30  32
HETATM   32  C2  UNL     1       1.061  43.746  64.682  1.00  0.00     0.109 C 
HETATM   33  C1  UNL     1       1.192  44.758  65.789  1.00  0.00     0.026 C 
ENDBRANCH  30  32
ENDBRANCH  29  30
ENDBRANCH  28  29
ENDBRANCH  27  28
ENDBRANCH  24  27
ENDBRANCH  22  23
BRANCH  22  34
HETATM   34  O2  UNL     1       6.391  44.332  59.966  1.00  0.00    -0.385 OA
ATOM     35  H2  UNL     1       6.685  44.021  59.117  1.00  0.00     0.210 HD
ENDBRANCH  22  34
ENDBRANCH   1  22
TORSDOF 8
ENDMDL
MODEL 5
REMARK VINA RESULT: -6.817346409      1.101      1.400
REMARK  8 active torsions:
REMARK  status: ('A' for Active; 'I' for Inactive)
REMARK    1  A    between atoms: C2_2  and  N1_3 
REMARK    2  A    between atoms: N1_3  and  C3_5 
REMARK    3  A    between atoms: C3_5  and  C4_6 
REMARK    4  A    between atoms: C4_6  and  C5_7 
REMARK    5  A    between atoms: C5_7  and  N2_8 
REMARK       I    between atoms: N2_8  and  C7_10 
REMARK    6  A    between atoms: C7_10  and  C8_12 
REMARK    7  A    between atoms: C8_12  and  O2_13 
REMARK    8  A    between atoms: C8_12  and  C9_15 
ROOT
HETATM    1  C9  UNL     1       4.538  40.361  61.675  1.00  0.00     0.101 C 
HETATM    2  C10 UNL     1       5.175  41.466  60.931  1.00  0.00     0.148 C 
HETATM    3  O3  UNL     1       4.655  42.271  60.214  1.00  0.00    -0.296 OA
HETATM    4  C11 UNL     1       6.679  41.503  61.165  1.00  0.00     0.129 C 
HETATM    5 BR1  UNL     1       7.568  42.275  59.633  1.00  0.00    -0.083 Br
HETATM    6  C12 UNL     1       7.192  40.149  61.534  1.00  0.00     0.038 C 
HETATM    7  C13 UNL     1       6.437  38.991  60.938  1.00  0.00    -0.007 C 
HETATM    8  C14 UNL     1       6.715  37.835  61.935  1.00  0.00     0.021 C 
HETATM    9  C15 UNL     1       7.109  38.536  59.704  1.00  0.00    -0.017 A 
HETATM   10  C16 UNL     1       8.388  38.026  59.772  1.00  0.00     0.054 A 
HETATM   11  C17 UNL     1       9.019  37.602  58.595  1.00  0.00     0.141 A 
HETATM   12  F1  UNL     1      10.274  37.099  58.635  1.00  0.00    -0.204 F 
HETATM   13  C18 UNL     1       8.394  37.681  57.371  1.00  0.00     0.113 A 
HETATM   14 CL1  UNL     1       9.184  37.150  55.883  1.00  0.00    -0.078 Cl
HETATM   15  C19 UNL     1       7.113  38.193  57.313  1.00  0.00     0.168 A 
HETATM   16  F2  UNL     1       6.491  38.275  56.120  1.00  0.00    -0.202 F 
HETATM   17  C20 UNL     1       6.511  38.604  58.487  1.00  0.00     0.076 A 
HETATM   18  N3  UNL     1       5.204  39.122  58.413  1.00  0.00    -0.387 N 
ATOM     19  H3  UNL     1       4.867  39.456  57.510  1.00  0.00     0.159 HD
HETATM   20  C21 UNL     1       4.326  39.203  59.535  1.00  0.00     0.126 C 
HETATM   21  C22 UNL     1       4.963  39.118  60.868  1.00  0.00     0.030 C 
ENDROOT
BRANCH   1  22
HETATM   22  C8  UNL     1       3.092  40.444  61.936  1.00  0.00     0.221 C 
BRANCH  22  23
HETATM   23  C7  UNL     1       2.706  41.513  62.861  1.00  0.00     0.249 C 
HETATM   24  N2  UNL     1       1.637  42.424  62.684  1.00  0.00    -0.354 N 
HETATM   25  C6  UNL     1       0.779  42.436  61.532  1.00  0.00     0.152 C 
HETATM   26  O1  UNL     1       3.366  41.687  63.948  1.00  0.00    -0.270 OA
BRANCH  24  27
HETATM   27  C5  UNL     1       1.383  43.417  63.713  1.00  0.00     0.127 C 
BRANCH  27  28
HETATM   28  C4  UNL     1       1.537  44.816  63.213  1.00  0.00     0.039 C 
BRANCH  28  29
HETATM   29  C3  UNL     1       2.664  45.526  63.924  1.00  0.00     0.115 C 
BRANCH  29  30
HETATM   30  N1  UNL     1       3.917  44.827  63.888  1.00  0.00    -0.421 N 
ATOM     31  H1  UNL     1       4.288  44.411  63.034  1.00  0.00     0.153 HD
BRANCH  30  32
HETATM   32  C2  UNL     1       4.608  44.758  65.141  1.00  0.00     0.109 C 
HETATM   33  C1  UNL     1       3.722  45.373  66.192  1.00  0.00     0.026 C 
ENDBRANCH  30  32
ENDBRANCH  29  30
ENDBRANCH  28  29
ENDBRANCH  27  28
ENDBRANCH  24  27
ENDBRANCH  22  23
BRANCH  22  34
HETATM   34  O2  UNL     1       2.667  39.176  62.338  1.00  0.00    -0.385 OA
ATOM     35  H2  UNL     1       2.982  38.474  61.780  1.00  0.00     0.210 HD
ENDBRANCH  22  34
ENDBRANCH   1  22
TORSDOF 8
ENDMDL
