MODEL 1
REMARK VINA RESULT: -6.333812929      0.000      0.000
REMARK  13 active torsions:
REMARK  status: ('A' for Active; 'I' for Inactive)
REMARK    1  A    between atoms: C2_2  and  O1_3 
REMARK    2  A    between atoms: C2_2  and  C10_19 
REMARK    3  A    between atoms: O1_3  and  C3_4 
REMARK       I    between atoms: C3_4  and  N1_6 
REMARK       I    between atoms: N1_6  and  C4_8 
REMARK    4  A    between atoms: C4_8  and  C5_10 
REMARK    5  A    between atoms: C5_10  and  N2_11 
REMARK    6  A    between atoms: C5_10  and  C6_15 
REMARK       I    between atoms: C10_19  and  N3_21 
REMARK       I    between atoms: N3_21  and  C11_23 
REMARK       I    between atoms: C11_23  and  N4_25 
REMARK    7  A    between atoms: N4_25  and  C12_27 
REMARK    8  A    between atoms: C12_27  and  C13_28 
REMARK    9  A    between atoms: C13_28  and  O6_29 
REMARK   10  A    between atoms: O6_29  and  C14_30 
REMARK   11  A    between atoms: N6_36  and  O8_37 
REMARK   12  A    between atoms: N7_41  and  C19_42 
REMARK   13  A    between atoms: C19_42  and  O10_43 
ROOT
HETATM    1  C14 UNL     1     -16.132   8.777 -28.807  1.00  0.00     0.177 A 
HETATM    2  C15 UNL     1     -15.107   8.030 -28.296  1.00  0.00     0.166 A 
HETATM    3  C16 UNL     1     -15.053   6.605 -28.538  1.00  0.00     0.110 C 
HETATM    4  N5  UNL     1     -14.998   5.493 -28.758  1.00  0.00    -0.191 NA
HETATM    5  C17 UNL     1     -14.030   8.578 -27.625  1.00  0.00     0.300 A 
HETATM    6  O7  UNL     1     -13.081   7.847 -27.154  1.00  0.00    -0.264 OA
HETATM    7  N6  UNL     1     -13.950   9.908 -27.448  1.00  0.00    -0.132 N 
HETATM    8  C18 UNL     1     -14.950  10.629 -27.958  1.00  0.00     0.359 A 
HETATM    9  O9  UNL     1     -14.875  11.892 -27.796  1.00  0.00    -0.244 OA
HETATM   10  N7  UNL     1     -15.992  10.146 -28.607  1.00  0.00    -0.254 N 
ENDROOT
BRANCH   1  11
HETATM   11  O6  UNL     1     -17.222   8.329 -29.460  1.00  0.00    -0.329 OA
BRANCH  11  12
HETATM   12  C13 UNL     1     -18.398   7.681 -29.018  1.00  0.00     0.222 C 
BRANCH  12  13
HETATM   13  C12 UNL     1     -18.783   6.581 -29.921  1.00  0.00     0.092 C 
BRANCH  13  14
HETATM   14  N4  UNL     1     -17.874   5.629 -30.362  1.00  0.00    -0.320 N 
HETATM   15  C11 UNL     1     -17.987   4.130 -30.079  1.00  0.00     0.326 C 
HETATM   16  N3  UNL     1     -16.876   3.465 -30.441  1.00  0.00    -0.277 N 
HETATM   17  O5  UNL     1     -19.058   3.908 -29.576  1.00  0.00    -0.247 OA
HETATM   18  C10 UNL     1     -17.218   1.986 -29.595  1.00  0.00     0.255 C 
ATOM     19  H3  UNL     1     -16.085   3.740 -31.024  1.00  0.00     0.173 HD
HETATM   20  O4  UNL     1     -18.283   1.944 -29.206  1.00  0.00    -0.270 OA
ATOM     21  H4  UNL     1     -17.077   5.951 -30.912  1.00  0.00     0.169 HD
BRANCH  18  22
HETATM   22  C2  UNL     1     -16.056   1.126 -29.562  1.00  0.00     0.222 C 
HETATM   23  C1  UNL     1     -16.361  -0.072 -28.586  1.00  0.00     0.050 C 
BRANCH  22  24
HETATM   24  O1  UNL     1     -14.951   1.768 -29.040  1.00  0.00    -0.289 OA
BRANCH  24  25
HETATM   25  C3  UNL     1     -14.444   1.918 -27.821  1.00  0.00     0.368 C 
HETATM   26  O2  UNL     1     -13.536   1.242 -27.397  1.00  0.00    -0.238 OA
HETATM   27  N1  UNL     1     -15.018   2.954 -26.945  1.00  0.00    -0.271 N 
HETATM   28  C4  UNL     1     -14.702   3.224 -25.677  1.00  0.00     0.257 C 
ATOM     29  H1  UNL     1     -15.745   3.538 -27.358  1.00  0.00     0.174 HD
HETATM   30  O3  UNL     1     -13.713   2.716 -25.006  1.00  0.00    -0.271 OA
BRANCH  28  31
HETATM   31  C5  UNL     1     -15.543   4.233 -24.865  1.00  0.00     0.282 C 
BRANCH  31  32
HETATM   32  N2  UNL     1     -15.222   4.154 -23.474  1.00  0.00    -0.066 N 
ATOM     33  H23 UNL     1     -14.554   3.407 -23.283  1.00  0.00     0.275 HD
ATOM     34  H22 UNL     1     -14.658   4.947 -23.170  1.00  0.00     0.275 HD
ATOM     35  H21 UNL     1     -16.069   4.056 -22.914  1.00  0.00     0.275 HD
ENDBRANCH  31  32
BRANCH  31  36
HETATM   36  C6  UNL     1     -16.993   3.867 -25.015  1.00  0.00    -0.014 C 
HETATM   37  C7  UNL     1     -17.525   4.114 -26.424  1.00  0.00     0.017 C 
HETATM   38  C8  UNL     1     -17.284   2.461 -24.613  1.00  0.00     0.017 C 
HETATM   39  C9  UNL     1     -17.831   4.793 -24.135  1.00  0.00     0.017 C 
ENDBRANCH  31  36
ENDBRANCH  28  31
ENDBRANCH  24  25
ENDBRANCH  22  24
ENDBRANCH  18  22
ENDBRANCH  13  14
ENDBRANCH  12  13
ENDBRANCH  11  12
ENDBRANCH   1  11
BRANCH  10  40
HETATM   40  C19 UNL     1     -16.978  11.001 -29.262  1.00  0.00     0.302 C 
BRANCH  40  41
HETATM   41  O10 UNL     1     -16.712  10.933 -30.681  1.00  0.00    -0.382 OA
ATOM     42  H10 UNL     1     -16.790  11.819 -31.017  1.00  0.00     0.211 HD
ENDBRANCH  40  41
ENDBRANCH  10  40
BRANCH   7  43
HETATM   43  O8  UNL     1     -12.874  10.405 -26.746  1.00  0.00    -0.276 OA
ATOM     44  H8  UNL     1     -12.382  11.122 -27.129  1.00  0.00     0.245 HD
ENDBRANCH   7  43
TORSDOF 13
ENDMDL
MODEL 2
REMARK VINA RESULT: -6.319805402      3.008      8.760
REMARK  13 active torsions:
REMARK  status: ('A' for Active; 'I' for Inactive)
REMARK    1  A    between atoms: C2_2  and  O1_3 
REMARK    2  A    between atoms: C2_2  and  C10_19 
REMARK    3  A    between atoms: O1_3  and  C3_4 
REMARK       I    between atoms: C3_4  and  N1_6 
REMARK       I    between atoms: N1_6  and  C4_8 
REMARK    4  A    between atoms: C4_8  and  C5_10 
REMARK    5  A    between atoms: C5_10  and  N2_11 
REMARK    6  A    between atoms: C5_10  and  C6_15 
REMARK       I    between atoms: C10_19  and  N3_21 
REMARK       I    between atoms: N3_21  and  C11_23 
REMARK       I    between atoms: C11_23  and  N4_25 
REMARK    7  A    between atoms: N4_25  and  C12_27 
REMARK    8  A    between atoms: C12_27  and  C13_28 
REMARK    9  A    between atoms: C13_28  and  O6_29 
REMARK   10  A    between atoms: O6_29  and  C14_30 
REMARK   11  A    between atoms: N6_36  and  O8_37 
REMARK   12  A    between atoms: N7_41  and  C19_42 
REMARK   13  A    between atoms: C19_42  and  O10_43 
ROOT
HETATM    1  C14 UNL     1     -16.193   3.323 -27.096  1.00  0.00     0.177 A 
HETATM    2  C15 UNL     1     -14.939   2.781 -27.094  1.00  0.00     0.166 A 
HETATM    3  C16 UNL     1     -14.309   2.396 -28.337  1.00  0.00     0.110 C 
HETATM    4  N5  UNL     1     -13.806   2.126 -29.318  1.00  0.00    -0.191 NA
HETATM    5  C17 UNL     1     -14.165   2.664 -25.953  1.00  0.00     0.300 A 
HETATM    6  O7  UNL     1     -12.987   2.147 -25.984  1.00  0.00    -0.264 OA
HETATM    7  N6  UNL     1     -14.635   3.095 -24.771  1.00  0.00    -0.132 N 
HETATM    8  C18 UNL     1     -15.857   3.630 -24.786  1.00  0.00     0.359 A 
HETATM    9  O9  UNL     1     -16.305   4.045 -23.665  1.00  0.00    -0.244 OA
HETATM   10  N7  UNL     1     -16.625   3.764 -25.850  1.00  0.00    -0.254 N 
ENDROOT
BRANCH   1  11
HETATM   11  O6  UNL     1     -17.020   3.465 -28.151  1.00  0.00    -0.329 OA
BRANCH  11  12
HETATM   12  C13 UNL     1     -16.947   4.260 -29.318  1.00  0.00     0.222 C 
BRANCH  12  13
HETATM   13  C12 UNL     1     -17.316   5.660 -29.044  1.00  0.00     0.092 C 
BRANCH  13  14
HETATM   14  N4  UNL     1     -16.461   6.721 -29.312  1.00  0.00    -0.320 N 
HETATM   15  C11 UNL     1     -15.437   7.276 -28.321  1.00  0.00     0.326 C 
HETATM   16  N3  UNL     1     -14.888   8.425 -28.755  1.00  0.00    -0.277 N 
HETATM   17  O5  UNL     1     -15.382   6.545 -27.365  1.00  0.00    -0.247 OA
HETATM   18  C10 UNL     1     -14.178   8.914 -27.246  1.00  0.00     0.255 C 
ATOM     19  H3  UNL     1     -14.890   8.867 -29.674  1.00  0.00     0.173 HD
HETATM   20  O4  UNL     1     -14.196   8.088 -26.468  1.00  0.00    -0.270 OA
ATOM     21  H4  UNL     1     -16.520   7.159 -30.231  1.00  0.00     0.169 HD
BRANCH  18  22
HETATM   22  C2  UNL     1     -13.721  10.285 -27.308  1.00  0.00     0.222 C 
HETATM   23  C1  UNL     1     -13.025  10.631 -25.938  1.00  0.00     0.050 C 
BRANCH  22  24
HETATM   24  O1  UNL     1     -14.769  11.175 -27.437  1.00  0.00    -0.289 OA
BRANCH  24  25
HETATM   25  C3  UNL     1     -15.263  11.899 -28.436  1.00  0.00     0.368 C 
HETATM   26  O2  UNL     1     -15.637  11.415 -29.479  1.00  0.00    -0.238 OA
HETATM   27  N1  UNL     1     -15.359  13.359 -28.264  1.00  0.00    -0.271 N 
HETATM   28  C4  UNL     1     -15.761  14.266 -29.156  1.00  0.00     0.257 C 
ATOM     29  H1  UNL     1     -15.084  13.721 -27.351  1.00  0.00     0.174 HD
HETATM   30  O3  UNL     1     -16.293  14.021 -30.314  1.00  0.00    -0.271 OA
BRANCH  28  31
HETATM   31  C5  UNL     1     -15.621  15.773 -28.849  1.00  0.00     0.282 C 
BRANCH  31  32
HETATM   32  N2  UNL     1     -14.705  15.986 -27.773  1.00  0.00    -0.066 N 
ATOM     33  H23 UNL     1     -15.056  15.602 -26.896  1.00  0.00     0.275 HD
ATOM     34  H22 UNL     1     -13.868  15.411 -27.869  1.00  0.00     0.275 HD
ATOM     35  H21 UNL     1     -14.475  16.976 -27.686  1.00  0.00     0.275 HD
ENDBRANCH  31  32
BRANCH  31  36
HETATM   36  C6  UNL     1     -16.962  16.291 -28.409  1.00  0.00    -0.014 C 
HETATM   37  C7  UNL     1     -17.740  16.960 -29.539  1.00  0.00     0.017 C 
HETATM   38  C8  UNL     1     -17.812  15.244 -27.774  1.00  0.00     0.017 C 
HETATM   39  C9  UNL     1     -16.751  17.410 -27.391  1.00  0.00     0.017 C 
ENDBRANCH  31  36
ENDBRANCH  28  31
ENDBRANCH  24  25
ENDBRANCH  22  24
ENDBRANCH  18  22
ENDBRANCH  13  14
ENDBRANCH  12  13
ENDBRANCH  11  12
ENDBRANCH   1  11
BRANCH  10  40
HETATM   40  C19 UNL     1     -17.893   4.487 -25.821  1.00  0.00     0.302 C 
BRANCH  40  41
HETATM   41  O10 UNL     1     -17.578   5.870 -25.542  1.00  0.00    -0.382 OA
ATOM     42  H10 UNL     1     -18.115   6.396 -26.124  1.00  0.00     0.211 HD
ENDBRANCH  40  41
ENDBRANCH  10  40
BRANCH   7  43
HETATM   43  O8  UNL     1     -13.841   2.928 -23.657  1.00  0.00    -0.276 OA
ATOM     44  H8  UNL     1     -12.964   2.584 -23.781  1.00  0.00     0.245 HD
ENDBRANCH   7  43
TORSDOF 13
ENDMDL
MODEL 3
REMARK VINA RESULT: -6.285738843      3.171      8.987
REMARK  13 active torsions:
REMARK  status: ('A' for Active; 'I' for Inactive)
REMARK    1  A    between atoms: C2_2  and  O1_3 
REMARK    2  A    between atoms: C2_2  and  C10_19 
REMARK    3  A    between atoms: O1_3  and  C3_4 
REMARK       I    between atoms: C3_4  and  N1_6 
REMARK       I    between atoms: N1_6  and  C4_8 
REMARK    4  A    between atoms: C4_8  and  C5_10 
REMARK    5  A    between atoms: C5_10  and  N2_11 
REMARK    6  A    between atoms: C5_10  and  C6_15 
REMARK       I    between atoms: C10_19  and  N3_21 
REMARK       I    between atoms: N3_21  and  C11_23 
REMARK       I    between atoms: C11_23  and  N4_25 
REMARK    7  A    between atoms: N4_25  and  C12_27 
REMARK    8  A    between atoms: C12_27  and  C13_28 
REMARK    9  A    between atoms: C13_28  and  O6_29 
REMARK   10  A    between atoms: O6_29  and  C14_30 
REMARK   11  A    between atoms: N6_36  and  O8_37 
REMARK   12  A    between atoms: N7_41  and  C19_42 
REMARK   13  A    between atoms: C19_42  and  O10_43 
ROOT
HETATM    1  C14 UNL     1     -15.873   4.045 -27.755  1.00  0.00     0.177 A 
HETATM    2  C15 UNL     1     -16.009   4.550 -26.492  1.00  0.00     0.166 A 
HETATM    3  C16 UNL     1     -17.011   5.555 -26.213  1.00  0.00     0.110 C 
HETATM    4  N5  UNL     1     -17.820   6.319 -25.993  1.00  0.00    -0.191 NA
HETATM    5  C17 UNL     1     -15.296   4.078 -25.406  1.00  0.00     0.300 A 
HETATM    6  O7  UNL     1     -15.446   4.576 -24.228  1.00  0.00    -0.264 OA
HETATM    7  N6  UNL     1     -14.419   3.072 -25.559  1.00  0.00    -0.132 N 
HETATM    8  C18 UNL     1     -14.300   2.580 -26.794  1.00  0.00     0.359 A 
HETATM    9  O9  UNL     1     -13.470   1.622 -26.942  1.00  0.00    -0.244 OA
HETATM   10  N7  UNL     1     -14.962   2.999 -27.854  1.00  0.00    -0.254 N 
ENDROOT
BRANCH   1  11
HETATM   11  O6  UNL     1     -16.513   4.450 -28.870  1.00  0.00    -0.329 OA
BRANCH  11  12
HETATM   12  C13 UNL     1     -17.877   4.446 -29.240  1.00  0.00     0.222 C 
BRANCH  12  13
HETATM   13  C12 UNL     1     -18.301   5.757 -29.764  1.00  0.00     0.092 C 
BRANCH  13  14
HETATM   14  N4  UNL     1     -17.945   6.952 -29.153  1.00  0.00    -0.320 N 
HETATM   15  C11 UNL     1     -16.742   7.805 -29.560  1.00  0.00     0.326 C 
HETATM   16  N3  UNL     1     -16.506   8.794 -28.680  1.00  0.00    -0.277 N 
HETATM   17  O5  UNL     1     -16.278   7.365 -30.581  1.00  0.00    -0.247 OA
HETATM   18  C10 UNL     1     -14.911   9.206 -29.232  1.00  0.00     0.255 C 
ATOM     19  H3  UNL     1     -17.080   9.178 -27.929  1.00  0.00     0.173 HD
HETATM   20  O4  UNL     1     -14.652   8.714 -30.222  1.00  0.00    -0.270 OA
ATOM     21  H4  UNL     1     -18.524   7.283 -28.382  1.00  0.00     0.169 HD
BRANCH  18  22
HETATM   22  C2  UNL     1     -14.249  10.088 -28.297  1.00  0.00     0.222 C 
HETATM   23  C1  UNL     1     -13.826   9.239 -27.039  1.00  0.00     0.050 C 
BRANCH  22  24
HETATM   24  O1  UNL     1     -15.096  11.071 -27.824  1.00  0.00    -0.289 OA
BRANCH  24  25
HETATM   25  C3  UNL     1     -15.655  12.155 -28.349  1.00  0.00     0.368 C 
HETATM   26  O2  UNL     1     -16.651  12.118 -29.034  1.00  0.00    -0.238 OA
HETATM   27  N1  UNL     1     -15.032  13.464 -28.084  1.00  0.00    -0.271 N 
HETATM   28  C4  UNL     1     -15.393  14.656 -28.563  1.00  0.00     0.257 C 
ATOM     29  H1  UNL     1     -14.227  13.459 -27.459  1.00  0.00     0.174 HD
HETATM   30  O3  UNL     1     -16.466  14.918 -29.246  1.00  0.00    -0.271 OA
BRANCH  28  31
HETATM   31  C5  UNL     1     -14.504  15.895 -28.314  1.00  0.00     0.282 C 
BRANCH  31  32
HETATM   32  N2  UNL     1     -15.274  16.967 -27.766  1.00  0.00    -0.066 N 
ATOM     33  H23 UNL     1     -16.231  16.680 -27.563  1.00  0.00     0.275 HD
ATOM     34  H22 UNL     1     -14.978  17.199 -26.818  1.00  0.00     0.275 HD
ATOM     35  H21 UNL     1     -15.247  17.781 -28.380  1.00  0.00     0.275 HD
ENDBRANCH  31  32
BRANCH  31  36
HETATM   36  C6  UNL     1     -13.963  16.359 -29.638  1.00  0.00    -0.014 C 
HETATM   37  C7  UNL     1     -12.611  17.056 -29.514  1.00  0.00     0.017 C 
HETATM   38  C8  UNL     1     -13.866  15.264 -30.645  1.00  0.00     0.017 C 
HETATM   39  C9  UNL     1     -14.886  17.438 -30.200  1.00  0.00     0.017 C 
ENDBRANCH  31  36
ENDBRANCH  28  31
ENDBRANCH  24  25
ENDBRANCH  22  24
ENDBRANCH  18  22
ENDBRANCH  13  14
ENDBRANCH  12  13
ENDBRANCH  11  12
ENDBRANCH   1  11
BRANCH  10  40
HETATM   40  C19 UNL     1     -14.889   2.323 -29.147  1.00  0.00     0.302 C 
BRANCH  40  41
HETATM   41  O10 UNL     1     -13.548   2.525 -29.647  1.00  0.00    -0.382 OA
ATOM     42  H10 UNL     1     -13.320   1.747 -30.144  1.00  0.00     0.211 HD
ENDBRANCH  40  41
ENDBRANCH  10  40
BRANCH   7  43
HETATM   43  O8  UNL     1     -13.709   2.657 -24.454  1.00  0.00    -0.276 OA
ATOM     44  H8  UNL     1     -13.582   1.724 -24.328  1.00  0.00     0.245 HD
ENDBRANCH   7  43
TORSDOF 13
ENDMDL
MODEL 4
REMARK VINA RESULT: -6.172851376      1.665      3.675
REMARK  13 active torsions:
REMARK  status: ('A' for Active; 'I' for Inactive)
REMARK    1  A    between atoms: C2_2  and  O1_3 
REMARK    2  A    between atoms: C2_2  and  C10_19 
REMARK    3  A    between atoms: O1_3  and  C3_4 
REMARK       I    between atoms: C3_4  and  N1_6 
REMARK       I    between atoms: N1_6  and  C4_8 
REMARK    4  A    between atoms: C4_8  and  C5_10 
REMARK    5  A    between atoms: C5_10  and  N2_11 
REMARK    6  A    between atoms: C5_10  and  C6_15 
REMARK       I    between atoms: C10_19  and  N3_21 
REMARK       I    between atoms: N3_21  and  C11_23 
REMARK       I    between atoms: C11_23  and  N4_25 
REMARK    7  A    between atoms: N4_25  and  C12_27 
REMARK    8  A    between atoms: C12_27  and  C13_28 
REMARK    9  A    between atoms: C13_28  and  O6_29 
REMARK   10  A    between atoms: O6_29  and  C14_30 
REMARK   11  A    between atoms: N6_36  and  O8_37 
REMARK   12  A    between atoms: N7_41  and  C19_42 
REMARK   13  A    between atoms: C19_42  and  O10_43 
ROOT
HETATM    1  C14 UNL     1     -16.468   8.402 -28.746  1.00  0.00     0.177 A 
HETATM    2  C15 UNL     1     -15.389   7.746 -28.223  1.00  0.00     0.166 A 
HETATM    3  C16 UNL     1     -15.305   6.304 -28.300  1.00  0.00     0.110 C 
HETATM    4  N5  UNL     1     -15.229   5.176 -28.393  1.00  0.00    -0.191 NA
HETATM    5  C17 UNL     1     -14.288   8.396 -27.697  1.00  0.00     0.300 A 
HETATM    6  O7  UNL     1     -13.287   7.749 -27.211  1.00  0.00    -0.264 OA
HETATM    7  N6  UNL     1     -14.239   9.738 -27.682  1.00  0.00    -0.132 N 
HETATM    8  C18 UNL     1     -15.293  10.369 -28.203  1.00  0.00     0.359 A 
HETATM    9  O9  UNL     1     -15.248  11.644 -28.194  1.00  0.00    -0.244 OA
HETATM   10  N7  UNL     1     -16.359   9.788 -28.717  1.00  0.00    -0.254 N 
ENDROOT
BRANCH   1  11
HETATM   11  O6  UNL     1     -17.584   7.854 -29.266  1.00  0.00    -0.329 OA
BRANCH  11  12
HETATM   12  C13 UNL     1     -18.894   7.697 -28.758  1.00  0.00     0.222 C 
BRANCH  12  13
HETATM   13  C12 UNL     1     -18.884   7.099 -27.410  1.00  0.00     0.092 C 
BRANCH  13  14
HETATM   14  N4  UNL     1     -18.368   5.834 -27.162  1.00  0.00    -0.320 N 
HETATM   15  C11 UNL     1     -17.785   5.387 -25.821  1.00  0.00     0.326 C 
HETATM   16  N3  UNL     1     -17.171   4.194 -25.912  1.00  0.00    -0.277 N 
HETATM   17  O5  UNL     1     -18.006   6.236 -24.996  1.00  0.00    -0.247 OA
HETATM   18  C10 UNL     1     -16.322   4.266 -24.397  1.00  0.00     0.255 C 
ATOM     19  H3  UNL     1     -17.196   3.477 -26.637  1.00  0.00     0.173 HD
HETATM   20  O4  UNL     1     -16.678   5.119 -23.739  1.00  0.00    -0.270 OA
ATOM     21  H4  UNL     1     -18.378   5.158 -27.926  1.00  0.00     0.169 HD
BRANCH  18  22
HETATM   22  C2  UNL     1     -15.331   3.217 -24.307  1.00  0.00     0.222 C 
HETATM   23  C1  UNL     1     -14.535   3.410 -22.962  1.00  0.00     0.050 C 
BRANCH  22  24
HETATM   24  O1  UNL     1     -14.394   3.302 -25.319  1.00  0.00    -0.289 OA
BRANCH  24  25
HETATM   25  C3  UNL     1     -14.014   2.503 -26.310  1.00  0.00     0.368 C 
HETATM   26  O2  UNL     1     -12.919   1.992 -26.362  1.00  0.00    -0.238 OA
HETATM   27  N1  UNL     1     -14.969   2.229 -27.398  1.00  0.00    -0.271 N 
HETATM   28  C4  UNL     1     -14.768   1.515 -28.506  1.00  0.00     0.257 C 
ATOM     29  H1  UNL     1     -15.898   2.635 -27.290  1.00  0.00     0.174 HD
HETATM   30  O3  UNL     1     -13.725   0.791 -28.775  1.00  0.00    -0.271 OA
BRANCH  28  31
HETATM   31  C5  UNL     1     -15.838   1.491 -29.620  1.00  0.00     0.282 C 
BRANCH  31  32
HETATM   32  N2  UNL     1     -16.448   2.776 -29.762  1.00  0.00    -0.066 N 
ATOM     33  H23 UNL     1     -16.263   3.373 -28.956  1.00  0.00     0.275 HD
ATOM     34  H22 UNL     1     -15.987   3.336 -30.478  1.00  0.00     0.275 HD
ATOM     35  H21 UNL     1     -17.448   2.682 -29.941  1.00  0.00     0.275 HD
ENDBRANCH  31  32
BRANCH  31  36
HETATM   36  C6  UNL     1     -16.916   0.522 -29.217  1.00  0.00    -0.014 C 
HETATM   37  C7  UNL     1     -17.566  -0.172 -30.410  1.00  0.00     0.017 C 
HETATM   38  C8  UNL     1     -16.444  -0.502 -28.243  1.00  0.00     0.017 C 
HETATM   39  C9  UNL     1     -18.061   1.298 -28.569  1.00  0.00     0.017 C 
ENDBRANCH  31  36
ENDBRANCH  28  31
ENDBRANCH  24  25
ENDBRANCH  22  24
ENDBRANCH  18  22
ENDBRANCH  13  14
ENDBRANCH  12  13
ENDBRANCH  11  12
ENDBRANCH   1  11
BRANCH  10  40
HETATM   40  C19 UNL     1     -17.413  10.536 -29.398  1.00  0.00     0.302 C 
BRANCH  40  41
HETATM   41  O10 UNL     1     -17.011  10.657 -30.781  1.00  0.00    -0.382 OA
ATOM     42  H10 UNL     1     -17.809  10.680 -31.297  1.00  0.00     0.211 HD
ENDBRANCH  40  41
ENDBRANCH  10  40
BRANCH   7  43
HETATM   43  O8  UNL     1     -13.136  10.341 -27.118  1.00  0.00    -0.276 OA
ATOM     44  H8  UNL     1     -13.004  11.269 -27.275  1.00  0.00     0.245 HD
ENDBRANCH   7  43
TORSDOF 13
ENDMDL
MODEL 5
REMARK VINA RESULT: -6.164618270      2.725      8.662
REMARK  13 active torsions:
REMARK  status: ('A' for Active; 'I' for Inactive)
REMARK    1  A    between atoms: C2_2  and  O1_3 
REMARK    2  A    between atoms: C2_2  and  C10_19 
REMARK    3  A    between atoms: O1_3  and  C3_4 
REMARK       I    between atoms: C3_4  and  N1_6 
REMARK       I    between atoms: N1_6  and  C4_8 
REMARK    4  A    between atoms: C4_8  and  C5_10 
REMARK    5  A    between atoms: C5_10  and  N2_11 
REMARK    6  A    between atoms: C5_10  and  C6_15 
REMARK       I    between atoms: C10_19  and  N3_21 
REMARK       I    between atoms: N3_21  and  C11_23 
REMARK       I    between atoms: C11_23  and  N4_25 
REMARK    7  A    between atoms: N4_25  and  C12_27 
REMARK    8  A    between atoms: C12_27  and  C13_28 
REMARK    9  A    between atoms: C13_28  and  O6_29 
REMARK   10  A    between atoms: O6_29  and  C14_30 
REMARK   11  A    between atoms: N6_36  and  O8_37 
REMARK   12  A    between atoms: N7_41  and  C19_42 
REMARK   13  A    between atoms: C19_42  and  O10_43 
ROOT
HETATM    1  C14 UNL     1     -16.779   2.852 -27.268  1.00  0.00     0.177 A 
HETATM    2  C15 UNL     1     -17.008   2.990 -25.927  1.00  0.00     0.166 A 
HETATM    3  C16 UNL     1     -18.360   3.072 -25.423  1.00  0.00     0.110 C 
HETATM    4  N5  UNL     1     -19.424   3.103 -25.030  1.00  0.00    -0.191 NA
HETATM    5  C17 UNL     1     -16.002   2.954 -24.979  1.00  0.00     0.300 A 
HETATM    6  O7  UNL     1     -16.249   3.088 -23.723  1.00  0.00    -0.264 OA
HETATM    7  N6  UNL     1     -14.725   2.775 -25.355  1.00  0.00    -0.132 N 
HETATM    8  C18 UNL     1     -14.514   2.633 -26.665  1.00  0.00     0.359 A 
HETATM    9  O9  UNL     1     -13.302   2.459 -27.025  1.00  0.00    -0.244 OA
HETATM   10  N7  UNL     1     -15.443   2.657 -27.600  1.00  0.00    -0.254 N 
ENDROOT
BRANCH   1  11
HETATM   11  O6  UNL     1     -17.692   2.886 -28.260  1.00  0.00    -0.329 OA
BRANCH  11  12
HETATM   12  C13 UNL     1     -18.171   3.935 -29.077  1.00  0.00     0.222 C 
BRANCH  12  13
HETATM   13  C12 UNL     1     -17.855   5.256 -28.504  1.00  0.00     0.092 C 
BRANCH  13  14
HETATM   14  N4  UNL     1     -16.753   5.998 -28.909  1.00  0.00    -0.320 N 
HETATM   15  C11 UNL     1     -15.714   6.592 -27.955  1.00  0.00     0.326 C 
HETATM   16  N3  UNL     1     -14.875   7.431 -28.587  1.00  0.00    -0.277 N 
HETATM   17  O5  UNL     1     -15.916   6.168 -26.846  1.00  0.00    -0.247 OA
HETATM   18  C10 UNL     1     -14.199   8.175 -27.169  1.00  0.00     0.255 C 
ATOM     19  H3  UNL     1     -14.694   7.583 -29.579  1.00  0.00     0.173 HD
HETATM   20  O4  UNL     1     -14.479   7.627 -26.215  1.00  0.00    -0.270 OA
ATOM     21  H4  UNL     1     -16.628   6.158 -29.908  1.00  0.00     0.169 HD
BRANCH  18  22
HETATM   22  C2  UNL     1     -13.427   9.348 -27.515  1.00  0.00     0.222 C 
HETATM   23  C1  UNL     1     -13.362  10.283 -26.250  1.00  0.00     0.050 C 
BRANCH  22  24
HETATM   24  O1  UNL     1     -14.034  10.093 -28.507  1.00  0.00    -0.289 OA
BRANCH  24  25
HETATM   25  C3  UNL     1     -15.069  10.924 -28.552  1.00  0.00     0.368 C 
HETATM   26  O2  UNL     1     -16.175  10.582 -28.902  1.00  0.00    -0.238 OA
HETATM   27  N1  UNL     1     -14.860  12.328 -28.158  1.00  0.00    -0.271 N 
HETATM   28  C4  UNL     1     -15.741  13.330 -28.190  1.00  0.00     0.257 C 
ATOM     29  H1  UNL     1     -13.928  12.564 -27.819  1.00  0.00     0.174 HD
HETATM   30  O3  UNL     1     -17.011  13.229 -28.439  1.00  0.00    -0.271 OA
BRANCH  28  31
HETATM   31  C5  UNL     1     -15.282  14.777 -27.907  1.00  0.00     0.282 C 
BRANCH  31  32
HETATM   32  N2  UNL     1     -16.310  15.510 -27.236  1.00  0.00    -0.066 N 
ATOM     33  H23 UNL     1     -17.140  15.617 -27.819  1.00  0.00     0.275 HD
ATOM     34  H22 UNL     1     -16.725  14.970 -26.477  1.00  0.00     0.275 HD
ATOM     35  H21 UNL     1     -15.958  16.410 -26.911  1.00  0.00     0.275 HD
ENDBRANCH  31  32
BRANCH  31  36
HETATM   36  C6  UNL     1     -15.030  15.458 -29.224  1.00  0.00    -0.014 C 
HETATM   37  C7  UNL     1     -14.540  14.497 -30.304  1.00  0.00     0.017 C 
HETATM   38  C8  UNL     1     -16.214  16.209 -29.728  1.00  0.00     0.017 C 
HETATM   39  C9  UNL     1     -13.878  16.447 -29.057  1.00  0.00     0.017 C 
ENDBRANCH  31  36
ENDBRANCH  28  31
ENDBRANCH  24  25
ENDBRANCH  22  24
ENDBRANCH  18  22
ENDBRANCH  13  14
ENDBRANCH  12  13
ENDBRANCH  11  12
ENDBRANCH   1  11
BRANCH  10  40
HETATM   40  C19 UNL     1     -15.161   2.353 -29.000  1.00  0.00     0.302 C 
BRANCH  40  41
HETATM   41  O10 UNL     1     -14.832   0.947 -29.064  1.00  0.00    -0.382 OA
ATOM     42  H10 UNL     1     -13.903   0.891 -29.254  1.00  0.00     0.211 HD
ENDBRANCH  40  41
ENDBRANCH  10  40
BRANCH   7  43
HETATM   43  O8  UNL     1     -13.754   2.779 -24.378  1.00  0.00    -0.276 OA
ATOM     44  H8  UNL     1     -13.215   3.557 -24.285  1.00  0.00     0.245 HD
ENDBRANCH   7  43
TORSDOF 13
ENDMDL
