MODEL 1
REMARK VINA RESULT: -6.627755995      0.000      0.000
REMARK  11 active torsions:
REMARK  status: ('A' for Active; 'I' for Inactive)
REMARK    1  A    between atoms: N1_2  and  S1_4 
REMARK    2  A    between atoms: S1_4  and  C2_7 
REMARK    3  A    between atoms: C4_9  and  C5_10 
REMARK    4  A    between atoms: N4_15  and  C6_16 
REMARK    5  A    between atoms: C6_16  and  C7_17 
REMARK    6  A    between atoms: C7_17  and  O3_18 
REMARK    7  A    between atoms: C7_17  and  C8_20 
REMARK    8  A    between atoms: C8_20  and  N5_21 
REMARK    9  A    between atoms: C12_28  and  C13_29 
REMARK   10  A    between atoms: C13_29  and  N7_30 
REMARK   11  A    between atoms: N10_35  and  O5_37 
ROOT
HETATM    1  C7  UNL     1     -18.227   8.680 -29.408  1.00  0.00     0.157 C 
ENDROOT
BRANCH   1   2
HETATM    2  C6  UNL     1     -19.369   8.170 -28.592  1.00  0.00     0.204 C 
BRANCH   2   3
HETATM    3  N4  UNL     1     -18.853   7.067 -27.749  1.00  0.00    -0.215 N 
HETATM    4  N3  UNL     1     -19.448   6.479 -26.731  1.00  0.00    -0.224 N 
HETATM    5  N2  UNL     1     -18.679   5.537 -26.225  1.00  0.00    -0.268 N 
ATOM      6  H3  UNL     1     -20.375   6.721 -26.383  1.00  0.00     0.210 HD
HETATM    7  C5  UNL     1     -17.552   5.521 -26.945  1.00  0.00     0.148 A 
ATOM      8  H2  UNL     1     -18.901   4.932 -25.434  1.00  0.00     0.190 HD
HETATM    9  N11 UNL     1     -17.680   6.472 -27.879  1.00  0.00    -0.266 N 
ATOM     10  H11 UNL     1     -16.980   6.702 -28.584  1.00  0.00     0.190 HD
BRANCH   7  11
HETATM   11  C4  UNL     1     -16.401   4.603 -26.717  1.00  0.00     0.019 A 
HETATM   12  C3  UNL     1     -15.894   3.774 -27.653  1.00  0.00     0.048 A 
HETATM   13  C2  UNL     1     -14.837   2.989 -27.291  1.00  0.00     0.120 A 
HETATM   14  S2  UNL     1     -14.569   3.415 -25.669  1.00  0.00    -0.087 SA
HETATM   15  C15 UNL     1     -15.801   4.577 -25.482  1.00  0.00     0.066 A 
BRANCH  13  16
HETATM   16  S1  UNL     1     -13.962   1.816 -28.277  1.00  0.00     0.265 S 
HETATM   17  O1  UNL     1     -13.530   2.497 -29.521  1.00  0.00    -0.200 OA
HETATM   18  O2  UNL     1     -14.826   0.643 -28.607  1.00  0.00    -0.200 OA
BRANCH  16  19
HETATM   19  N1  UNL     1     -12.598   1.307 -27.377  1.00  0.00    -0.319 N 
HETATM   20  C1  UNL     1     -11.923   0.202 -27.994  1.00  0.00     0.159 C 
ATOM     21  H1  UNL     1     -12.301   1.740 -26.503  1.00  0.00     0.171 HD
ENDBRANCH  16  19
ENDBRANCH  13  16
ENDBRANCH   7  11
ENDBRANCH   2   3
ENDBRANCH   1   2
BRANCH   1  22
HETATM   22  O3  UNL     1     -18.557   8.292 -30.754  1.00  0.00    -0.392 OA
ATOM     23  H3  UNL     1     -19.429   8.643 -30.889  1.00  0.00     0.210 HD
ENDBRANCH   1  22
BRANCH   1  24
HETATM   24  C8  UNL     1     -18.068  10.149 -29.490  1.00  0.00     0.160 C 
BRANCH  24  25
HETATM   25  N5  UNL     1     -16.770  10.714 -29.576  1.00  0.00    -0.335 N 
HETATM   26  C9  UNL     1     -16.161  10.975 -30.842  1.00  0.00     0.237 C 
HETATM   27  O4  UNL     1     -16.368  10.210 -31.805  1.00  0.00    -0.272 OA
HETATM   28  C10 UNL     1     -15.272  12.146 -31.065  1.00  0.00     0.217 C 
HETATM   29  N6  UNL     1     -14.761  12.692 -29.842  1.00  0.00    -0.411 N 
HETATM   30  C11 UNL     1     -15.643  12.596 -28.709  1.00  0.00     0.147 C 
ATOM     31  H6  UNL     1     -13.836  13.118 -29.780  1.00  0.00     0.153 HD
HETATM   32  C12 UNL     1     -16.005  11.125 -28.424  1.00  0.00     0.174 C 
BRANCH  32  33
HETATM   33  C13 UNL     1     -14.806  10.350 -28.131  1.00  0.00     0.128 C 
HETATM   34  N10 UNL     1     -13.886  10.771 -27.293  1.00  0.00    -0.255 N 
ATOM     35  H10 UNL     1     -13.066  10.189 -27.124  1.00  0.00     0.195 HD
BRANCH  33  36
HETATM   36  N7  UNL     1     -14.528   9.092 -28.724  1.00  0.00    -0.319 N 
HETATM   37  C14 UNL     1     -14.490   7.972 -28.134  1.00  0.00     0.202 C 
HETATM   38  N8  UNL     1     -14.725   7.787 -26.746  1.00  0.00    -0.066 NA
HETATM   39  N9  UNL     1     -14.184   6.817 -28.943  1.00  0.00    -0.066 NA
ATOM     40  H7  UNL     1     -14.339   9.089 -29.726  1.00  0.00     0.169 HD
ENDBRANCH  33  36
BRANCH  34  41
HETATM   41  O5  UNL     1     -14.001  11.972 -26.639  1.00  0.00    -0.288 OA
ATOM     42  H5  UNL     1     -13.371  12.672 -26.766  1.00  0.00     0.244 HD
ENDBRANCH  34  41
ENDBRANCH  32  33
ENDBRANCH  24  25
ENDBRANCH   1  24
TORSDOF 11
ENDMDL
MODEL 2
REMARK VINA RESULT: -6.568751277      4.526      9.649
REMARK  11 active torsions:
REMARK  status: ('A' for Active; 'I' for Inactive)
REMARK    1  A    between atoms: N1_2  and  S1_4 
REMARK    2  A    between atoms: S1_4  and  C2_7 
REMARK    3  A    between atoms: C4_9  and  C5_10 
REMARK    4  A    between atoms: N4_15  and  C6_16 
REMARK    5  A    between atoms: C6_16  and  C7_17 
REMARK    6  A    between atoms: C7_17  and  O3_18 
REMARK    7  A    between atoms: C7_17  and  C8_20 
REMARK    8  A    between atoms: C8_20  and  N5_21 
REMARK    9  A    between atoms: C12_28  and  C13_29 
REMARK   10  A    between atoms: C13_29  and  N7_30 
REMARK   11  A    between atoms: N10_35  and  O5_37 
ROOT
HETATM    1  C7  UNL     1     -15.602   8.111 -29.738  1.00  0.00     0.157 C 
ENDROOT
BRANCH   1   2
HETATM    2  C6  UNL     1     -16.448   8.858 -28.759  1.00  0.00     0.204 C 
BRANCH   2   3
HETATM    3  N4  UNL     1     -15.828  10.190 -28.563  1.00  0.00    -0.215 N 
HETATM    4  N3  UNL     1     -14.880  10.524 -27.711  1.00  0.00    -0.224 N 
HETATM    5  N2  UNL     1     -14.585  11.803 -27.826  1.00  0.00    -0.268 N 
ATOM      6  H3  UNL     1     -14.437   9.882 -27.055  1.00  0.00     0.210 HD
HETATM    7  C5  UNL     1     -15.372  12.304 -28.784  1.00  0.00     0.148 A 
ATOM      8  H2  UNL     1     -13.887  12.315 -27.286  1.00  0.00     0.190 HD
HETATM    9  N11 UNL     1     -16.130  11.292 -29.225  1.00  0.00    -0.266 N 
ATOM     10  H11 UNL     1     -16.834  11.362 -29.961  1.00  0.00     0.190 HD
BRANCH   7  11
HETATM   11  C4  UNL     1     -15.369  13.722 -29.242  1.00  0.00     0.019 A 
HETATM   12  C3  UNL     1     -14.993  14.766 -28.475  1.00  0.00     0.048 A 
HETATM   13  C2  UNL     1     -15.047  16.009 -29.037  1.00  0.00     0.120 A 
HETATM   14  S2  UNL     1     -15.615  15.706 -30.609  1.00  0.00    -0.087 SA
HETATM   15  C15 UNL     1     -15.772  14.011 -30.523  1.00  0.00     0.066 A 
BRANCH  13  16
HETATM   16  S1  UNL     1     -14.626  17.557 -28.302  1.00  0.00     0.265 S 
HETATM   17  O1  UNL     1     -14.677  18.593 -29.360  1.00  0.00    -0.200 OA
HETATM   18  O2  UNL     1     -13.262  17.509 -27.694  1.00  0.00    -0.200 OA
BRANCH  16  19
HETATM   19  N1  UNL     1     -15.795  17.885 -27.096  1.00  0.00    -0.319 N 
HETATM   20  C1  UNL     1     -17.135  17.718 -27.580  1.00  0.00     0.159 C 
ATOM     21  H1  UNL     1     -15.565  18.167 -26.143  1.00  0.00     0.171 HD
ENDBRANCH  16  19
ENDBRANCH  13  16
ENDBRANCH   7  11
ENDBRANCH   2   3
ENDBRANCH   1   2
BRANCH   1  22
HETATM   22  O3  UNL     1     -14.541   9.029 -30.056  1.00  0.00    -0.392 OA
ATOM     23  H3  UNL     1     -14.167   8.681 -30.857  1.00  0.00     0.210 HD
ENDBRANCH   1  22
BRANCH   1  24
HETATM   24  C8  UNL     1     -14.897   6.913 -29.233  1.00  0.00     0.160 C 
BRANCH  24  25
HETATM   25  N5  UNL     1     -15.602   5.951 -28.465  1.00  0.00    -0.335 N 
HETATM   26  C9  UNL     1     -15.495   5.920 -27.040  1.00  0.00     0.237 C 
HETATM   27  O4  UNL     1     -14.415   6.212 -26.489  1.00  0.00    -0.272 OA
HETATM   28  C10 UNL     1     -16.640   5.548 -26.170  1.00  0.00     0.217 C 
HETATM   29  N6  UNL     1     -17.661   4.831 -26.876  1.00  0.00    -0.411 N 
HETATM   30  C11 UNL     1     -17.828   5.200 -28.258  1.00  0.00     0.147 C 
ATOM     31  H6  UNL     1     -18.229   4.110 -26.431  1.00  0.00     0.153 HD
HETATM   32  C12 UNL     1     -16.515   4.993 -29.039  1.00  0.00     0.174 C 
BRANCH  32  33
HETATM   33  C13 UNL     1     -16.106   3.595 -28.989  1.00  0.00     0.128 C 
HETATM   34  N10 UNL     1     -16.514   2.712 -29.871  1.00  0.00    -0.255 N 
ATOM     35  H10 UNL     1     -16.197   1.746 -29.791  1.00  0.00     0.195 HD
BRANCH  33  36
HETATM   36  N7  UNL     1     -15.245   3.071 -27.991  1.00  0.00    -0.319 N 
HETATM   37  C14 UNL     1     -14.122   2.515 -28.179  1.00  0.00     0.202 C 
HETATM   38  N8  UNL     1     -13.527   2.318 -29.453  1.00  0.00    -0.066 NA
HETATM   39  N9  UNL     1     -13.417   2.055 -27.008  1.00  0.00    -0.066 NA
ATOM     40  H7  UNL     1     -15.561   3.150 -27.025  1.00  0.00     0.169 HD
ENDBRANCH  33  36
BRANCH  34  41
HETATM   41  O5  UNL     1     -17.357   3.056 -30.899  1.00  0.00    -0.288 OA
ATOM     42  H5  UNL     1     -17.065   3.062 -31.803  1.00  0.00     0.244 HD
ENDBRANCH  34  41
ENDBRANCH  32  33
ENDBRANCH  24  25
ENDBRANCH   1  24
TORSDOF 11
ENDMDL
MODEL 3
REMARK VINA RESULT: -6.561057488      4.236      9.545
REMARK  11 active torsions:
REMARK  status: ('A' for Active; 'I' for Inactive)
REMARK    1  A    between atoms: N1_2  and  S1_4 
REMARK    2  A    between atoms: S1_4  and  C2_7 
REMARK    3  A    between atoms: C4_9  and  C5_10 
REMARK    4  A    between atoms: N4_15  and  C6_16 
REMARK    5  A    between atoms: C6_16  and  C7_17 
REMARK    6  A    between atoms: C7_17  and  O3_18 
REMARK    7  A    between atoms: C7_17  and  C8_20 
REMARK    8  A    between atoms: C8_20  and  N5_21 
REMARK    9  A    between atoms: C12_28  and  C13_29 
REMARK   10  A    between atoms: C13_29  and  N7_30 
REMARK   11  A    between atoms: N10_35  and  O5_37 
ROOT
HETATM    1  C7  UNL     1     -15.381   7.109 -27.836  1.00  0.00     0.157 C 
ENDROOT
BRANCH   1   2
HETATM    2  C6  UNL     1     -14.241   7.632 -27.026  1.00  0.00     0.204 C 
BRANCH   2   3
HETATM    3  N4  UNL     1     -14.274   9.111 -27.116  1.00  0.00    -0.215 N 
HETATM    4  N3  UNL     1     -13.557   9.980 -26.434  1.00  0.00    -0.224 N 
HETATM    5  N2  UNL     1     -13.864  11.212 -26.785  1.00  0.00    -0.268 N 
ATOM      6  H3  UNL     1     -12.861   9.732 -25.730  1.00  0.00     0.210 HD
HETATM    7  C5  UNL     1     -14.811  11.127 -27.726  1.00  0.00     0.148 A 
ATOM      8  H2  UNL     1     -13.455  12.068 -26.411  1.00  0.00     0.190 HD
HETATM    9  N11 UNL     1     -15.049   9.823 -27.915  1.00  0.00    -0.266 N 
ATOM     10  H11 UNL     1     -15.725   9.438 -28.575  1.00  0.00     0.190 HD
BRANCH   7  11
HETATM   11  C4  UNL     1     -15.448  12.289 -28.407  1.00  0.00     0.019 A 
HETATM   12  C3  UNL     1     -15.269  13.576 -28.042  1.00  0.00     0.048 A 
HETATM   13  C2  UNL     1     -15.924  14.531 -28.765  1.00  0.00     0.120 A 
HETATM   14  S2  UNL     1     -16.771  13.630 -29.929  1.00  0.00    -0.087 SA
HETATM   15  C15 UNL     1     -16.278  12.063 -29.478  1.00  0.00     0.066 A 
BRANCH  13  16
HETATM   16  S1  UNL     1     -15.894  16.281 -28.538  1.00  0.00     0.265 S 
HETATM   17  O1  UNL     1     -16.615  16.900 -29.675  1.00  0.00    -0.200 OA
HETATM   18  O2  UNL     1     -14.490  16.790 -28.482  1.00  0.00    -0.200 OA
BRANCH  16  19
HETATM   19  N1  UNL     1     -16.702  16.620 -27.069  1.00  0.00    -0.319 N 
HETATM   20  C1  UNL     1     -17.122  17.989 -26.984  1.00  0.00     0.159 C 
ATOM     21  H1  UNL     1     -16.865  15.928 -26.337  1.00  0.00     0.171 HD
ENDBRANCH  16  19
ENDBRANCH  13  16
ENDBRANCH   7  11
ENDBRANCH   2   3
ENDBRANCH   1   2
BRANCH   1  22
HETATM   22  O3  UNL     1     -14.772   6.158 -28.727  1.00  0.00    -0.392 OA
ATOM     23  H3  UNL     1     -15.235   5.347 -28.551  1.00  0.00     0.210 HD
ENDBRANCH   1  22
BRANCH   1  24
HETATM   24  C8  UNL     1     -16.405   6.319 -27.117  1.00  0.00     0.160 C 
BRANCH  24  25
HETATM   25  N5  UNL     1     -16.438   4.909 -27.263  1.00  0.00    -0.335 N 
HETATM   26  C9  UNL     1     -15.643   4.061 -26.432  1.00  0.00     0.237 C 
HETATM   27  O4  UNL     1     -14.513   4.434 -26.059  1.00  0.00    -0.272 OA
HETATM   28  C10 UNL     1     -16.116   2.726 -25.984  1.00  0.00     0.217 C 
HETATM   29  N6  UNL     1     -17.188   2.220 -26.789  1.00  0.00    -0.411 N 
HETATM   30  C11 UNL     1     -18.080   3.217 -27.323  1.00  0.00     0.147 C 
ATOM     31  H6  UNL     1     -17.311   1.224 -26.972  1.00  0.00     0.153 HD
HETATM   32  C12 UNL     1     -17.307   4.228 -28.192  1.00  0.00     0.174 C 
BRANCH  32  33
HETATM   33  C13 UNL     1     -16.660   3.553 -29.310  1.00  0.00     0.128 C 
HETATM   34  N10 UNL     1     -17.332   3.118 -30.351  1.00  0.00    -0.255 N 
ATOM     35  H10 UNL     1     -16.831   2.653 -31.107  1.00  0.00     0.195 HD
BRANCH  33  36
HETATM   36  N7  UNL     1     -15.265   3.304 -29.368  1.00  0.00    -0.319 N 
HETATM   37  C14 UNL     1     -14.696   2.176 -29.293  1.00  0.00     0.202 C 
HETATM   38  N8  UNL     1     -15.380   0.941 -29.133  1.00  0.00    -0.066 NA
HETATM   39  N9  UNL     1     -13.256   2.163 -29.375  1.00  0.00    -0.066 NA
ATOM     40  H7  UNL     1     -14.659   4.117 -29.481  1.00  0.00     0.169 HD
ENDBRANCH  33  36
BRANCH  34  41
HETATM   41  O5  UNL     1     -18.693   3.275 -30.449  1.00  0.00    -0.288 OA
ATOM     42  H5  UNL     1     -19.184   2.932 -31.186  1.00  0.00     0.244 HD
ENDBRANCH  34  41
ENDBRANCH  32  33
ENDBRANCH  24  25
ENDBRANCH   1  24
TORSDOF 11
ENDMDL
MODEL 4
REMARK VINA RESULT: -6.551838696      4.637      9.909
REMARK  11 active torsions:
REMARK  status: ('A' for Active; 'I' for Inactive)
REMARK    1  A    between atoms: N1_2  and  S1_4 
REMARK    2  A    between atoms: S1_4  and  C2_7 
REMARK    3  A    between atoms: C4_9  and  C5_10 
REMARK    4  A    between atoms: N4_15  and  C6_16 
REMARK    5  A    between atoms: C6_16  and  C7_17 
REMARK    6  A    between atoms: C7_17  and  O3_18 
REMARK    7  A    between atoms: C7_17  and  C8_20 
REMARK    8  A    between atoms: C8_20  and  N5_21 
REMARK    9  A    between atoms: C12_28  and  C13_29 
REMARK   10  A    between atoms: C13_29  and  N7_30 
REMARK   11  A    between atoms: N10_35  and  O5_37 
ROOT
HETATM    1  C7  UNL     1     -14.732   7.944 -27.586  1.00  0.00     0.157 C 
ENDROOT
BRANCH   1   2
HETATM    2  C6  UNL     1     -13.999   9.143 -27.081  1.00  0.00     0.204 C 
BRANCH   2   3
HETATM    3  N4  UNL     1     -14.403  10.295 -27.921  1.00  0.00    -0.215 N 
HETATM    4  N3  UNL     1     -14.405  10.378 -29.236  1.00  0.00    -0.224 N 
HETATM    5  N2  UNL     1     -14.830  11.563 -29.625  1.00  0.00    -0.268 N 
ATOM      6  H3  UNL     1     -14.119   9.628 -29.864  1.00  0.00     0.210 HD
HETATM    7  C5  UNL     1     -15.108  12.263 -28.520  1.00  0.00     0.148 A 
ATOM      8  H2  UNL     1     -14.928  11.885 -30.588  1.00  0.00     0.190 HD
HETATM    9  N11 UNL     1     -14.838  11.463 -27.481  1.00  0.00    -0.266 N 
ATOM     10  H11 UNL     1     -14.951  11.715 -26.499  1.00  0.00     0.190 HD
BRANCH   7  11
HETATM   11  C4  UNL     1     -15.620  13.662 -28.498  1.00  0.00     0.019 A 
HETATM   12  C3  UNL     1     -14.840  14.754 -28.357  1.00  0.00     0.048 A 
HETATM   13  C2  UNL     1     -15.459  15.971 -28.354  1.00  0.00     0.120 A 
HETATM   14  S2  UNL     1     -17.100  15.578 -28.546  1.00  0.00    -0.087 SA
HETATM   15  C15 UNL     1     -16.970  13.881 -28.626  1.00  0.00     0.066 A 
BRANCH  13  16
HETATM   16  S1  UNL     1     -14.723  17.567 -28.190  1.00  0.00     0.265 S 
HETATM   17  O1  UNL     1     -14.826  18.253 -29.499  1.00  0.00    -0.200 OA
HETATM   18  O2  UNL     1     -13.291  17.458 -27.778  1.00  0.00    -0.200 OA
BRANCH  16  19
HETATM   19  N1  UNL     1     -15.613  18.420 -27.003  1.00  0.00    -0.319 N 
HETATM   20  C1  UNL     1     -15.302  19.821 -26.995  1.00  0.00     0.159 C 
ATOM     21  H1  UNL     1     -16.286  17.983 -26.374  1.00  0.00     0.171 HD
ENDBRANCH  16  19
ENDBRANCH  13  16
ENDBRANCH   7  11
ENDBRANCH   2   3
ENDBRANCH   1   2
BRANCH   1  22
HETATM   22  O3  UNL     1     -13.860   7.397 -28.592  1.00  0.00    -0.392 OA
ATOM     23  H3  UNL     1     -14.218   6.534 -28.763  1.00  0.00     0.210 HD
ENDBRANCH   1  22
BRANCH   1  24
HETATM   24  C8  UNL     1     -14.922   6.827 -26.633  1.00  0.00     0.160 C 
BRANCH  24  25
HETATM   25  N5  UNL     1     -15.725   5.717 -26.999  1.00  0.00    -0.335 N 
HETATM   26  C9  UNL     1     -17.132   5.709 -26.749  1.00  0.00     0.237 C 
HETATM   27  O4  UNL     1     -17.588   6.259 -25.728  1.00  0.00    -0.272 OA
HETATM   28  C10 UNL     1     -18.094   5.059 -27.676  1.00  0.00     0.217 C 
HETATM   29  N6  UNL     1     -17.467   4.112 -28.550  1.00  0.00    -0.411 N 
HETATM   30  C11 UNL     1     -16.117   4.433 -28.937  1.00  0.00     0.147 C 
ATOM     31  H6  UNL     1     -17.942   3.271 -28.875  1.00  0.00     0.153 HD
HETATM   32  C12 UNL     1     -15.212   4.563 -27.697  1.00  0.00     0.174 C 
BRANCH  32  33
HETATM   33  C13 UNL     1     -15.184   3.312 -26.950  1.00  0.00     0.128 C 
HETATM   34  N10 UNL     1     -14.519   2.260 -27.368  1.00  0.00    -0.255 N 
ATOM     35  H10 UNL     1     -14.532   1.408 -26.807  1.00  0.00     0.195 HD
BRANCH  33  36
HETATM   36  N7  UNL     1     -15.870   3.122 -25.723  1.00  0.00    -0.319 N 
HETATM   37  C14 UNL     1     -15.349   2.852 -24.600  1.00  0.00     0.202 C 
HETATM   38  N8  UNL     1     -13.955   2.690 -24.381  1.00  0.00    -0.066 NA
HETATM   39  N9  UNL     1     -16.248   2.702 -23.482  1.00  0.00    -0.066 NA
ATOM     40  H7  UNL     1     -16.886   3.212 -25.747  1.00  0.00     0.169 HD
ENDBRANCH  33  36
BRANCH  34  41
HETATM   41  O5  UNL     1     -13.806   2.276 -28.541  1.00  0.00    -0.288 OA
ATOM     42  H5  UNL     1     -14.237   2.297 -29.387  1.00  0.00     0.244 HD
ENDBRANCH  34  41
ENDBRANCH  32  33
ENDBRANCH  24  25
ENDBRANCH   1  24
TORSDOF 11
ENDMDL
MODEL 5
REMARK VINA RESULT: -6.551681525      4.089      9.299
REMARK  11 active torsions:
REMARK  status: ('A' for Active; 'I' for Inactive)
REMARK    1  A    between atoms: N1_2  and  S1_4 
REMARK    2  A    between atoms: S1_4  and  C2_7 
REMARK    3  A    between atoms: C4_9  and  C5_10 
REMARK    4  A    between atoms: N4_15  and  C6_16 
REMARK    5  A    between atoms: C6_16  and  C7_17 
REMARK    6  A    between atoms: C7_17  and  O3_18 
REMARK    7  A    between atoms: C7_17  and  C8_20 
REMARK    8  A    between atoms: C8_20  and  N5_21 
REMARK    9  A    between atoms: C12_28  and  C13_29 
REMARK   10  A    between atoms: C13_29  and  N7_30 
REMARK   11  A    between atoms: N10_35  and  O5_37 
ROOT
HETATM    1  C7  UNL     1     -15.307   6.645 -28.589  1.00  0.00     0.157 C 
ENDROOT
BRANCH   1   2
HETATM    2  C6  UNL     1     -14.978   7.138 -27.219  1.00  0.00     0.204 C 
BRANCH   2   3
HETATM    3  N4  UNL     1     -14.747   8.598 -27.316  1.00  0.00    -0.215 N 
HETATM    4  N3  UNL     1     -13.887   9.329 -26.638  1.00  0.00    -0.224 N 
HETATM    5  N2  UNL     1     -13.968  10.594 -26.997  1.00  0.00    -0.268 N 
ATOM      6  H3  UNL     1     -13.246   8.966 -25.932  1.00  0.00     0.210 HD
HETATM    7  C5  UNL     1     -14.915  10.675 -27.938  1.00  0.00     0.148 A 
ATOM      8  H2  UNL     1     -13.414  11.366 -26.627  1.00  0.00     0.190 HD
HETATM    9  N11 UNL     1     -15.382   9.433 -28.120  1.00  0.00    -0.266 N 
ATOM     10  H11 UNL     1     -16.115   9.171 -28.779  1.00  0.00     0.190 HD
BRANCH   7  11
HETATM   11  C4  UNL     1     -15.335  11.928 -28.627  1.00  0.00     0.019 A 
HETATM   12  C3  UNL     1     -15.180  13.166 -28.111  1.00  0.00     0.048 A 
HETATM   13  C2  UNL     1     -15.617  14.218 -28.863  1.00  0.00     0.120 A 
HETATM   14  S2  UNL     1     -16.230  13.474 -30.261  1.00  0.00    -0.087 SA
HETATM   15  C15 UNL     1     -15.921  11.846 -29.866  1.00  0.00     0.066 A 
BRANCH  13  16
HETATM   16  S1  UNL     1     -15.557  15.938 -28.471  1.00  0.00     0.265 S 
HETATM   17  O1  UNL     1     -16.026  16.692 -29.657  1.00  0.00    -0.200 OA
HETATM   18  O2  UNL     1     -14.169  16.357 -28.111  1.00  0.00    -0.200 OA
BRANCH  16  19
HETATM   19  N1  UNL     1     -16.612  16.198 -27.149  1.00  0.00    -0.319 N 
HETATM   20  C1  UNL     1     -17.222  17.495 -27.189  1.00  0.00     0.159 C 
ATOM     21  H1  UNL     1     -16.786  15.509 -26.417  1.00  0.00     0.171 HD
ENDBRANCH  16  19
ENDBRANCH  13  16
ENDBRANCH   7  11
ENDBRANCH   2   3
ENDBRANCH   1   2
BRANCH   1  22
HETATM   22  O3  UNL     1     -14.192   7.074 -29.393  1.00  0.00    -0.392 OA
ATOM     23  H3  UNL     1     -14.570   7.221 -30.252  1.00  0.00     0.210 HD
ENDBRANCH   1  22
BRANCH   1  24
HETATM   24  C8  UNL     1     -15.341   5.178 -28.781  1.00  0.00     0.160 C 
BRANCH  24  25
HETATM   25  N5  UNL     1     -16.008   4.359 -27.835  1.00  0.00    -0.335 N 
HETATM   26  C9  UNL     1     -17.435   4.328 -27.760  1.00  0.00     0.237 C 
HETATM   27  O4  UNL     1     -18.094   5.363 -27.983  1.00  0.00    -0.272 OA
HETATM   28  C10 UNL     1     -18.181   3.089 -27.422  1.00  0.00     0.217 C 
HETATM   29  N6  UNL     1     -17.360   2.107 -26.776  1.00  0.00    -0.411 N 
HETATM   30  C11 UNL     1     -15.981   2.091 -27.190  1.00  0.00     0.147 C 
ATOM     31  H6  UNL     1     -17.726   1.467 -26.072  1.00  0.00     0.153 HD
HETATM   32  C12 UNL     1     -15.321   3.460 -26.939  1.00  0.00     0.174 C 
BRANCH  32  33
HETATM   33  C13 UNL     1     -15.364   3.798 -25.522  1.00  0.00     0.128 C 
HETATM   34  N10 UNL     1     -14.532   3.275 -24.651  1.00  0.00    -0.255 N 
ATOM     35  H10 UNL     1     -14.605   3.545 -23.670  1.00  0.00     0.195 HD
BRANCH  33  36
HETATM   36  N7  UNL     1     -16.302   4.704 -24.966  1.00  0.00    -0.319 N 
HETATM   37  C14 UNL     1     -17.245   4.421 -24.169  1.00  0.00     0.202 C 
HETATM   38  N8  UNL     1     -17.525   3.114 -23.689  1.00  0.00    -0.066 NA
HETATM   39  N9  UNL     1     -18.081   5.512 -23.731  1.00  0.00    -0.066 NA
ATOM     40  H7  UNL     1     -16.208   5.683 -25.235  1.00  0.00     0.169 HD
ENDBRANCH  33  36
BRANCH  34  41
HETATM   41  O5  UNL     1     -13.566   2.375 -25.026  1.00  0.00    -0.288 OA
ATOM     42  H5  UNL     1     -13.380   1.598 -24.511  1.00  0.00     0.244 HD
ENDBRANCH  34  41
ENDBRANCH  32  33
ENDBRANCH  24  25
ENDBRANCH   1  24
TORSDOF 11
ENDMDL
