MODEL 1
REMARK VINA RESULT: -6.315343759      0.000      0.000
REMARK  12 active torsions:
REMARK  status: ('A' for Active; 'I' for Inactive)
REMARK       I    between atoms: N2_3  and  C2_5 
REMARK       I    between atoms: C2_5  and  N4_7 
REMARK    1  A    between atoms: N4_7  and  C3_9 
REMARK    2  A    between atoms: C4_14  and  S1_15 
REMARK    3  A    between atoms: S1_15  and  C5_16 
REMARK    4  A    between atoms: C5_16  and  C6_17 
REMARK    5  A    between atoms: C6_17  and  O1_18 
REMARK    6  A    between atoms: O1_18  and  N7_19 
REMARK    7  A    between atoms: N7_19  and  C7_21 
REMARK    8  A    between atoms: C7_21  and  C8_22 
REMARK       I    between atoms: C8_22  and  N8_24 
REMARK    9  A    between atoms: N8_24  and  C9_26 
REMARK   10  A    between atoms: C11_28  and  N9_29 
REMARK   11  A    between atoms: C14_34  and  N11_35 
REMARK   12  A    between atoms: C17_47  and  O3_48 
ROOT
HETATM    1  N1  UNL     1     -13.055  10.822 -25.948  1.00  0.00    -0.172 NA
HETATM    2  C1  UNL     1     -13.762  10.083 -26.511  1.00  0.00     0.184 C 
HETATM    3  N2  UNL     1     -14.589   9.191 -27.197  1.00  0.00    -0.267 N 
ATOM      4  H2  UNL     1     -15.577   9.399 -27.346  1.00  0.00     0.180 HD
HETATM    5  C2  UNL     1     -14.070   8.098 -27.634  1.00  0.00     0.215 C 
HETATM    6  N3  UNL     1     -12.702   7.801 -27.432  1.00  0.00    -0.062 NA
HETATM    7  N4  UNL     1     -14.920   7.207 -28.324  1.00  0.00    -0.161 N 
ATOM      8  H4  UNL     1     -15.002   6.253 -27.973  1.00  0.00     0.187 HD
ENDROOT
BRANCH   7   9
HETATM    9  C3  UNL     1     -15.602   7.531 -29.380  1.00  0.00     0.701 A 
HETATM   10  N5  UNL     1     -16.894   7.217 -29.564  1.00  0.00    -0.130 N 
HETATM   11  N6  UNL     1     -17.240   7.709 -30.739  1.00  0.00    -0.265 N 
ATOM     12  H5  UNL     1     -17.492   6.698 -28.922  1.00  0.00     0.205 HD
HETATM   13  C4  UNL     1     -16.218   8.338 -31.334  1.00  0.00     0.174 A 
ATOM     14  H6  UNL     1     -18.172   7.622 -31.143  1.00  0.00     0.189 HD
HETATM   15  N15 UNL     1     -15.172   8.216 -30.449  1.00  0.00    -0.168 N 
ATOM     16  H15 UNL     1     -14.231   8.584 -30.584  1.00  0.00     0.186 HD
BRANCH  13  17
HETATM   17  S1  UNL     1     -16.049   9.160 -32.883  1.00  0.00    -0.090 SA
BRANCH  17  18
HETATM   18  C5  UNL     1     -15.174   8.176 -34.090  1.00  0.00     0.111 C 
BRANCH  18  19
HETATM   19  C6  UNL     1     -14.422   9.029 -35.062  1.00  0.00     0.211 C 
BRANCH  19  20
HETATM   20  O1  UNL     1     -13.209   9.483 -34.563  1.00  0.00    -0.280 OA
BRANCH  20  21
HETATM   21  N7  UNL     1     -12.675  10.662 -34.888  1.00  0.00    -0.273 N 
ATOM     22  H7  UNL     1     -11.968  10.640 -35.622  1.00  0.00     0.193 HD
BRANCH  21  23
HETATM   23  C7  UNL     1     -12.926  11.784 -34.413  1.00  0.00     0.188 C 
BRANCH  23  24
HETATM   24  C8  UNL     1     -13.929  12.130 -33.466  1.00  0.00     0.259 C 
HETATM   25  O2  UNL     1     -15.070  12.512 -33.932  1.00  0.00    -0.267 OA
HETATM   26  N8  UNL     1     -13.760  12.082 -32.066  1.00  0.00    -0.347 N 
ATOM     27  H8  UNL     1     -12.877  11.788 -31.649  1.00  0.00     0.163 HD
BRANCH  26  28
HETATM   28  C9  UNL     1     -14.899  12.471 -31.237  1.00  0.00     0.144 C 
HETATM   29  C10 UNL     1     -14.817  13.917 -30.785  1.00  0.00     0.084 C 
HETATM   30  C11 UNL     1     -15.631  13.804 -29.507  1.00  0.00     0.298 C 
HETATM   31  N14 UNL     1     -14.966  12.701 -28.856  1.00  0.00    -0.025 N 
HETATM   32  C17 UNL     1     -14.926  11.712 -29.930  1.00  0.00     0.344 C 
ATOM     33 2H14 UNL     1     -14.064  12.923 -28.435  1.00  0.00     0.282 HD
ATOM     34 1H14 UNL     1     -15.397  12.384 -27.988  1.00  0.00     0.282 HD
BRANCH  30  35
HETATM   35  N9  UNL     1     -15.742  14.991 -28.750  1.00  0.00    -0.297 N 
HETATM   36  C12 UNL     1     -16.803  15.244 -27.929  1.00  0.00     0.187 A 
HETATM   37  N10 UNL     1     -16.638  16.443 -27.344  1.00  0.00    -0.346 N 
HETATM   38  C13 UNL     1     -15.477  16.980 -27.772  1.00  0.00     0.122 A 
ATOM     39  H10 UNL     1     -17.284  16.875 -26.684  1.00  0.00     0.167 HD
HETATM   40  C14 UNL     1     -14.801  18.157 -27.524  1.00  0.00     0.131 A 
HETATM   41  C16 UNL     1     -14.947  16.044 -28.650  1.00  0.00     0.142 A 
HETATM   42  N12 UNL     1     -13.629  18.383 -28.140  1.00  0.00    -0.337 N 
HETATM   43  C15 UNL     1     -13.116  17.462 -28.998  1.00  0.00     0.183 A 
ATOM     44  H12 UNL     1     -13.122  19.250 -27.964  1.00  0.00     0.168 HD
HETATM   45  N13 UNL     1     -13.767  16.310 -29.249  1.00  0.00    -0.336 N 
ATOM     46  H13 UNL     1     -13.365  15.633 -29.897  1.00  0.00     0.168 HD
BRANCH  40  47
HETATM   47  N11 UNL     1     -15.330  19.000 -26.701  1.00  0.00    -0.383 N 
ATOM     48 2H11 UNL     1     -16.068  18.741 -26.046  1.00  0.00     0.157 HD
ATOM     49 1H11 UNL     1     -14.989  19.961 -26.713  1.00  0.00     0.157 HD
ENDBRANCH  40  47
ENDBRANCH  30  35
BRANCH  32  50
HETATM   50  O3  UNL     1     -13.863  10.832 -29.802  1.00  0.00    -0.368 OA
ATOM     51  H3  UNL     1     -13.109  11.090 -30.320  1.00  0.00     0.212 HD
ENDBRANCH  32  50
ENDBRANCH  26  28
ENDBRANCH  23  24
ENDBRANCH  21  23
ENDBRANCH  20  21
ENDBRANCH  19  20
ENDBRANCH  18  19
ENDBRANCH  17  18
ENDBRANCH  13  17
ENDBRANCH   7   9
TORSDOF 12
ENDMDL
MODEL 2
REMARK VINA RESULT: -6.277929998      0.945      1.754
REMARK  12 active torsions:
REMARK  status: ('A' for Active; 'I' for Inactive)
REMARK       I    between atoms: N2_3  and  C2_5 
REMARK       I    between atoms: C2_5  and  N4_7 
REMARK    1  A    between atoms: N4_7  and  C3_9 
REMARK    2  A    between atoms: C4_14  and  S1_15 
REMARK    3  A    between atoms: S1_15  and  C5_16 
REMARK    4  A    between atoms: C5_16  and  C6_17 
REMARK    5  A    between atoms: C6_17  and  O1_18 
REMARK    6  A    between atoms: O1_18  and  N7_19 
REMARK    7  A    between atoms: N7_19  and  C7_21 
REMARK    8  A    between atoms: C7_21  and  C8_22 
REMARK       I    between atoms: C8_22  and  N8_24 
REMARK    9  A    between atoms: N8_24  and  C9_26 
REMARK   10  A    between atoms: C11_28  and  N9_29 
REMARK   11  A    between atoms: C14_34  and  N11_35 
REMARK   12  A    between atoms: C17_47  and  O3_48 
ROOT
HETATM    1  N1  UNL     1     -12.722  10.840 -25.943  1.00  0.00    -0.172 NA
HETATM    2  C1  UNL     1     -13.572  10.248 -26.481  1.00  0.00     0.184 C 
HETATM    3  N2  UNL     1     -14.572   9.528 -27.139  1.00  0.00    -0.267 N 
ATOM      4  H2  UNL     1     -15.504   9.922 -27.268  1.00  0.00     0.180 HD
HETATM    5  C2  UNL     1     -14.284   8.353 -27.576  1.00  0.00     0.215 C 
HETATM    6  N3  UNL     1     -12.994   7.799 -27.402  1.00  0.00    -0.062 NA
HETATM    7  N4  UNL     1     -15.306   7.638 -28.236  1.00  0.00    -0.161 N 
ATOM      8  H4  UNL     1     -15.563   6.721 -27.873  1.00  0.00     0.187 HD
ENDROOT
BRANCH   7   9
HETATM    9  C3  UNL     1     -15.938   8.082 -29.280  1.00  0.00     0.701 A 
HETATM   10  N5  UNL     1     -17.229   8.452 -29.274  1.00  0.00    -0.130 N 
HETATM   11  N6  UNL     1     -17.516   8.843 -30.501  1.00  0.00    -0.265 N 
ATOM     12  H5  UNL     1     -17.864   8.433 -28.477  1.00  0.00     0.205 HD
HETATM   13  C4  UNL     1     -16.457   8.744 -31.315  1.00  0.00     0.174 A 
ATOM     14  H6  UNL     1     -18.433   9.181 -30.794  1.00  0.00     0.189 HD
HETATM   15  N15 UNL     1     -15.451   8.254 -30.517  1.00  0.00    -0.168 N 
ATOM     16  H15 UNL     1     -14.496   8.055 -30.815  1.00  0.00     0.186 HD
BRANCH  13  17
HETATM   17  S1  UNL     1     -16.219   9.083 -33.027  1.00  0.00    -0.090 SA
BRANCH  17  18
HETATM   18  C5  UNL     1     -14.519   8.880 -33.538  1.00  0.00     0.111 C 
BRANCH  18  19
HETATM   19  C6  UNL     1     -14.282   9.430 -34.909  1.00  0.00     0.211 C 
BRANCH  19  20
HETATM   20  O1  UNL     1     -12.972   9.842 -35.110  1.00  0.00    -0.280 OA
BRANCH  20  21
HETATM   21  N7  UNL     1     -12.625  11.116 -35.305  1.00  0.00    -0.273 N 
ATOM     22  H7  UNL     1     -12.300  11.347 -36.244  1.00  0.00     0.193 HD
BRANCH  21  23
HETATM   23  C7  UNL     1     -12.646  12.059 -34.494  1.00  0.00     0.188 C 
BRANCH  23  24
HETATM   24  C8  UNL     1     -13.678  12.403 -33.578  1.00  0.00     0.259 C 
HETATM   25  O2  UNL     1     -14.736  12.956 -34.067  1.00  0.00    -0.267 OA
HETATM   26  N8  UNL     1     -13.621  12.182 -32.186  1.00  0.00    -0.347 N 
ATOM     27  H8  UNL     1     -12.806  11.749 -31.751  1.00  0.00     0.163 HD
BRANCH  26  28
HETATM   28  C9  UNL     1     -14.775  12.597 -31.391  1.00  0.00     0.144 C 
HETATM   29  C10 UNL     1     -14.645  14.020 -30.883  1.00  0.00     0.084 C 
HETATM   30  C11 UNL     1     -15.516  13.903 -29.644  1.00  0.00     0.298 C 
HETATM   31  N14 UNL     1     -14.932  12.747 -29.007  1.00  0.00    -0.025 N 
HETATM   32  C17 UNL     1     -14.893  11.795 -30.114  1.00  0.00     0.344 C 
ATOM     33 2H14 UNL     1     -14.039  12.911 -28.542  1.00  0.00     0.282 HD
ATOM     34 1H14 UNL     1     -15.415  12.422 -28.169  1.00  0.00     0.282 HD
BRANCH  30  35
HETATM   35  N9  UNL     1     -15.604  15.067 -28.850  1.00  0.00    -0.297 N 
HETATM   36  C12 UNL     1     -14.507  15.786 -28.473  1.00  0.00     0.187 A 
HETATM   37  N10 UNL     1     -14.896  16.834 -27.726  1.00  0.00    -0.346 N 
HETATM   38  C13 UNL     1     -16.239  16.810 -27.608  1.00  0.00     0.122 A 
ATOM     39  H10 UNL     1     -14.277  17.533 -27.316  1.00  0.00     0.167 HD
HETATM   40  C14 UNL     1     -17.174  17.605 -26.977  1.00  0.00     0.131 A 
HETATM   41  C16 UNL     1     -16.645  15.691 -28.323  1.00  0.00     0.142 A 
HETATM   42  N12 UNL     1     -18.475  17.283 -27.063  1.00  0.00    -0.337 N 
HETATM   43  C15 UNL     1     -18.866  16.186 -27.765  1.00  0.00     0.183 A 
ATOM     44  H12 UNL     1     -19.174  17.863 -26.600  1.00  0.00     0.168 HD
HETATM   45  N13 UNL     1     -17.963  15.402 -28.385  1.00  0.00    -0.336 N 
ATOM     46  H13 UNL     1     -18.277  14.584 -28.905  1.00  0.00     0.168 HD
BRANCH  40  47
HETATM   47  N11 UNL     1     -16.753  18.636 -26.323  1.00  0.00    -0.383 N 
ATOM     48 2H11 UNL     1     -16.126  18.562 -25.522  1.00  0.00     0.157 HD
ATOM     49 1H11 UNL     1     -17.065  19.558 -26.629  1.00  0.00     0.157 HD
ENDBRANCH  40  47
ENDBRANCH  30  35
BRANCH  32  50
HETATM   50  O3  UNL     1     -13.879  10.860 -29.975  1.00  0.00    -0.368 OA
ATOM     51  H3  UNL     1     -13.120  11.060 -30.512  1.00  0.00     0.212 HD
ENDBRANCH  32  50
ENDBRANCH  26  28
ENDBRANCH  23  24
ENDBRANCH  21  23
ENDBRANCH  20  21
ENDBRANCH  19  20
ENDBRANCH  18  19
ENDBRANCH  17  18
ENDBRANCH  13  17
ENDBRANCH   7   9
TORSDOF 12
ENDMDL
MODEL 3
REMARK VINA RESULT: -6.243885265      4.578      6.690
REMARK  12 active torsions:
REMARK  status: ('A' for Active; 'I' for Inactive)
REMARK       I    between atoms: N2_3  and  C2_5 
REMARK       I    between atoms: C2_5  and  N4_7 
REMARK    1  A    between atoms: N4_7  and  C3_9 
REMARK    2  A    between atoms: C4_14  and  S1_15 
REMARK    3  A    between atoms: S1_15  and  C5_16 
REMARK    4  A    between atoms: C5_16  and  C6_17 
REMARK    5  A    between atoms: C6_17  and  O1_18 
REMARK    6  A    between atoms: O1_18  and  N7_19 
REMARK    7  A    between atoms: N7_19  and  C7_21 
REMARK    8  A    between atoms: C7_21  and  C8_22 
REMARK       I    between atoms: C8_22  and  N8_24 
REMARK    9  A    between atoms: N8_24  and  C9_26 
REMARK   10  A    between atoms: C11_28  and  N9_29 
REMARK   11  A    between atoms: C14_34  and  N11_35 
REMARK   12  A    between atoms: C17_47  and  O3_48 
ROOT
HETATM    1  N1  UNL     1     -13.503   3.037 -22.913  1.00  0.00    -0.172 NA
HETATM    2  C1  UNL     1     -14.631   3.254 -23.123  1.00  0.00     0.184 C 
HETATM    3  N2  UNL     1     -15.981   3.494 -23.387  1.00  0.00    -0.267 N 
ATOM      4  H2  UNL     1     -16.355   4.443 -23.392  1.00  0.00     0.180 HD
HETATM    5  C2  UNL     1     -16.741   2.483 -23.625  1.00  0.00     0.215 C 
HETATM    6  N3  UNL     1     -16.231   1.163 -23.621  1.00  0.00    -0.062 NA
HETATM    7  N4  UNL     1     -18.102   2.743 -23.889  1.00  0.00    -0.161 N 
ATOM      8  H4  UNL     1     -18.801   2.293 -23.298  1.00  0.00     0.187 HD
ENDROOT
BRANCH   7   9
HETATM    9  C3  UNL     1     -18.517   3.522 -24.841  1.00  0.00     0.701 A 
HETATM   10  N5  UNL     1     -18.708   4.843 -24.699  1.00  0.00    -0.130 N 
HETATM   11  N6  UNL     1     -19.126   5.293 -25.867  1.00  0.00    -0.265 N 
ATOM     12  H5  UNL     1     -18.559   5.393 -23.853  1.00  0.00     0.205 HD
HETATM   13  C4  UNL     1     -19.216   4.312 -26.774  1.00  0.00     0.174 A 
ATOM     14  H6  UNL     1     -19.353   6.270 -26.057  1.00  0.00     0.189 HD
HETATM   15  N15 UNL     1     -18.821   3.180 -26.101  1.00  0.00    -0.168 N 
ATOM     16  H15 UNL     1     -18.769   2.240 -26.493  1.00  0.00     0.186 HD
BRANCH  13  17
HETATM   17  S1  UNL     1     -19.723   4.275 -28.461  1.00  0.00    -0.090 SA
BRANCH  17  18
HETATM   18  C5  UNL     1     -18.360   4.505 -29.593  1.00  0.00     0.111 C 
BRANCH  18  19
HETATM   19  C6  UNL     1     -17.532   3.266 -29.724  1.00  0.00     0.211 C 
BRANCH  19  20
HETATM   20  O1  UNL     1     -16.805   2.974 -28.579  1.00  0.00    -0.280 OA
BRANCH  20  21
HETATM   21  N7  UNL     1     -15.711   3.645 -28.212  1.00  0.00    -0.273 N 
ATOM     22  H7  UNL     1     -14.928   3.608 -28.864  1.00  0.00     0.193 HD
BRANCH  21  23
HETATM   23  C7  UNL     1     -15.521   4.310 -27.178  1.00  0.00     0.188 C 
BRANCH  23  24
HETATM   24  C8  UNL     1     -15.629   5.718 -27.010  1.00  0.00     0.259 C 
HETATM   25  O2  UNL     1     -16.320   6.138 -26.004  1.00  0.00    -0.267 OA
HETATM   26  N8  UNL     1     -15.037   6.675 -27.860  1.00  0.00    -0.347 N 
ATOM     27  H8  UNL     1     -14.483   6.394 -28.669  1.00  0.00     0.163 HD
BRANCH  26  28
HETATM   28  C9  UNL     1     -15.248   8.085 -27.538  1.00  0.00     0.144 C 
HETATM   29  C10 UNL     1     -15.751   8.880 -28.727  1.00  0.00     0.084 C 
HETATM   30  C11 UNL     1     -15.219  10.247 -28.332  1.00  0.00     0.298 C 
HETATM   31  N14 UNL     1     -13.833   9.938 -28.077  1.00  0.00    -0.025 N 
HETATM   32  C17 UNL     1     -13.951   8.781 -27.193  1.00  0.00     0.344 C 
ATOM     33 2H14 UNL     1     -13.259   9.794 -28.908  1.00  0.00     0.282 HD
ATOM     34 1H14 UNL     1     -13.274  10.710 -27.712  1.00  0.00     0.282 HD
BRANCH  30  35
HETATM   35  N9  UNL     1     -15.460  11.285 -29.258  1.00  0.00    -0.297 N 
HETATM   36  C12 UNL     1     -15.865  11.049 -30.539  1.00  0.00     0.187 A 
HETATM   37  N10 UNL     1     -16.012  12.221 -31.183  1.00  0.00    -0.346 N 
HETATM   38  C13 UNL     1     -15.707  13.225 -30.336  1.00  0.00     0.122 A 
ATOM     39  H10 UNL     1     -16.306  12.332 -32.153  1.00  0.00     0.167 HD
HETATM   40  C14 UNL     1     -15.676  14.601 -30.430  1.00  0.00     0.131 A 
HETATM   41  C16 UNL     1     -15.366  12.600 -29.143  1.00  0.00     0.142 A 
HETATM   42  N12 UNL     1     -15.313  15.324 -29.359  1.00  0.00    -0.337 N 
HETATM   43  C15 UNL     1     -14.981  14.707 -28.194  1.00  0.00     0.183 A 
ATOM     44  H12 UNL     1     -15.286  16.342 -29.418  1.00  0.00     0.168 HD
HETATM   45  N13 UNL     1     -15.007  13.364 -28.090  1.00  0.00    -0.336 N 
ATOM     46  H13 UNL     1     -14.753  12.921 -27.207  1.00  0.00     0.168 HD
BRANCH  40  47
HETATM   47  N11 UNL     1     -16.001  15.140 -31.558  1.00  0.00    -0.383 N 
ATOM     48 2H11 UNL     1     -16.883  15.631 -31.700  1.00  0.00     0.157 HD
ATOM     49 1H11 UNL     1     -15.341  15.066 -32.332  1.00  0.00     0.157 HD
ENDBRANCH  40  47
ENDBRANCH  30  35
BRANCH  32  50
HETATM   50  O3  UNL     1     -12.854   7.937 -27.273  1.00  0.00    -0.368 OA
ATOM     51  H3  UNL     1     -12.791   7.348 -26.529  1.00  0.00     0.212 HD
ENDBRANCH  32  50
ENDBRANCH  26  28
ENDBRANCH  23  24
ENDBRANCH  21  23
ENDBRANCH  20  21
ENDBRANCH  19  20
ENDBRANCH  18  19
ENDBRANCH  17  18
ENDBRANCH  13  17
ENDBRANCH   7   9
TORSDOF 12
ENDMDL
MODEL 4
REMARK VINA RESULT: -6.229181851      5.540     10.420
REMARK  12 active torsions:
REMARK  status: ('A' for Active; 'I' for Inactive)
REMARK       I    between atoms: N2_3  and  C2_5 
REMARK       I    between atoms: C2_5  and  N4_7 
REMARK    1  A    between atoms: N4_7  and  C3_9 
REMARK    2  A    between atoms: C4_14  and  S1_15 
REMARK    3  A    between atoms: S1_15  and  C5_16 
REMARK    4  A    between atoms: C5_16  and  C6_17 
REMARK    5  A    between atoms: C6_17  and  O1_18 
REMARK    6  A    between atoms: O1_18  and  N7_19 
REMARK    7  A    between atoms: N7_19  and  C7_21 
REMARK    8  A    between atoms: C7_21  and  C8_22 
REMARK       I    between atoms: C8_22  and  N8_24 
REMARK    9  A    between atoms: N8_24  and  C9_26 
REMARK   10  A    between atoms: C11_28  and  N9_29 
REMARK   11  A    between atoms: C14_34  and  N11_35 
REMARK   12  A    between atoms: C17_47  and  O3_48 
ROOT
HETATM    1  N1  UNL     1     -12.626  11.067 -25.959  1.00  0.00    -0.172 NA
HETATM    2  C1  UNL     1     -13.397  10.293 -26.370  1.00  0.00     0.184 C 
HETATM    3  N2  UNL     1     -14.302   9.358 -26.877  1.00  0.00    -0.267 N 
ATOM      4  H2  UNL     1     -15.305   9.547 -26.882  1.00  0.00     0.180 HD
HETATM    5  C2  UNL     1     -13.836   8.251 -27.338  1.00  0.00     0.215 C 
HETATM    6  N3  UNL     1     -12.447   7.981 -27.337  1.00  0.00    -0.062 NA
HETATM    7  N4  UNL     1     -14.763   7.317 -27.846  1.00  0.00    -0.161 N 
ATOM      8  H4  UNL     1     -14.773   6.381 -27.442  1.00  0.00     0.187 HD
ENDROOT
BRANCH   7   9
HETATM    9  C3  UNL     1     -15.606   7.581 -28.798  1.00  0.00     0.701 A 
HETATM   10  N5  UNL     1     -16.913   7.815 -28.599  1.00  0.00    -0.130 N 
HETATM   11  N6  UNL     1     -17.442   8.044 -29.786  1.00  0.00    -0.265 N 
ATOM     12  H5  UNL     1     -17.402   7.815 -27.704  1.00  0.00     0.205 HD
HETATM   13  C4  UNL     1     -16.526   7.969 -30.761  1.00  0.00     0.174 A 
ATOM     14  H6  UNL     1     -18.428   8.253 -29.943  1.00  0.00     0.189 HD
HETATM   15  N15 UNL     1     -15.351   7.672 -30.111  1.00  0.00    -0.168 N 
ATOM     16  H15 UNL     1     -14.441   7.541 -30.553  1.00  0.00     0.186 HD
BRANCH  13  17
HETATM   17  S1  UNL     1     -16.614   8.148 -32.511  1.00  0.00    -0.090 SA
BRANCH  17  18
HETATM   18  C5  UNL     1     -17.178   6.663 -33.327  1.00  0.00     0.111 C 
BRANCH  18  19
HETATM   19  C6  UNL     1     -18.201   5.936 -32.512  1.00  0.00     0.211 C 
BRANCH  19  20
HETATM   20  O1  UNL     1     -18.143   4.558 -32.670  1.00  0.00    -0.280 OA
BRANCH  20  21
HETATM   21  N7  UNL     1     -17.732   3.725 -31.712  1.00  0.00    -0.273 N 
ATOM     22  H7  UNL     1     -17.072   3.005 -32.005  1.00  0.00     0.193 HD
BRANCH  21  23
HETATM   23  C7  UNL     1     -18.048   3.712 -30.509  1.00  0.00     0.188 C 
BRANCH  23  24
HETATM   24  C8  UNL     1     -17.242   4.050 -29.388  1.00  0.00     0.259 C 
HETATM   25  O2  UNL     1     -16.031   4.426 -29.628  1.00  0.00    -0.267 OA
HETATM   26  N8  UNL     1     -17.674   4.004 -28.046  1.00  0.00    -0.347 N 
ATOM     27  H8  UNL     1     -18.621   3.713 -27.804  1.00  0.00     0.163 HD
BRANCH  26  28
HETATM   28  C9  UNL     1     -16.712   4.389 -27.015  1.00  0.00     0.144 C 
HETATM   29  C10 UNL     1     -16.214   3.199 -26.217  1.00  0.00     0.084 C 
HETATM   30  C11 UNL     1     -15.868   3.918 -24.923  1.00  0.00     0.298 C 
HETATM   31  N14 UNL     1     -17.100   4.623 -24.665  1.00  0.00    -0.025 N 
HETATM   32  C17 UNL     1     -17.346   5.262 -25.955  1.00  0.00     0.344 C 
ATOM     33 2H14 UNL     1     -17.865   4.048 -24.311  1.00  0.00     0.282 HD
ATOM     34 1H14 UNL     1     -17.080   5.254 -23.863  1.00  0.00     0.282 HD
BRANCH  30  35
HETATM   35  N9  UNL     1     -15.395   3.096 -23.878  1.00  0.00    -0.297 N 
HETATM   36  C12 UNL     1     -14.100   3.121 -23.449  1.00  0.00     0.187 A 
HETATM   37  N10 UNL     1     -13.944   2.236 -22.449  1.00  0.00    -0.346 N 
HETATM   38  C13 UNL     1     -15.125   1.629 -22.216  1.00  0.00     0.122 A 
ATOM     39  H10 UNL     1     -13.074   2.054 -21.949  1.00  0.00     0.167 HD
HETATM   40  C14 UNL     1     -15.565   0.661 -21.337  1.00  0.00     0.131 A 
HETATM   41  C16 UNL     1     -16.007   2.193 -23.129  1.00  0.00     0.142 A 
HETATM   42  N12 UNL     1     -16.850   0.273 -21.376  1.00  0.00    -0.337 N 
HETATM   43  C15 UNL     1     -17.707   0.829 -22.272  1.00  0.00     0.183 A 
ATOM     44  H12 UNL     1     -17.184  -0.443 -20.731  1.00  0.00     0.168 HD
HETATM   45  N13 UNL     1     -17.291   1.774 -23.136  1.00  0.00    -0.336 N 
ATOM     46  H13 UNL     1     -17.951   2.177 -23.800  1.00  0.00     0.168 HD
BRANCH  40  47
HETATM   47  N11 UNL     1     -14.711   0.164 -20.505  1.00  0.00    -0.383 N 
ATOM     48 2H11 UNL     1     -14.497   0.600 -19.608  1.00  0.00     0.157 HD
ATOM     49 1H11 UNL     1     -14.236  -0.701 -20.765  1.00  0.00     0.157 HD
ENDBRANCH  40  47
ENDBRANCH  30  35
BRANCH  32  50
HETATM   50  O3  UNL     1     -18.693   5.490 -26.187  1.00  0.00    -0.368 OA
ATOM     51  H3  UNL     1     -18.970   5.205 -27.051  1.00  0.00     0.212 HD
ENDBRANCH  32  50
ENDBRANCH  26  28
ENDBRANCH  23  24
ENDBRANCH  21  23
ENDBRANCH  20  21
ENDBRANCH  19  20
ENDBRANCH  18  19
ENDBRANCH  17  18
ENDBRANCH  13  17
ENDBRANCH   7   9
TORSDOF 12
ENDMDL
MODEL 5
REMARK VINA RESULT: -6.200783100      4.846      9.509
REMARK  12 active torsions:
REMARK  status: ('A' for Active; 'I' for Inactive)
REMARK       I    between atoms: N2_3  and  C2_5 
REMARK       I    between atoms: C2_5  and  N4_7 
REMARK    1  A    between atoms: N4_7  and  C3_9 
REMARK    2  A    between atoms: C4_14  and  S1_15 
REMARK    3  A    between atoms: S1_15  and  C5_16 
REMARK    4  A    between atoms: C5_16  and  C6_17 
REMARK    5  A    between atoms: C6_17  and  O1_18 
REMARK    6  A    between atoms: O1_18  and  N7_19 
REMARK    7  A    between atoms: N7_19  and  C7_21 
REMARK    8  A    between atoms: C7_21  and  C8_22 
REMARK       I    between atoms: C8_22  and  N8_24 
REMARK    9  A    between atoms: N8_24  and  C9_26 
REMARK   10  A    between atoms: C11_28  and  N9_29 
REMARK   11  A    between atoms: C14_34  and  N11_35 
REMARK   12  A    between atoms: C17_47  and  O3_48 
ROOT
HETATM    1  N1  UNL     1     -12.638  10.891 -25.948  1.00  0.00    -0.172 NA
HETATM    2  C1  UNL     1     -13.505  10.328 -26.490  1.00  0.00     0.184 C 
HETATM    3  N2  UNL     1     -14.527   9.641 -27.150  1.00  0.00    -0.267 N 
ATOM      4  H2  UNL     1     -15.431  10.082 -27.321  1.00  0.00     0.180 HD
HETATM    5  C2  UNL     1     -14.296   8.436 -27.536  1.00  0.00     0.215 C 
HETATM    6  N3  UNL     1     -13.045   7.816 -27.303  1.00  0.00    -0.062 NA
HETATM    7  N4  UNL     1     -15.339   7.756 -28.200  1.00  0.00    -0.161 N 
ATOM      8  H4  UNL     1     -15.658   6.869 -27.812  1.00  0.00     0.187 HD
ENDROOT
BRANCH   7   9
HETATM    9  C3  UNL     1     -15.915   8.195 -29.277  1.00  0.00     0.701 A 
HETATM   10  N5  UNL     1     -15.640   7.744 -30.512  1.00  0.00    -0.130 N 
HETATM   11  N6  UNL     1     -16.414   8.418 -31.342  1.00  0.00    -0.265 N 
ATOM     12  H5  UNL     1     -14.965   7.022 -30.760  1.00  0.00     0.205 HD
HETATM   13  C4  UNL     1     -17.189   9.298 -30.695  1.00  0.00     0.174 A 
ATOM     14  H6  UNL     1     -16.420   8.284 -32.353  1.00  0.00     0.189 HD
HETATM   15  N15 UNL     1     -16.858   9.143 -29.370  1.00  0.00    -0.168 N 
ATOM     16  H15 UNL     1     -17.262   9.661 -28.589  1.00  0.00     0.186 HD
BRANCH  13  17
HETATM   17  S1  UNL     1     -18.385  10.473 -31.235  1.00  0.00    -0.090 SA
BRANCH  17  18
HETATM   18  C5  UNL     1     -18.307  12.004 -30.317  1.00  0.00     0.111 C 
BRANCH  18  19
HETATM   19  C6  UNL     1     -19.160  11.959 -29.089  1.00  0.00     0.211 C 
BRANCH  19  20
HETATM   20  O1  UNL     1     -19.498  10.668 -28.709  1.00  0.00    -0.280 OA
BRANCH  20  21
HETATM   21  N7  UNL     1     -20.747  10.285 -28.436  1.00  0.00    -0.273 N 
ATOM     22  H7  UNL     1     -21.477  10.730 -28.992  1.00  0.00     0.193 HD
BRANCH  21  23
HETATM   23  C7  UNL     1     -21.138   9.458 -27.593  1.00  0.00     0.188 C 
BRANCH  23  24
HETATM   24  C8  UNL     1     -20.681   8.126 -27.397  1.00  0.00     0.259 C 
HETATM   25  O2  UNL     1     -21.265   7.435 -26.476  1.00  0.00    -0.267 OA
HETATM   26  N8  UNL     1     -19.645   7.516 -28.134  1.00  0.00    -0.347 N 
ATOM     27  H8  UNL     1     -19.152   8.019 -28.871  1.00  0.00     0.163 HD
BRANCH  26  28
HETATM   28  C9  UNL     1     -19.304   6.134 -27.801  1.00  0.00     0.144 C 
HETATM   29  C10 UNL     1     -18.298   6.044 -26.670  1.00  0.00     0.084 C 
HETATM   30  C11 UNL     1     -17.670   4.707 -27.026  1.00  0.00     0.298 C 
HETATM   31  N14 UNL     1     -17.332   4.924 -28.412  1.00  0.00    -0.025 N 
HETATM   32  C17 UNL     1     -18.591   5.443 -28.940  1.00  0.00     0.344 C 
ATOM     33 2H14 UNL     1     -16.516   5.515 -28.573  1.00  0.00     0.282 HD
ATOM     34 1H14 UNL     1     -16.955   4.112 -28.901  1.00  0.00     0.282 HD
BRANCH  30  35
HETATM   35  N9  UNL     1     -16.613   4.289 -26.190  1.00  0.00    -0.297 N 
HETATM   36  C12 UNL     1     -15.322   4.690 -26.380  1.00  0.00     0.187 A 
HETATM   37  N10 UNL     1     -14.540   4.135 -25.437  1.00  0.00    -0.346 N 
HETATM   38  C13 UNL     1     -15.304   3.373 -24.630  1.00  0.00     0.122 A 
ATOM     39  H10 UNL     1     -13.533   4.269 -25.348  1.00  0.00     0.167 HD
HETATM   40  C14 UNL     1     -15.065   2.585 -23.522  1.00  0.00     0.131 A 
HETATM   41  C16 UNL     1     -16.593   3.494 -25.133  1.00  0.00     0.142 A 
HETATM   42  N12 UNL     1     -16.090   1.940 -22.941  1.00  0.00    -0.337 N 
HETATM   43  C15 UNL     1     -17.349   2.063 -23.439  1.00  0.00     0.183 A 
ATOM     44  H12 UNL     1     -15.923   1.355 -22.123  1.00  0.00     0.168 HD
HETATM   45  N13 UNL     1     -17.595   2.828 -24.519  1.00  0.00    -0.336 N 
ATOM     46  H13 UNL     1     -18.547   2.906 -24.877  1.00  0.00     0.168 HD
BRANCH  40  47
HETATM   47  N11 UNL     1     -13.852   2.501 -23.088  1.00  0.00    -0.383 N 
ATOM     48 2H11 UNL     1     -13.086   3.044 -23.486  1.00  0.00     0.157 HD
ATOM     49 1H11 UNL     1     -13.662   1.863 -22.316  1.00  0.00     0.157 HD
ENDBRANCH  40  47
ENDBRANCH  30  35
BRANCH  32  50
HETATM   50  O3  UNL     1     -18.406   6.271 -30.036  1.00  0.00    -0.368 OA
ATOM     51  H3  UNL     1     -18.917   6.001 -30.791  1.00  0.00     0.212 HD
ENDBRANCH  32  50
ENDBRANCH  26  28
ENDBRANCH  23  24
ENDBRANCH  21  23
ENDBRANCH  20  21
ENDBRANCH  19  20
ENDBRANCH  18  19
ENDBRANCH  17  18
ENDBRANCH  13  17
ENDBRANCH   7   9
TORSDOF 12
ENDMDL
