MODEL 1
REMARK VINA RESULT: -6.530147411      0.000      0.000
REMARK  15 active torsions:
REMARK  status: ('A' for Active; 'I' for Inactive)
REMARK    1  A    between atoms: O1_2  and  C2_3 
REMARK    2  A    between atoms: C2_3  and  C3_5 
REMARK    3  A    between atoms: C3_5  and  N1_7 
REMARK    4  A    between atoms: C3_5  and  C5_11 
REMARK       I    between atoms: C5_11  and  N2_13 
REMARK    5  A    between atoms: N2_13  and  N3_15 
REMARK    6  A    between atoms: N3_15  and  C6_17 
REMARK    7  A    between atoms: C6_17  and  O4_18 
REMARK    8  A    between atoms: C6_17  and  C7_20 
REMARK    9  A    between atoms: C9_28  and  C10_29 
REMARK   10  A    between atoms: C10_29  and  S1_30 
REMARK   11  A    between atoms: S1_30  and  C11_31 
REMARK   12  A    between atoms: N10_38  and  C12_39 
REMARK   13  A    between atoms: C12_39  and  C13_40 
REMARK   14  A    between atoms: C13_40  and  C14_41 
REMARK   15  A    between atoms: C14_41  and  N11_42 
ROOT
HETATM    1  C7  UNL     1     -14.725   8.004 -27.996  1.00  0.00     0.209 C 
HETATM    2  N4  UNL     1     -14.369   9.136 -27.130  1.00  0.00    -0.212 N 
ATOM      3  H4  UNL     1     -13.995   9.104 -26.181  1.00  0.00     0.178 HD
HETATM    4  C8  UNL     1     -14.663  10.290 -27.916  1.00  0.00     0.672 C 
HETATM    5  N5  UNL     1     -14.437  11.496 -27.501  1.00  0.00    -0.235 N 
ATOM      6  H51 UNL     1     -14.647  12.321 -28.063  1.00  0.00     0.174 HD
ATOM      7  H52 UNL     1     -14.038  11.798 -26.611  1.00  0.00     0.174 HD
HETATM    8  N6  UNL     1     -15.230   9.859 -29.183  1.00  0.00    -0.196 N 
HETATM    9  C9  UNL     1     -15.375  10.279 -30.531  1.00  0.00     0.122 C 
HETATM   10  C15 UNL     1     -15.287   9.104 -31.473  1.00  0.00     0.102 C 
HETATM   11  S2  UNL     1     -15.989   7.782 -30.457  1.00  0.00    -0.138 SA
HETATM   12  C16 UNL     1     -15.805   8.570 -28.842  1.00  0.00     0.196 C 
ENDROOT
BRANCH   1  13
HETATM   13  C6  UNL     1     -15.075   6.839 -27.230  1.00  0.00     0.157 C 
BRANCH  13  14
HETATM   14  N3  UNL     1     -16.198   6.039 -27.354  1.00  0.00    -0.279 N 
ATOM     15  H3  UNL     1     -17.062   6.320 -26.890  1.00  0.00     0.189 HD
BRANCH  14  16
HETATM   16  N2  UNL     1     -16.177   4.834 -28.111  1.00  0.00    -0.266 N 
HETATM   17  C5  UNL     1     -15.489   3.688 -27.690  1.00  0.00     0.282 C 
HETATM   18  O3  UNL     1     -14.841   3.719 -26.609  1.00  0.00    -0.268 OA
ATOM     19  H2  UNL     1     -16.683   4.803 -28.995  1.00  0.00     0.190 HD
BRANCH  17  20
HETATM   20  C3  UNL     1     -15.541   2.464 -28.527  1.00  0.00     0.287 C 
HETATM   21  C4  UNL     1     -16.310   1.366 -27.767  1.00  0.00     0.068 C 
BRANCH  20  22
HETATM   22  C2  UNL     1     -14.195   1.927 -28.799  1.00  0.00     0.304 C 
HETATM   23  O2  UNL     1     -13.427   2.505 -29.610  1.00  0.00    -0.262 OA
BRANCH  22  24
HETATM   24  O1  UNL     1     -13.711   0.774 -28.186  1.00  0.00    -0.324 OA
HETATM   25  C1  UNL     1     -12.333   0.640 -27.861  1.00  0.00     0.213 C 
ENDBRANCH  22  24
ENDBRANCH  20  22
BRANCH  20  26
HETATM   26  N1  UNL     1     -16.292   2.696 -29.751  1.00  0.00    -0.052 N 
ATOM     27  H13 UNL     1     -17.052   3.359 -29.601  1.00  0.00     0.276 HD
ATOM     28  H12 UNL     1     -15.745   3.229 -30.427  1.00  0.00     0.276 HD
ATOM     29  H11 UNL     1     -16.635   1.826 -30.158  1.00  0.00     0.276 HD
ENDBRANCH  20  26
ENDBRANCH  17  20
ENDBRANCH  14  16
ENDBRANCH  13  14
BRANCH  13  30
HETATM   30  O4  UNL     1     -14.212   6.511 -26.300  1.00  0.00    -0.347 OA
ATOM     31  H4  UNL     1     -14.531   5.963 -25.593  1.00  0.00     0.219 HD
ENDBRANCH  13  30
ENDBRANCH   1  13
BRANCH   9  32
HETATM   32  C10 UNL     1     -14.201  11.203 -30.849  1.00  0.00     0.109 C 
BRANCH  32  33
HETATM   33  S1  UNL     1     -14.600  12.625 -31.838  1.00  0.00    -0.089 SA
BRANCH  33  34
HETATM   34  C11 UNL     1     -13.905  14.156 -31.218  1.00  0.00     0.178 A 
HETATM   35  N7  UNL     1     -12.865  14.868 -31.656  1.00  0.00    -0.263 N 
HETATM   36  N8  UNL     1     -12.703  15.920 -30.894  1.00  0.00    -0.226 N 
ATOM     37  H7  UNL     1     -12.286  14.629 -32.461  1.00  0.00     0.190 HD
HETATM   38  N9  UNL     1     -13.648  15.869 -29.969  1.00  0.00    -0.224 N 
ATOM     39  H8  UNL     1     -11.986  16.639 -30.993  1.00  0.00     0.210 HD
HETATM   40  N10 UNL     1     -14.408  14.811 -30.124  1.00  0.00    -0.254 N 
ATOM     41  H9  UNL     1     -13.770  16.563 -29.231  1.00  0.00     0.210 HD
BRANCH  40  42
HETATM   42  C12 UNL     1     -15.580  14.380 -29.371  1.00  0.00     0.154 C 
BRANCH  42  43
HETATM   43  C13 UNL     1     -15.566  14.903 -27.968  1.00  0.00     0.049 C 
BRANCH  43  44
HETATM   44  C14 UNL     1     -16.904  15.545 -27.663  1.00  0.00     0.231 C 
BRANCH  44  45
HETATM   45  N11 UNL     1     -16.749  16.773 -26.972  1.00  0.00    -0.079 N 
ATOM     46 3H11 UNL     1     -16.152  16.666 -26.152  1.00  0.00     0.274 HD
ATOM     47 2H11 UNL     1     -16.175  17.428 -27.502  1.00  0.00     0.274 HD
ATOM     48 1H11 UNL     1     -17.650  17.183 -26.726  1.00  0.00     0.274 HD
ENDBRANCH  44  45
ENDBRANCH  43  44
ENDBRANCH  42  43
ENDBRANCH  40  42
ENDBRANCH  33  34
ENDBRANCH  32  33
ENDBRANCH   9  32
TORSDOF 15
ENDMDL
MODEL 2
REMARK VINA RESULT: -6.400139280      1.351      2.310
REMARK  15 active torsions:
REMARK  status: ('A' for Active; 'I' for Inactive)
REMARK    1  A    between atoms: O1_2  and  C2_3 
REMARK    2  A    between atoms: C2_3  and  C3_5 
REMARK    3  A    between atoms: C3_5  and  N1_7 
REMARK    4  A    between atoms: C3_5  and  C5_11 
REMARK       I    between atoms: C5_11  and  N2_13 
REMARK    5  A    between atoms: N2_13  and  N3_15 
REMARK    6  A    between atoms: N3_15  and  C6_17 
REMARK    7  A    between atoms: C6_17  and  O4_18 
REMARK    8  A    between atoms: C6_17  and  C7_20 
REMARK    9  A    between atoms: C9_28  and  C10_29 
REMARK   10  A    between atoms: C10_29  and  S1_30 
REMARK   11  A    between atoms: S1_30  and  C11_31 
REMARK   12  A    between atoms: N10_38  and  C12_39 
REMARK   13  A    between atoms: C12_39  and  C13_40 
REMARK   14  A    between atoms: C13_40  and  C14_41 
REMARK   15  A    between atoms: C14_41  and  N11_42 
ROOT
HETATM    1  C7  UNL     1     -14.807   8.122 -27.991  1.00  0.00     0.209 C 
HETATM    2  N4  UNL     1     -14.188   9.109 -27.095  1.00  0.00    -0.212 N 
ATOM      3  H4  UNL     1     -13.629   8.932 -26.260  1.00  0.00     0.178 HD
HETATM    4  C8  UNL     1     -14.546  10.371 -27.656  1.00  0.00     0.672 C 
HETATM    5  N5  UNL     1     -14.142  11.498 -27.160  1.00  0.00    -0.235 N 
ATOM      6  H51 UNL     1     -14.398  12.399 -27.561  1.00  0.00     0.174 HD
ATOM      7  H52 UNL     1     -13.544  11.657 -26.349  1.00  0.00     0.174 HD
HETATM    8  N6  UNL     1     -15.398  10.143 -28.812  1.00  0.00    -0.196 N 
HETATM    9  C9  UNL     1     -15.786  10.746 -30.037  1.00  0.00     0.122 C 
HETATM   10  C15 UNL     1     -15.991   9.703 -31.108  1.00  0.00     0.102 C 
HETATM   11  S2  UNL     1     -16.570   8.297 -30.128  1.00  0.00    -0.138 SA
HETATM   12  C16 UNL     1     -15.991   8.853 -28.509  1.00  0.00     0.196 C 
ENDROOT
BRANCH   1  13
HETATM   13  C6  UNL     1     -15.082   6.886 -27.311  1.00  0.00     0.157 C 
BRANCH  13  14
HETATM   14  N3  UNL     1     -16.167   6.042 -27.475  1.00  0.00    -0.279 N 
ATOM     15  H3  UNL     1     -17.063   6.298 -27.059  1.00  0.00     0.189 HD
BRANCH  14  16
HETATM   16  N2  UNL     1     -16.064   4.827 -28.208  1.00  0.00    -0.266 N 
HETATM   17  C5  UNL     1     -15.574   3.642 -27.642  1.00  0.00     0.282 C 
HETATM   18  O3  UNL     1     -15.187   3.643 -26.443  1.00  0.00    -0.268 OA
ATOM     19  H2  UNL     1     -16.358   4.817 -29.184  1.00  0.00     0.190 HD
BRANCH  17  20
HETATM   20  C3  UNL     1     -15.526   2.411 -28.470  1.00  0.00     0.287 C 
HETATM   21  C4  UNL     1     -16.315   1.294 -27.760  1.00  0.00     0.068 C 
BRANCH  20  22
HETATM   22  C2  UNL     1     -14.147   1.915 -28.636  1.00  0.00     0.304 C 
HETATM   23  O2  UNL     1     -13.395   2.396 -29.522  1.00  0.00    -0.262 OA
BRANCH  22  24
HETATM   24  O1  UNL     1     -13.613   0.908 -27.837  1.00  0.00    -0.324 OA
HETATM   25  C1  UNL     1     -12.209   0.690 -27.772  1.00  0.00     0.213 C 
ENDBRANCH  22  24
ENDBRANCH  20  22
BRANCH  20  26
HETATM   26  N1  UNL     1     -16.189   2.611 -29.749  1.00  0.00    -0.052 N 
ATOM     27  H13 UNL     1     -15.539   2.960 -30.453  1.00  0.00     0.276 HD
ATOM     28  H12 UNL     1     -16.433   1.721 -30.184  1.00  0.00     0.276 HD
ATOM     29  H11 UNL     1     -17.005   3.218 -29.665  1.00  0.00     0.276 HD
ENDBRANCH  20  26
ENDBRANCH  17  20
ENDBRANCH  14  16
ENDBRANCH  13  14
BRANCH  13  30
HETATM   30  O4  UNL     1     -14.184   6.532 -26.426  1.00  0.00    -0.347 OA
ATOM     31  H4  UNL     1     -13.609   7.214 -26.100  1.00  0.00     0.219 HD
ENDBRANCH  13  30
ENDBRANCH   1  13
BRANCH   9  32
HETATM   32  C10 UNL     1     -14.634  11.640 -30.490  1.00  0.00     0.109 C 
BRANCH  32  33
HETATM   33  S1  UNL     1     -15.062  13.340 -30.784  1.00  0.00    -0.089 SA
BRANCH  33  34
HETATM   34  C11 UNL     1     -15.128  14.338 -29.297  1.00  0.00     0.178 A 
HETATM   35  N7  UNL     1     -15.817  14.156 -28.170  1.00  0.00    -0.263 N 
HETATM   36  N8  UNL     1     -15.572  15.142 -27.344  1.00  0.00    -0.226 N 
ATOM     37  H7  UNL     1     -16.438  13.370 -27.980  1.00  0.00     0.190 HD
HETATM   38  N9  UNL     1     -14.723  15.951 -27.957  1.00  0.00    -0.224 N 
ATOM     39  H8  UNL     1     -15.961  15.264 -26.409  1.00  0.00     0.210 HD
HETATM   40  N10 UNL     1     -14.420  15.503 -29.153  1.00  0.00    -0.254 N 
ATOM     41  H9  UNL     1     -14.351  16.811 -27.553  1.00  0.00     0.210 HD
BRANCH  40  42
HETATM   42  C12 UNL     1     -13.505  16.041 -30.152  1.00  0.00     0.154 C 
BRANCH  42  43
HETATM   43  C13 UNL     1     -12.588  17.073 -29.571  1.00  0.00     0.049 C 
BRANCH  43  44
HETATM   44  C14 UNL     1     -11.483  17.372 -30.564  1.00  0.00     0.231 C 
BRANCH  44  45
HETATM   45  N11 UNL     1     -11.193  16.249 -31.378  1.00  0.00    -0.079 N 
ATOM     46 3H11 UNL     1     -11.653  15.408 -31.030  1.00  0.00     0.274 HD
ATOM     47 2H11 UNL     1     -11.653  16.318 -32.286  1.00  0.00     0.274 HD
ATOM     48 1H11 UNL     1     -10.188  16.107 -31.480  1.00  0.00     0.274 HD
ENDBRANCH  44  45
ENDBRANCH  43  44
ENDBRANCH  42  43
ENDBRANCH  40  42
ENDBRANCH  33  34
ENDBRANCH  32  33
ENDBRANCH   9  32
TORSDOF 15
ENDMDL
MODEL 3
REMARK VINA RESULT: -6.326350118      1.506      1.897
REMARK  15 active torsions:
REMARK  status: ('A' for Active; 'I' for Inactive)
REMARK    1  A    between atoms: O1_2  and  C2_3 
REMARK    2  A    between atoms: C2_3  and  C3_5 
REMARK    3  A    between atoms: C3_5  and  N1_7 
REMARK    4  A    between atoms: C3_5  and  C5_11 
REMARK       I    between atoms: C5_11  and  N2_13 
REMARK    5  A    between atoms: N2_13  and  N3_15 
REMARK    6  A    between atoms: N3_15  and  C6_17 
REMARK    7  A    between atoms: C6_17  and  O4_18 
REMARK    8  A    between atoms: C6_17  and  C7_20 
REMARK    9  A    between atoms: C9_28  and  C10_29 
REMARK   10  A    between atoms: C10_29  and  S1_30 
REMARK   11  A    between atoms: S1_30  and  C11_31 
REMARK   12  A    between atoms: N10_38  and  C12_39 
REMARK   13  A    between atoms: C12_39  and  C13_40 
REMARK   14  A    between atoms: C13_40  and  C14_41 
REMARK   15  A    between atoms: C14_41  and  N11_42 
ROOT
HETATM    1  C7  UNL     1     -14.835   8.416 -28.119  1.00  0.00     0.209 C 
HETATM    2  N4  UNL     1     -14.253   9.474 -27.280  1.00  0.00    -0.212 N 
ATOM      3  H4  UNL     1     -13.620   9.366 -26.487  1.00  0.00     0.178 HD
HETATM    4  C8  UNL     1     -14.775  10.685 -27.826  1.00  0.00     0.672 C 
HETATM    5  N5  UNL     1     -14.450  11.854 -27.372  1.00  0.00    -0.235 N 
ATOM      6  H51 UNL     1     -14.823  12.719 -27.761  1.00  0.00     0.174 HD
ATOM      7  H52 UNL     1     -13.814  12.085 -26.609  1.00  0.00     0.174 HD
HETATM    8  N6  UNL     1     -15.681  10.355 -28.913  1.00  0.00    -0.196 N 
HETATM    9  C9  UNL     1     -16.215  10.895 -30.111  1.00  0.00     0.122 C 
HETATM   10  C15 UNL     1     -16.393   9.820 -31.155  1.00  0.00     0.102 C 
HETATM   11  S2  UNL     1     -16.757   8.380 -30.121  1.00  0.00    -0.138 SA
HETATM   12  C16 UNL     1     -16.119   9.018 -28.555  1.00  0.00     0.196 C 
ENDROOT
BRANCH   1  13
HETATM   13  C6  UNL     1     -14.935   7.171 -27.408  1.00  0.00     0.157 C 
BRANCH  13  14
HETATM   14  N3  UNL     1     -16.019   6.312 -27.335  1.00  0.00    -0.279 N 
ATOM     15  H3  UNL     1     -16.808   6.558 -26.737  1.00  0.00     0.189 HD
BRANCH  14  16
HETATM   16  N2  UNL     1     -16.059   5.095 -28.073  1.00  0.00    -0.266 N 
HETATM   17  C5  UNL     1     -15.412   3.929 -27.643  1.00  0.00     0.282 C 
HETATM   18  O3  UNL     1     -14.748   3.950 -26.573  1.00  0.00    -0.268 OA
ATOM     19  H2  UNL     1     -16.579   5.071 -28.950  1.00  0.00     0.190 HD
BRANCH  17  20
HETATM   20  C3  UNL     1     -15.528   2.695 -28.459  1.00  0.00     0.287 C 
HETATM   21  C4  UNL     1     -16.399   1.672 -27.706  1.00  0.00     0.068 C 
BRANCH  20  22
HETATM   22  C2  UNL     1     -14.216   2.056 -28.676  1.00  0.00     0.304 C 
HETATM   23  O2  UNL     1     -13.452   2.456 -29.590  1.00  0.00    -0.262 OA
BRANCH  22  24
HETATM   24  O1  UNL     1     -13.763   0.995 -27.896  1.00  0.00    -0.324 OA
HETATM   25  C1  UNL     1     -12.372   0.747 -27.733  1.00  0.00     0.213 C 
ENDBRANCH  22  24
ENDBRANCH  20  22
BRANCH  20  26
HETATM   26  N1  UNL     1     -16.219   2.956 -29.712  1.00  0.00    -0.052 N 
ATOM     27  H13 UNL     1     -16.465   3.941 -29.802  1.00  0.00     0.276 HD
ATOM     28  H12 UNL     1     -15.586   2.876 -30.508  1.00  0.00     0.276 HD
ATOM     29  H11 UNL     1     -17.036   2.357 -29.828  1.00  0.00     0.276 HD
ENDBRANCH  20  26
ENDBRANCH  17  20
ENDBRANCH  14  16
ENDBRANCH  13  14
BRANCH  13  30
HETATM   30  O4  UNL     1     -13.857   6.823 -26.750  1.00  0.00    -0.347 OA
ATOM     31  H4  UNL     1     -13.887   6.901 -25.804  1.00  0.00     0.219 HD
ENDBRANCH  13  30
ENDBRANCH   1  13
BRANCH   9  32
HETATM   32  C10 UNL     1     -15.193  11.891 -30.658  1.00  0.00     0.109 C 
BRANCH  32  33
HETATM   33  S1  UNL     1     -15.766  13.568 -30.795  1.00  0.00    -0.089 SA
BRANCH  33  34
HETATM   34  C11 UNL     1     -15.542  14.534 -29.302  1.00  0.00     0.178 A 
HETATM   35  N7  UNL     1     -14.506  15.274 -28.903  1.00  0.00    -0.263 N 
HETATM   36  N8  UNL     1     -14.769  15.801 -27.734  1.00  0.00    -0.226 N 
ATOM     37  H7  UNL     1     -13.643  15.408 -29.428  1.00  0.00     0.190 HD
HETATM   38  N9  UNL     1     -15.981  15.389 -27.394  1.00  0.00    -0.224 N 
ATOM     39  H8  UNL     1     -14.159  16.410 -27.190  1.00  0.00     0.210 HD
HETATM   40  N10 UNL     1     -16.495  14.613 -28.319  1.00  0.00    -0.254 N 
ATOM     41  H9  UNL     1     -16.454  15.642 -26.526  1.00  0.00     0.210 HD
BRANCH  40  42
HETATM   42  C12 UNL     1     -17.804  13.974 -28.386  1.00  0.00     0.154 C 
BRANCH  42  43
HETATM   43  C13 UNL     1     -18.891  14.877 -27.892  1.00  0.00     0.049 C 
BRANCH  43  44
HETATM   44  C14 UNL     1     -20.064  14.037 -27.427  1.00  0.00     0.231 C 
BRANCH  44  45
HETATM   45  N11 UNL     1     -19.753  12.654 -27.438  1.00  0.00    -0.079 N 
ATOM     46 3H11 UNL     1     -18.847  12.473 -27.007  1.00  0.00     0.274 HD
ATOM     47 2H11 UNL     1     -20.344  12.135 -26.789  1.00  0.00     0.274 HD
ATOM     48 1H11 UNL     1     -19.802  12.265 -28.379  1.00  0.00     0.274 HD
ENDBRANCH  44  45
ENDBRANCH  43  44
ENDBRANCH  42  43
ENDBRANCH  40  42
ENDBRANCH  33  34
ENDBRANCH  32  33
ENDBRANCH   9  32
TORSDOF 15
ENDMDL
MODEL 4
REMARK VINA RESULT: -6.310195621      2.039      3.174
REMARK  15 active torsions:
REMARK  status: ('A' for Active; 'I' for Inactive)
REMARK    1  A    between atoms: O1_2  and  C2_3 
REMARK    2  A    between atoms: C2_3  and  C3_5 
REMARK    3  A    between atoms: C3_5  and  N1_7 
REMARK    4  A    between atoms: C3_5  and  C5_11 
REMARK       I    between atoms: C5_11  and  N2_13 
REMARK    5  A    between atoms: N2_13  and  N3_15 
REMARK    6  A    between atoms: N3_15  and  C6_17 
REMARK    7  A    between atoms: C6_17  and  O4_18 
REMARK    8  A    between atoms: C6_17  and  C7_20 
REMARK    9  A    between atoms: C9_28  and  C10_29 
REMARK   10  A    between atoms: C10_29  and  S1_30 
REMARK   11  A    between atoms: S1_30  and  C11_31 
REMARK   12  A    between atoms: N10_38  and  C12_39 
REMARK   13  A    between atoms: C12_39  and  C13_40 
REMARK   14  A    between atoms: C13_40  and  C14_41 
REMARK   15  A    between atoms: C14_41  and  N11_42 
ROOT
HETATM    1  C7  UNL     1     -14.565   9.130 -28.305  1.00  0.00     0.209 C 
HETATM    2  N4  UNL     1     -14.097  10.261 -27.492  1.00  0.00    -0.212 N 
ATOM      3  H4  UNL     1     -13.390  10.253 -26.756  1.00  0.00     0.178 HD
HETATM    4  C8  UNL     1     -14.855  11.374 -27.965  1.00  0.00     0.672 C 
HETATM    5  N5  UNL     1     -14.690  12.576 -27.511  1.00  0.00    -0.235 N 
ATOM      6  H51 UNL     1     -15.232  13.371 -27.848  1.00  0.00     0.174 HD
ATOM      7  H52 UNL     1     -14.039  12.902 -26.797  1.00  0.00     0.174 HD
HETATM    8  N6  UNL     1     -15.783  10.909 -28.982  1.00  0.00    -0.196 N 
HETATM    9  C9  UNL     1     -16.498  11.365 -30.120  1.00  0.00     0.122 C 
HETATM   10  C15 UNL     1     -16.584  10.285 -31.170  1.00  0.00     0.102 C 
HETATM   11  S2  UNL     1     -16.617   8.795 -30.144  1.00  0.00    -0.138 SA
HETATM   12  C16 UNL     1     -15.963   9.514 -28.621  1.00  0.00     0.196 C 
ENDROOT
BRANCH   1  13
HETATM   13  C6  UNL     1     -14.399   7.878 -27.619  1.00  0.00     0.157 C 
BRANCH  13  14
HETATM   14  N3  UNL     1     -15.379   6.997 -27.197  1.00  0.00    -0.279 N 
ATOM     15  H3  UNL     1     -16.341   7.138 -27.506  1.00  0.00     0.189 HD
BRANCH  14  16
HETATM   16  N2  UNL     1     -15.079   5.899 -26.341  1.00  0.00    -0.266 N 
HETATM   17  C5  UNL     1     -16.021   4.914 -26.015  1.00  0.00     0.282 C 
HETATM   18  O3  UNL     1     -17.191   5.003 -26.475  1.00  0.00    -0.268 OA
ATOM     19  H2  UNL     1     -14.140   5.827 -25.950  1.00  0.00     0.190 HD
BRANCH  17  20
HETATM   20  C3  UNL     1     -15.616   3.789 -25.138  1.00  0.00     0.287 C 
HETATM   21  C4  UNL     1     -15.296   4.333 -23.733  1.00  0.00     0.068 C 
BRANCH  20  22
HETATM   22  C2  UNL     1     -14.390   3.127 -25.624  1.00  0.00     0.304 C 
HETATM   23  O2  UNL     1     -13.640   2.506 -24.829  1.00  0.00    -0.262 OA
BRANCH  22  24
HETATM   24  O1  UNL     1     -14.005   3.155 -26.962  1.00  0.00    -0.324 OA
HETATM   25  C1  UNL     1     -14.159   2.010 -27.792  1.00  0.00     0.213 C 
ENDBRANCH  22  24
ENDBRANCH  20  22
BRANCH  20  26
HETATM   26  N1  UNL     1     -16.707   2.844 -24.957  1.00  0.00    -0.052 N 
ATOM     27  H13 UNL     1     -17.312   2.814 -25.777  1.00  0.00     0.276 HD
ATOM     28  H12 UNL     1     -16.371   1.881 -24.970  1.00  0.00     0.276 HD
ATOM     29  H11 UNL     1     -17.242   3.037 -24.110  1.00  0.00     0.276 HD
ENDBRANCH  20  26
ENDBRANCH  17  20
ENDBRANCH  14  16
ENDBRANCH  13  14
BRANCH  13  30
HETATM   30  O4  UNL     1     -13.156   7.548 -27.367  1.00  0.00    -0.347 OA
ATOM     31  H4  UNL     1     -12.676   7.119 -28.064  1.00  0.00     0.219 HD
ENDBRANCH  13  30
ENDBRANCH   1  13
BRANCH   9  32
HETATM   32  C10 UNL     1     -15.704  12.522 -30.724  1.00  0.00     0.109 C 
BRANCH  32  33
HETATM   33  S1  UNL     1     -16.527  14.097 -30.707  1.00  0.00    -0.089 SA
BRANCH  33  34
HETATM   34  C11 UNL     1     -16.390  14.970 -29.148  1.00  0.00     0.178 A 
HETATM   35  N7  UNL     1     -17.239  15.035 -28.122  1.00  0.00    -0.263 N 
HETATM   36  N8  UNL     1     -16.736  15.800 -27.186  1.00  0.00    -0.226 N 
ATOM     37  H7  UNL     1     -18.141  14.562 -28.074  1.00  0.00     0.190 HD
HETATM   38  N9  UNL     1     -15.561  16.219 -27.627  1.00  0.00    -0.224 N 
ATOM     39  H8  UNL     1     -17.167  16.028 -26.290  1.00  0.00     0.210 HD
HETATM   40  N10 UNL     1     -15.304  15.740 -28.821  1.00  0.00    -0.254 N 
ATOM     41  H9  UNL     1     -14.936  16.835 -27.107  1.00  0.00     0.210 HD
BRANCH  40  42
HETATM   42  C12 UNL     1     -14.124  15.902 -29.663  1.00  0.00     0.154 C 
BRANCH  42  43
HETATM   43  C13 UNL     1     -13.199  16.952 -29.130  1.00  0.00     0.049 C 
BRANCH  43  44
HETATM   44  C14 UNL     1     -12.111  17.220 -30.150  1.00  0.00     0.231 C 
BRANCH  44  45
HETATM   45  N11 UNL     1     -12.015  16.173 -31.101  1.00  0.00    -0.079 N 
ATOM     46 3H11 UNL     1     -11.965  15.262 -30.646  1.00  0.00     0.274 HD
ATOM     47 2H11 UNL     1     -12.891  16.050 -31.608  1.00  0.00     0.274 HD
ATOM     48 1H11 UNL     1     -11.232  16.314 -31.739  1.00  0.00     0.274 HD
ENDBRANCH  44  45
ENDBRANCH  43  44
ENDBRANCH  42  43
ENDBRANCH  40  42
ENDBRANCH  33  34
ENDBRANCH  32  33
ENDBRANCH   9  32
TORSDOF 15
ENDMDL
MODEL 5
REMARK VINA RESULT: -6.219217026      2.220      3.068
REMARK  15 active torsions:
REMARK  status: ('A' for Active; 'I' for Inactive)
REMARK    1  A    between atoms: O1_2  and  C2_3 
REMARK    2  A    between atoms: C2_3  and  C3_5 
REMARK    3  A    between atoms: C3_5  and  N1_7 
REMARK    4  A    between atoms: C3_5  and  C5_11 
REMARK       I    between atoms: C5_11  and  N2_13 
REMARK    5  A    between atoms: N2_13  and  N3_15 
REMARK    6  A    between atoms: N3_15  and  C6_17 
REMARK    7  A    between atoms: C6_17  and  O4_18 
REMARK    8  A    between atoms: C6_17  and  C7_20 
REMARK    9  A    between atoms: C9_28  and  C10_29 
REMARK   10  A    between atoms: C10_29  and  S1_30 
REMARK   11  A    between atoms: S1_30  and  C11_31 
REMARK   12  A    between atoms: N10_38  and  C12_39 
REMARK   13  A    between atoms: C12_39  and  C13_40 
REMARK   14  A    between atoms: C13_40  and  C14_41 
REMARK   15  A    between atoms: C14_41  and  N11_42 
ROOT
HETATM    1  C7  UNL     1     -14.489   9.128 -28.228  1.00  0.00     0.209 C 
HETATM    2  N4  UNL     1     -14.049  10.250 -27.388  1.00  0.00    -0.212 N 
ATOM      3  H4  UNL     1     -13.368  10.233 -26.627  1.00  0.00     0.178 HD
HETATM    4  C8  UNL     1     -14.788  11.368 -27.876  1.00  0.00     0.672 C 
HETATM    5  N5  UNL     1     -14.638  12.566 -27.404  1.00  0.00    -0.235 N 
ATOM      6  H51 UNL     1     -15.166  13.365 -27.753  1.00  0.00     0.174 HD
ATOM      7  H52 UNL     1     -14.012  12.884 -26.664  1.00  0.00     0.174 HD
HETATM    8  N6  UNL     1     -15.680  10.915 -28.930  1.00  0.00    -0.196 N 
HETATM    9  C9  UNL     1     -16.354  11.383 -30.087  1.00  0.00     0.122 C 
HETATM   10  C15 UNL     1     -16.403  10.314 -31.151  1.00  0.00     0.102 C 
HETATM   11  S2  UNL     1     -16.474   8.814 -30.142  1.00  0.00    -0.138 SA
HETATM   12  C16 UNL     1     -15.874   9.517 -28.589  1.00  0.00     0.196 C 
ENDROOT
BRANCH   1  13
HETATM   13  C6  UNL     1     -14.348   7.869 -27.549  1.00  0.00     0.157 C 
BRANCH  13  14
HETATM   14  N3  UNL     1     -15.347   7.015 -27.113  1.00  0.00    -0.279 N 
ATOM     15  H3  UNL     1     -16.308   7.178 -27.417  1.00  0.00     0.189 HD
BRANCH  14  16
HETATM   16  N2  UNL     1     -15.069   5.918 -26.251  1.00  0.00    -0.266 N 
HETATM   17  C5  UNL     1     -15.992   4.892 -26.009  1.00  0.00     0.282 C 
HETATM   18  O3  UNL     1     -17.127   4.942 -26.555  1.00  0.00    -0.268 OA
ATOM     19  H2  UNL     1     -14.160   5.876 -25.790  1.00  0.00     0.190 HD
BRANCH  17  20
HETATM   20  C3  UNL     1     -15.610   3.770 -25.118  1.00  0.00     0.287 C 
HETATM   21  C4  UNL     1     -15.350   4.316 -23.701  1.00  0.00     0.068 C 
BRANCH  20  22
HETATM   22  C2  UNL     1     -14.359   3.121 -25.557  1.00  0.00     0.304 C 
HETATM   23  O2  UNL     1     -13.610   2.548 -24.726  1.00  0.00    -0.262 OA
BRANCH  22  24
HETATM   24  O1  UNL     1     -13.950   3.109 -26.888  1.00  0.00    -0.324 OA
HETATM   25  C1  UNL     1     -14.375   2.084 -27.776  1.00  0.00     0.213 C 
ENDBRANCH  22  24
ENDBRANCH  20  22
BRANCH  20  26
HETATM   26  N1  UNL     1     -16.697   2.813 -24.979  1.00  0.00    -0.052 N 
ATOM     27  H13 UNL     1     -16.423   1.889 -25.312  1.00  0.00     0.276 HD
ATOM     28  H12 UNL     1     -16.869   2.586 -24.000  1.00  0.00     0.276 HD
ATOM     29  H11 UNL     1     -17.549   3.135 -25.439  1.00  0.00     0.276 HD
ENDBRANCH  20  26
ENDBRANCH  17  20
ENDBRANCH  14  16
ENDBRANCH  13  14
BRANCH  13  30
HETATM   30  O4  UNL     1     -13.112   7.501 -27.319  1.00  0.00    -0.347 OA
ATOM     31  H4  UNL     1     -12.635   7.120 -28.047  1.00  0.00     0.219 HD
ENDBRANCH  13  30
ENDBRANCH   1  13
BRANCH   9  32
HETATM   32  C10 UNL     1     -15.537  12.545 -30.651  1.00  0.00     0.109 C 
BRANCH  32  33
HETATM   33  S1  UNL     1     -16.380  14.109 -30.705  1.00  0.00    -0.089 SA
BRANCH  33  34
HETATM   34  C11 UNL     1     -16.925  14.694 -29.102  1.00  0.00     0.178 A 
HETATM   35  N7  UNL     1     -18.080  14.502 -28.463  1.00  0.00    -0.263 N 
HETATM   36  N8  UNL     1     -18.053  15.124 -27.312  1.00  0.00    -0.226 N 
ATOM     37  H7  UNL     1     -18.864  13.954 -28.818  1.00  0.00     0.190 HD
HETATM   38  N9  UNL     1     -16.870  15.713 -27.225  1.00  0.00    -0.224 N 
ATOM     39  H8  UNL     1     -18.798  15.151 -26.616  1.00  0.00     0.210 HD
HETATM   40  N10 UNL     1     -16.145  15.480 -28.293  1.00  0.00    -0.254 N 
ATOM     41  H9  UNL     1     -16.563  16.274 -26.431  1.00  0.00     0.210 HD
BRANCH  40  42
HETATM   42  C12 UNL     1     -14.781  15.890 -28.608  1.00  0.00     0.154 C 
BRANCH  42  43
HETATM   43  C13 UNL     1     -14.710  17.330 -29.012  1.00  0.00     0.049 C 
BRANCH  43  44
HETATM   44  C14 UNL     1     -14.068  18.129 -27.895  1.00  0.00     0.231 C 
BRANCH  44  45
HETATM   45  N11 UNL     1     -15.038  18.658 -27.007  1.00  0.00    -0.079 N 
ATOM     46 3H11 UNL     1     -15.869  18.972 -27.508  1.00  0.00     0.274 HD
ATOM     47 2H11 UNL     1     -15.462  17.924 -26.439  1.00  0.00     0.274 HD
ATOM     48 1H11 UNL     1     -14.651  19.401 -26.426  1.00  0.00     0.274 HD
ENDBRANCH  44  45
ENDBRANCH  43  44
ENDBRANCH  42  43
ENDBRANCH  40  42
ENDBRANCH  33  34
ENDBRANCH  32  33
ENDBRANCH   9  32
TORSDOF 15
ENDMDL
