MODEL 1
REMARK VINA RESULT: -6.084627820      0.000      0.000
REMARK  11 active torsions:
REMARK  status: ('A' for Active; 'I' for Inactive)
REMARK    1  A    between atoms: C4_7  and  N3_8 
REMARK    2  A    between atoms: N3_8  and  C5_10 
REMARK    3  A    between atoms: C5_10  and  C6_11 
REMARK    4  A    between atoms: C7_12  and  N4_13 
REMARK    5  A    between atoms: C11_23  and  N8_24 
REMARK       I    between atoms: N8_24  and  C12_26 
REMARK    6  A    between atoms: C12_26  and  C13_28 
REMARK    7  A    between atoms: C13_28  and  N9_29 
REMARK    8  A    between atoms: C16_38  and  C17_39 
REMARK    9  A    between atoms: N13_44  and  C19_46 
REMARK   10  A    between atoms: C19_46  and  C20_47 
REMARK   11  A    between atoms: C20_47  and  O2_48 
ROOT
HETATM    1  C6  UNL     1     -15.986   9.297 -29.105  1.00  0.00     0.002 A 
HETATM    2  C7  UNL     1     -15.131  10.109 -28.415  1.00  0.00     0.068 A 
HETATM    3  C9  UNL     1     -14.403   9.573 -27.368  1.00  0.00     0.034 A 
HETATM    4  C10 UNL     1     -14.537   8.254 -27.034  1.00  0.00     0.033 A 
HETATM    5  C11 UNL     1     -15.388   7.390 -27.700  1.00  0.00     0.046 A 
HETATM    6  C16 UNL     1     -16.116   7.917 -28.740  1.00  0.00     0.014 A 
ENDROOT
BRANCH   1   7
HETATM    7  C5  UNL     1     -16.671   9.782 -30.331  1.00  0.00     0.163 C 
BRANCH   7   8
HETATM    8  N3  UNL     1     -18.115   9.864 -30.132  1.00  0.00    -0.369 N 
ATOM      9  H3  UNL     1     -18.712   9.185 -30.604  1.00  0.00     0.161 HD
BRANCH   8  10
HETATM   10  C4  UNL     1     -18.667  10.750 -29.391  1.00  0.00     0.148 A 
HETATM   11  C3  UNL     1     -19.787  10.497 -28.614  1.00  0.00     0.123 A 
HETATM   12  N2  UNL     1     -20.513   9.415 -28.363  1.00  0.00    -0.346 N 
HETATM   13  C21 UNL     1     -20.395  11.503 -27.883  1.00  0.00     0.154 A 
HETATM   14  C2  UNL     1     -21.534   9.663 -27.531  1.00  0.00     0.184 A 
ATOM     15  H2  UNL     1     -20.316   8.496 -28.759  1.00  0.00     0.167 HD
HETATM   16  N1  UNL     1     -21.466  10.978 -27.225  1.00  0.00    -0.331 N 
HETATM   17  C1  UNL     1     -22.408  11.654 -26.335  1.00  0.00     0.158 C 
HETATM   18  N14 UNL     1     -19.908  12.749 -27.910  1.00  0.00    -0.174 N 
HETATM   19  C18 UNL     1     -18.825  13.001 -28.657  1.00  0.00     0.681 A 
ATOM     20  H14 UNL     1     -20.353  13.492 -27.371  1.00  0.00     0.186 HD
HETATM   21  N12 UNL     1     -18.210  12.015 -29.392  1.00  0.00    -0.175 N 
HETATM   22  N13 UNL     1     -18.346  14.185 -28.702  1.00  0.00    -0.224 N 
ATOM     23  H12 UNL     1     -17.389  12.247 -29.951  1.00  0.00     0.186 HD
ATOM     24  H13 UNL     1     -17.524  14.314 -29.291  1.00  0.00     0.177 HD
BRANCH  22  25
HETATM   25  C19 UNL     1     -18.821  15.346 -28.030  1.00  0.00     0.164 C 
BRANCH  25  26
HETATM   26  C20 UNL     1     -17.677  16.326 -27.824  1.00  0.00     0.184 C 
BRANCH  26  27
HETATM   27  O2  UNL     1     -16.698  15.664 -27.064  1.00  0.00    -0.399 OA
ATOM     28  H2  UNL     1     -16.424  16.263 -26.380  1.00  0.00     0.209 HD
ENDBRANCH  26  27
ENDBRANCH  25  26
ENDBRANCH  22  25
ENDBRANCH   8  10
ENDBRANCH   7   8
ENDBRANCH   1   7
BRANCH   2  29
HETATM   29  N4  UNL     1     -14.981  11.474 -28.760  1.00  0.00    -0.235 N 
HETATM   30  C8  UNL     1     -15.175  12.521 -27.957  1.00  0.00     0.226 A 
HETATM   31  N5  UNL     1     -14.936  13.662 -28.670  1.00  0.00    -0.279 N 
HETATM   32  N6  UNL     1     -14.598  13.293 -29.892  1.00  0.00    -0.227 N 
ATOM     33  H5  UNL     1     -15.004  14.619 -28.324  1.00  0.00     0.189 HD
HETATM   34  N7  UNL     1     -14.634  11.946 -29.926  1.00  0.00    -0.220 N 
ATOM     35  H6  UNL     1     -14.355  13.911 -30.666  1.00  0.00     0.210 HD
ATOM     36  H7  UNL     1     -14.420  11.377 -30.745  1.00  0.00     0.210 HD
ENDBRANCH   2  29
BRANCH   6  37
HETATM   37  C17 UNL     1     -17.023   7.087 -29.542  1.00  0.00     0.114 C 
HETATM   38  N11 UNL     1     -18.340   6.871 -29.122  1.00  0.00    -0.114 NA
ENDBRANCH   6  37
BRANCH   5  39
HETATM   39  N8  UNL     1     -15.476   6.083 -27.217  1.00  0.00    -0.324 N 
HETATM   40  C12 UNL     1     -16.471   5.585 -26.313  1.00  0.00     0.262 C 
HETATM   41  O1  UNL     1     -17.356   6.274 -25.866  1.00  0.00    -0.270 OA
ATOM     42  H8  UNL     1     -14.768   5.421 -27.537  1.00  0.00     0.169 HD
BRANCH  40  43
HETATM   43  C13 UNL     1     -16.466   4.149 -25.850  1.00  0.00     0.250 C 
HETATM   44  C14 UNL     1     -15.473   4.089 -24.672  1.00  0.00     0.283 C 
HETATM   45  N10 UNL     1     -16.573   4.160 -23.762  1.00  0.00    -0.069 N 
HETATM   46  C15 UNL     1     -17.479   3.813 -24.828  1.00  0.00     0.283 C 
ATOM     47 2H10 UNL     1     -16.561   3.609 -22.904  1.00  0.00     0.277 HD
ATOM     48 1H10 UNL     1     -16.729   5.007 -23.216  1.00  0.00     0.277 HD
BRANCH  43  49
HETATM   49  N9  UNL     1     -16.139   3.177 -26.860  1.00  0.00    -0.058 N 
ATOM     50  H93 UNL     1     -16.922   3.064 -27.504  1.00  0.00     0.275 HD
ATOM     51  H92 UNL     1     -15.436   3.555 -27.496  1.00  0.00     0.275 HD
ATOM     52  H91 UNL     1     -15.839   2.266 -26.510  1.00  0.00     0.275 HD
ENDBRANCH  43  49
ENDBRANCH  40  43
ENDBRANCH   5  39
TORSDOF 11
ENDMDL
MODEL 2
REMARK VINA RESULT: -6.044496723      4.168      9.433
REMARK  11 active torsions:
REMARK  status: ('A' for Active; 'I' for Inactive)
REMARK    1  A    between atoms: C4_7  and  N3_8 
REMARK    2  A    between atoms: N3_8  and  C5_10 
REMARK    3  A    between atoms: C5_10  and  C6_11 
REMARK    4  A    between atoms: C7_12  and  N4_13 
REMARK    5  A    between atoms: C11_23  and  N8_24 
REMARK       I    between atoms: N8_24  and  C12_26 
REMARK    6  A    between atoms: C12_26  and  C13_28 
REMARK    7  A    between atoms: C13_28  and  N9_29 
REMARK    8  A    between atoms: C16_38  and  C17_39 
REMARK    9  A    between atoms: N13_44  and  C19_46 
REMARK   10  A    between atoms: C19_46  and  C20_47 
REMARK   11  A    between atoms: C20_47  and  O2_48 
ROOT
HETATM    1  C6  UNL     1     -15.822   3.997 -27.102  1.00  0.00     0.002 A 
HETATM    2  C7  UNL     1     -15.315   4.704 -26.049  1.00  0.00     0.068 A 
HETATM    3  C9  UNL     1     -15.221   6.080 -26.154  1.00  0.00     0.034 A 
HETATM    4  C10 UNL     1     -15.630   6.718 -27.292  1.00  0.00     0.033 A 
HETATM    5  C11 UNL     1     -16.151   6.049 -28.385  1.00  0.00     0.046 A 
HETATM    6  C16 UNL     1     -16.245   4.681 -28.288  1.00  0.00     0.014 A 
ENDROOT
BRANCH   1   7
HETATM    7  C5  UNL     1     -16.089   2.540 -26.982  1.00  0.00     0.163 C 
BRANCH   7   8
HETATM    8  N3  UNL     1     -17.448   2.290 -26.509  1.00  0.00    -0.369 N 
ATOM      9  H3  UNL     1     -18.202   2.244 -27.194  1.00  0.00     0.161 HD
BRANCH   8  10
HETATM   10  C4  UNL     1     -17.737   2.127 -25.273  1.00  0.00     0.148 A 
HETATM   11  C3  UNL     1     -18.762   2.811 -24.638  1.00  0.00     0.123 A 
HETATM   12  N2  UNL     1     -19.684   3.679 -25.039  1.00  0.00    -0.346 N 
HETATM   13  C21 UNL     1     -18.995   2.658 -23.282  1.00  0.00     0.154 A 
HETATM   14  C2  UNL     1     -20.477   4.086 -24.039  1.00  0.00     0.184 A 
ATOM     15  H2  UNL     1     -19.777   4.001 -26.003  1.00  0.00     0.167 HD
HETATM   16  N1  UNL     1     -20.048   3.447 -22.928  1.00  0.00    -0.331 N 
HETATM   17  C1  UNL     1     -20.655   3.615 -21.609  1.00  0.00     0.158 C 
HETATM   18  N14 UNL     1     -18.231   1.837 -22.552  1.00  0.00    -0.174 N 
HETATM   19  C18 UNL     1     -17.240   1.171 -23.159  1.00  0.00     0.681 A 
ATOM     20  H14 UNL     1     -18.400   1.720 -21.553  1.00  0.00     0.186 HD
HETATM   21  N12 UNL     1     -16.992   1.313 -24.504  1.00  0.00    -0.175 N 
HETATM   22  N13 UNL     1     -16.493   0.385 -22.480  1.00  0.00    -0.224 N 
ATOM     23  H12 UNL     1     -16.226   0.790 -24.929  1.00  0.00     0.186 HD
ATOM     24  H13 UNL     1     -15.755  -0.090 -22.998  1.00  0.00     0.177 HD
BRANCH  22  25
HETATM   25  C19 UNL     1     -16.569   0.094 -21.090  1.00  0.00     0.164 C 
BRANCH  25  26
HETATM   26  C20 UNL     1     -15.606   0.987 -20.324  1.00  0.00     0.184 C 
BRANCH  26  27
HETATM   27  O2  UNL     1     -14.379   0.953 -21.007  1.00  0.00    -0.399 OA
ATOM     28  H2  UNL     1     -14.452   1.552 -21.741  1.00  0.00     0.209 HD
ENDBRANCH  26  27
ENDBRANCH  25  26
ENDBRANCH  22  25
ENDBRANCH   8  10
ENDBRANCH   7   8
ENDBRANCH   1   7
BRANCH   2  29
HETATM   29  N4  UNL     1     -14.895   4.050 -24.865  1.00  0.00    -0.235 N 
HETATM   30  C8  UNL     1     -13.968   3.095 -24.773  1.00  0.00     0.226 A 
HETATM   31  N5  UNL     1     -13.862   2.723 -23.462  1.00  0.00    -0.279 N 
HETATM   32  N6  UNL     1     -14.721   3.456 -22.779  1.00  0.00    -0.227 N 
ATOM     33  H5  UNL     1     -13.236   2.013 -23.083  1.00  0.00     0.189 HD
HETATM   34  N7  UNL     1     -15.346   4.263 -23.660  1.00  0.00    -0.220 N 
ATOM     35  H6  UNL     1     -14.883   3.420 -21.772  1.00  0.00     0.210 HD
ATOM     36  H7  UNL     1     -16.068   4.942 -23.418  1.00  0.00     0.210 HD
ENDBRANCH   2  29
BRANCH   6  37
HETATM   37  C17 UNL     1     -16.815   3.870 -29.371  1.00  0.00     0.114 C 
HETATM   38  N11 UNL     1     -18.102   4.137 -29.851  1.00  0.00    -0.114 NA
ENDBRANCH   6  37
BRANCH   5  39
HETATM   39  N8  UNL     1     -16.473   6.815 -29.508  1.00  0.00    -0.324 N 
HETATM   40  C12 UNL     1     -15.582   7.685 -30.217  1.00  0.00     0.262 C 
HETATM   41  O1  UNL     1     -14.428   7.846 -29.898  1.00  0.00    -0.270 OA
ATOM     42  H8  UNL     1     -17.431   6.750 -29.855  1.00  0.00     0.169 HD
BRANCH  40  43
HETATM   43  C13 UNL     1     -16.041   8.474 -31.418  1.00  0.00     0.250 C 
HETATM   44  C14 UNL     1     -16.490   9.846 -30.876  1.00  0.00     0.283 C 
HETATM   45  N10 UNL     1     -15.227  10.393 -31.261  1.00  0.00    -0.069 N 
HETATM   46  C15 UNL     1     -14.987   9.249 -32.104  1.00  0.00     0.283 C 
ATOM     47 2H10 UNL     1     -15.177  11.334 -31.652  1.00  0.00     0.277 HD
ATOM     48 1H10 UNL     1     -14.546  10.654 -30.548  1.00  0.00     0.277 HD
BRANCH  43  49
HETATM   49  N9  UNL     1     -17.080   7.856 -32.202  1.00  0.00    -0.058 N 
ATOM     50  H93 UNL     1     -16.909   6.853 -32.279  1.00  0.00     0.275 HD
ATOM     51  H92 UNL     1     -17.956   7.850 -31.680  1.00  0.00     0.275 HD
ATOM     52  H91 UNL     1     -17.227   8.258 -33.128  1.00  0.00     0.275 HD
ENDBRANCH  43  49
ENDBRANCH  40  43
ENDBRANCH   5  39
TORSDOF 11
ENDMDL
MODEL 3
REMARK VINA RESULT: -5.961838983      1.944      3.566
REMARK  11 active torsions:
REMARK  status: ('A' for Active; 'I' for Inactive)
REMARK    1  A    between atoms: C4_7  and  N3_8 
REMARK    2  A    between atoms: N3_8  and  C5_10 
REMARK    3  A    between atoms: C5_10  and  C6_11 
REMARK    4  A    between atoms: C7_12  and  N4_13 
REMARK    5  A    between atoms: C11_23  and  N8_24 
REMARK       I    between atoms: N8_24  and  C12_26 
REMARK    6  A    between atoms: C12_26  and  C13_28 
REMARK    7  A    between atoms: C13_28  and  N9_29 
REMARK    8  A    between atoms: C16_38  and  C17_39 
REMARK    9  A    between atoms: N13_44  and  C19_46 
REMARK   10  A    between atoms: C19_46  and  C20_47 
REMARK   11  A    between atoms: C20_47  and  O2_48 
ROOT
HETATM    1  C6  UNL     1     -15.317   8.896 -29.483  1.00  0.00     0.002 A 
HETATM    2  C7  UNL     1     -16.153   8.620 -30.527  1.00  0.00     0.068 A 
HETATM    3  C9  UNL     1     -16.734   7.368 -30.602  1.00  0.00     0.034 A 
HETATM    4  C10 UNL     1     -16.476   6.426 -29.645  1.00  0.00     0.033 A 
HETATM    5  C11 UNL     1     -15.639   6.654 -28.569  1.00  0.00     0.046 A 
HETATM    6  C16 UNL     1     -15.056   7.897 -28.489  1.00  0.00     0.014 A 
ENDROOT
BRANCH   1   7
HETATM    7  C5  UNL     1     -14.793  10.271 -29.271  1.00  0.00     0.163 C 
BRANCH   7   8
HETATM    8  N3  UNL     1     -15.697  11.058 -28.438  1.00  0.00    -0.369 N 
ATOM      9  H3  UNL     1     -16.150  10.603 -27.645  1.00  0.00     0.161 HD
BRANCH   8  10
HETATM   10  C4  UNL     1     -15.948  12.294 -28.656  1.00  0.00     0.148 A 
HETATM   11  C3  UNL     1     -17.236  12.800 -28.746  1.00  0.00     0.123 A 
HETATM   12  N2  UNL     1     -18.448  12.279 -28.598  1.00  0.00    -0.346 N 
HETATM   13  C21 UNL     1     -17.464  14.130 -29.056  1.00  0.00     0.154 A 
HETATM   14  C2  UNL     1     -19.422  13.179 -28.794  1.00  0.00     0.184 A 
ATOM     15  H2  UNL     1     -18.619  11.301 -28.363  1.00  0.00     0.167 HD
HETATM   16  N1  UNL     1     -18.809  14.347 -29.083  1.00  0.00    -0.331 N 
HETATM   17  C1  UNL     1     -19.523  15.591 -29.363  1.00  0.00     0.158 C 
HETATM   18  N14 UNL     1     -16.438  14.960 -29.272  1.00  0.00    -0.174 N 
HETATM   19  C18 UNL     1     -15.191  14.479 -29.185  1.00  0.00     0.681 A 
ATOM     20  H14 UNL     1     -16.601  15.941 -29.499  1.00  0.00     0.186 HD
HETATM   21  N12 UNL     1     -14.946  13.160 -28.882  1.00  0.00    -0.175 N 
HETATM   22  N13 UNL     1     -14.194  15.253 -29.394  1.00  0.00    -0.224 N 
ATOM     23  H12 UNL     1     -13.982  12.831 -28.828  1.00  0.00     0.186 HD
ATOM     24  H13 UNL     1     -13.272  14.826 -29.317  1.00  0.00     0.177 HD
BRANCH  22  25
HETATM   25  C19 UNL     1     -14.218  16.637 -29.721  1.00  0.00     0.164 C 
BRANCH  25  26
HETATM   26  C20 UNL     1     -13.269  17.397 -28.809  1.00  0.00     0.184 C 
BRANCH  26  27
HETATM   27  O2  UNL     1     -13.675  17.146 -27.488  1.00  0.00    -0.399 OA
ATOM     28  H2  UNL     1     -13.022  16.575 -27.099  1.00  0.00     0.209 HD
ENDBRANCH  26  27
ENDBRANCH  25  26
ENDBRANCH  22  25
ENDBRANCH   8  10
ENDBRANCH   7   8
ENDBRANCH   1   7
BRANCH   2  29
HETATM   29  N4  UNL     1     -16.430   9.594 -31.518  1.00  0.00    -0.235 N 
HETATM   30  C8  UNL     1     -15.727   9.817 -32.629  1.00  0.00     0.226 A 
HETATM   31  N5  UNL     1     -16.317  10.842 -33.314  1.00  0.00    -0.279 N 
HETATM   32  N6  UNL     1     -17.367  11.225 -32.612  1.00  0.00    -0.227 N 
ATOM     33  H5  UNL     1     -16.004  11.238 -34.200  1.00  0.00     0.189 HD
HETATM   34  N7  UNL     1     -17.417  10.446 -31.513  1.00  0.00    -0.220 N 
ATOM     35  H6  UNL     1     -18.020  11.970 -32.855  1.00  0.00     0.210 HD
ATOM     36  H7  UNL     1     -18.126  10.515 -30.782  1.00  0.00     0.210 HD
ENDBRANCH   2  29
BRANCH   6  37
HETATM   37  C17 UNL     1     -14.178   8.265 -27.372  1.00  0.00     0.114 C 
HETATM   38  N11 UNL     1     -12.881   7.747 -27.293  1.00  0.00    -0.114 NA
ENDBRANCH   6  37
BRANCH   5  39
HETATM   39  N8  UNL     1     -15.412   5.586 -27.698  1.00  0.00    -0.324 N 
HETATM   40  C12 UNL     1     -16.081   5.360 -26.451  1.00  0.00     0.262 C 
HETATM   41  O1  UNL     1     -16.931   6.100 -26.018  1.00  0.00    -0.270 OA
ATOM     42  H8  UNL     1     -14.706   4.903 -27.975  1.00  0.00     0.169 HD
BRANCH  40  43
HETATM   43  C13 UNL     1     -15.750   4.170 -25.584  1.00  0.00     0.250 C 
HETATM   44  C14 UNL     1     -15.698   4.704 -24.138  1.00  0.00     0.283 C 
HETATM   45  N10 UNL     1     -17.027   4.221 -23.929  1.00  0.00    -0.069 N 
HETATM   46  C15 UNL     1     -16.913   3.396 -25.106  1.00  0.00     0.283 C 
ATOM     47 2H10 UNL     1     -17.283   3.803 -23.035  1.00  0.00     0.277 HD
ATOM     48 1H10 UNL     1     -17.801   4.880 -23.841  1.00  0.00     0.277 HD
BRANCH  43  49
HETATM   49  N9  UNL     1     -14.537   3.475 -25.929  1.00  0.00    -0.058 N 
ATOM     50  H93 UNL     1     -14.581   3.153 -26.896  1.00  0.00     0.275 HD
ATOM     51  H92 UNL     1     -13.761   4.133 -25.993  1.00  0.00     0.275 HD
ATOM     52  H91 UNL     1     -14.288   2.700 -25.313  1.00  0.00     0.275 HD
ENDBRANCH  43  49
ENDBRANCH  40  43
ENDBRANCH   5  39
TORSDOF 11
ENDMDL
MODEL 4
REMARK VINA RESULT: -5.917893948      0.890      1.297
REMARK  11 active torsions:
REMARK  status: ('A' for Active; 'I' for Inactive)
REMARK    1  A    between atoms: C4_7  and  N3_8 
REMARK    2  A    between atoms: N3_8  and  C5_10 
REMARK    3  A    between atoms: C5_10  and  C6_11 
REMARK    4  A    between atoms: C7_12  and  N4_13 
REMARK    5  A    between atoms: C11_23  and  N8_24 
REMARK       I    between atoms: N8_24  and  C12_26 
REMARK    6  A    between atoms: C12_26  and  C13_28 
REMARK    7  A    between atoms: C13_28  and  N9_29 
REMARK    8  A    between atoms: C16_38  and  C17_39 
REMARK    9  A    between atoms: N13_44  and  C19_46 
REMARK   10  A    between atoms: C19_46  and  C20_47 
REMARK   11  A    between atoms: C20_47  and  O2_48 
ROOT
HETATM    1  C6  UNL     1     -15.617   8.913 -29.026  1.00  0.00     0.002 A 
HETATM    2  C7  UNL     1     -14.926   9.880 -28.353  1.00  0.00     0.068 A 
HETATM    3  C9  UNL     1     -14.278   9.541 -27.179  1.00  0.00     0.034 A 
HETATM    4  C10 UNL     1     -14.328   8.260 -26.705  1.00  0.00     0.033 A 
HETATM    5  C11 UNL     1     -15.013   7.244 -27.348  1.00  0.00     0.046 A 
HETATM    6  C16 UNL     1     -15.661   7.575 -28.514  1.00  0.00     0.014 A 
ENDROOT
BRANCH   1   7
HETATM    7  C5  UNL     1     -16.197   9.186 -30.367  1.00  0.00     0.163 C 
BRANCH   7   8
HETATM    8  N3  UNL     1     -17.656   9.155 -30.327  1.00  0.00    -0.369 N 
ATOM      9  H3  UNL     1     -18.139   8.379 -30.778  1.00  0.00     0.161 HD
BRANCH   8  10
HETATM   10  C4  UNL     1     -18.357  10.059 -29.752  1.00  0.00     0.148 A 
HETATM   11  C3  UNL     1     -19.461   9.773 -28.963  1.00  0.00     0.123 A 
HETATM   12  N2  UNL     1     -20.037   8.651 -28.550  1.00  0.00    -0.346 N 
HETATM   13  C21 UNL     1     -20.234  10.783 -28.419  1.00  0.00     0.154 A 
HETATM   14  C2  UNL     1     -21.116   8.878 -27.788  1.00  0.00     0.184 A 
ATOM     15  H2  UNL     1     -19.696   7.718 -28.786  1.00  0.00     0.167 HD
HETATM   16  N1  UNL     1     -21.247  10.220 -27.702  1.00  0.00    -0.331 N 
HETATM   17  C1  UNL     1     -22.309  10.886 -26.951  1.00  0.00     0.158 C 
HETATM   18  N14 UNL     1     -19.927  12.066 -28.642  1.00  0.00    -0.174 N 
HETATM   19  C18 UNL     1     -18.861  12.351 -29.402  1.00  0.00     0.681 A 
ATOM     20  H14 UNL     1     -20.494  12.814 -28.241  1.00  0.00     0.186 HD
HETATM   21  N12 UNL     1     -18.083  11.359 -29.954  1.00  0.00    -0.175 N 
HETATM   22  N13 UNL     1     -18.552  13.569 -29.633  1.00  0.00    -0.224 N 
ATOM     23  H12 UNL     1     -17.281  11.617 -30.529  1.00  0.00     0.186 HD
ATOM     24  H13 UNL     1     -17.733  13.720 -30.221  1.00  0.00     0.177 HD
BRANCH  22  25
HETATM   25  C19 UNL     1     -19.213  14.741 -29.169  1.00  0.00     0.164 C 
BRANCH  25  26
HETATM   26  C20 UNL     1     -18.567  15.219 -27.879  1.00  0.00     0.184 C 
BRANCH  26  27
HETATM   27  O2  UNL     1     -19.307  14.671 -26.818  1.00  0.00    -0.399 OA
ATOM     28  H2  UNL     1     -19.887  15.353 -26.501  1.00  0.00     0.209 HD
ENDBRANCH  26  27
ENDBRANCH  25  26
ENDBRANCH  22  25
ENDBRANCH   8  10
ENDBRANCH   7   8
ENDBRANCH   1   7
BRANCH   2  29
HETATM   29  N4  UNL     1     -14.864  11.208 -28.843  1.00  0.00    -0.235 N 
HETATM   30  C8  UNL     1     -15.265  12.308 -28.204  1.00  0.00     0.226 A 
HETATM   31  N5  UNL     1     -15.042  13.384 -29.017  1.00  0.00    -0.279 N 
HETATM   32  N6  UNL     1     -14.509  12.923 -30.133  1.00  0.00    -0.227 N 
ATOM     33  H5  UNL     1     -15.249  14.359 -28.802  1.00  0.00     0.189 HD
HETATM   34  N7  UNL     1     -14.410  11.585 -30.005  1.00  0.00    -0.220 N 
ATOM     35  H6  UNL     1     -14.225  13.477 -30.942  1.00  0.00     0.210 HD
ATOM     36  H7  UNL     1     -14.034  10.958 -30.717  1.00  0.00     0.210 HD
ENDBRANCH   2  29
BRANCH   6  37
HETATM   37  C17 UNL     1     -16.388   6.572 -29.301  1.00  0.00     0.114 C 
HETATM   38  N11 UNL     1     -17.725   6.280 -29.010  1.00  0.00    -0.114 NA
ENDBRANCH   6  37
BRANCH   5  39
HETATM   39  N8  UNL     1     -15.036   5.995 -26.723  1.00  0.00    -0.324 N 
HETATM   40  C12 UNL     1     -16.110   5.469 -25.934  1.00  0.00     0.262 C 
HETATM   41  O1  UNL     1     -17.132   6.078 -25.724  1.00  0.00    -0.270 OA
ATOM     42  H8  UNL     1     -14.213   5.403 -26.839  1.00  0.00     0.169 HD
BRANCH  40  43
HETATM   43  C13 UNL     1     -16.024   4.104 -25.297  1.00  0.00     0.250 C 
HETATM   44  C14 UNL     1     -17.007   3.210 -26.080  1.00  0.00     0.283 C 
HETATM   45  N10 UNL     1     -15.911   2.695 -26.838  1.00  0.00    -0.069 N 
HETATM   46  C15 UNL     1     -14.989   3.211 -25.858  1.00  0.00     0.283 C 
ATOM     47 2H10 UNL     1     -15.886   1.708 -27.092  1.00  0.00     0.277 HD
ATOM     48 1H10 UNL     1     -15.806   2.950 -27.821  1.00  0.00     0.277 HD
BRANCH  43  49
HETATM   49  N9  UNL     1     -16.293   4.065 -23.883  1.00  0.00    -0.058 N 
ATOM     50  H93 UNL     1     -17.186   4.517 -23.684  1.00  0.00     0.275 HD
ATOM     51  H92 UNL     1     -16.505   3.110 -23.593  1.00  0.00     0.275 HD
ATOM     52  H91 UNL     1     -15.563   4.457 -23.288  1.00  0.00     0.275 HD
ENDBRANCH  43  49
ENDBRANCH  40  43
ENDBRANCH   5  39
TORSDOF 11
ENDMDL
MODEL 5
REMARK VINA RESULT: -5.825475021      1.948      3.414
REMARK  11 active torsions:
REMARK  status: ('A' for Active; 'I' for Inactive)
REMARK    1  A    between atoms: C4_7  and  N3_8 
REMARK    2  A    between atoms: N3_8  and  C5_10 
REMARK    3  A    between atoms: C5_10  and  C6_11 
REMARK    4  A    between atoms: C7_12  and  N4_13 
REMARK    5  A    between atoms: C11_23  and  N8_24 
REMARK       I    between atoms: N8_24  and  C12_26 
REMARK    6  A    between atoms: C12_26  and  C13_28 
REMARK    7  A    between atoms: C13_28  and  N9_29 
REMARK    8  A    between atoms: C16_38  and  C17_39 
REMARK    9  A    between atoms: N13_44  and  C19_46 
REMARK   10  A    between atoms: C19_46  and  C20_47 
REMARK   11  A    between atoms: C20_47  and  O2_48 
ROOT
HETATM    1  C6  UNL     1     -15.849   8.890 -29.263  1.00  0.00     0.002 A 
HETATM    2  C7  UNL     1     -15.094   9.784 -28.558  1.00  0.00     0.068 A 
HETATM    3  C9  UNL     1     -14.436   9.351 -27.422  1.00  0.00     0.034 A 
HETATM    4  C10 UNL     1     -14.540   8.050 -27.014  1.00  0.00     0.033 A 
HETATM    5  C11 UNL     1     -15.291   7.106 -27.691  1.00  0.00     0.046 A 
HETATM    6  C16 UNL     1     -15.949   7.530 -28.820  1.00  0.00     0.014 A 
ENDROOT
BRANCH   1   7
HETATM    7  C5  UNL     1     -16.447   9.264 -30.571  1.00  0.00     0.163 C 
BRANCH   7   8
HETATM    8  N3  UNL     1     -17.500  10.261 -30.405  1.00  0.00    -0.369 N 
ATOM      9  H3  UNL     1     -17.369  11.183 -30.822  1.00  0.00     0.161 HD
BRANCH   8  10
HETATM   10  C4  UNL     1     -18.581  10.032 -29.760  1.00  0.00     0.148 A 
HETATM   11  C3  UNL     1     -19.160  10.954 -28.900  1.00  0.00     0.123 A 
HETATM   12  N2  UNL     1     -18.874  12.204 -28.555  1.00  0.00    -0.346 N 
HETATM   13  C21 UNL     1     -20.290  10.639 -28.166  1.00  0.00     0.154 A 
HETATM   14  C2  UNL     1     -19.738  12.699 -27.658  1.00  0.00     0.184 A 
ATOM     15  H2  UNL     1     -18.084  12.729 -28.931  1.00  0.00     0.167 HD
HETATM   16  N1  UNL     1     -20.633  11.718 -27.409  1.00  0.00    -0.331 N 
HETATM   17  C1  UNL     1     -21.751  11.858 -26.478  1.00  0.00     0.158 C 
HETATM   18  N14 UNL     1     -20.855   9.431 -28.276  1.00  0.00    -0.174 N 
HETATM   19  C18 UNL     1     -20.303   8.536 -29.107  1.00  0.00     0.681 A 
ATOM     20  H14 UNL     1     -21.689   9.196 -27.739  1.00  0.00     0.186 HD
HETATM   21  N12 UNL     1     -19.177   8.830 -29.841  1.00  0.00    -0.175 N 
HETATM   22  N13 UNL     1     -20.821   7.373 -29.224  1.00  0.00    -0.224 N 
ATOM     23  H12 UNL     1     -18.786   8.121 -30.460  1.00  0.00     0.186 HD
ATOM     24  H13 UNL     1     -20.354   6.736 -29.868  1.00  0.00     0.177 HD
BRANCH  22  25
HETATM   25  C19 UNL     1     -21.973   6.861 -28.563  1.00  0.00     0.164 C 
BRANCH  25  26
HETATM   26  C20 UNL     1     -21.551   6.072 -27.333  1.00  0.00     0.184 C 
BRANCH  26  27
HETATM   27  O2  UNL     1     -21.374   6.996 -26.290  1.00  0.00    -0.399 OA
ATOM     28  H2  UNL     1     -22.175   6.998 -25.780  1.00  0.00     0.209 HD
ENDBRANCH  26  27
ENDBRANCH  25  26
ENDBRANCH  22  25
ENDBRANCH   8  10
ENDBRANCH   7   8
ENDBRANCH   1   7
BRANCH   2  29
HETATM   29  N4  UNL     1     -14.976  11.131 -28.979  1.00  0.00    -0.235 N 
HETATM   30  C8  UNL     1     -15.422  12.207 -28.328  1.00  0.00     0.226 A 
HETATM   31  N5  UNL     1     -15.117  13.315 -29.068  1.00  0.00    -0.279 N 
HETATM   32  N6  UNL     1     -14.491  12.898 -30.153  1.00  0.00    -0.227 N 
ATOM     33  H5  UNL     1     -15.333  14.282 -28.828  1.00  0.00     0.189 HD
HETATM   34  N7  UNL     1     -14.417  11.555 -30.079  1.00  0.00    -0.220 N 
ATOM     35  H6  UNL     1     -14.131  13.483 -30.907  1.00  0.00     0.210 HD
ATOM     36  H7  UNL     1     -13.984  10.955 -30.782  1.00  0.00     0.210 HD
ENDBRANCH   2  29
BRANCH   6  37
HETATM   37  C17 UNL     1     -16.746   6.609 -29.639  1.00  0.00     0.114 C 
HETATM   38  N11 UNL     1     -17.927   6.055 -29.133  1.00  0.00    -0.114 NA
ENDBRANCH   6  37
BRANCH   5  39
HETATM   39  N8  UNL     1     -15.363   5.827 -27.132  1.00  0.00    -0.324 N 
HETATM   40  C12 UNL     1     -16.335   5.379 -26.180  1.00  0.00     0.262 C 
HETATM   41  O1  UNL     1     -17.213   6.090 -25.752  1.00  0.00    -0.270 OA
ATOM     42  H8  UNL     1     -14.659   5.151 -27.430  1.00  0.00     0.169 HD
BRANCH  40  43
HETATM   43  C13 UNL     1     -16.314   3.972 -25.635  1.00  0.00     0.250 C 
HETATM   44  C14 UNL     1     -15.068   3.888 -24.731  1.00  0.00     0.283 C 
HETATM   45  N10 UNL     1     -15.903   4.094 -23.589  1.00  0.00    -0.069 N 
HETATM   46  C15 UNL     1     -17.064   3.771 -24.379  1.00  0.00     0.283 C 
ATOM     47 2H10 UNL     1     -15.717   3.586 -22.724  1.00  0.00     0.277 HD
ATOM     48 1H10 UNL     1     -15.862   4.976 -23.080  1.00  0.00     0.277 HD
BRANCH  43  49
HETATM   49  N9  UNL     1     -16.311   2.928 -26.627  1.00  0.00    -0.058 N 
ATOM     50  H93 UNL     1     -15.955   2.061 -26.222  1.00  0.00     0.275 HD
ATOM     51  H92 UNL     1     -17.268   2.646 -26.841  1.00  0.00     0.275 HD
ATOM     52  H91 UNL     1     -15.809   3.144 -27.488  1.00  0.00     0.275 HD
ENDBRANCH  43  49
ENDBRANCH  40  43
ENDBRANCH   5  39
TORSDOF 11
ENDMDL
