MODEL 1
REMARK VINA RESULT: -6.926835944      0.000      0.000
REMARK  10 active torsions:
REMARK  status: ('A' for Active; 'I' for Inactive)
REMARK    1  A    between atoms: C3_7  and  O2_8 
REMARK    2  A    between atoms: C4_10  and  C5_11 
REMARK    3  A    between atoms: C5_11  and  O3_12 
REMARK    4  A    between atoms: C5_11  and  C6_14 
REMARK    5  A    between atoms: C5_11  and  C10_23 
REMARK    6  A    between atoms: C6_14  and  C7_15 
REMARK    7  A    between atoms: C7_15  and  N3_16 
REMARK    8  A    between atoms: C10_23  and  N6_24 
REMARK       I    between atoms: N6_24  and  C11_26 
REMARK    9  A    between atoms: C11_26  and  C12_28 
REMARK   10  A    between atoms: C17_37  and  C18_38 
ROOT
HETATM    1  C5  UNL     1     -16.048   2.417 -26.984  1.00  0.00     0.112 C 
ENDROOT
BRANCH   1   2
HETATM    2  C4  UNL     1     -15.638   2.459 -25.536  1.00  0.00     0.097 A 
HETATM    3  C3  UNL     1     -14.518   3.166 -25.168  1.00  0.00     0.159 A 
HETATM    4  N2  UNL     1     -14.193   3.159 -23.838  1.00  0.00    -0.288 N 
HETATM    5  C2  UNL     1     -14.918   2.504 -22.921  1.00  0.00     0.331 A 
ATOM      6  H2  UNL     1     -13.367   3.673 -23.533  1.00  0.00     0.172 HD
HETATM    7  N1  UNL     1     -16.015   1.811 -23.273  1.00  0.00    -0.270 N 
HETATM    8  O1  UNL     1     -14.569   2.532 -21.699  1.00  0.00    -0.246 OA
HETATM    9  C1  UNL     1     -16.790   1.106 -22.276  1.00  0.00     0.164 C 
HETATM   10  C19 UNL     1     -16.380   1.782 -24.567  1.00  0.00     0.264 A 
HETATM   11  O8  UNL     1     -17.421   1.126 -24.912  1.00  0.00    -0.267 OA
BRANCH   3  12
HETATM   12  O2  UNL     1     -13.759   3.846 -26.080  1.00  0.00    -0.345 OA
ATOM     13  H2  UNL     1     -13.609   3.501 -26.951  1.00  0.00     0.219 HD
ENDBRANCH   3  12
ENDBRANCH   1   2
BRANCH   1  14
HETATM   14  O3  UNL     1     -16.907   1.272 -27.031  1.00  0.00    -0.383 OA
ATOM     15  H3  UNL     1     -17.744   1.631 -26.763  1.00  0.00     0.211 HD
ENDBRANCH   1  14
BRANCH   1  16
HETATM   16  C6  UNL     1     -14.924   2.125 -27.882  1.00  0.00     0.066 C 
BRANCH  16  17
HETATM   17  C7  UNL     1     -14.600   0.707 -28.183  1.00  0.00     0.153 C 
BRANCH  17  18
HETATM   18  N3  UNL     1     -13.151   0.559 -27.973  1.00  0.00    -0.287 N 
HETATM   19  C8  UNL     1     -12.438  -0.504 -28.371  1.00  0.00     0.201 A 
HETATM   20  N4  UNL     1     -11.135  -0.317 -28.021  1.00  0.00    -0.346 N 
HETATM   21  C9  UNL     1     -11.061   0.863 -27.410  1.00  0.00     0.198 A 
ATOM     22  H4  UNL     1     -10.362  -0.960 -28.194  1.00  0.00     0.167 HD
HETATM   23  N5  UNL     1     -12.301   1.377 -27.393  1.00  0.00    -0.293 N 
ATOM     24  H5  UNL     1     -12.549   2.278 -26.985  1.00  0.00     0.188 HD
ENDBRANCH  17  18
ENDBRANCH  16  17
ENDBRANCH   1  16
BRANCH   1  25
HETATM   25  C10 UNL     1     -16.919   3.577 -27.233  1.00  0.00     0.166 C 
BRANCH  25  26
HETATM   26  N6  UNL     1     -16.290   4.783 -27.694  1.00  0.00    -0.352 N 
HETATM   27  C11 UNL     1     -16.355   5.910 -26.832  1.00  0.00     0.274 C 
HETATM   28  O4  UNL     1     -16.926   5.886 -25.712  1.00  0.00    -0.266 OA
ATOM     29  H6  UNL     1     -15.820   4.829 -28.598  1.00  0.00     0.162 HD
BRANCH  27  30
HETATM   30  C12 UNL     1     -15.721   7.153 -27.282  1.00  0.00     0.169 A 
HETATM   31  N7  UNL     1     -14.560   7.567 -26.748  1.00  0.00    -0.353 N 
HETATM   32  C13 UNL     1     -14.010   8.701 -27.180  1.00  0.00     0.137 A 
ATOM     33  H7  UNL     1     -14.104   7.018 -26.020  1.00  0.00     0.165 HD
HETATM   34  C14 UNL     1     -14.595   9.471 -28.162  1.00  0.00     0.122 A 
HETATM   35  N8  UNL     1     -15.759   9.041 -28.686  1.00  0.00    -0.295 N 
HETATM   36  N9  UNL     1     -14.220  10.711 -28.796  1.00  0.00    -0.359 N 
HETATM   37  C15 UNL     1     -16.322   7.914 -28.269  1.00  0.00     0.281 A 
HETATM   38  C16 UNL     1     -16.202  10.004 -29.707  1.00  0.00     0.170 C 
HETATM   39  O5  UNL     1     -17.427   7.506 -28.766  1.00  0.00    -0.265 OA
HETATM   40  C17 UNL     1     -15.453  11.244 -29.312  1.00  0.00     0.203 C 
ATOM     41  H9  UNL     1     -13.288  11.120 -28.864  1.00  0.00     0.162 HD
BRANCH  40  42
HETATM   42  C18 UNL     1     -15.263  12.195 -30.409  1.00  0.00     0.198 C 
HETATM   43  O6  UNL     1     -16.000  13.180 -30.544  1.00  0.00    -0.646 OA
HETATM   44  O7  UNL     1     -14.233  11.978 -31.312  1.00  0.00    -0.646 OA
ENDBRANCH  40  42
ENDBRANCH  27  30
ENDBRANCH  25  26
ENDBRANCH   1  25
TORSDOF 10
ENDMDL
MODEL 2
REMARK VINA RESULT: -6.731222508      3.237      8.963
REMARK  10 active torsions:
REMARK  status: ('A' for Active; 'I' for Inactive)
REMARK    1  A    between atoms: C3_7  and  O2_8 
REMARK    2  A    between atoms: C4_10  and  C5_11 
REMARK    3  A    between atoms: C5_11  and  O3_12 
REMARK    4  A    between atoms: C5_11  and  C6_14 
REMARK    5  A    between atoms: C5_11  and  C10_23 
REMARK    6  A    between atoms: C6_14  and  C7_15 
REMARK    7  A    between atoms: C7_15  and  N3_16 
REMARK    8  A    between atoms: C10_23  and  N6_24 
REMARK       I    between atoms: N6_24  and  C11_26 
REMARK    9  A    between atoms: C11_26  and  C12_28 
REMARK   10  A    between atoms: C17_37  and  C18_38 
ROOT
HETATM    1  C5  UNL     1     -15.766   7.306 -29.118  1.00  0.00     0.112 C 
ENDROOT
BRANCH   1   2
HETATM    2  C4  UNL     1     -15.178   8.438 -28.319  1.00  0.00     0.097 A 
HETATM    3  C3  UNL     1     -14.333   8.162 -27.270  1.00  0.00     0.159 A 
HETATM    4  N2  UNL     1     -13.838   9.235 -26.579  1.00  0.00    -0.288 N 
HETATM    5  C2  UNL     1     -14.146  10.502 -26.893  1.00  0.00     0.331 A 
ATOM      6  H2  UNL     1     -13.210   9.064 -25.793  1.00  0.00     0.172 HD
HETATM    7  N1  UNL     1     -14.970  10.779 -27.917  1.00  0.00    -0.270 N 
HETATM    8  O1  UNL     1     -13.656  11.459 -26.215  1.00  0.00    -0.246 OA
HETATM    9  C1  UNL     1     -15.296  12.148 -28.247  1.00  0.00     0.164 C 
HETATM   10  C19 UNL     1     -15.488   9.763 -28.631  1.00  0.00     0.264 A 
HETATM   11  O8  UNL     1     -16.272  10.017 -29.607  1.00  0.00    -0.267 OA
BRANCH   3  12
HETATM   12  O2  UNL     1     -14.000   6.882 -26.927  1.00  0.00    -0.345 OA
ATOM     13  H2  UNL     1     -14.656   6.197 -26.881  1.00  0.00     0.219 HD
ENDBRANCH   3  12
ENDBRANCH   1   2
BRANCH   1  14
HETATM   14  O3  UNL     1     -14.808   6.259 -28.926  1.00  0.00    -0.383 OA
ATOM     15  H3  UNL     1     -15.337   5.475 -29.016  1.00  0.00     0.211 HD
ENDBRANCH   1  14
BRANCH   1  16
HETATM   16  C6  UNL     1     -15.789   7.582 -30.559  1.00  0.00     0.066 C 
BRANCH  16  17
HETATM   17  C7  UNL     1     -16.883   7.001 -31.380  1.00  0.00     0.153 C 
BRANCH  17  18
HETATM   18  N3  UNL     1     -16.811   7.660 -32.694  1.00  0.00    -0.287 N 
HETATM   19  C8  UNL     1     -16.805   8.989 -32.871  1.00  0.00     0.201 A 
HETATM   20  N4  UNL     1     -16.731   9.256 -34.203  1.00  0.00    -0.346 N 
HETATM   21  C9  UNL     1     -16.691   8.085 -34.835  1.00  0.00     0.198 A 
ATOM     22  H4  UNL     1     -16.710  10.180 -34.636  1.00  0.00     0.167 HD
HETATM   23  N5  UNL     1     -16.741   7.129 -33.895  1.00  0.00    -0.293 N 
ATOM     24  H5  UNL     1     -16.728   6.127 -34.086  1.00  0.00     0.188 HD
ENDBRANCH  17  18
ENDBRANCH  16  17
ENDBRANCH   1  16
BRANCH   1  25
HETATM   25  C10 UNL     1     -16.985   6.860 -28.426  1.00  0.00     0.166 C 
BRANCH  25  26
HETATM   26  N6  UNL     1     -16.881   5.691 -27.597  1.00  0.00    -0.352 N 
HETATM   27  C11 UNL     1     -17.711   5.645 -26.446  1.00  0.00     0.274 C 
HETATM   28  O4  UNL     1     -18.511   6.565 -26.139  1.00  0.00    -0.266 OA
ATOM     29  H6  UNL     1     -16.241   4.930 -27.825  1.00  0.00     0.162 HD
BRANCH  27  30
HETATM   30  C12 UNL     1     -17.621   4.462 -25.585  1.00  0.00     0.169 A 
HETATM   31  N7  UNL     1     -18.654   3.610 -25.473  1.00  0.00    -0.353 N 
HETATM   32  C13 UNL     1     -18.539   2.545 -24.682  1.00  0.00     0.137 A 
ATOM     33  H7  UNL     1     -19.517   3.778 -25.989  1.00  0.00     0.165 HD
HETATM   34  C14 UNL     1     -17.390   2.282 -23.969  1.00  0.00     0.122 A 
HETATM   35  N8  UNL     1     -16.364   3.146 -24.092  1.00  0.00    -0.295 N 
HETATM   36  N9  UNL     1     -17.011   1.226 -23.062  1.00  0.00    -0.359 N 
HETATM   37  C15 UNL     1     -16.459   4.214 -24.875  1.00  0.00     0.281 A 
HETATM   38  C16 UNL     1     -15.249   2.680 -23.254  1.00  0.00     0.170 C 
HETATM   39  O5  UNL     1     -15.487   5.035 -24.993  1.00  0.00    -0.265 OA
HETATM   40  C17 UNL     1     -15.951   1.788 -22.270  1.00  0.00     0.203 C 
ATOM     41  H9  UNL     1     -17.408   0.288 -22.996  1.00  0.00     0.162 HD
BRANCH  40  42
HETATM   42  C18 UNL     1     -15.081   0.780 -21.660  1.00  0.00     0.198 C 
HETATM   43  O6  UNL     1     -15.388  -0.418 -21.652  1.00  0.00    -0.646 OA
HETATM   44  O7  UNL     1     -13.888   1.189 -21.081  1.00  0.00    -0.646 OA
ENDBRANCH  40  42
ENDBRANCH  27  30
ENDBRANCH  25  26
ENDBRANCH   1  25
TORSDOF 10
ENDMDL
MODEL 3
REMARK VINA RESULT: -6.658634985      2.007      4.248
REMARK  10 active torsions:
REMARK  status: ('A' for Active; 'I' for Inactive)
REMARK    1  A    between atoms: C3_7  and  O2_8 
REMARK    2  A    between atoms: C4_10  and  C5_11 
REMARK    3  A    between atoms: C5_11  and  O3_12 
REMARK    4  A    between atoms: C5_11  and  C6_14 
REMARK    5  A    between atoms: C5_11  and  C10_23 
REMARK    6  A    between atoms: C6_14  and  C7_15 
REMARK    7  A    between atoms: C7_15  and  N3_16 
REMARK    8  A    between atoms: C10_23  and  N6_24 
REMARK       I    between atoms: N6_24  and  C11_26 
REMARK    9  A    between atoms: C11_26  and  C12_28 
REMARK   10  A    between atoms: C17_37  and  C18_38 
ROOT
HETATM    1  C5  UNL     1     -15.859   4.404 -26.773  1.00  0.00     0.112 C 
ENDROOT
BRANCH   1   2
HETATM    2  C4  UNL     1     -15.555   3.060 -27.379  1.00  0.00     0.097 A 
HETATM    3  C3  UNL     1     -16.535   2.389 -28.070  1.00  0.00     0.159 A 
HETATM    4  N2  UNL     1     -16.198   1.169 -28.591  1.00  0.00    -0.288 N 
HETATM    5  C2  UNL     1     -14.977   0.634 -28.447  1.00  0.00     0.331 A 
ATOM      6  H2  UNL     1     -16.905   0.645 -29.108  1.00  0.00     0.172 HD
HETATM    7  N1  UNL     1     -14.013   1.284 -27.773  1.00  0.00    -0.270 N 
HETATM    8  O1  UNL     1     -14.721  -0.504 -28.952  1.00  0.00    -0.246 OA
HETATM    9  C1  UNL     1     -12.700   0.699 -27.623  1.00  0.00     0.164 C 
HETATM   10  C19 UNL     1     -14.290   2.488 -27.239  1.00  0.00     0.264 A 
HETATM   11  O8  UNL     1     -13.379   3.113 -26.596  1.00  0.00    -0.267 OA
BRANCH   3  12
HETATM   12  O2  UNL     1     -17.789   2.909 -28.235  1.00  0.00    -0.345 OA
ATOM     13  H2  UNL     1     -17.942   3.846 -28.209  1.00  0.00     0.219 HD
ENDBRANCH   3  12
ENDBRANCH   1   2
BRANCH   1  14
HETATM   14  O3  UNL     1     -14.555   4.908 -26.463  1.00  0.00    -0.383 OA
ATOM     15  H3  UNL     1     -14.550   4.898 -25.513  1.00  0.00     0.211 HD
ENDBRANCH   1  14
BRANCH   1  16
HETATM   16  C6  UNL     1     -16.574   4.300 -25.495  1.00  0.00     0.066 C 
BRANCH  16  17
HETATM   17  C7  UNL     1     -15.886   4.741 -24.254  1.00  0.00     0.153 C 
BRANCH  17  18
HETATM   18  N3  UNL     1     -15.470   3.517 -23.551  1.00  0.00    -0.287 N 
HETATM   19  C8  UNL     1     -14.209   3.254 -23.178  1.00  0.00     0.201 A 
HETATM   20  N4  UNL     1     -14.177   2.044 -22.555  1.00  0.00    -0.346 N 
HETATM   21  C9  UNL     1     -15.422   1.574 -22.551  1.00  0.00     0.198 A 
ATOM     22  H4  UNL     1     -13.354   1.585 -22.165  1.00  0.00     0.167 HD
HETATM   23  N5  UNL     1     -16.191   2.488 -23.163  1.00  0.00    -0.293 N 
ATOM     24  H5  UNL     1     -17.196   2.397 -23.308  1.00  0.00     0.188 HD
ENDBRANCH  17  18
ENDBRANCH  16  17
ENDBRANCH   1  16
BRANCH   1  25
HETATM   25  C10 UNL     1     -16.375   5.269 -27.846  1.00  0.00     0.166 C 
BRANCH  25  26
HETATM   26  N6  UNL     1     -16.262   6.689 -27.657  1.00  0.00    -0.352 N 
HETATM   27  C11 UNL     1     -15.148   7.329 -28.263  1.00  0.00     0.274 C 
HETATM   28  O4  UNL     1     -14.286   6.713 -28.940  1.00  0.00    -0.266 OA
ATOM     29  H6  UNL     1     -16.948   7.212 -27.113  1.00  0.00     0.162 HD
BRANCH  27  30
HETATM   30  C12 UNL     1     -15.011   8.777 -28.083  1.00  0.00     0.169 A 
HETATM   31  N7  UNL     1     -14.208   9.281 -27.132  1.00  0.00    -0.353 N 
HETATM   32  C13 UNL     1     -14.107  10.602 -26.995  1.00  0.00     0.137 A 
ATOM     33  H7  UNL     1     -13.681   8.659 -26.521  1.00  0.00     0.165 HD
HETATM   34  C14 UNL     1     -14.802  11.478 -27.800  1.00  0.00     0.122 A 
HETATM   35  N8  UNL     1     -15.604  10.956 -28.749  1.00  0.00    -0.295 N 
HETATM   36  N9  UNL     1     -14.873  12.918 -27.863  1.00  0.00    -0.359 N 
HETATM   37  C15 UNL     1     -15.718   9.642 -28.901  1.00  0.00     0.281 A 
HETATM   38  C16 UNL     1     -16.244  12.056 -29.487  1.00  0.00     0.170 C 
HETATM   39  O5  UNL     1     -16.479   9.145 -29.800  1.00  0.00    -0.265 OA
HETATM   40  C17 UNL     1     -16.126  13.194 -28.513  1.00  0.00     0.203 C 
ATOM     41  H9  UNL     1     -14.186  13.591 -27.522  1.00  0.00     0.162 HD
BRANCH  40  42
HETATM   42  C18 UNL     1     -16.179  14.516 -29.139  1.00  0.00     0.198 C 
HETATM   43  O6  UNL     1     -15.152  15.173 -29.348  1.00  0.00    -0.646 OA
HETATM   44  O7  UNL     1     -17.413  15.034 -29.503  1.00  0.00    -0.646 OA
ENDBRANCH  40  42
ENDBRANCH  27  30
ENDBRANCH  25  26
ENDBRANCH   1  25
TORSDOF 10
ENDMDL
MODEL 4
REMARK VINA RESULT: -6.586393719      5.342     10.459
REMARK  10 active torsions:
REMARK  status: ('A' for Active; 'I' for Inactive)
REMARK    1  A    between atoms: C3_7  and  O2_8 
REMARK    2  A    between atoms: C4_10  and  C5_11 
REMARK    3  A    between atoms: C5_11  and  O3_12 
REMARK    4  A    between atoms: C5_11  and  C6_14 
REMARK    5  A    between atoms: C5_11  and  C10_23 
REMARK    6  A    between atoms: C6_14  and  C7_15 
REMARK    7  A    between atoms: C7_15  and  N3_16 
REMARK    8  A    between atoms: C10_23  and  N6_24 
REMARK       I    between atoms: N6_24  and  C11_26 
REMARK    9  A    between atoms: C11_26  and  C12_28 
REMARK   10  A    between atoms: C17_37  and  C18_38 
ROOT
HETATM    1  C5  UNL     1     -15.811  11.873 -28.804  1.00  0.00     0.112 C 
ENDROOT
BRANCH   1   2
HETATM    2  C4  UNL     1     -15.272  10.554 -28.316  1.00  0.00     0.097 A 
HETATM    3  C3  UNL     1     -14.354  10.533 -27.293  1.00  0.00     0.159 A 
HETATM    4  N2  UNL     1     -13.897   9.304 -26.900  1.00  0.00    -0.288 N 
HETATM    5  C2  UNL     1     -14.311   8.163 -27.470  1.00  0.00     0.331 A 
ATOM      6  H2  UNL     1     -13.213   9.254 -26.144  1.00  0.00     0.172 HD
HETATM    7  N1  UNL     1     -15.208   8.176 -28.469  1.00  0.00    -0.270 N 
HETATM    8  O1  UNL     1     -13.851   7.050 -27.063  1.00  0.00    -0.246 OA
HETATM    9  C1  UNL     1     -15.648   6.940 -29.078  1.00  0.00     0.164 C 
HETATM   10  C19 UNL     1     -15.691   9.357 -28.897  1.00  0.00     0.264 A 
HETATM   11  O8  UNL     1     -16.545   9.379 -29.848  1.00  0.00    -0.267 OA
BRANCH   3  12
HETATM   12  O2  UNL     1     -13.914  11.679 -26.692  1.00  0.00    -0.345 OA
ATOM     13  H2  UNL     1     -13.877  12.502 -27.165  1.00  0.00     0.219 HD
ENDBRANCH   3  12
ENDBRANCH   1   2
BRANCH   1  14
HETATM   14  O3  UNL     1     -15.190  12.810 -27.918  1.00  0.00    -0.383 OA
ATOM     15  H3  UNL     1     -15.082  13.576 -28.470  1.00  0.00     0.211 HD
ENDBRANCH   1  14
BRANCH   1  16
HETATM   16  C6  UNL     1     -17.258  12.005 -28.593  1.00  0.00     0.066 C 
BRANCH  16  17
HETATM   17  C7  UNL     1     -18.008  13.007 -29.395  1.00  0.00     0.153 C 
BRANCH  17  18
HETATM   18  N3  UNL     1     -17.974  14.262 -28.627  1.00  0.00    -0.287 N 
HETATM   19  C8  UNL     1     -18.883  14.605 -27.704  1.00  0.00     0.201 A 
HETATM   20  N4  UNL     1     -18.554  15.822 -27.191  1.00  0.00    -0.346 N 
HETATM   21  C9  UNL     1     -17.440  16.216 -27.805  1.00  0.00     0.198 A 
ATOM     22  H4  UNL     1     -19.063  16.335 -26.471  1.00  0.00     0.167 HD
HETATM   23  N5  UNL     1     -17.107  15.250 -28.675  1.00  0.00    -0.293 N 
ATOM     24  H5  UNL     1     -16.293  15.278 -29.289  1.00  0.00     0.188 HD
ENDBRANCH  17  18
ENDBRANCH  16  17
ENDBRANCH   1  16
BRANCH   1  25
HETATM   25  C10 UNL     1     -15.225  12.130 -30.129  1.00  0.00     0.166 C 
BRANCH  25  26
HETATM   26  N6  UNL     1     -14.227  13.159 -30.218  1.00  0.00    -0.352 N 
HETATM   27  C11 UNL     1     -14.593  14.349 -30.901  1.00  0.00     0.274 C 
HETATM   28  O4  UNL     1     -15.727  14.527 -31.413  1.00  0.00    -0.266 OA
ATOM     29  H6  UNL     1     -13.300  13.040 -29.810  1.00  0.00     0.162 HD
BRANCH  27  30
HETATM   30  C12 UNL     1     -13.590  15.413 -31.004  1.00  0.00     0.169 A 
HETATM   31  N7  UNL     1     -12.898  15.601 -32.139  1.00  0.00    -0.353 N 
HETATM   32  C13 UNL     1     -11.993  16.576 -32.199  1.00  0.00     0.137 A 
ATOM     33  H7  UNL     1     -13.063  15.002 -32.947  1.00  0.00     0.165 HD
HETATM   34  C14 UNL     1     -11.739  17.408 -31.130  1.00  0.00     0.122 A 
HETATM   35  N8  UNL     1     -12.442  17.206 -29.998  1.00  0.00    -0.295 N 
HETATM   36  N9  UNL     1     -10.835  18.515 -30.933  1.00  0.00    -0.359 N 
HETATM   37  C15 UNL     1     -13.348  16.238 -29.919  1.00  0.00     0.281 A 
HETATM   38  C16 UNL     1     -12.017  18.194 -28.995  1.00  0.00     0.170 C 
HETATM   39  O5  UNL     1     -14.015  16.045 -28.846  1.00  0.00    -0.265 OA
HETATM   40  C17 UNL     1     -10.664  18.597 -29.507  1.00  0.00     0.203 C 
ATOM     41  H9  UNL     1     -10.411  19.108 -31.646  1.00  0.00     0.162 HD
BRANCH  40  42
HETATM   42  C18 UNL     1     -10.227  19.916 -29.047  1.00  0.00     0.198 C 
HETATM   43  O6  UNL     1      -9.034  20.159 -28.823  1.00  0.00    -0.646 OA
HETATM   44  O7  UNL     1     -11.177  20.909 -28.862  1.00  0.00    -0.646 OA
ENDBRANCH  40  42
ENDBRANCH  27  30
ENDBRANCH  25  26
ENDBRANCH   1  25
TORSDOF 10
ENDMDL
MODEL 5
REMARK VINA RESULT: -6.585139147      1.519      2.066
REMARK  10 active torsions:
REMARK  status: ('A' for Active; 'I' for Inactive)
REMARK    1  A    between atoms: C3_7  and  O2_8 
REMARK    2  A    between atoms: C4_10  and  C5_11 
REMARK    3  A    between atoms: C5_11  and  O3_12 
REMARK    4  A    between atoms: C5_11  and  C6_14 
REMARK    5  A    between atoms: C5_11  and  C10_23 
REMARK    6  A    between atoms: C6_14  and  C7_15 
REMARK    7  A    between atoms: C7_15  and  N3_16 
REMARK    8  A    between atoms: C10_23  and  N6_24 
REMARK       I    between atoms: N6_24  and  C11_26 
REMARK    9  A    between atoms: C11_26  and  C12_28 
REMARK   10  A    between atoms: C17_37  and  C18_38 
ROOT
HETATM    1  C5  UNL     1     -15.127   3.291 -25.213  1.00  0.00     0.112 C 
ENDROOT
BRANCH   1   2
HETATM    2  C4  UNL     1     -15.416   2.609 -23.902  1.00  0.00     0.097 A 
HETATM    3  C3  UNL     1     -14.558   2.782 -22.843  1.00  0.00     0.159 A 
HETATM    4  N2  UNL     1     -14.872   2.129 -21.681  1.00  0.00    -0.288 N 
HETATM    5  C2  UNL     1     -15.960   1.355 -21.559  1.00  0.00     0.331 A 
ATOM      6  H2  UNL     1     -14.254   2.235 -20.877  1.00  0.00     0.172 HD
HETATM    7  N1  UNL     1     -16.804   1.181 -22.590  1.00  0.00    -0.270 N 
HETATM    8  O1  UNL     1     -16.202   0.772 -20.455  1.00  0.00    -0.246 OA
HETATM    9  C1  UNL     1     -17.974   0.343 -22.449  1.00  0.00     0.164 C 
HETATM   10  C19 UNL     1     -16.543   1.798 -23.757  1.00  0.00     0.264 A 
HETATM   11  O8  UNL     1     -17.340   1.639 -24.743  1.00  0.00    -0.267 OA
BRANCH   3  12
HETATM   12  O2  UNL     1     -13.442   3.566 -22.936  1.00  0.00    -0.345 OA
ATOM     13  H2  UNL     1     -12.784   3.570 -22.252  1.00  0.00     0.219 HD
ENDBRANCH   3  12
ENDBRANCH   1   2
BRANCH   1  14
HETATM   14  O3  UNL     1     -16.270   2.944 -26.003  1.00  0.00    -0.383 OA
ATOM     15  H3  UNL     1     -16.745   2.353 -25.431  1.00  0.00     0.211 HD
ENDBRANCH   1  14
BRANCH   1  16
HETATM   16  C6  UNL     1     -13.963   2.721 -25.902  1.00  0.00     0.066 C 
BRANCH  16  17
HETATM   17  C7  UNL     1     -14.111   2.290 -27.317  1.00  0.00     0.153 C 
BRANCH  17  18
HETATM   18  N3  UNL     1     -13.073   1.273 -27.552  1.00  0.00    -0.287 N 
HETATM   19  C8  UNL     1     -11.816   1.360 -27.094  1.00  0.00     0.201 A 
HETATM   20  N4  UNL     1     -11.125   0.256 -27.491  1.00  0.00    -0.346 N 
HETATM   21  C9  UNL     1     -11.968  -0.502 -28.190  1.00  0.00     0.198 A 
ATOM     22  H4  UNL     1     -10.147   0.049 -27.290  1.00  0.00     0.167 HD
HETATM   23  N5  UNL     1     -13.147   0.139 -28.213  1.00  0.00    -0.293 N 
ATOM     24  H5  UNL     1     -13.985  -0.207 -28.680  1.00  0.00     0.188 HD
ENDBRANCH  17  18
ENDBRANCH  16  17
ENDBRANCH   1  16
BRANCH   1  25
HETATM   25  C10 UNL     1     -15.223   4.742 -24.990  1.00  0.00     0.166 C 
BRANCH  25  26
HETATM   26  N6  UNL     1     -15.133   5.591 -26.145  1.00  0.00    -0.352 N 
HETATM   27  C11 UNL     1     -16.350   6.128 -26.642  1.00  0.00     0.274 C 
HETATM   28  O4  UNL     1     -17.469   5.893 -26.120  1.00  0.00    -0.266 OA
ATOM     29  H6  UNL     1     -14.237   5.799 -26.586  1.00  0.00     0.162 HD
BRANCH  27  30
HETATM   30  C12 UNL     1     -16.282   6.998 -27.820  1.00  0.00     0.169 A 
HETATM   31  N7  UNL     1     -17.005   6.728 -28.919  1.00  0.00    -0.353 N 
HETATM   32  C13 UNL     1     -16.920   7.538 -29.973  1.00  0.00     0.137 A 
ATOM     33  H7  UNL     1     -17.613   5.910 -28.947  1.00  0.00     0.165 HD
HETATM   34  C14 UNL     1     -16.110   8.653 -29.976  1.00  0.00     0.122 A 
HETATM   35  N8  UNL     1     -15.391   8.910 -28.866  1.00  0.00    -0.295 N 
HETATM   36  N9  UNL     1     -15.839   9.673 -30.960  1.00  0.00    -0.359 N 
HETATM   37  C15 UNL     1     -15.463   8.114 -27.806  1.00  0.00     0.281 A 
HETATM   38  C16 UNL     1     -14.606  10.134 -29.083  1.00  0.00     0.170 C 
HETATM   39  O5  UNL     1     -14.782   8.356 -26.752  1.00  0.00    -0.265 OA
HETATM   40  C17 UNL     1     -14.561  10.214 -30.582  1.00  0.00     0.203 C 
ATOM     41  H9  UNL     1     -16.424   9.950 -31.749  1.00  0.00     0.162 HD
BRANCH  40  42
HETATM   42  C18 UNL     1     -14.325  11.565 -31.095  1.00  0.00     0.198 C 
HETATM   43  O6  UNL     1     -15.031  12.520 -30.749  1.00  0.00    -0.646 OA
HETATM   44  O7  UNL     1     -13.283  11.768 -31.989  1.00  0.00    -0.646 OA
ENDBRANCH  40  42
ENDBRANCH  27  30
ENDBRANCH  25  26
ENDBRANCH   1  25
TORSDOF 10
ENDMDL
