MODEL 1
REMARK VINA RESULT: -6.503540200      0.000      0.000
REMARK  8 active torsions:
REMARK  status: ('A' for Active; 'I' for Inactive)
REMARK    1  A    between atoms: C2_2  and  C3_3 
REMARK    2  A    between atoms: C3_3  and  S1_4 
REMARK    3  A    between atoms: S1_4  and  C4_5 
REMARK    4  A    between atoms: C5_8  and  N2_9 
REMARK    5  A    between atoms: N2_9  and  C6_11 
REMARK    6  A    between atoms: C6_11  and  C7_12 
REMARK    7  A    between atoms: C7_12  and  N3_13 
REMARK    8  A    between atoms: N5_22  and  S2_24 
ROOT
HETATM    1  C4  UNL     1      -4.131   3.923  14.263  1.00  0.00     0.174 A 
HETATM    2  N1  UNL     1      -3.318   3.258  13.411  1.00  0.00    -0.169 N 
ATOM      3  H1  UNL     1      -3.505   2.274  13.211  1.00  0.00     0.186 HD
HETATM    4  C5  UNL     1      -2.277   3.855  12.824  1.00  0.00     0.696 A 
HETATM    5  N4  UNL     1      -2.038   5.171  13.098  1.00  0.00    -0.018 N 
HETATM    6  C12 UNL     1      -0.903   5.798  12.452  1.00  0.00     0.195 C 
HETATM    7  C13 UNL     1      -2.801   5.885  13.930  1.00  0.00     0.706 A 
HETATM    8  N5  UNL     1      -2.657   7.106  14.244  1.00  0.00    -0.164 N 
ATOM      9  H5  UNL     1      -3.360   7.444  14.901  1.00  0.00     0.192 HD
HETATM   10  N6  UNL     1      -3.866   5.201  14.506  1.00  0.00    -0.169 N 
ATOM     11  H6  UNL     1      -4.475   5.707  15.149  1.00  0.00     0.186 HD
ENDROOT
BRANCH   4  12
HETATM   12  N2  UNL     1      -1.522   3.245  12.034  1.00  0.00    -0.224 N 
ATOM     13  H2  UNL     1      -0.550   3.170  12.331  1.00  0.00     0.177 HD
BRANCH  12  14
HETATM   14  C6  UNL     1      -1.823   2.642  10.781  1.00  0.00     0.158 C 
BRANCH  14  15
HETATM   15  C7  UNL     1      -1.553   1.157  10.822  1.00  0.00     0.142 C 
BRANCH  15  16
HETATM   16  N3  UNL     1      -2.716   0.356  10.643  1.00  0.00    -0.388 N 
HETATM   17  C8  UNL     1      -3.899   0.841  11.260  1.00  0.00     0.148 C 
HETATM   18  C9  UNL     1      -4.328  -0.022  12.422  1.00  0.00     0.187 C 
HETATM   19  O1  UNL     1      -4.579  -1.298  11.864  1.00  0.00    -0.385 OA
HETATM   20  C10 UNL     1      -3.328  -1.838  11.598  1.00  0.00     0.212 C 
HETATM   21  C11 UNL     1      -2.497  -1.030  10.671  1.00  0.00     0.084 C 
ENDBRANCH  15  16
ENDBRANCH  14  15
ENDBRANCH  12  14
ENDBRANCH   4  12
BRANCH   1  22
HETATM   22  S1  UNL     1      -5.521   3.134  15.052  1.00  0.00    -0.093 SA
BRANCH  22  23
HETATM   23  C3  UNL     1      -5.048   1.655  15.955  1.00  0.00     0.082 C 
BRANCH  23  24
HETATM   24  C2  UNL     1      -5.798   1.485  17.236  1.00  0.00     0.006 C 
HETATM   25  C1  UNL     1      -7.229   1.106  17.057  1.00  0.00     0.006 C 
ENDBRANCH  23  24
ENDBRANCH  22  23
ENDBRANCH   1  22
BRANCH   8  26
HETATM   26  S2  UNL     1      -1.516   8.297  13.784  1.00  0.00    -0.044 SA
HETATM   27  C14 UNL     1      -0.978   9.216  15.261  1.00  0.00     0.115 C 
ENDBRANCH   8  26
TORSDOF 8
ENDMDL
MODEL 2
REMARK VINA RESULT: -6.487244860      2.601      5.425
REMARK  8 active torsions:
REMARK  status: ('A' for Active; 'I' for Inactive)
REMARK    1  A    between atoms: C2_2  and  C3_3 
REMARK    2  A    between atoms: C3_3  and  S1_4 
REMARK    3  A    between atoms: S1_4  and  C4_5 
REMARK    4  A    between atoms: C5_8  and  N2_9 
REMARK    5  A    between atoms: N2_9  and  C6_11 
REMARK    6  A    between atoms: C6_11  and  C7_12 
REMARK    7  A    between atoms: C7_12  and  N3_13 
REMARK    8  A    between atoms: N5_22  and  S2_24 
ROOT
HETATM    1  C4  UNL     1      -3.712   1.519  11.274  1.00  0.00     0.174 A 
HETATM    2  N1  UNL     1      -4.321   2.447  12.046  1.00  0.00    -0.169 N 
ATOM      3  H1  UNL     1      -5.276   2.280  12.365  1.00  0.00     0.186 HD
HETATM    4  C5  UNL     1      -3.704   3.578  12.402  1.00  0.00     0.696 A 
HETATM    5  N4  UNL     1      -2.426   3.790  11.970  1.00  0.00    -0.018 N 
HETATM    6  C12 UNL     1      -1.777   5.023  12.367  1.00  0.00     0.195 C 
HETATM    7  C13 UNL     1      -1.768   2.914  11.206  1.00  0.00     0.706 A 
HETATM    8  N5  UNL     1      -0.586   3.023  10.759  1.00  0.00    -0.164 N 
ATOM      9  H5  UNL     1      -0.288   2.230  10.192  1.00  0.00     0.192 HD
HETATM   10  N6  UNL     1      -2.470   1.760  10.873  1.00  0.00    -0.169 N 
ATOM     11  H6  UNL     1      -2.007   1.063  10.289  1.00  0.00     0.186 HD
ENDROOT
BRANCH   4  12
HETATM   12  N2  UNL     1      -4.261   4.440  13.117  1.00  0.00    -0.224 N 
ATOM     13  H2  UNL     1      -4.598   5.265  12.622  1.00  0.00     0.177 HD
BRANCH  12  14
HETATM   14  C6  UNL     1      -4.494   4.437  14.521  1.00  0.00     0.158 C 
BRANCH  14  15
HETATM   15  C7  UNL     1      -5.659   3.543  14.870  1.00  0.00     0.142 C 
BRANCH  15  16
HETATM   16  N3  UNL     1      -5.439   2.733  16.019  1.00  0.00    -0.388 N 
HETATM   17  C8  UNL     1      -4.299   1.887  15.967  1.00  0.00     0.148 C 
HETATM   18  C9  UNL     1      -4.678   0.430  15.866  1.00  0.00     0.187 C 
HETATM   19  O1  UNL     1      -5.413   0.155  17.043  1.00  0.00    -0.385 OA
HETATM   20  C10 UNL     1      -6.653   0.751  16.854  1.00  0.00     0.212 C 
HETATM   21  C11 UNL     1      -6.598   2.215  16.616  1.00  0.00     0.084 C 
ENDBRANCH  15  16
ENDBRANCH  14  15
ENDBRANCH  12  14
ENDBRANCH   4  12
BRANCH   1  22
HETATM   22  S1  UNL     1      -4.528   0.009  10.793  1.00  0.00    -0.093 SA
BRANCH  22  23
HETATM   23  C3  UNL     1      -4.007  -1.397  11.783  1.00  0.00     0.082 C 
BRANCH  23  24
HETATM   24  C2  UNL     1      -2.796  -2.083  11.236  1.00  0.00     0.006 C 
HETATM   25  C1  UNL     1      -2.899  -3.569  11.212  1.00  0.00     0.006 C 
ENDBRANCH  23  24
ENDBRANCH  22  23
ENDBRANCH   1  22
BRANCH   8  26
HETATM   26  S2  UNL     1       0.608   4.241  10.919  1.00  0.00    -0.044 SA
HETATM   27  C14 UNL     1       1.915   3.966   9.681  1.00  0.00     0.115 C 
ENDBRANCH   8  26
TORSDOF 8
ENDMDL
MODEL 3
REMARK VINA RESULT: -6.427895656      2.460      4.862
REMARK  8 active torsions:
REMARK  status: ('A' for Active; 'I' for Inactive)
REMARK    1  A    between atoms: C2_2  and  C3_3 
REMARK    2  A    between atoms: C3_3  and  S1_4 
REMARK    3  A    between atoms: S1_4  and  C4_5 
REMARK    4  A    between atoms: C5_8  and  N2_9 
REMARK    5  A    between atoms: N2_9  and  C6_11 
REMARK    6  A    between atoms: C6_11  and  C7_12 
REMARK    7  A    between atoms: C7_12  and  N3_13 
REMARK    8  A    between atoms: N5_22  and  S2_24 
ROOT
HETATM    1  C4  UNL     1      -1.849   2.079  11.357  1.00  0.00     0.174 A 
HETATM    2  N1  UNL     1      -2.727   2.813  12.076  1.00  0.00    -0.169 N 
ATOM      3  H1  UNL     1      -3.644   2.420  12.293  1.00  0.00     0.186 HD
HETATM    4  C5  UNL     1      -2.426   4.040  12.510  1.00  0.00     0.696 A 
HETATM    5  N4  UNL     1      -1.196   4.556  12.213  1.00  0.00    -0.018 N 
HETATM    6  C12 UNL     1      -0.892   5.889  12.693  1.00  0.00     0.195 C 
HETATM    7  C13 UNL     1      -0.283   3.883  11.508  1.00  0.00     0.706 A 
HETATM    8  N5  UNL     1       0.879   4.277  11.186  1.00  0.00    -0.164 N 
ATOM      9  H5  UNL     1       1.406   3.595  10.641  1.00  0.00     0.192 HD
HETATM   10  N6  UNL     1      -0.664   2.612  11.088  1.00  0.00    -0.169 N 
ATOM     11  H6  UNL     1       0.003   2.063  10.545  1.00  0.00     0.186 HD
ENDROOT
BRANCH   4  12
HETATM   12  N2  UNL     1      -3.234   4.725  13.176  1.00  0.00    -0.224 N 
ATOM     13  H2  UNL     1      -2.877   5.621  13.506  1.00  0.00     0.177 HD
BRANCH  12  14
HETATM   14  C6  UNL     1      -4.579   4.435  13.540  1.00  0.00     0.158 C 
BRANCH  14  15
HETATM   15  C7  UNL     1      -4.641   3.817  14.917  1.00  0.00     0.142 C 
BRANCH  15  16
HETATM   16  N3  UNL     1      -5.307   2.560  14.953  1.00  0.00    -0.388 N 
HETATM   17  C8  UNL     1      -6.155   2.344  16.070  1.00  0.00     0.148 C 
HETATM   18  C9  UNL     1      -5.604   1.298  17.009  1.00  0.00     0.187 C 
HETATM   19  O1  UNL     1      -5.529   0.113  16.240  1.00  0.00    -0.385 OA
HETATM   20  C10 UNL     1      -4.443   0.288  15.393  1.00  0.00     0.212 C 
HETATM   21  C11 UNL     1      -4.548   1.469  14.500  1.00  0.00     0.084 C 
ENDBRANCH  15  16
ENDBRANCH  14  15
ENDBRANCH  12  14
ENDBRANCH   4  12
BRANCH   1  22
HETATM   22  S1  UNL     1      -2.242   0.441  10.773  1.00  0.00    -0.093 SA
BRANCH  22  23
HETATM   23  C3  UNL     1      -3.927  -0.041  11.168  1.00  0.00     0.082 C 
BRANCH  23  24
HETATM   24  C2  UNL     1      -4.031  -1.438  11.689  1.00  0.00     0.006 C 
HETATM   25  C1  UNL     1      -2.879  -2.310  11.323  1.00  0.00     0.006 C 
ENDBRANCH  23  24
ENDBRANCH  22  23
ENDBRANCH   1  22
BRANCH   8  26
HETATM   26  S2  UNL     1       1.737   5.729  11.484  1.00  0.00    -0.044 SA
HETATM   27  C14 UNL     1       3.434   5.327  12.007  1.00  0.00     0.115 C 
ENDBRANCH   8  26
TORSDOF 8
ENDMDL
MODEL 4
REMARK VINA RESULT: -6.384509484      3.060      5.495
REMARK  8 active torsions:
REMARK  status: ('A' for Active; 'I' for Inactive)
REMARK    1  A    between atoms: C2_2  and  C3_3 
REMARK    2  A    between atoms: C3_3  and  S1_4 
REMARK    3  A    between atoms: S1_4  and  C4_5 
REMARK    4  A    between atoms: C5_8  and  N2_9 
REMARK    5  A    between atoms: N2_9  and  C6_11 
REMARK    6  A    between atoms: C6_11  and  C7_12 
REMARK    7  A    between atoms: C7_12  and  N3_13 
REMARK    8  A    between atoms: N5_22  and  S2_24 
ROOT
HETATM    1  C4  UNL     1      -3.326   2.601  11.455  1.00  0.00     0.174 A 
HETATM    2  N1  UNL     1      -3.550   3.092  12.695  1.00  0.00    -0.169 N 
ATOM      3  H1  UNL     1      -3.355   2.503  13.506  1.00  0.00     0.186 HD
HETATM    4  C5  UNL     1      -4.021   4.328  12.886  1.00  0.00     0.696 A 
HETATM    5  N4  UNL     1      -4.277   5.106  11.794  1.00  0.00    -0.018 N 
HETATM    6  C12 UNL     1      -4.788   6.442  12.025  1.00  0.00     0.195 C 
HETATM    7  C13 UNL     1      -4.077   4.683  10.544  1.00  0.00     0.706 A 
HETATM    8  N5  UNL     1      -4.285   5.332   9.473  1.00  0.00    -0.164 N 
ATOM      9  H5  UNL     1      -4.062   4.807   8.627  1.00  0.00     0.192 HD
HETATM   10  N6  UNL     1      -3.587   3.387  10.418  1.00  0.00    -0.169 N 
ATOM     11  H6  UNL     1      -3.420   3.022   9.480  1.00  0.00     0.186 HD
ENDROOT
BRANCH   4  12
HETATM   12  N2  UNL     1      -4.230   4.787  14.031  1.00  0.00    -0.224 N 
ATOM     13  H2  UNL     1      -3.421   5.211  14.485  1.00  0.00     0.177 HD
BRANCH  12  14
HETATM   14  C6  UNL     1      -5.432   4.806  14.792  1.00  0.00     0.158 C 
BRANCH  14  15
HETATM   15  C7  UNL     1      -6.029   3.421  14.887  1.00  0.00     0.142 C 
BRANCH  15  16
HETATM   16  N3  UNL     1      -5.676   2.724  16.076  1.00  0.00    -0.388 N 
HETATM   17  C8  UNL     1      -4.467   1.982  16.021  1.00  0.00     0.148 C 
HETATM   18  C9  UNL     1      -4.712   0.493  16.045  1.00  0.00     0.187 C 
HETATM   19  O1  UNL     1      -5.359   0.244  17.278  1.00  0.00    -0.385 OA
HETATM   20  C10 UNL     1      -6.657   0.711  17.117  1.00  0.00     0.212 C 
HETATM   21  C11 UNL     1      -6.752   2.151  16.773  1.00  0.00     0.084 C 
ENDBRANCH  15  16
ENDBRANCH  14  15
ENDBRANCH  12  14
ENDBRANCH   4  12
BRANCH   1  22
HETATM   22  S1  UNL     1      -2.700   0.954  11.190  1.00  0.00    -0.093 SA
BRANCH  22  23
HETATM   23  C3  UNL     1      -4.005  -0.224  10.822  1.00  0.00     0.082 C 
BRANCH  23  24
HETATM   24  C2  UNL     1      -3.963  -1.438  11.692  1.00  0.00     0.006 C 
HETATM   25  C1  UNL     1      -2.900  -2.415  11.321  1.00  0.00     0.006 C 
ENDBRANCH  23  24
ENDBRANCH  22  23
ENDBRANCH   1  22
BRANCH   8  26
HETATM   26  S2  UNL     1      -4.866   6.913   9.168  1.00  0.00    -0.044 SA
HETATM   27  C14 UNL     1      -6.667   6.851   8.906  1.00  0.00     0.115 C 
ENDBRANCH   8  26
TORSDOF 8
ENDMDL
MODEL 5
REMARK VINA RESULT: -6.383187306      3.048      5.251
REMARK  8 active torsions:
REMARK  status: ('A' for Active; 'I' for Inactive)
REMARK    1  A    between atoms: C2_2  and  C3_3 
REMARK    2  A    between atoms: C3_3  and  S1_4 
REMARK    3  A    between atoms: S1_4  and  C4_5 
REMARK    4  A    between atoms: C5_8  and  N2_9 
REMARK    5  A    between atoms: N2_9  and  C6_11 
REMARK    6  A    between atoms: C6_11  and  C7_12 
REMARK    7  A    between atoms: C7_12  and  N3_13 
REMARK    8  A    between atoms: N5_22  and  S2_24 
ROOT
HETATM    1  C4  UNL     1      -2.473   2.777  11.057  1.00  0.00     0.174 A 
HETATM    2  N1  UNL     1      -2.587   3.200  12.336  1.00  0.00    -0.169 N 
ATOM      3  H1  UNL     1      -2.154   2.653  13.081  1.00  0.00     0.186 HD
HETATM    4  C5  UNL     1      -3.251   4.316  12.649  1.00  0.00     0.696 A 
HETATM    5  N4  UNL     1      -3.825   5.040  11.644  1.00  0.00    -0.018 N 
HETATM    6  C12 UNL     1      -4.542   6.246  12.007  1.00  0.00     0.195 C 
HETATM    7  C13 UNL     1      -3.750   4.678  10.361  1.00  0.00     0.706 A 
HETATM    8  N5  UNL     1      -4.249   5.283   9.363  1.00  0.00    -0.164 N 
ATOM      9  H5  UNL     1      -4.067   4.822   8.472  1.00  0.00     0.192 HD
HETATM   10  N6  UNL     1      -3.045   3.506  10.106  1.00  0.00    -0.169 N 
ATOM     11  H6  UNL     1      -2.963   3.191   9.139  1.00  0.00     0.186 HD
ENDROOT
BRANCH   4  12
HETATM   12  N2  UNL     1      -3.359   4.713  13.831  1.00  0.00    -0.224 N 
ATOM     13  H2  UNL     1      -3.112   5.690  13.986  1.00  0.00     0.177 HD
BRANCH  12  14
HETATM   14  C6  UNL     1      -3.778   4.001  14.989  1.00  0.00     0.158 C 
BRANCH  14  15
HETATM   15  C7  UNL     1      -5.279   3.837  15.005  1.00  0.00     0.142 C 
BRANCH  15  16
HETATM   16  N3  UNL     1      -5.709   2.488  15.152  1.00  0.00    -0.388 N 
HETATM   17  C8  UNL     1      -6.454   2.203  16.326  1.00  0.00     0.148 C 
HETATM   18  C9  UNL     1      -5.684   1.334  17.291  1.00  0.00     0.187 C 
HETATM   19  O1  UNL     1      -5.435   0.131  16.589  1.00  0.00    -0.385 OA
HETATM   20  C10 UNL     1      -4.437   0.436  15.674  1.00  0.00     0.212 C 
HETATM   21  C11 UNL     1      -4.790   1.518  14.721  1.00  0.00     0.084 C 
ENDBRANCH  15  16
ENDBRANCH  14  15
ENDBRANCH  12  14
ENDBRANCH   4  12
BRANCH   1  22
HETATM   22  S1  UNL     1      -1.590   1.289  10.629  1.00  0.00    -0.093 SA
BRANCH  22  23
HETATM   23  C3  UNL     1      -2.693  -0.082  10.266  1.00  0.00     0.082 C 
BRANCH  23  24
HETATM   24  C2  UNL     1      -3.960  -0.041  11.058  1.00  0.00     0.006 C 
HETATM   25  C1  UNL     1      -4.140  -1.200  11.977  1.00  0.00     0.006 C 
ENDBRANCH  23  24
ENDBRANCH  22  23
ENDBRANCH   1  22
BRANCH   8  26
HETATM   26  S2  UNL     1      -5.167   6.722   9.218  1.00  0.00    -0.044 SA
HETATM   27  C14 UNL     1      -5.654   6.951   7.479  1.00  0.00     0.115 C 
ENDBRANCH   8  26
TORSDOF 8
ENDMDL
