MODEL 1
REMARK VINA RESULT: -6.436912128      0.000      0.000
REMARK  14 active torsions:
REMARK  status: ('A' for Active; 'I' for Inactive)
REMARK    1  A    between atoms: C2_2  and  O1_5 
REMARK    2  A    between atoms: O1_5  and  C5_6 
REMARK    3  A    between atoms: C5_6  and  C6_8 
REMARK    4  A    between atoms: C6_8  and  C7_9 
REMARK    5  A    between atoms: C7_9  and  C8_10 
REMARK    6  A    between atoms: C8_10  and  O4_12 
REMARK    7  A    between atoms: O4_12  and  C9_13 
REMARK    8  A    between atoms: C10_14  and  C11_15 
REMARK    9  A    between atoms: C11_15  and  O5_16 
REMARK   10  A    between atoms: C12_19  and  N1_20 
REMARK   11  A    between atoms: N1_20  and  N2_22 
REMARK   12  A    between atoms: C13_27  and  C14_28 
REMARK   13  A    between atoms: C14_28  and  C15_29 
REMARK   14  A    between atoms: C15_29  and  O7_30 
ROOT
HETATM    1  C9  UNL     1      -3.018   3.073  11.510  1.00  0.00     0.171 C 
HETATM    2  C10 UNL     1      -1.963   2.861  10.421  1.00  0.00     0.177 C 
HETATM    3  O6  UNL     1      -0.941   3.744  10.670  1.00  0.00    -0.355 OA
HETATM    4  C12 UNL     1      -0.957   4.009  12.059  1.00  0.00     0.244 C 
HETATM    5  C13 UNL     1      -2.462   4.253  12.246  1.00  0.00     0.070 C 
ENDROOT
BRANCH   1   6
HETATM    6  O4  UNL     1      -3.023   1.896  12.296  1.00  0.00    -0.309 OA
BRANCH   6   7
HETATM    7  C8  UNL     1      -4.197   1.322  12.774  1.00  0.00     0.283 C 
HETATM    8  O3  UNL     1      -4.555   0.253  12.221  1.00  0.00    -0.260 OA
BRANCH   7   9
HETATM    9  C7  UNL     1      -4.966   1.941  13.868  1.00  0.00     0.088 C 
BRANCH   9  10
HETATM   10  C6  UNL     1      -4.401   2.312  14.993  1.00  0.00     0.088 C 
BRANCH  10  11
HETATM   11  C5  UNL     1      -4.363   1.414  16.110  1.00  0.00     0.283 C 
HETATM   12  O2  UNL     1      -3.826   0.292  15.993  1.00  0.00    -0.260 OA
BRANCH  11  13
HETATM   13  O1  UNL     1      -4.915   1.778  17.318  1.00  0.00    -0.308 OA
BRANCH  13  14
HETATM   14  C2  UNL     1      -6.314   1.891  17.529  1.00  0.00     0.060 C 
HETATM   15  C1  UNL     1      -6.881   3.093  16.814  1.00  0.00     0.046 C 
HETATM   16  C3  UNL     1      -6.525   2.125  19.025  1.00  0.00     0.046 C 
HETATM   17  C4  UNL     1      -7.015   0.633  17.104  1.00  0.00     0.046 C 
ENDBRANCH  13  14
ENDBRANCH  11  13
ENDBRANCH  10  11
ENDBRANCH   9  10
ENDBRANCH   7   9
ENDBRANCH   6   7
ENDBRANCH   1   6
BRANCH   2  18
HETATM   18  C11 UNL     1      -1.391   1.461  10.468  1.00  0.00     0.198 C 
BRANCH  18  19
HETATM   19  O5  UNL     1      -2.317   0.590   9.954  1.00  0.00    -0.398 OA
ATOM     20  H5  UNL     1      -2.832   0.235  10.669  1.00  0.00     0.209 HD
ENDBRANCH  18  19
ENDBRANCH   2  18
BRANCH   5  21
HETATM   21  C14 UNL     1      -2.780   5.514  11.516  1.00  0.00     0.037 C 
BRANCH  21  22
HETATM   22  C15 UNL     1      -3.454   6.575  12.320  1.00  0.00     0.164 C 
BRANCH  22  23
HETATM   23  O7  UNL     1      -2.657   6.906  13.415  1.00  0.00    -0.401 OA
ATOM     24  H7  UNL     1      -3.211   7.129  14.154  1.00  0.00     0.209 HD
ENDBRANCH  22  23
ENDBRANCH  21  22
ENDBRANCH   5  21
BRANCH   4  25
HETATM   25  N1  UNL     1      -0.187   5.184  12.327  1.00  0.00    -0.293 N 
ATOM     26  H1  UNL     1      -0.604   5.969  12.829  1.00  0.00     0.184 HD
BRANCH  25  27
HETATM   27  N2  UNL     1       0.989   5.242  11.945  1.00  0.00    -0.252 N 
HETATM   28  N3  UNL     1       2.092   4.803  11.564  1.00  0.00    -0.331 N 
ATOM     29  H32 UNL     1       1.881   3.805  11.586  1.00  0.00     0.178 HD
ATOM     30  H31 UNL     1       3.061   4.851  11.249  1.00  0.00     0.178 HD
ATOM     31  H2  UNL     1       1.154   6.249  11.938  1.00  0.00     0.207 HD
ENDBRANCH  25  27
ENDBRANCH   4  25
TORSDOF 14
ENDMDL
MODEL 2
REMARK VINA RESULT: -6.364840127      2.812      4.164
REMARK  14 active torsions:
REMARK  status: ('A' for Active; 'I' for Inactive)
REMARK    1  A    between atoms: C2_2  and  O1_5 
REMARK    2  A    between atoms: O1_5  and  C5_6 
REMARK    3  A    between atoms: C5_6  and  C6_8 
REMARK    4  A    between atoms: C6_8  and  C7_9 
REMARK    5  A    between atoms: C7_9  and  C8_10 
REMARK    6  A    between atoms: C8_10  and  O4_12 
REMARK    7  A    between atoms: O4_12  and  C9_13 
REMARK    8  A    between atoms: C10_14  and  C11_15 
REMARK    9  A    between atoms: C11_15  and  O5_16 
REMARK   10  A    between atoms: C12_19  and  N1_20 
REMARK   11  A    between atoms: N1_20  and  N2_22 
REMARK   12  A    between atoms: C13_27  and  C14_28 
REMARK   13  A    between atoms: C14_28  and  C15_29 
REMARK   14  A    between atoms: C15_29  and  O7_30 
ROOT
HETATM    1  C9  UNL     1      -2.643   4.355  11.597  1.00  0.00     0.171 C 
HETATM    2  C10 UNL     1      -3.592   4.705  10.447  1.00  0.00     0.177 C 
HETATM    3  O6  UNL     1      -4.227   3.544  10.080  1.00  0.00    -0.355 OA
HETATM    4  C12 UNL     1      -4.244   2.706  11.220  1.00  0.00     0.244 C 
HETATM    5  C13 UNL     1      -2.782   2.866  11.664  1.00  0.00     0.070 C 
ENDROOT
BRANCH   1   6
HETATM    6  O4  UNL     1      -3.153   5.001  12.748  1.00  0.00    -0.309 OA
BRANCH   6   7
HETATM    7  C8  UNL     1      -2.950   4.510  14.034  1.00  0.00     0.283 C 
HETATM    8  O3  UNL     1      -1.754   4.346  14.380  1.00  0.00    -0.260 OA
BRANCH   7   9
HETATM    9  C7  UNL     1      -4.080   4.207  14.928  1.00  0.00     0.088 C 
BRANCH   9  10
HETATM   10  C6  UNL     1      -4.864   3.172  14.735  1.00  0.00     0.088 C 
BRANCH  10  11
HETATM   11  C5  UNL     1      -4.591   1.929  15.396  1.00  0.00     0.283 C 
HETATM   12  O2  UNL     1      -4.197   0.944  14.737  1.00  0.00    -0.260 OA
BRANCH  11  13
HETATM   13  O1  UNL     1      -4.758   1.810  16.757  1.00  0.00    -0.308 OA
BRANCH  13  14
HETATM   14  C2  UNL     1      -5.982   1.410  17.356  1.00  0.00     0.060 C 
HETATM   15  C1  UNL     1      -7.166   1.862  16.538  1.00  0.00     0.046 C 
HETATM   16  C3  UNL     1      -6.077   2.126  18.704  1.00  0.00     0.046 C 
HETATM   17  C4  UNL     1      -6.008  -0.076  17.562  1.00  0.00     0.046 C 
ENDBRANCH  13  14
ENDBRANCH  11  13
ENDBRANCH  10  11
ENDBRANCH   9  10
ENDBRANCH   7   9
ENDBRANCH   6   7
ENDBRANCH   1   6
BRANCH   2  18
HETATM   18  C11 UNL     1      -4.649   5.696  10.883  1.00  0.00     0.198 C 
BRANCH  18  19
HETATM   19  O5  UNL     1      -5.728   5.585  10.045  1.00  0.00    -0.398 OA
ATOM     20  H5  UNL     1      -5.675   6.269   9.387  1.00  0.00     0.209 HD
ENDBRANCH  18  19
ENDBRANCH   2  18
BRANCH   5  21
HETATM   21  C14 UNL     1      -1.947   2.220  10.611  1.00  0.00     0.037 C 
BRANCH  21  22
HETATM   22  C15 UNL     1      -1.132   1.052  11.057  1.00  0.00     0.164 C 
BRANCH  22  23
HETATM   23  O7  UNL     1      -1.855  -0.122  10.857  1.00  0.00    -0.401 OA
ATOM     24  H7  UNL     1      -2.779   0.046  11.001  1.00  0.00     0.209 HD
ENDBRANCH  22  23
ENDBRANCH  21  22
ENDBRANCH   5  21
BRANCH   4  25
HETATM   25  N1  UNL     1      -4.538   1.365  10.820  1.00  0.00    -0.293 N 
ATOM     26  H1  UNL     1      -4.680   1.142   9.834  1.00  0.00     0.184 HD
BRANCH  25  27
HETATM   27  N2  UNL     1      -4.619   0.477  11.678  1.00  0.00    -0.252 N 
HETATM   28  N3  UNL     1      -4.256  -0.523  12.328  1.00  0.00    -0.331 N 
ATOM     29  H32 UNL     1      -3.365  -0.698  11.864  1.00  0.00     0.178 HD
ATOM     30  H31 UNL     1      -4.323  -1.255  13.036  1.00  0.00     0.178 HD
ATOM     31  H2  UNL     1      -5.517   0.691  12.112  1.00  0.00     0.207 HD
ENDBRANCH  25  27
ENDBRANCH   4  25
TORSDOF 14
ENDMDL
MODEL 3
REMARK VINA RESULT: -6.272905158      3.022      4.178
REMARK  14 active torsions:
REMARK  status: ('A' for Active; 'I' for Inactive)
REMARK    1  A    between atoms: C2_2  and  O1_5 
REMARK    2  A    between atoms: O1_5  and  C5_6 
REMARK    3  A    between atoms: C5_6  and  C6_8 
REMARK    4  A    between atoms: C6_8  and  C7_9 
REMARK    5  A    between atoms: C7_9  and  C8_10 
REMARK    6  A    between atoms: C8_10  and  O4_12 
REMARK    7  A    between atoms: O4_12  and  C9_13 
REMARK    8  A    between atoms: C10_14  and  C11_15 
REMARK    9  A    between atoms: C11_15  and  O5_16 
REMARK   10  A    between atoms: C12_19  and  N1_20 
REMARK   11  A    between atoms: N1_20  and  N2_22 
REMARK   12  A    between atoms: C13_27  and  C14_28 
REMARK   13  A    between atoms: C14_28  and  C15_29 
REMARK   14  A    between atoms: C15_29  and  O7_30 
ROOT
HETATM    1  C9  UNL     1      -3.856   4.196  11.572  1.00  0.00     0.171 C 
HETATM    2  C10 UNL     1      -3.842   5.479  12.409  1.00  0.00     0.177 C 
HETATM    3  O6  UNL     1      -4.212   6.508  11.577  1.00  0.00    -0.355 OA
HETATM    4  C12 UNL     1      -5.014   5.943  10.557  1.00  0.00     0.244 C 
HETATM    5  C13 UNL     1      -4.142   4.728  10.203  1.00  0.00     0.070 C 
ENDROOT
BRANCH   1   6
HETATM    6  O4  UNL     1      -4.911   3.401  12.079  1.00  0.00    -0.309 OA
BRANCH   6   7
HETATM    7  C8  UNL     1      -4.859   2.010  12.091  1.00  0.00     0.283 C 
HETATM    8  O3  UNL     1      -5.266   1.432  11.053  1.00  0.00    -0.260 OA
BRANCH   7   9
HETATM    9  C7  UNL     1      -4.352   1.270  13.260  1.00  0.00     0.088 C 
BRANCH   9  10
HETATM   10  C6  UNL     1      -4.479   1.729  14.483  1.00  0.00     0.088 C 
BRANCH  10  11
HETATM   11  C5  UNL     1      -4.725   0.825  15.569  1.00  0.00     0.283 C 
HETATM   12  O2  UNL     1      -4.737  -0.407  15.366  1.00  0.00    -0.260 OA
BRANCH  11  13
HETATM   13  O1  UNL     1      -4.947   1.305  16.841  1.00  0.00    -0.308 OA
BRANCH  13  14
HETATM   14  C2  UNL     1      -6.214   1.765  17.285  1.00  0.00     0.060 C 
HETATM   15  C1  UNL     1      -7.304   0.774  16.958  1.00  0.00     0.046 C 
HETATM   16  C3  UNL     1      -6.528   3.041  16.501  1.00  0.00     0.046 C 
HETATM   17  C4  UNL     1      -6.182   2.063  18.755  1.00  0.00     0.046 C 
ENDBRANCH  13  14
ENDBRANCH  11  13
ENDBRANCH  10  11
ENDBRANCH   9  10
ENDBRANCH   7   9
ENDBRANCH   6   7
ENDBRANCH   1   6
BRANCH   2  18
HETATM   18  C11 UNL     1      -4.843   5.413  13.541  1.00  0.00     0.198 C 
BRANCH  18  19
HETATM   19  O5  UNL     1      -4.174   5.129  14.704  1.00  0.00    -0.398 OA
ATOM     20  H5  UNL     1      -4.720   4.566  15.241  1.00  0.00     0.209 HD
ENDBRANCH  18  19
ENDBRANCH   2  18
BRANCH   5  21
HETATM   21  C14 UNL     1      -2.897   5.268   9.585  1.00  0.00     0.037 C 
BRANCH  21  22
HETATM   22  C15 UNL     1      -2.657   4.877   8.166  1.00  0.00     0.164 C 
BRANCH  22  23
HETATM   23  O7  UNL     1      -3.876   4.790   7.495  1.00  0.00    -0.401 OA
ATOM     24  H7  UNL     1      -3.957   3.932   7.096  1.00  0.00     0.209 HD
ENDBRANCH  22  23
ENDBRANCH  21  22
ENDBRANCH   5  21
BRANCH   4  25
HETATM   25  N1  UNL     1      -5.115   6.865   9.468  1.00  0.00    -0.293 N 
ATOM     26  H1  UNL     1      -4.484   7.664   9.410  1.00  0.00     0.184 HD
BRANCH  25  27
HETATM   27  N2  UNL     1      -5.976   6.685   8.596  1.00  0.00    -0.252 N 
HETATM   28  N3  UNL     1      -6.430   6.317   7.495  1.00  0.00    -0.331 N 
ATOM     29  H32 UNL     1      -5.570   5.950   7.085  1.00  0.00     0.178 HD
ATOM     30  H31 UNL     1      -7.138   6.168   6.776  1.00  0.00     0.178 HD
ATOM     31  H2  UNL     1      -6.809   7.062   9.047  1.00  0.00     0.207 HD
ENDBRANCH  25  27
ENDBRANCH   4  25
TORSDOF 14
ENDMDL
MODEL 4
REMARK VINA RESULT: -6.221393144      1.867      2.421
REMARK  14 active torsions:
REMARK  status: ('A' for Active; 'I' for Inactive)
REMARK    1  A    between atoms: C2_2  and  O1_5 
REMARK    2  A    between atoms: O1_5  and  C5_6 
REMARK    3  A    between atoms: C5_6  and  C6_8 
REMARK    4  A    between atoms: C6_8  and  C7_9 
REMARK    5  A    between atoms: C7_9  and  C8_10 
REMARK    6  A    between atoms: C8_10  and  O4_12 
REMARK    7  A    between atoms: O4_12  and  C9_13 
REMARK    8  A    between atoms: C10_14  and  C11_15 
REMARK    9  A    between atoms: C11_15  and  O5_16 
REMARK   10  A    between atoms: C12_19  and  N1_20 
REMARK   11  A    between atoms: N1_20  and  N2_22 
REMARK   12  A    between atoms: C13_27  and  C14_28 
REMARK   13  A    between atoms: C14_28  and  C15_29 
REMARK   14  A    between atoms: C15_29  and  O7_30 
ROOT
HETATM    1  C9  UNL     1      -3.392   3.331  10.468  1.00  0.00     0.171 C 
HETATM    2  C10 UNL     1      -1.890   3.607  10.358  1.00  0.00     0.177 C 
HETATM    3  O6  UNL     1      -1.589   4.581  11.279  1.00  0.00    -0.355 OA
HETATM    4  C12 UNL     1      -2.552   4.481  12.311  1.00  0.00     0.244 C 
HETATM    5  C13 UNL     1      -3.822   4.374  11.453  1.00  0.00     0.070 C 
ENDROOT
BRANCH   1   6
HETATM    6  O4  UNL     1      -3.521   2.017  10.977  1.00  0.00    -0.309 OA
BRANCH   6   7
HETATM    7  C8  UNL     1      -4.623   1.608  11.721  1.00  0.00     0.283 C 
HETATM    8  O3  UNL     1      -5.748   1.817  11.204  1.00  0.00    -0.260 OA
BRANCH   7   9
HETATM    9  C7  UNL     1      -4.466   0.966  13.038  1.00  0.00     0.088 C 
BRANCH   9  10
HETATM   10  C6  UNL     1      -4.466   1.656  14.154  1.00  0.00     0.088 C 
BRANCH  10  11
HETATM   11  C5  UNL     1      -4.576   0.984  15.417  1.00  0.00     0.283 C 
HETATM   12  O2  UNL     1      -3.545   0.650  16.039  1.00  0.00    -0.260 OA
BRANCH  11  13
HETATM   13  O1  UNL     1      -5.812   0.703  15.953  1.00  0.00    -0.308 OA
BRANCH  13  14
HETATM   14  C2  UNL     1      -6.513   1.602  16.798  1.00  0.00     0.060 C 
HETATM   15  C1  UNL     1      -5.950   1.591  18.198  1.00  0.00     0.046 C 
HETATM   16  C3  UNL     1      -7.953   1.097  16.896  1.00  0.00     0.046 C 
HETATM   17  C4  UNL     1      -6.495   2.989  16.224  1.00  0.00     0.046 C 
ENDBRANCH  13  14
ENDBRANCH  11  13
ENDBRANCH  10  11
ENDBRANCH   9  10
ENDBRANCH   7   9
ENDBRANCH   6   7
ENDBRANCH   1   6
BRANCH   2  18
HETATM   18  C11 UNL     1      -1.074   2.378  10.696  1.00  0.00     0.198 C 
BRANCH  18  19
HETATM   19  O5  UNL     1      -1.208   1.469   9.679  1.00  0.00    -0.398 OA
ATOM     20  H5  UNL     1      -0.502   1.601   9.056  1.00  0.00     0.209 HD
ENDBRANCH  18  19
ENDBRANCH   2  18
BRANCH   5  21
HETATM   21  C14 UNL     1      -3.985   5.691  10.774  1.00  0.00     0.037 C 
BRANCH  21  22
HETATM   22  C15 UNL     1      -5.307   6.356  10.961  1.00  0.00     0.164 C 
BRANCH  22  23
HETATM   23  O7  UNL     1      -5.680   6.279  12.302  1.00  0.00    -0.401 OA
ATOM     24  H7  UNL     1      -6.538   6.672  12.415  1.00  0.00     0.209 HD
ENDBRANCH  22  23
ENDBRANCH  21  22
ENDBRANCH   5  21
BRANCH   4  25
HETATM   25  N1  UNL     1      -2.534   5.678  13.093  1.00  0.00    -0.293 N 
ATOM     26  H1  UNL     1      -1.937   6.460  12.824  1.00  0.00     0.184 HD
BRANCH  25  27
HETATM   27  N2  UNL     1      -3.250   5.758  14.100  1.00  0.00    -0.252 N 
HETATM   28  N3  UNL     1      -4.257   5.559  14.808  1.00  0.00    -0.331 N 
ATOM     29  H32 UNL     1      -4.801   4.996  14.153  1.00  0.00     0.178 HD
ATOM     30  H31 UNL     1      -4.847   5.625  15.637  1.00  0.00     0.178 HD
ATOM     31  H2  UNL     1      -2.671   6.324  14.721  1.00  0.00     0.207 HD
ENDBRANCH  25  27
ENDBRANCH   4  25
TORSDOF 14
ENDMDL
MODEL 5
REMARK VINA RESULT: -6.193973745      2.167      4.311
REMARK  14 active torsions:
REMARK  status: ('A' for Active; 'I' for Inactive)
REMARK    1  A    between atoms: C2_2  and  O1_5 
REMARK    2  A    between atoms: O1_5  and  C5_6 
REMARK    3  A    between atoms: C5_6  and  C6_8 
REMARK    4  A    between atoms: C6_8  and  C7_9 
REMARK    5  A    between atoms: C7_9  and  C8_10 
REMARK    6  A    between atoms: C8_10  and  O4_12 
REMARK    7  A    between atoms: O4_12  and  C9_13 
REMARK    8  A    between atoms: C10_14  and  C11_15 
REMARK    9  A    between atoms: C11_15  and  O5_16 
REMARK   10  A    between atoms: C12_19  and  N1_20 
REMARK   11  A    between atoms: N1_20  and  N2_22 
REMARK   12  A    between atoms: C13_27  and  C14_28 
REMARK   13  A    between atoms: C14_28  and  C15_29 
REMARK   14  A    between atoms: C15_29  and  O7_30 
ROOT
HETATM    1  C9  UNL     1      -4.348   0.945  12.227  1.00  0.00     0.171 C 
HETATM    2  C10 UNL     1      -4.217  -0.225  11.247  1.00  0.00     0.177 C 
HETATM    3  O6  UNL     1      -3.240   0.113  10.342  1.00  0.00    -0.355 OA
HETATM    4  C12 UNL     1      -2.374   1.021  10.994  1.00  0.00     0.244 C 
HETATM    5  C13 UNL     1      -3.421   1.953  11.623  1.00  0.00     0.070 C 
ENDROOT
BRANCH   1   6
HETATM    6  O4  UNL     1      -3.892   0.470  13.480  1.00  0.00    -0.309 OA
BRANCH   6   7
HETATM    7  C8  UNL     1      -4.574   0.720  14.667  1.00  0.00     0.283 C 
HETATM    8  O3  UNL     1      -4.779  -0.273  15.407  1.00  0.00    -0.260 OA
BRANCH   7   9
HETATM    9  C7  UNL     1      -5.022   2.077  15.024  1.00  0.00     0.088 C 
BRANCH   9  10
HETATM   10  C6  UNL     1      -4.194   3.095  15.068  1.00  0.00     0.088 C 
BRANCH  10  11
HETATM   11  C5  UNL     1      -4.506   4.307  14.367  1.00  0.00     0.283 C 
HETATM   12  O2  UNL     1      -5.375   4.304  13.470  1.00  0.00    -0.260 OA
BRANCH  11  13
HETATM   13  O1  UNL     1      -3.854   5.480  14.675  1.00  0.00    -0.308 OA
BRANCH  13  14
HETATM   14  C2  UNL     1      -2.826   6.031  13.866  1.00  0.00     0.060 C 
HETATM   15  C1  UNL     1      -2.109   7.152  14.578  1.00  0.00     0.046 C 
HETATM   16  C3  UNL     1      -3.502   6.647  12.640  1.00  0.00     0.046 C 
HETATM   17  C4  UNL     1      -1.863   4.963  13.438  1.00  0.00     0.046 C 
ENDBRANCH  13  14
ENDBRANCH  11  13
ENDBRANCH  10  11
ENDBRANCH   9  10
ENDBRANCH   7   9
ENDBRANCH   6   7
ENDBRANCH   1   6
BRANCH   2  18
HETATM   18  C11 UNL     1      -3.782  -1.491  11.951  1.00  0.00     0.198 C 
BRANCH  18  19
HETATM   19  O5  UNL     1      -2.976  -2.209  11.106  1.00  0.00    -0.398 OA
ATOM     20  H5  UNL     1      -2.577  -2.920  11.596  1.00  0.00     0.209 HD
ENDBRANCH  18  19
ENDBRANCH   2  18
BRANCH   5  21
HETATM   21  C14 UNL     1      -4.090   2.660  10.493  1.00  0.00     0.037 C 
BRANCH  21  22
HETATM   22  C15 UNL     1      -3.766   4.110  10.355  1.00  0.00     0.164 C 
BRANCH  22  23
HETATM   23  O7  UNL     1      -2.830   4.282   9.337  1.00  0.00    -0.401 OA
ATOM     24  H7  UNL     1      -2.048   4.690   9.691  1.00  0.00     0.209 HD
ENDBRANCH  22  23
ENDBRANCH  21  22
ENDBRANCH   5  21
BRANCH   4  25
HETATM   25  N1  UNL     1      -1.574   1.696  10.020  1.00  0.00    -0.293 N 
ATOM     26  H1  UNL     1      -1.771   1.585   9.025  1.00  0.00     0.184 HD
BRANCH  25  27
HETATM   27  N2  UNL     1      -0.638   2.417  10.392  1.00  0.00    -0.252 N 
HETATM   28  N3  UNL     1      -0.024   3.484  10.591  1.00  0.00    -0.331 N 
ATOM     29  H32 UNL     1      -0.716   4.136  10.221  1.00  0.00     0.178 HD
ATOM     30  H31 UNL     1       0.746   4.078  10.898  1.00  0.00     0.178 HD
ATOM     31  H2  UNL     1       0.023   1.728  10.751  1.00  0.00     0.207 HD
ENDBRANCH  25  27
ENDBRANCH   4  25
TORSDOF 14
ENDMDL
