MODEL 1
REMARK VINA RESULT: -7.124878464      0.000      0.000
REMARK  11 active torsions:
REMARK  status: ('A' for Active; 'I' for Inactive)
REMARK    1  A    between atoms: C2_2  and  O1_3 
REMARK    2  A    between atoms: O1_3  and  C3_4 
REMARK    3  A    between atoms: C4_5  and  C6_7 
REMARK    4  A    between atoms: C9_12  and  C10_13 
REMARK    5  A    between atoms: C10_13  and  O3_14 
REMARK    6  A    between atoms: C10_13  and  C11_16 
REMARK    7  A    between atoms: C11_16  and  O4_17 
REMARK    8  A    between atoms: C11_16  and  O5_20 
REMARK    9  A    between atoms: O4_17  and  C12_18 
REMARK   10  A    between atoms: O5_20  and  C14_21 
REMARK   11  A    between atoms: C16_24  and  O7_26 
ROOT
HETATM    1  C6  UNL     1      -3.232   6.926  12.947  1.00  0.00     0.138 C 
HETATM    2  C7  UNL     1      -2.337   7.368  14.013  1.00  0.00     0.060 C 
HETATM    3  N1  UNL     1      -1.605   7.729  14.854  1.00  0.00    -0.197 NA
ENDROOT
BRANCH   1   4
HETATM    4  C4  UNL     1      -2.970   5.463  12.575  1.00  0.00     0.019 C 
HETATM    5  C3  UNL     1      -3.444   5.236  11.141  1.00  0.00     0.175 C 
HETATM    6  C16 UNL     1      -3.400   3.794  10.760  1.00  0.00     0.110 C 
HETATM    7  C9  UNL     1      -3.876   2.961  11.955  1.00  0.00     0.191 C 
HETATM    8  C17 UNL     1      -2.020   3.326  10.356  1.00  0.00     0.051 C 
HETATM    9  O2  UNL     1      -4.653   3.759  12.769  1.00  0.00    -0.379 OA
HETATM   10  C8  UNL     1      -3.790   4.595  13.474  1.00  0.00     0.181 C 
HETATM   11  C5  UNL     1      -1.484   5.257  12.719  1.00  0.00     0.021 C 
BRANCH   5  12
HETATM   12  O1  UNL     1      -4.789   5.657  11.127  1.00  0.00    -0.355 OA
BRANCH  12  13
HETATM   13  C2  UNL     1      -5.344   6.630  10.355  1.00  0.00     0.125 C 
HETATM   14  C1  UNL     1      -6.306   7.385  10.862  1.00  0.00     0.037 C 
ENDBRANCH  12  13
ENDBRANCH   5  12
BRANCH   6  15
HETATM   15  O7  UNL     1      -4.228   3.601   9.658  1.00  0.00    -0.385 OA
ATOM     16  H7  UNL     1      -4.162   4.361   9.093  1.00  0.00     0.210 HD
ENDBRANCH   6  15
BRANCH   7  17
HETATM   17  C10 UNL     1      -4.546   1.725  11.454  1.00  0.00     0.205 C 
BRANCH  17  18
HETATM   18  O3  UNL     1      -5.886   1.915  11.164  1.00  0.00    -0.388 OA
ATOM     19  H3  UNL     1      -6.033   2.276  10.297  1.00  0.00     0.210 HD
ENDBRANCH  17  18
BRANCH  17  20
HETATM   20  C11 UNL     1      -4.416   0.559  12.400  1.00  0.00     0.300 C 
BRANCH  20  21
HETATM   21  O4  UNL     1      -3.464  -0.372  12.012  1.00  0.00    -0.358 OA
BRANCH  21  22
HETATM   22  C12 UNL     1      -3.943  -1.595  11.646  1.00  0.00     0.166 C 
HETATM   23  C13 UNL     1      -2.834  -2.550  11.296  1.00  0.00     0.033 C 
ENDBRANCH  21  22
ENDBRANCH  20  21
BRANCH  20  24
HETATM   24  O5  UNL     1      -3.885   1.114  13.629  1.00  0.00    -0.287 OA
BRANCH  24  25
HETATM   25  C14 UNL     1      -4.461   0.761  14.839  1.00  0.00     0.257 C 
HETATM   26  C15 UNL     1      -4.853   1.829  15.769  1.00  0.00     0.126 C 
HETATM   27  O6  UNL     1      -4.612  -0.465  15.067  1.00  0.00    -0.266 OA
ENDBRANCH  24  25
ENDBRANCH  20  24
ENDBRANCH  17  20
ENDBRANCH   7  17
ENDBRANCH   1   4
TORSDOF 11
ENDMDL
MODEL 2
REMARK VINA RESULT: -6.918445564      1.061      1.228
REMARK  11 active torsions:
REMARK  status: ('A' for Active; 'I' for Inactive)
REMARK    1  A    between atoms: C2_2  and  O1_3 
REMARK    2  A    between atoms: O1_3  and  C3_4 
REMARK    3  A    between atoms: C4_5  and  C6_7 
REMARK    4  A    between atoms: C9_12  and  C10_13 
REMARK    5  A    between atoms: C10_13  and  O3_14 
REMARK    6  A    between atoms: C10_13  and  C11_16 
REMARK    7  A    between atoms: C11_16  and  O4_17 
REMARK    8  A    between atoms: C11_16  and  O5_20 
REMARK    9  A    between atoms: O4_17  and  C12_18 
REMARK   10  A    between atoms: O5_20  and  C14_21 
REMARK   11  A    between atoms: C16_24  and  O7_26 
ROOT
HETATM    1  C6  UNL     1      -2.941   7.047  12.945  1.00  0.00     0.138 C 
HETATM    2  C7  UNL     1      -1.672   7.697  12.629  1.00  0.00     0.060 C 
HETATM    3  N1  UNL     1      -0.660   8.220  12.356  1.00  0.00    -0.197 NA
ENDROOT
BRANCH   1   4
HETATM    4  C4  UNL     1      -2.822   5.522  12.848  1.00  0.00     0.019 C 
HETATM    5  C3  UNL     1      -2.666   5.141  11.377  1.00  0.00     0.175 C 
HETATM    6  C16 UNL     1      -2.731   3.664  11.173  1.00  0.00     0.110 C 
HETATM    7  C9  UNL     1      -3.820   3.094  12.089  1.00  0.00     0.191 C 
HETATM    8  C17 UNL     1      -1.425   2.963  11.472  1.00  0.00     0.051 C 
HETATM    9  O2  UNL     1      -4.709   4.104  12.400  1.00  0.00    -0.379 OA
HETATM   10  C8  UNL     1      -4.094   4.918  13.348  1.00  0.00     0.181 C 
HETATM   11  C5  UNL     1      -1.609   5.148  13.661  1.00  0.00     0.021 C 
BRANCH   5  12
HETATM   12  O1  UNL     1      -3.770   5.727  10.726  1.00  0.00    -0.355 OA
BRANCH  12  13
HETATM   13  C2  UNL     1      -3.749   6.589   9.674  1.00  0.00     0.125 C 
HETATM   14  C1  UNL     1      -2.595   6.865   9.089  1.00  0.00     0.037 C 
ENDBRANCH  12  13
ENDBRANCH   5  12
BRANCH   6  15
HETATM   15  O7  UNL     1      -3.025   3.414   9.837  1.00  0.00    -0.385 OA
ATOM     16  H7  UNL     1      -2.771   2.522   9.633  1.00  0.00     0.210 HD
ENDBRANCH   6  15
BRANCH   7  17
HETATM   17  C10 UNL     1      -4.427   1.895  11.440  1.00  0.00     0.205 C 
BRANCH  17  18
HETATM   18  O3  UNL     1      -5.733   2.102  11.032  1.00  0.00    -0.388 OA
ATOM     19  H3  UNL     1      -5.956   1.624  10.242  1.00  0.00     0.210 HD
ENDBRANCH  17  18
BRANCH  17  20
HETATM   20  C11 UNL     1      -4.380   0.667  12.313  1.00  0.00     0.300 C 
BRANCH  20  21
HETATM   21  O4  UNL     1      -3.466  -0.285  11.889  1.00  0.00    -0.358 OA
BRANCH  21  22
HETATM   22  C12 UNL     1      -3.966  -1.535  11.672  1.00  0.00     0.166 C 
HETATM   23  C13 UNL     1      -2.883  -2.520  11.321  1.00  0.00     0.033 C 
ENDBRANCH  21  22
ENDBRANCH  20  21
BRANCH  20  24
HETATM   24  O5  UNL     1      -3.856   1.116  13.587  1.00  0.00    -0.287 OA
BRANCH  24  25
HETATM   25  C14 UNL     1      -4.539   0.801  14.752  1.00  0.00     0.257 C 
HETATM   26  C15 UNL     1      -5.109   1.895  15.550  1.00  0.00     0.126 C 
HETATM   27  O6  UNL     1      -4.626  -0.415  15.055  1.00  0.00    -0.266 OA
ENDBRANCH  24  25
ENDBRANCH  20  24
ENDBRANCH  17  20
ENDBRANCH   7  17
ENDBRANCH   1   4
TORSDOF 11
ENDMDL
MODEL 3
REMARK VINA RESULT: -6.790282874      1.001      1.040
REMARK  11 active torsions:
REMARK  status: ('A' for Active; 'I' for Inactive)
REMARK    1  A    between atoms: C2_2  and  O1_3 
REMARK    2  A    between atoms: O1_3  and  C3_4 
REMARK    3  A    between atoms: C4_5  and  C6_7 
REMARK    4  A    between atoms: C9_12  and  C10_13 
REMARK    5  A    between atoms: C10_13  and  O3_14 
REMARK    6  A    between atoms: C10_13  and  C11_16 
REMARK    7  A    between atoms: C11_16  and  O4_17 
REMARK    8  A    between atoms: C11_16  and  O5_20 
REMARK    9  A    between atoms: O4_17  and  C12_18 
REMARK   10  A    between atoms: O5_20  and  C14_21 
REMARK   11  A    between atoms: C16_24  and  O7_26 
ROOT
HETATM    1  C6  UNL     1      -3.138   7.045  12.686  1.00  0.00     0.138 C 
HETATM    2  C7  UNL     1      -2.122   7.781  11.938  1.00  0.00     0.060 C 
HETATM    3  N1  UNL     1      -1.320   8.370  11.322  1.00  0.00    -0.197 NA
ENDROOT
BRANCH   1   4
HETATM    4  C4  UNL     1      -2.925   5.532  12.571  1.00  0.00     0.019 C 
HETATM    5  C3  UNL     1      -3.214   5.109  11.133  1.00  0.00     0.175 C 
HETATM    6  C16 UNL     1      -3.212   3.625  10.975  1.00  0.00     0.110 C 
HETATM    7  C9  UNL     1      -3.898   3.007  12.198  1.00  0.00     0.191 C 
HETATM    8  C17 UNL     1      -1.824   3.041  10.846  1.00  0.00     0.051 C 
HETATM    9  O2  UNL     1      -4.725   3.953  12.768  1.00  0.00    -0.379 OA
HETATM   10  C8  UNL     1      -3.913   4.849  13.460  1.00  0.00     0.181 C 
HETATM   11  C5  UNL     1      -1.488   5.285  12.955  1.00  0.00     0.021 C 
BRANCH   5  12
HETATM   12  O1  UNL     1      -4.514   5.582  10.865  1.00  0.00    -0.355 OA
BRANCH  12  13
HETATM   13  C2  UNL     1      -4.916   6.358   9.822  1.00  0.00     0.125 C 
HETATM   14  C1  UNL     1      -6.163   6.798   9.788  1.00  0.00     0.037 C 
ENDBRANCH  12  13
ENDBRANCH   5  12
BRANCH   6  15
HETATM   15  O7  UNL     1      -3.894   3.303   9.807  1.00  0.00    -0.385 OA
ATOM     16  H7  UNL     1      -3.270   3.265   9.092  1.00  0.00     0.210 HD
ENDBRANCH   6  15
BRANCH   7  17
HETATM   17  C10 UNL     1      -4.574   1.739  11.791  1.00  0.00     0.205 C 
BRANCH  17  18
HETATM   18  O3  UNL     1      -5.806   1.949  11.197  1.00  0.00    -0.388 OA
ATOM     19  H3  UNL     1      -6.277   2.688  11.566  1.00  0.00     0.210 HD
ENDBRANCH  17  18
BRANCH  17  20
HETATM   20  C11 UNL     1      -4.744   0.770  12.932  1.00  0.00     0.300 C 
BRANCH  20  21
HETATM   21  O4  UNL     1      -4.210  -0.485  12.685  1.00  0.00    -0.358 OA
BRANCH  21  22
HETATM   22  C12 UNL     1      -3.586  -0.639  11.482  1.00  0.00     0.166 C 
HETATM   23  C13 UNL     1      -3.023  -2.025  11.316  1.00  0.00     0.033 C 
ENDBRANCH  21  22
ENDBRANCH  20  21
BRANCH  20  24
HETATM   24  O5  UNL     1      -3.930   1.293  14.011  1.00  0.00    -0.287 OA
BRANCH  24  25
HETATM   25  C14 UNL     1      -4.384   1.191  15.317  1.00  0.00     0.257 C 
HETATM   26  C15 UNL     1      -5.476   2.074  15.752  1.00  0.00     0.126 C 
HETATM   27  O6  UNL     1      -3.826   0.342  16.053  1.00  0.00    -0.266 OA
ENDBRANCH  24  25
ENDBRANCH  20  24
ENDBRANCH  17  20
ENDBRANCH   7  17
ENDBRANCH   1   4
TORSDOF 11
ENDMDL
MODEL 4
REMARK VINA RESULT: -6.611827634      2.165      3.356
REMARK  11 active torsions:
REMARK  status: ('A' for Active; 'I' for Inactive)
REMARK    1  A    between atoms: C2_2  and  O1_3 
REMARK    2  A    between atoms: O1_3  and  C3_4 
REMARK    3  A    between atoms: C4_5  and  C6_7 
REMARK    4  A    between atoms: C9_12  and  C10_13 
REMARK    5  A    between atoms: C10_13  and  O3_14 
REMARK    6  A    between atoms: C10_13  and  C11_16 
REMARK    7  A    between atoms: C11_16  and  O4_17 
REMARK    8  A    between atoms: C11_16  and  O5_20 
REMARK    9  A    between atoms: O4_17  and  C12_18 
REMARK   10  A    between atoms: O5_20  and  C14_21 
REMARK   11  A    between atoms: C16_24  and  O7_26 
ROOT
HETATM    1  C6  UNL     1       0.284   5.764  11.332  1.00  0.00     0.138 C 
HETATM    2  C7  UNL     1       1.382   4.855  11.013  1.00  0.00     0.060 C 
HETATM    3  N1  UNL     1       2.260   4.131  10.736  1.00  0.00    -0.197 NA
ENDROOT
BRANCH   1   4
HETATM    4  C4  UNL     1      -1.061   5.028  11.340  1.00  0.00     0.019 C 
HETATM    5  C3  UNL     1      -2.135   5.988  11.845  1.00  0.00     0.175 C 
HETATM    6  C16 UNL     1      -3.441   5.299  12.062  1.00  0.00     0.110 C 
HETATM    7  C9  UNL     1      -3.169   3.924  12.681  1.00  0.00     0.191 C 
HETATM    8  C17 UNL     1      -4.236   5.113  10.789  1.00  0.00     0.051 C 
HETATM    9  O2  UNL     1      -1.937   3.955  13.302  1.00  0.00    -0.379 OA
HETATM   10  C8  UNL     1      -0.968   3.889  12.303  1.00  0.00     0.181 C 
HETATM   11  C5  UNL     1      -1.308   4.602   9.915  1.00  0.00     0.021 C 
BRANCH   5  12
HETATM   12  O1  UNL     1      -1.663   6.445  13.092  1.00  0.00    -0.355 OA
BRANCH  12  13
HETATM   13  C2  UNL     1      -1.553   7.733  13.515  1.00  0.00     0.125 C 
HETATM   14  C1  UNL     1      -1.829   8.024  14.776  1.00  0.00     0.037 C 
ENDBRANCH  12  13
ENDBRANCH   5  12
BRANCH   6  15
HETATM   15  O7  UNL     1      -4.219   6.081  12.911  1.00  0.00    -0.385 OA
ATOM     16  H7  UNL     1      -5.079   5.684  12.984  1.00  0.00     0.210 HD
ENDBRANCH   6  15
BRANCH   7  17
HETATM   17  C10 UNL     1      -4.313   3.549  13.564  1.00  0.00     0.205 C 
BRANCH  17  18
HETATM   18  O3  UNL     1      -4.190   4.046  14.850  1.00  0.00    -0.388 OA
ATOM     19  H3  UNL     1      -5.016   4.344  15.214  1.00  0.00     0.210 HD
ENDBRANCH  17  18
BRANCH  17  20
HETATM   20  C11 UNL     1      -4.536   2.061  13.638  1.00  0.00     0.300 C 
BRANCH  20  21
HETATM   21  O4  UNL     1      -3.771   1.335  12.738  1.00  0.00    -0.358 OA
BRANCH  21  22
HETATM   22  C12 UNL     1      -4.465   0.632  11.799  1.00  0.00     0.166 C 
HETATM   23  C13 UNL     1      -3.952  -0.776  11.659  1.00  0.00     0.033 C 
ENDBRANCH  21  22
ENDBRANCH  20  21
BRANCH  20  24
HETATM   24  O5  UNL     1      -4.031   1.657  14.935  1.00  0.00    -0.287 OA
BRANCH  24  25
HETATM   25  C14 UNL     1      -4.749   0.742  15.689  1.00  0.00     0.257 C 
HETATM   26  C15 UNL     1      -5.499   1.227  16.856  1.00  0.00     0.126 C 
HETATM   27  O6  UNL     1      -4.710  -0.459  15.323  1.00  0.00    -0.266 OA
ENDBRANCH  24  25
ENDBRANCH  20  24
ENDBRANCH  17  20
ENDBRANCH   7  17
ENDBRANCH   1   4
TORSDOF 11
ENDMDL
MODEL 5
REMARK VINA RESULT: -6.490145572      0.642      2.532
REMARK  11 active torsions:
REMARK  status: ('A' for Active; 'I' for Inactive)
REMARK    1  A    between atoms: C2_2  and  O1_3 
REMARK    2  A    between atoms: O1_3  and  C3_4 
REMARK    3  A    between atoms: C4_5  and  C6_7 
REMARK    4  A    between atoms: C9_12  and  C10_13 
REMARK    5  A    between atoms: C10_13  and  O3_14 
REMARK    6  A    between atoms: C10_13  and  C11_16 
REMARK    7  A    between atoms: C11_16  and  O4_17 
REMARK    8  A    between atoms: C11_16  and  O5_20 
REMARK    9  A    between atoms: O4_17  and  C12_18 
REMARK   10  A    between atoms: O5_20  and  C14_21 
REMARK   11  A    between atoms: C16_24  and  O7_26 
ROOT
HETATM    1  C6  UNL     1      -3.132   7.056  12.881  1.00  0.00     0.138 C 
HETATM    2  C7  UNL     1      -2.296   7.462  14.008  1.00  0.00     0.060 C 
HETATM    3  N1  UNL     1      -1.611   7.794  14.898  1.00  0.00    -0.197 NA
ENDROOT
BRANCH   1   4
HETATM    4  C4  UNL     1      -2.839   5.610  12.466  1.00  0.00     0.019 C 
HETATM    5  C3  UNL     1      -3.443   5.371  11.085  1.00  0.00     0.175 C 
HETATM    6  C16 UNL     1      -3.368   3.935  10.683  1.00  0.00     0.110 C 
HETATM    7  C9  UNL     1      -3.679   3.071  11.910  1.00  0.00     0.191 C 
HETATM    8  C17 UNL     1      -2.015   3.539  10.136  1.00  0.00     0.051 C 
HETATM    9  O2  UNL     1      -4.408   3.823  12.807  1.00  0.00    -0.379 OA
HETATM   10  C8  UNL     1      -3.520   4.696  13.433  1.00  0.00     0.181 C 
HETATM   11  C5  UNL     1      -1.337   5.477  12.457  1.00  0.00     0.021 C 
BRANCH   5  12
HETATM   12  O1  UNL     1      -4.802   5.725  11.211  1.00  0.00    -0.355 OA
BRANCH  12  13
HETATM   13  C2  UNL     1      -5.480   6.672  10.509  1.00  0.00     0.125 C 
HETATM   14  C1  UNL     1      -6.392   7.403  11.128  1.00  0.00     0.037 C 
ENDBRANCH  12  13
ENDBRANCH   5  12
BRANCH   6  15
HETATM   15  O7  UNL     1      -4.292   3.710   9.668  1.00  0.00    -0.385 OA
ATOM     16  H7  UNL     1      -3.962   4.097   8.867  1.00  0.00     0.210 HD
ENDBRANCH   6  15
BRANCH   7  17
HETATM   17  C10 UNL     1      -4.336   1.807  11.463  1.00  0.00     0.205 C 
BRANCH  17  18
HETATM   18  O3  UNL     1      -5.706   1.933  11.311  1.00  0.00    -0.388 OA
ATOM     19  H3  UNL     1      -5.961   2.192  10.433  1.00  0.00     0.210 HD
ENDBRANCH  17  18
BRANCH  17  20
HETATM   20  C11 UNL     1      -4.055   0.643  12.377  1.00  0.00     0.300 C 
BRANCH  20  21
HETATM   21  O4  UNL     1      -4.907   0.570  13.468  1.00  0.00    -0.358 OA
BRANCH  21  22
HETATM   22  C12 UNL     1      -4.305   0.489  14.689  1.00  0.00     0.166 C 
HETATM   23  C13 UNL     1      -4.700   1.631  15.587  1.00  0.00     0.033 C 
ENDBRANCH  21  22
ENDBRANCH  20  21
BRANCH  20  24
HETATM   24  O5  UNL     1      -4.369  -0.542  11.606  1.00  0.00    -0.287 OA
BRANCH  24  25
HETATM   25  C14 UNL     1      -3.395  -1.106  10.797  1.00  0.00     0.257 C 
HETATM   26  C15 UNL     1      -2.728  -2.334  11.253  1.00  0.00     0.126 C 
HETATM   27  O6  UNL     1      -3.140  -0.524   9.714  1.00  0.00    -0.266 OA
ENDBRANCH  24  25
ENDBRANCH  20  24
ENDBRANCH  17  20
ENDBRANCH   7  17
ENDBRANCH   1   4
TORSDOF 11
ENDMDL
