MODEL 1
REMARK VINA RESULT: -7.050142524      0.000      0.000
REMARK  9 active torsions:
REMARK  status: ('A' for Active; 'I' for Inactive)
REMARK    1  A    between atoms: C2_2  and  O1_5 
REMARK    2  A    between atoms: O1_5  and  C5_6 
REMARK    3  A    between atoms: C5_6  and  C6_8 
REMARK    4  A    between atoms: C6_8  and  C7_9 
REMARK    5  A    between atoms: C7_9  and  N1_10 
REMARK    6  A    between atoms: C9_12  and  O3_14 
REMARK    7  A    between atoms: O3_14  and  N2_15 
REMARK       I    between atoms: N2_15  and  C11_17 
REMARK    8  A    between atoms: C11_17  and  C12_19 
REMARK    9  A    between atoms: C12_19  and  C13_20 
ROOT
HETATM    1  C13 UNL     1      -6.017   2.213  16.246  1.00  0.00     0.271 C 
HETATM    2  C14 UNL     1      -6.155   3.375  15.392  1.00  0.00     0.111 C 
HETATM    3  N3  UNL     1      -6.256   4.304  14.713  1.00  0.00    -0.194 NA
HETATM    4  N4  UNL     1      -7.126   1.300  16.235  1.00  0.00    -0.035 N 
ATOM      5  H41 UNL     1      -7.076   0.530  15.568  1.00  0.00     0.281 HD
ATOM      6  H42 UNL     1      -8.006   1.657  15.863  1.00  0.00     0.281 HD
HETATM    7  C15 UNL     1      -7.116   0.941  17.641  1.00  0.00     0.312 C 
HETATM    8  S1  UNL     1      -6.516   2.647  17.962  1.00  0.00    -0.087 SA
ENDROOT
BRANCH   1   9
HETATM    9  C12 UNL     1      -4.659   1.555  16.223  1.00  0.00     0.171 C 
BRANCH   9  10
HETATM   10  C11 UNL     1      -4.524   0.560  15.159  1.00  0.00     0.245 C 
HETATM   11  N2  UNL     1      -4.257   0.876  13.806  1.00  0.00    -0.234 N 
ATOM     12  H2  UNL     1      -4.151   1.863  13.572  1.00  0.00     0.197 HD
HETATM   13  O4  UNL     1      -4.653  -0.659  15.464  1.00  0.00    -0.271 OA
BRANCH  11  14
HETATM   14  O3  UNL     1      -4.133  -0.009  12.802  1.00  0.00    -0.263 OA
BRANCH  14  15
HETATM   15  C9  UNL     1      -4.061   0.671  11.596  1.00  0.00     0.138 C 
HETATM   16  C8  UNL     1      -4.524   2.131  11.642  1.00  0.00     0.314 C 
HETATM   17  N1  UNL     1      -3.444   2.403  10.718  1.00  0.00     0.095 N 
HETATM   18  C16 UNL     1      -2.699   1.340  11.354  1.00  0.00     0.314 C 
HETATM   19  C10 UNL     1      -4.637  -0.022  10.406  1.00  0.00     0.052 C 
BRANCH  17  20
HETATM   20  C7  UNL     1      -2.885   3.712  10.732  1.00  0.00     0.282 C 
BRANCH  20  21
HETATM   21  C6  UNL     1      -3.762   4.664   9.954  1.00  0.00     0.141 C 
BRANCH  21  22
HETATM   22  C5  UNL     1      -4.576   5.526  10.875  1.00  0.00     0.261 C 
HETATM   23  O2  UNL     1      -4.199   5.937  11.977  1.00  0.00    -0.265 OA
BRANCH  22  24
HETATM   24  O1  UNL     1      -5.843   5.880  10.436  1.00  0.00    -0.311 OA
BRANCH  24  25
HETATM   25  C2  UNL     1      -6.269   7.194  10.160  1.00  0.00     0.060 C 
HETATM   26  C1  UNL     1      -7.038   7.802  11.300  1.00  0.00     0.045 C 
HETATM   27  C3  UNL     1      -7.202   7.127   8.968  1.00  0.00     0.045 C 
HETATM   28  C4  UNL     1      -5.150   8.131   9.795  1.00  0.00     0.045 C 
ENDBRANCH  24  25
ENDBRANCH  22  24
ENDBRANCH  21  22
ENDBRANCH  20  21
ENDBRANCH  17  20
ENDBRANCH  14  15
ENDBRANCH  11  14
ENDBRANCH   9  10
ENDBRANCH   1   9
TORSDOF 9
ENDMDL
MODEL 2
REMARK VINA RESULT: -6.880008518      2.171      2.756
REMARK  9 active torsions:
REMARK  status: ('A' for Active; 'I' for Inactive)
REMARK    1  A    between atoms: C2_2  and  O1_5 
REMARK    2  A    between atoms: O1_5  and  C5_6 
REMARK    3  A    between atoms: C5_6  and  C6_8 
REMARK    4  A    between atoms: C6_8  and  C7_9 
REMARK    5  A    between atoms: C7_9  and  N1_10 
REMARK    6  A    between atoms: C9_12  and  O3_14 
REMARK    7  A    between atoms: O3_14  and  N2_15 
REMARK       I    between atoms: N2_15  and  C11_17 
REMARK    8  A    between atoms: C11_17  and  C12_19 
REMARK    9  A    between atoms: C12_19  and  C13_20 
ROOT
HETATM    1  C13 UNL     1      -5.974   2.212  16.191  1.00  0.00     0.271 C 
HETATM    2  C14 UNL     1      -6.144   3.388  15.363  1.00  0.00     0.111 C 
HETATM    3  N3  UNL     1      -6.271   4.328  14.704  1.00  0.00    -0.194 NA
HETATM    4  N4  UNL     1      -7.071   1.284  16.184  1.00  0.00    -0.035 N 
ATOM      5  H41 UNL     1      -7.024   0.528  15.502  1.00  0.00     0.281 HD
ATOM      6  H42 UNL     1      -7.963   1.636  15.836  1.00  0.00     0.281 HD
HETATM    7  C15 UNL     1      -7.029   0.898  17.582  1.00  0.00     0.312 C 
HETATM    8  S1  UNL     1      -6.446   2.606  17.925  1.00  0.00    -0.087 SA
ENDROOT
BRANCH   1   9
HETATM    9  C12 UNL     1      -4.608   1.573  16.130  1.00  0.00     0.171 C 
BRANCH   9  10
HETATM   10  C11 UNL     1      -4.509   0.532  15.106  1.00  0.00     0.245 C 
HETATM   11  N2  UNL     1      -4.248   0.786  13.739  1.00  0.00    -0.234 N 
ATOM     12  H2  UNL     1      -4.119   1.760  13.464  1.00  0.00     0.197 HD
HETATM   13  O4  UNL     1      -4.667  -0.669  15.462  1.00  0.00    -0.271 OA
BRANCH  11  14
HETATM   14  O3  UNL     1      -4.157  -0.141  12.771  1.00  0.00    -0.263 OA
BRANCH  14  15
HETATM   15  C9  UNL     1      -3.773   0.468  11.585  1.00  0.00     0.138 C 
HETATM   16  C8  UNL     1      -3.456   1.963  11.693  1.00  0.00     0.314 C 
HETATM   17  N1  UNL     1      -2.392   1.709  10.746  1.00  0.00     0.095 N 
HETATM   18  C16 UNL     1      -2.260   0.391  11.324  1.00  0.00     0.314 C 
HETATM   19  C10 UNL     1      -4.627   0.199  10.392  1.00  0.00     0.052 C 
BRANCH  17  20
HETATM   20  C7  UNL     1      -1.262   2.572  10.785  1.00  0.00     0.282 C 
BRANCH  20  21
HETATM   21  C6  UNL     1      -1.570   3.871  10.078  1.00  0.00     0.141 C 
BRANCH  21  22
HETATM   22  C5  UNL     1      -1.235   5.051  10.943  1.00  0.00     0.261 C 
HETATM   23  O2  UNL     1      -0.826   6.140  10.527  1.00  0.00    -0.265 OA
BRANCH  22  24
HETATM   24  O1  UNL     1      -1.407   4.888  12.309  1.00  0.00    -0.311 OA
BRANCH  24  25
HETATM   25  C2  UNL     1      -2.407   5.510  13.082  1.00  0.00     0.060 C 
HETATM   26  C1  UNL     1      -1.958   6.826  13.655  1.00  0.00     0.045 C 
HETATM   27  C3  UNL     1      -2.718   4.591  14.245  1.00  0.00     0.045 C 
HETATM   28  C4  UNL     1      -3.696   5.737  12.339  1.00  0.00     0.045 C 
ENDBRANCH  24  25
ENDBRANCH  22  24
ENDBRANCH  21  22
ENDBRANCH  20  21
ENDBRANCH  17  20
ENDBRANCH  14  15
ENDBRANCH  11  14
ENDBRANCH   9  10
ENDBRANCH   1   9
TORSDOF 9
ENDMDL
MODEL 3
REMARK VINA RESULT: -6.745901369      1.007      1.256
REMARK  9 active torsions:
REMARK  status: ('A' for Active; 'I' for Inactive)
REMARK    1  A    between atoms: C2_2  and  O1_5 
REMARK    2  A    between atoms: O1_5  and  C5_6 
REMARK    3  A    between atoms: C5_6  and  C6_8 
REMARK    4  A    between atoms: C6_8  and  C7_9 
REMARK    5  A    between atoms: C7_9  and  N1_10 
REMARK    6  A    between atoms: C9_12  and  O3_14 
REMARK    7  A    between atoms: O3_14  and  N2_15 
REMARK       I    between atoms: N2_15  and  C11_17 
REMARK    8  A    between atoms: C11_17  and  C12_19 
REMARK    9  A    between atoms: C12_19  and  C13_20 
ROOT
HETATM    1  C13 UNL     1      -6.004   2.198  16.249  1.00  0.00     0.271 C 
HETATM    2  C14 UNL     1      -6.137   3.402  15.455  1.00  0.00     0.111 C 
HETATM    3  N3  UNL     1      -6.235   4.364  14.823  1.00  0.00    -0.194 NA
HETATM    4  N4  UNL     1      -7.102   1.276  16.169  1.00  0.00    -0.035 N 
ATOM      5  H41 UNL     1      -7.031   0.543  15.463  1.00  0.00     0.281 HD
ATOM      6  H42 UNL     1      -7.979   1.643  15.798  1.00  0.00     0.281 HD
HETATM    7  C15 UNL     1      -7.116   0.844  17.554  1.00  0.00     0.312 C 
HETATM    8  S1  UNL     1      -6.542   2.537  17.975  1.00  0.00    -0.087 SA
ENDROOT
BRANCH   1   9
HETATM    9  C12 UNL     1      -4.638   1.556  16.220  1.00  0.00     0.171 C 
BRANCH   9  10
HETATM   10  C11 UNL     1      -4.452   0.662  15.077  1.00  0.00     0.245 C 
HETATM   11  N2  UNL     1      -4.174   1.102  13.761  1.00  0.00    -0.234 N 
ATOM     12  H2  UNL     1      -4.098   2.108  13.615  1.00  0.00     0.197 HD
HETATM   13  O4  UNL     1      -4.544  -0.583  15.274  1.00  0.00    -0.271 OA
BRANCH  11  14
HETATM   14  O3  UNL     1      -4.003   0.312  12.688  1.00  0.00    -0.263 OA
BRANCH  14  15
HETATM   15  C9  UNL     1      -3.754   1.099  11.573  1.00  0.00     0.138 C 
HETATM   16  C8  UNL     1      -4.907   2.015  11.151  1.00  0.00     0.314 C 
HETATM   17  N1  UNL     1      -3.888   2.993  10.834  1.00  0.00     0.095 N 
HETATM   18  C16 UNL     1      -3.098   2.446  11.914  1.00  0.00     0.314 C 
HETATM   19  C10 UNL     1      -3.176   0.405  10.385  1.00  0.00     0.052 C 
BRANCH  17  20
HETATM   20  C7  UNL     1      -4.254   4.366  10.901  1.00  0.00     0.282 C 
BRANCH  20  21
HETATM   21  C6  UNL     1      -3.831   5.084   9.642  1.00  0.00     0.141 C 
BRANCH  21  22
HETATM   22  C5  UNL     1      -3.895   6.573   9.820  1.00  0.00     0.261 C 
HETATM   23  O2  UNL     1      -3.187   7.388   9.219  1.00  0.00    -0.265 OA
BRANCH  22  24
HETATM   24  O1  UNL     1      -4.826   7.050  10.730  1.00  0.00    -0.311 OA
BRANCH  24  25
HETATM   25  C2  UNL     1      -6.017   7.724  10.395  1.00  0.00     0.060 C 
HETATM   26  C1  UNL     1      -5.817   9.206  10.242  1.00  0.00     0.045 C 
HETATM   27  C3  UNL     1      -6.993   7.512  11.533  1.00  0.00     0.045 C 
HETATM   28  C4  UNL     1      -6.676   7.207   9.144  1.00  0.00     0.045 C 
ENDBRANCH  24  25
ENDBRANCH  22  24
ENDBRANCH  21  22
ENDBRANCH  20  21
ENDBRANCH  17  20
ENDBRANCH  14  15
ENDBRANCH  11  14
ENDBRANCH   9  10
ENDBRANCH   1   9
TORSDOF 9
ENDMDL
MODEL 4
REMARK VINA RESULT: -6.734791445      3.228      6.314
REMARK  9 active torsions:
REMARK  status: ('A' for Active; 'I' for Inactive)
REMARK    1  A    between atoms: C2_2  and  O1_5 
REMARK    2  A    between atoms: O1_5  and  C5_6 
REMARK    3  A    between atoms: C5_6  and  C6_8 
REMARK    4  A    between atoms: C6_8  and  C7_9 
REMARK    5  A    between atoms: C7_9  and  N1_10 
REMARK    6  A    between atoms: C9_12  and  O3_14 
REMARK    7  A    between atoms: O3_14  and  N2_15 
REMARK       I    between atoms: N2_15  and  C11_17 
REMARK    8  A    between atoms: C11_17  and  C12_19 
REMARK    9  A    between atoms: C12_19  and  C13_20 
ROOT
HETATM    1  C13 UNL     1      -3.623   0.743  11.191  1.00  0.00     0.271 C 
HETATM    2  C14 UNL     1      -4.395   1.950  10.977  1.00  0.00     0.111 C 
HETATM    3  N3  UNL     1      -5.003   2.918  10.809  1.00  0.00    -0.194 NA
HETATM    4  N4  UNL     1      -4.132  -0.440  10.556  1.00  0.00    -0.035 N 
ATOM      5  H41 UNL     1      -3.770  -0.650   9.625  1.00  0.00     0.281 HD
ATOM      6  H42 UNL     1      -5.103  -0.409  10.246  1.00  0.00     0.281 HD
HETATM    7  C15 UNL     1      -3.816  -1.394  11.603  1.00  0.00     0.312 C 
HETATM    8  S1  UNL     1      -4.111  -0.024  12.790  1.00  0.00    -0.087 SA
ENDROOT
BRANCH   1   9
HETATM    9  C12 UNL     1      -2.126   0.912  11.103  1.00  0.00     0.171 C 
BRANCH   9  10
HETATM   10  C11 UNL     1      -1.718   2.303  10.904  1.00  0.00     0.245 C 
HETATM   11  N2  UNL     1      -1.460   3.212  11.957  1.00  0.00    -0.234 N 
ATOM     12  H2  UNL     1      -1.564   2.861  12.909  1.00  0.00     0.197 HD
HETATM   13  O4  UNL     1      -1.589   2.722   9.720  1.00  0.00    -0.271 OA
BRANCH  11  14
HETATM   14  O3  UNL     1      -1.090   4.496  11.814  1.00  0.00    -0.263 OA
BRANCH  14  15
HETATM   15  C9  UNL     1      -1.831   5.287  12.679  1.00  0.00     0.138 C 
HETATM   16  C8  UNL     1      -3.166   5.791  12.121  1.00  0.00     0.314 C 
HETATM   17  N1  UNL     1      -3.693   5.581  13.452  1.00  0.00     0.095 N 
HETATM   18  C16 UNL     1      -2.768   4.479  13.590  1.00  0.00     0.314 C 
HETATM   19  C10 UNL     1      -1.099   6.394  13.361  1.00  0.00     0.052 C 
BRANCH  17  20
HETATM   20  C7  UNL     1      -5.084   5.306  13.569  1.00  0.00     0.282 C 
BRANCH  20  21
HETATM   21  C6  UNL     1      -5.426   4.928  14.991  1.00  0.00     0.141 C 
BRANCH  21  22
HETATM   22  C5  UNL     1      -6.051   3.564  15.053  1.00  0.00     0.261 C 
HETATM   23  O2  UNL     1      -6.082   2.756  14.119  1.00  0.00    -0.265 OA
BRANCH  22  24
HETATM   24  O1  UNL     1      -6.633   3.203  16.259  1.00  0.00    -0.311 OA
BRANCH  24  25
HETATM   25  C2  UNL     1      -6.358   2.018  16.970  1.00  0.00     0.060 C 
HETATM   26  C1  UNL     1      -7.427   0.976  16.789  1.00  0.00     0.045 C 
HETATM   27  C3  UNL     1      -6.313   2.372  18.442  1.00  0.00     0.045 C 
HETATM   28  C4  UNL     1      -5.033   1.395  16.623  1.00  0.00     0.045 C 
ENDBRANCH  24  25
ENDBRANCH  22  24
ENDBRANCH  21  22
ENDBRANCH  20  21
ENDBRANCH  17  20
ENDBRANCH  14  15
ENDBRANCH  11  14
ENDBRANCH   9  10
ENDBRANCH   1   9
TORSDOF 9
ENDMDL
MODEL 5
REMARK VINA RESULT: -6.686971004      2.665      3.749
REMARK  9 active torsions:
REMARK  status: ('A' for Active; 'I' for Inactive)
REMARK    1  A    between atoms: C2_2  and  O1_5 
REMARK    2  A    between atoms: O1_5  and  C5_6 
REMARK    3  A    between atoms: C5_6  and  C6_8 
REMARK    4  A    between atoms: C6_8  and  C7_9 
REMARK    5  A    between atoms: C7_9  and  N1_10 
REMARK    6  A    between atoms: C9_12  and  O3_14 
REMARK    7  A    between atoms: O3_14  and  N2_15 
REMARK       I    between atoms: N2_15  and  C11_17 
REMARK    8  A    between atoms: C11_17  and  C12_19 
REMARK    9  A    between atoms: C12_19  and  C13_20 
ROOT
HETATM    1  C13 UNL     1      -5.988   2.216  16.240  1.00  0.00     0.271 C 
HETATM    2  C14 UNL     1      -6.143   3.407  15.430  1.00  0.00     0.111 C 
HETATM    3  N3  UNL     1      -6.258   4.358  14.785  1.00  0.00    -0.194 NA
HETATM    4  N4  UNL     1      -7.097   1.304  16.222  1.00  0.00    -0.035 N 
ATOM      5  H41 UNL     1      -7.063   0.557  15.528  1.00  0.00     0.281 HD
ATOM      6  H42 UNL     1      -7.985   1.674  15.882  1.00  0.00     0.281 HD
HETATM    7  C15 UNL     1      -7.056   0.897  17.614  1.00  0.00     0.312 C 
HETATM    8  S1  UNL     1      -6.448   2.590  17.980  1.00  0.00    -0.087 SA
ENDROOT
BRANCH   1   9
HETATM    9  C12 UNL     1      -4.631   1.558  16.165  1.00  0.00     0.171 C 
BRANCH   9  10
HETATM   10  C11 UNL     1      -4.531   0.575  15.086  1.00  0.00     0.245 C 
HETATM   11  N2  UNL     1      -4.292   0.904  13.731  1.00  0.00    -0.234 N 
ATOM     12  H2  UNL     1      -4.180   1.892  13.506  1.00  0.00     0.197 HD
HETATM   13  O4  UNL     1      -4.668  -0.646  15.380  1.00  0.00    -0.271 OA
BRANCH  11  14
HETATM   14  O3  UNL     1      -4.200   0.030  12.714  1.00  0.00    -0.263 OA
BRANCH  14  15
HETATM   15  C9  UNL     1      -3.943   0.718  11.538  1.00  0.00     0.138 C 
HETATM   16  C8  UNL     1      -4.551   2.122  11.458  1.00  0.00     0.314 C 
HETATM   17  N1  UNL     1      -3.332   2.508  10.780  1.00  0.00     0.095 N 
HETATM   18  C16 UNL     1      -2.636   1.525  11.579  1.00  0.00     0.314 C 
HETATM   19  C10 UNL     1      -4.178  -0.026  10.266  1.00  0.00     0.052 C 
BRANCH  17  20
HETATM   20  C7  UNL     1      -2.925   3.867  10.887  1.00  0.00     0.282 C 
BRANCH  20  21
HETATM   21  C6  UNL     1      -2.394   4.361   9.563  1.00  0.00     0.141 C 
BRANCH  21  22
HETATM   22  C5  UNL     1      -1.042   3.779   9.270  1.00  0.00     0.261 C 
HETATM   23  O2  UNL     1      -0.710   3.263   8.198  1.00  0.00    -0.265 OA
BRANCH  22  24
HETATM   24  O1  UNL     1      -0.107   3.837  10.293  1.00  0.00    -0.311 OA
BRANCH  24  25
HETATM   25  C2  UNL     1       0.714   4.945  10.581  1.00  0.00     0.060 C 
HETATM   26  C1  UNL     1       0.841   5.887   9.415  1.00  0.00     0.045 C 
HETATM   27  C3  UNL     1       2.099   4.415  10.890  1.00  0.00     0.045 C 
HETATM   28  C4  UNL     1       0.266   5.738  11.778  1.00  0.00     0.045 C 
ENDBRANCH  24  25
ENDBRANCH  22  24
ENDBRANCH  21  22
ENDBRANCH  20  21
ENDBRANCH  17  20
ENDBRANCH  14  15
ENDBRANCH  11  14
ENDBRANCH   9  10
ENDBRANCH   1   9
TORSDOF 9
ENDMDL
