MODEL 1
REMARK VINA RESULT: -6.922609806      0.000      0.000
REMARK  11 active torsions:
REMARK  status: ('A' for Active; 'I' for Inactive)
REMARK    1  A    between atoms: C2_2  and  S1_4 
REMARK    2  A    between atoms: S1_4  and  C3_5 
REMARK    3  A    between atoms: C3_5  and  C4_6 
REMARK    4  A    between atoms: C4_6  and  O2_7 
REMARK    5  A    between atoms: C4_6  and  C5_9 
REMARK    6  A    between atoms: C5_9  and  C6_10 
REMARK    7  A    between atoms: C6_10  and  O4_12 
REMARK    8  A    between atoms: O4_12  and  C7_13 
REMARK    9  A    between atoms: C7_13  and  C8_14 
REMARK   10  A    between atoms: C8_14  and  C9_15 
REMARK   11  A    between atoms: C9_15  and  O5_16 
ROOT
HETATM    1  C7  UNL     1      -2.415   4.855  11.639  1.00  0.00     0.221 C 
ENDROOT
BRANCH   1   2
HETATM    2  O4  UNL     1      -2.137   4.831  12.986  1.00  0.00    -0.318 OA
BRANCH   2   3
HETATM    3  C6  UNL     1      -2.928   5.177  14.041  1.00  0.00     0.261 C 
HETATM    4  O3  UNL     1      -3.083   6.394  14.299  1.00  0.00    -0.265 OA
BRANCH   3   5
HETATM    5  C5  UNL     1      -3.613   4.144  14.895  1.00  0.00     0.143 C 
BRANCH   5   6
HETATM    6  C4  UNL     1      -5.108   4.223  14.672  1.00  0.00     0.137 C 
BRANCH   6   7
HETATM    7  C3  UNL     1      -5.759   2.885  14.827  1.00  0.00     0.114 C 
BRANCH   7   8
HETATM    8  S1  UNL     1      -4.922   1.835  16.024  1.00  0.00    -0.090 SA
BRANCH   8   9
HETATM    9  C2  UNL     1      -6.082   0.745  16.813  1.00  0.00     0.182 C 
HETATM   10  C1  UNL     1      -7.471   1.159  17.059  1.00  0.00     0.104 C 
HETATM   11  O1  UNL     1      -5.731  -0.376  17.166  1.00  0.00    -0.286 OA
ENDBRANCH   8   9
ENDBRANCH   7   8
ENDBRANCH   6   7
BRANCH   6  12
HETATM   12  O2  UNL     1      -5.322   4.657  13.352  1.00  0.00    -0.394 OA
ATOM     13  H2  UNL     1      -4.772   4.135  12.780  1.00  0.00     0.210 HD
ENDBRANCH   6  12
ENDBRANCH   5   6
ENDBRANCH   3   5
ENDBRANCH   2   3
ENDBRANCH   1   2
BRANCH   1  14
HETATM   14  C8  UNL     1      -2.440   3.574  10.892  1.00  0.00     0.137 C 
HETATM   15  O6  UNL     1      -3.423   3.307   9.988  1.00  0.00    -0.340 OA
HETATM   16  C10 UNL     1      -4.122   2.399  10.781  1.00  0.00     0.296 C 
HETATM   17  O7  UNL     1      -4.171   1.111  10.314  1.00  0.00    -0.323 OA
HETATM   18  C14 UNL     1      -2.957   2.427  11.743  1.00  0.00     0.219 C 
HETATM   19  C11 UNL     1      -3.499   0.393  11.293  1.00  0.00     0.160 C 
HETATM   20  C12 UNL     1      -4.251   0.327  12.598  1.00  0.00     0.078 C 
HETATM   21  C13 UNL     1      -3.133  -0.985  10.803  1.00  0.00     0.078 C 
HETATM   22  O8  UNL     1      -2.364   1.193  11.512  1.00  0.00    -0.342 OA
BRANCH  14  23
HETATM   23  C9  UNL     1      -1.070   3.185  10.310  1.00  0.00     0.207 C 
BRANCH  23  24
HETATM   24  O5  UNL     1      -1.215   2.274   9.292  1.00  0.00    -0.398 OA
ATOM     25  H5  UNL     1      -0.419   2.216   8.777  1.00  0.00     0.209 HD
ENDBRANCH  23  24
ENDBRANCH  14  23
ENDBRANCH   1  14
TORSDOF 11
ENDMDL
MODEL 2
REMARK VINA RESULT: -6.818782618      1.715      4.378
REMARK  11 active torsions:
REMARK  status: ('A' for Active; 'I' for Inactive)
REMARK    1  A    between atoms: C2_2  and  S1_4 
REMARK    2  A    between atoms: S1_4  and  C3_5 
REMARK    3  A    between atoms: C3_5  and  C4_6 
REMARK    4  A    between atoms: C4_6  and  O2_7 
REMARK    5  A    between atoms: C4_6  and  C5_9 
REMARK    6  A    between atoms: C5_9  and  C6_10 
REMARK    7  A    between atoms: C6_10  and  O4_12 
REMARK    8  A    between atoms: O4_12  and  C7_13 
REMARK    9  A    between atoms: C7_13  and  C8_14 
REMARK   10  A    between atoms: C8_14  and  C9_15 
REMARK   11  A    between atoms: C9_15  and  O5_16 
ROOT
HETATM    1  C7  UNL     1      -3.998   0.129  12.733  1.00  0.00     0.221 C 
ENDROOT
BRANCH   1   2
HETATM    2  O4  UNL     1      -4.156   0.985  13.797  1.00  0.00    -0.318 OA
BRANCH   2   3
HETATM    3  C6  UNL     1      -4.568   0.721  15.070  1.00  0.00     0.261 C 
HETATM    4  O3  UNL     1      -4.729  -0.475  15.410  1.00  0.00    -0.265 OA
BRANCH   3   5
HETATM    5  C5  UNL     1      -4.831   1.818  16.066  1.00  0.00     0.143 C 
BRANCH   5   6
HETATM    6  C4  UNL     1      -6.075   2.577  15.657  1.00  0.00     0.137 C 
BRANCH   6   7
HETATM    7  C3  UNL     1      -5.777   4.019  15.394  1.00  0.00     0.114 C 
BRANCH   7   8
HETATM    8  S1  UNL     1      -4.856   4.276  13.870  1.00  0.00    -0.090 SA
BRANCH   8   9
HETATM    9  C2  UNL     1      -3.189   4.775  14.227  1.00  0.00     0.182 C 
HETATM   10  C1  UNL     1      -2.753   6.166  14.038  1.00  0.00     0.104 C 
HETATM   11  O1  UNL     1      -2.376   3.954  14.638  1.00  0.00    -0.286 OA
ENDBRANCH   8   9
ENDBRANCH   7   8
ENDBRANCH   6   7
BRANCH   6  12
HETATM   12  O2  UNL     1      -6.987   2.512  16.725  1.00  0.00    -0.394 OA
ATOM     13  H2  UNL     1      -7.603   3.229  16.627  1.00  0.00     0.210 HD
ENDBRANCH   6  12
ENDBRANCH   5   6
ENDBRANCH   3   5
ENDBRANCH   2   3
ENDBRANCH   1   2
BRANCH   1  14
HETATM   14  C8  UNL     1      -3.598   0.689  11.419  1.00  0.00     0.137 C 
HETATM   15  O6  UNL     1      -2.633   0.092  10.666  1.00  0.00    -0.340 OA
HETATM   16  C10 UNL     1      -1.634   1.030  10.921  1.00  0.00     0.296 C 
HETATM   17  O7  UNL     1      -1.194   1.745   9.838  1.00  0.00    -0.323 OA
HETATM   18  C14 UNL     1      -2.690   1.897  11.566  1.00  0.00     0.219 C 
HETATM   19  C11 UNL     1      -1.540   3.050  10.158  1.00  0.00     0.160 C 
HETATM   20  C12 UNL     1      -0.738   3.611  11.304  1.00  0.00     0.078 C 
HETATM   21  C13 UNL     1      -1.464   3.946   8.948  1.00  0.00     0.078 C 
HETATM   22  O8  UNL     1      -2.861   2.895  10.617  1.00  0.00    -0.342 OA
BRANCH  14  23
HETATM   23  C9  UNL     1      -4.797   1.071  10.533  1.00  0.00     0.207 C 
BRANCH  23  24
HETATM   24  O5  UNL     1      -5.646   1.917  11.202  1.00  0.00    -0.398 OA
ATOM     25  H5  UNL     1      -6.397   1.442  11.540  1.00  0.00     0.209 HD
ENDBRANCH  23  24
ENDBRANCH  14  23
ENDBRANCH   1  14
TORSDOF 11
ENDMDL
MODEL 3
REMARK VINA RESULT: -6.776773247      2.193      5.602
REMARK  11 active torsions:
REMARK  status: ('A' for Active; 'I' for Inactive)
REMARK    1  A    between atoms: C2_2  and  S1_4 
REMARK    2  A    between atoms: S1_4  and  C3_5 
REMARK    3  A    between atoms: C3_5  and  C4_6 
REMARK    4  A    between atoms: C4_6  and  O2_7 
REMARK    5  A    between atoms: C4_6  and  C5_9 
REMARK    6  A    between atoms: C5_9  and  C6_10 
REMARK    7  A    between atoms: C6_10  and  O4_12 
REMARK    8  A    between atoms: O4_12  and  C7_13 
REMARK    9  A    between atoms: C7_13  and  C8_14 
REMARK   10  A    between atoms: C8_14  and  C9_15 
REMARK   11  A    between atoms: C9_15  and  O5_16 
ROOT
HETATM    1  C7  UNL     1      -4.829   2.455  13.063  1.00  0.00     0.221 C 
ENDROOT
BRANCH   1   2
HETATM    2  O4  UNL     1      -4.616   3.592  12.320  1.00  0.00    -0.318 OA
BRANCH   2   3
HETATM    3  C6  UNL     1      -3.547   3.935  11.546  1.00  0.00     0.261 C 
HETATM    4  O3  UNL     1      -3.050   5.077  11.684  1.00  0.00    -0.265 OA
BRANCH   3   5
HETATM    5  C5  UNL     1      -2.955   2.985  10.540  1.00  0.00     0.143 C 
BRANCH   5   6
HETATM    6  C4  UNL     1      -1.621   2.483  11.052  1.00  0.00     0.137 C 
BRANCH   6   7
HETATM    7  C3  UNL     1      -1.551   0.989  11.030  1.00  0.00     0.114 C 
BRANCH   7   8
HETATM    8  S1  UNL     1      -3.077   0.225  10.463  1.00  0.00    -0.090 SA
BRANCH   8   9
HETATM    9  C2  UNL     1      -3.535  -1.118  11.532  1.00  0.00     0.182 C 
HETATM   10  C1  UNL     1      -2.979  -2.466  11.344  1.00  0.00     0.104 C 
HETATM   11  O1  UNL     1      -4.330  -0.932  12.448  1.00  0.00    -0.286 OA
ENDBRANCH   8   9
ENDBRANCH   7   8
ENDBRANCH   6   7
BRANCH   6  12
HETATM   12  O2  UNL     1      -1.489   2.903  12.387  1.00  0.00    -0.394 OA
ATOM     13  H2  UNL     1      -1.933   3.738  12.476  1.00  0.00     0.210 HD
ENDBRANCH   6  12
ENDBRANCH   5   6
ENDBRANCH   3   5
ENDBRANCH   2   3
ENDBRANCH   1   2
BRANCH   1  14
HETATM   14  C8  UNL     1      -4.605   2.507  14.528  1.00  0.00     0.137 C 
HETATM   15  O6  UNL     1      -3.916   1.521  15.168  1.00  0.00    -0.340 OA
HETATM   16  C10 UNL     1      -5.023   0.916  15.761  1.00  0.00     0.296 C 
HETATM   17  O7  UNL     1      -5.063   0.952  17.130  1.00  0.00    -0.323 OA
HETATM   18  C14 UNL     1      -5.844   2.103  15.310  1.00  0.00     0.219 C 
HETATM   19  C11 UNL     1      -6.199   1.704  17.395  1.00  0.00     0.160 C 
HETATM   20  C12 UNL     1      -7.476   0.998  17.021  1.00  0.00     0.078 C 
HETATM   21  C13 UNL     1      -6.228   2.161  18.831  1.00  0.00     0.078 C 
HETATM   22  O8  UNL     1      -6.048   2.781  16.503  1.00  0.00    -0.342 OA
BRANCH  14  23
HETATM   23  C9  UNL     1      -4.132   3.885  15.021  1.00  0.00     0.207 C 
BRANCH  23  24
HETATM   24  O5  UNL     1      -2.798   4.067  14.749  1.00  0.00    -0.398 OA
ATOM     25  H5  UNL     1      -2.676   4.389  13.864  1.00  0.00     0.209 HD
ENDBRANCH  23  24
ENDBRANCH  14  23
ENDBRANCH   1  14
TORSDOF 11
ENDMDL
MODEL 4
REMARK VINA RESULT: -6.751238014      1.976      4.691
REMARK  11 active torsions:
REMARK  status: ('A' for Active; 'I' for Inactive)
REMARK    1  A    between atoms: C2_2  and  S1_4 
REMARK    2  A    between atoms: S1_4  and  C3_5 
REMARK    3  A    between atoms: C3_5  and  C4_6 
REMARK    4  A    between atoms: C4_6  and  O2_7 
REMARK    5  A    between atoms: C4_6  and  C5_9 
REMARK    6  A    between atoms: C5_9  and  C6_10 
REMARK    7  A    between atoms: C6_10  and  O4_12 
REMARK    8  A    between atoms: O4_12  and  C7_13 
REMARK    9  A    between atoms: C7_13  and  C8_14 
REMARK   10  A    between atoms: C8_14  and  C9_15 
REMARK   11  A    between atoms: C9_15  and  O5_16 
ROOT
HETATM    1  C7  UNL     1      -3.873  -0.112  12.497  1.00  0.00     0.221 C 
ENDROOT
BRANCH   1   2
HETATM    2  O4  UNL     1      -4.727   0.481  13.396  1.00  0.00    -0.318 OA
BRANCH   2   3
HETATM    3  C6  UNL     1      -4.603   0.625  14.746  1.00  0.00     0.261 C 
HETATM    4  O3  UNL     1      -4.587  -0.407  15.458  1.00  0.00    -0.265 OA
BRANCH   3   5
HETATM    5  C5  UNL     1      -4.485   1.977  15.396  1.00  0.00     0.143 C 
BRANCH   5   6
HETATM    6  C4  UNL     1      -4.484   3.047  14.325  1.00  0.00     0.137 C 
BRANCH   6   7
HETATM    7  C3  UNL     1      -4.077   4.377  14.877  1.00  0.00     0.114 C 
BRANCH   7   8
HETATM    8  S1  UNL     1      -3.154   5.372  13.696  1.00  0.00    -0.090 SA
BRANCH   8   9
HETATM    9  C2  UNL     1      -4.229   5.973  12.416  1.00  0.00     0.182 C 
HETATM   10  C1  UNL     1      -3.689   6.550  11.177  1.00  0.00     0.104 C 
HETATM   11  O1  UNL     1      -5.446   5.912  12.555  1.00  0.00    -0.286 OA
ENDBRANCH   8   9
ENDBRANCH   7   8
ENDBRANCH   6   7
BRANCH   6  12
HETATM   12  O2  UNL     1      -5.797   3.166  13.837  1.00  0.00    -0.394 OA
ATOM     13  H2  UNL     1      -6.229   3.857  14.326  1.00  0.00     0.210 HD
ENDBRANCH   6  12
ENDBRANCH   5   6
ENDBRANCH   3   5
ENDBRANCH   2   3
ENDBRANCH   1   2
BRANCH   1  14
HETATM   14  C8  UNL     1      -3.558   0.599  11.234  1.00  0.00     0.137 C 
HETATM   15  O6  UNL     1      -2.613   0.123  10.377  1.00  0.00    -0.340 OA
HETATM   16  C10 UNL     1      -1.634   1.066  10.685  1.00  0.00     0.296 C 
HETATM   17  O7  UNL     1      -1.272   1.909   9.667  1.00  0.00    -0.323 OA
HETATM   18  C14 UNL     1      -2.684   1.819  11.468  1.00  0.00     0.219 C 
HETATM   19  C11 UNL     1      -1.646   3.158  10.141  1.00  0.00     0.160 C 
HETATM   20  C12 UNL     1      -0.806   3.624  11.303  1.00  0.00     0.078 C 
HETATM   21  C13 UNL     1      -1.660   4.180   9.032  1.00  0.00     0.078 C 
HETATM   22  O8  UNL     1      -2.936   2.905  10.641  1.00  0.00    -0.342 OA
BRANCH  14  23
HETATM   23  C9  UNL     1      -4.812   1.026  10.450  1.00  0.00     0.207 C 
BRANCH  23  24
HETATM   24  O5  UNL     1      -5.583   1.883  11.197  1.00  0.00    -0.398 OA
ATOM     25  H5  UNL     1      -6.417   1.482  11.413  1.00  0.00     0.209 HD
ENDBRANCH  23  24
ENDBRANCH  14  23
ENDBRANCH   1  14
TORSDOF 11
ENDMDL
MODEL 5
REMARK VINA RESULT: -6.701257262      1.846      4.275
REMARK  11 active torsions:
REMARK  status: ('A' for Active; 'I' for Inactive)
REMARK    1  A    between atoms: C2_2  and  S1_4 
REMARK    2  A    between atoms: S1_4  and  C3_5 
REMARK    3  A    between atoms: C3_5  and  C4_6 
REMARK    4  A    between atoms: C4_6  and  O2_7 
REMARK    5  A    between atoms: C4_6  and  C5_9 
REMARK    6  A    between atoms: C5_9  and  C6_10 
REMARK    7  A    between atoms: C6_10  and  O4_12 
REMARK    8  A    between atoms: O4_12  and  C7_13 
REMARK    9  A    between atoms: C7_13  and  C8_14 
REMARK   10  A    between atoms: C8_14  and  C9_15 
REMARK   11  A    between atoms: C9_15  and  O5_16 
ROOT
HETATM    1  C7  UNL     1      -3.766   0.521  12.425  1.00  0.00     0.221 C 
ENDROOT
BRANCH   1   2
HETATM    2  O4  UNL     1      -4.097   1.058  13.646  1.00  0.00    -0.318 OA
BRANCH   2   3
HETATM    3  C6  UNL     1      -4.374   0.429  14.824  1.00  0.00     0.261 C 
HETATM    4  O3  UNL     1      -4.556  -0.811  14.811  1.00  0.00    -0.265 OA
BRANCH   3   5
HETATM    5  C5  UNL     1      -4.464   1.180  16.126  1.00  0.00     0.143 C 
BRANCH   5   6
HETATM    6  C4  UNL     1      -5.672   0.695  16.899  1.00  0.00     0.137 C 
BRANCH   6   7
HETATM    7  C3  UNL     1      -6.909   1.441  16.510  1.00  0.00     0.114 C 
BRANCH   7   8
HETATM    8  S1  UNL     1      -6.718   3.226  16.637  1.00  0.00    -0.090 SA
BRANCH   8   9
HETATM    9  C2  UNL     1      -6.222   3.911  15.075  1.00  0.00     0.182 C 
HETATM   10  C1  UNL     1      -5.720   5.288  14.972  1.00  0.00     0.104 C 
HETATM   11  O1  UNL     1      -6.295   3.233  14.055  1.00  0.00    -0.286 OA
ENDBRANCH   8   9
ENDBRANCH   7   8
ENDBRANCH   6   7
BRANCH   6  12
HETATM   12  O2  UNL     1      -5.433   0.937  18.263  1.00  0.00    -0.394 OA
ATOM     13  H2  UNL     1      -5.952   1.690  18.522  1.00  0.00     0.210 HD
ENDBRANCH   6  12
ENDBRANCH   5   6
ENDBRANCH   3   5
ENDBRANCH   2   3
ENDBRANCH   1   2
BRANCH   1  14
HETATM   14  C8  UNL     1      -3.472   1.439  11.297  1.00  0.00     0.137 C 
HETATM   15  O6  UNL     1      -2.975   0.968  10.119  1.00  0.00    -0.340 OA
HETATM   16  C10 UNL     1      -1.671   1.422  10.307  1.00  0.00     0.296 C 
HETATM   17  O7  UNL     1      -1.234   2.371   9.420  1.00  0.00    -0.323 OA
HETATM   18  C14 UNL     1      -2.172   2.198  11.503  1.00  0.00     0.219 C 
HETATM   19  C11 UNL     1      -0.999   3.475  10.228  1.00  0.00     0.160 C 
HETATM   20  C12 UNL     1       0.174   3.289  11.156  1.00  0.00     0.078 C 
HETATM   21  C13 UNL     1      -0.852   4.730   9.406  1.00  0.00     0.078 C 
HETATM   22  O8  UNL     1      -2.156   3.501  11.027  1.00  0.00    -0.342 OA
BRANCH  14  23
HETATM   23  C9  UNL     1      -4.601   2.448  11.026  1.00  0.00     0.207 C 
BRANCH  23  24
HETATM   24  O5  UNL     1      -5.830   1.868  11.226  1.00  0.00    -0.398 OA
ATOM     25  H5  UNL     1      -6.522   2.516  11.162  1.00  0.00     0.209 HD
ENDBRANCH  23  24
ENDBRANCH  14  23
ENDBRANCH   1  14
TORSDOF 11
ENDMDL
