MODEL 1
REMARK VINA RESULT: -7.301516792      0.000      0.000
REMARK  11 active torsions:
REMARK  status: ('A' for Active; 'I' for Inactive)
REMARK    1  A    between atoms: C3_3  and  O1_4 
REMARK    2  A    between atoms: O1_4  and  C4_5 
REMARK    3  A    between atoms: C4_5  and  C5_7 
REMARK    4  A    between atoms: C5_7  and  C6_8 
REMARK    5  A    between atoms: C5_7  and  N2_17 
REMARK    6  A    between atoms: C6_8  and  C7_9 
REMARK    7  A    between atoms: C7_9  and  C8_10 
REMARK    8  A    between atoms: C8_10  and  O3_11 
REMARK    9  A    between atoms: N1_13  and  O4_15 
REMARK   10  A    between atoms: C13_23  and  C14_24 
REMARK   11  A    between atoms: C14_24  and  O6_26 
ROOT
HETATM    1  C1  UNL     1      -1.577   0.738  10.788  1.00  0.00     0.014 C 
HETATM    2  C2  UNL     1      -2.646   0.224  10.924  1.00  0.00    -0.091 C 
HETATM    3  C3  UNL     1      -3.948  -0.426  11.089  1.00  0.00     0.271 C 
ENDROOT
BRANCH   3   4
HETATM    4  O1  UNL     1      -4.635   0.258  12.109  1.00  0.00    -0.308 OA
BRANCH   4   5
HETATM    5  C4  UNL     1      -4.800   1.620  12.178  1.00  0.00     0.282 C 
HETATM    6  O2  UNL     1      -5.637   2.064  11.304  1.00  0.00    -0.263 OA
BRANCH   5   7
HETATM    7  C5  UNL     1      -4.165   2.559  13.077  1.00  0.00     0.181 C 
BRANCH   7   8
HETATM    8  C6  UNL     1      -4.975   2.702  14.382  1.00  0.00     0.043 C 
BRANCH   8   9
HETATM    9  C7  UNL     1      -4.363   2.050  15.556  1.00  0.00     0.088 C 
BRANCH   9  10
HETATM   10  C8  UNL     1      -4.871   0.748  15.965  1.00  0.00     0.135 C 
HETATM   11  N1  UNL     1      -5.502   0.530  17.040  1.00  0.00    -0.251 N 
ATOM     12  H1  UNL     1      -5.666   1.323  17.661  1.00  0.00     0.196 HD
BRANCH  10  13
HETATM   13  O3  UNL     1      -4.640  -0.340  15.095  1.00  0.00    -0.348 OA
ATOM     14  H3  UNL     1      -5.158  -1.125  15.231  1.00  0.00     0.219 HD
ENDBRANCH  10  13
BRANCH  11  15
HETATM   15  O4  UNL     1      -5.978  -0.680  17.428  1.00  0.00    -0.288 OA
ATOM     16  H4  UNL     1      -6.814  -0.823  17.856  1.00  0.00     0.244 HD
ENDBRANCH  11  15
ENDBRANCH   9  10
ENDBRANCH   8   9
ENDBRANCH   7   8
BRANCH   7  17
HETATM   17  N2  UNL     1      -3.972   3.906  12.643  1.00  0.00    -0.376 N 
HETATM   18  C9  UNL     1      -4.666   4.869  13.423  1.00  0.00     0.194 C 
HETATM   19  S1  UNL     1      -3.274   5.989  13.863  1.00  0.00    -0.138 SA
HETATM   20  C10 UNL     1      -2.342   5.670  12.339  1.00  0.00     0.032 C 
HETATM   21  C11 UNL     1      -0.859   5.660  12.599  1.00  0.00     0.029 C 
HETATM   22  C12 UNL     1      -2.722   6.769  11.371  1.00  0.00     0.029 C 
HETATM   23  C13 UNL     1      -2.897   4.327  11.937  1.00  0.00     0.199 C 
BRANCH  23  24
HETATM   24  C14 UNL     1      -3.218   4.417  10.464  1.00  0.00     0.282 C 
HETATM   25  O5  UNL     1      -4.307   4.878  10.043  1.00  0.00    -0.263 OA
BRANCH  24  26
HETATM   26  O6  UNL     1      -2.310   3.988   9.508  1.00  0.00    -0.325 OA
HETATM   27  C15 UNL     1      -1.901   4.835   8.475  1.00  0.00     0.213 C 
ENDBRANCH  24  26
ENDBRANCH  23  24
ENDBRANCH   7  17
ENDBRANCH   5   7
ENDBRANCH   4   5
ENDBRANCH   3   4
TORSDOF 11
ENDMDL
MODEL 2
REMARK VINA RESULT: -7.003962914      0.884      1.222
REMARK  11 active torsions:
REMARK  status: ('A' for Active; 'I' for Inactive)
REMARK    1  A    between atoms: C3_3  and  O1_4 
REMARK    2  A    between atoms: O1_4  and  C4_5 
REMARK    3  A    between atoms: C4_5  and  C5_7 
REMARK    4  A    between atoms: C5_7  and  C6_8 
REMARK    5  A    between atoms: C5_7  and  N2_17 
REMARK    6  A    between atoms: C6_8  and  C7_9 
REMARK    7  A    between atoms: C7_9  and  C8_10 
REMARK    8  A    between atoms: C8_10  and  O3_11 
REMARK    9  A    between atoms: N1_13  and  O4_15 
REMARK   10  A    between atoms: C13_23  and  C14_24 
REMARK   11  A    between atoms: C14_24  and  O6_26 
ROOT
HETATM    1  C1  UNL     1      -1.585   0.757  10.730  1.00  0.00     0.014 C 
HETATM    2  C2  UNL     1      -2.680   0.291  10.839  1.00  0.00    -0.091 C 
HETATM    3  C3  UNL     1      -4.013  -0.300  10.967  1.00  0.00     0.271 C 
ENDROOT
BRANCH   3   4
HETATM    4  O1  UNL     1      -4.619   0.268  12.103  1.00  0.00    -0.308 OA
BRANCH   4   5
HETATM    5  C4  UNL     1      -4.773   1.614  12.330  1.00  0.00     0.282 C 
HETATM    6  O2  UNL     1      -5.682   2.143  11.585  1.00  0.00    -0.263 OA
BRANCH   5   7
HETATM    7  C5  UNL     1      -4.059   2.456  13.264  1.00  0.00     0.181 C 
BRANCH   7   8
HETATM    8  C6  UNL     1      -4.905   2.712  14.528  1.00  0.00     0.043 C 
BRANCH   8   9
HETATM    9  C7  UNL     1      -4.394   2.057  15.748  1.00  0.00     0.088 C 
BRANCH   9  10
HETATM   10  C8  UNL     1      -4.899   0.733  16.083  1.00  0.00     0.135 C 
HETATM   11  N1  UNL     1      -5.573   0.464  17.121  1.00  0.00    -0.251 N 
ATOM     12  H1  UNL     1      -5.776   1.229  17.764  1.00  0.00     0.196 HD
BRANCH  10  13
HETATM   13  O3  UNL     1      -4.614  -0.316  15.182  1.00  0.00    -0.348 OA
ATOM     14  H3  UNL     1      -3.881  -0.884  15.392  1.00  0.00     0.219 HD
ENDBRANCH  10  13
BRANCH  11  15
HETATM   15  O4  UNL     1      -6.046  -0.767  17.440  1.00  0.00    -0.288 OA
ATOM     16  H4  UNL     1      -6.567  -0.966  18.209  1.00  0.00     0.244 HD
ENDBRANCH  11  15
ENDBRANCH   9  10
ENDBRANCH   8   9
ENDBRANCH   7   8
BRANCH   7  17
HETATM   17  N2  UNL     1      -3.659   3.763  12.847  1.00  0.00    -0.376 N 
HETATM   18  C9  UNL     1      -3.619   4.717  13.900  1.00  0.00     0.194 C 
HETATM   19  S1  UNL     1      -1.900   5.342  13.700  1.00  0.00    -0.138 SA
HETATM   20  C10 UNL     1      -1.853   5.070  11.906  1.00  0.00     0.032 C 
HETATM   21  C11 UNL     1      -0.484   4.631  11.458  1.00  0.00     0.029 C 
HETATM   22  C12 UNL     1      -2.243   6.386  11.268  1.00  0.00     0.029 C 
HETATM   23  C13 UNL     1      -2.913   4.011  11.747  1.00  0.00     0.199 C 
BRANCH  23  24
HETATM   24  C14 UNL     1      -3.782   4.443  10.590  1.00  0.00     0.282 C 
HETATM   25  O5  UNL     1      -3.481   4.198   9.397  1.00  0.00    -0.263 OA
BRANCH  24  26
HETATM   26  O6  UNL     1      -4.964   5.137  10.805  1.00  0.00    -0.325 OA
HETATM   27  C15 UNL     1      -5.355   6.171   9.951  1.00  0.00     0.213 C 
ENDBRANCH  24  26
ENDBRANCH  23  24
ENDBRANCH   7  17
ENDBRANCH   5   7
ENDBRANCH   4   5
ENDBRANCH   3   4
TORSDOF 11
ENDMDL
MODEL 3
REMARK VINA RESULT: -6.951577493      1.353      1.771
REMARK  11 active torsions:
REMARK  status: ('A' for Active; 'I' for Inactive)
REMARK    1  A    between atoms: C3_3  and  O1_4 
REMARK    2  A    between atoms: O1_4  and  C4_5 
REMARK    3  A    between atoms: C4_5  and  C5_7 
REMARK    4  A    between atoms: C5_7  and  C6_8 
REMARK    5  A    between atoms: C5_7  and  N2_17 
REMARK    6  A    between atoms: C6_8  and  C7_9 
REMARK    7  A    between atoms: C7_9  and  C8_10 
REMARK    8  A    between atoms: C8_10  and  O3_11 
REMARK    9  A    between atoms: N1_13  and  O4_15 
REMARK   10  A    between atoms: C13_23  and  C14_24 
REMARK   11  A    between atoms: C14_24  and  O6_26 
ROOT
HETATM    1  C1  UNL     1      -3.425  -2.001  11.555  1.00  0.00     0.014 C 
HETATM    2  C2  UNL     1      -3.085  -0.973  11.051  1.00  0.00    -0.091 C 
HETATM    3  C3  UNL     1      -2.655   0.276  10.419  1.00  0.00     0.271 C 
ENDROOT
BRANCH   3   4
HETATM    4  O1  UNL     1      -3.797   1.082  10.258  1.00  0.00    -0.308 OA
BRANCH   4   5
HETATM    5  C4  UNL     1      -4.413   1.793  11.259  1.00  0.00     0.282 C 
HETATM    6  O2  UNL     1      -5.684   1.905  11.080  1.00  0.00    -0.263 OA
BRANCH   5   7
HETATM    7  C5  UNL     1      -3.817   2.398  12.430  1.00  0.00     0.181 C 
BRANCH   7   8
HETATM    8  C6  UNL     1      -4.705   2.180  13.672  1.00  0.00     0.043 C 
BRANCH   8   9
HETATM    9  C7  UNL     1      -4.519   0.874  14.335  1.00  0.00     0.088 C 
BRANCH   9  10
HETATM   10  C8  UNL     1      -4.483   0.838  15.790  1.00  0.00     0.135 C 
HETATM   11  N1  UNL     1      -5.375   0.310  16.517  1.00  0.00    -0.251 N 
ATOM     12  H1  UNL     1      -6.172  -0.120  16.049  1.00  0.00     0.196 HD
BRANCH  10  13
HETATM   13  O3  UNL     1      -3.371   1.434  16.426  1.00  0.00    -0.348 OA
ATOM     14  H3  UNL     1      -2.935   0.931  17.104  1.00  0.00     0.219 HD
ENDBRANCH  10  13
BRANCH  11  15
HETATM   15  O4  UNL     1      -5.348   0.273  17.873  1.00  0.00    -0.288 OA
ATOM     16  H4  UNL     1      -5.175   1.021  18.433  1.00  0.00     0.244 HD
ENDBRANCH  11  15
ENDBRANCH   9  10
ENDBRANCH   8   9
ENDBRANCH   7   8
BRANCH   7  17
HETATM   17  N2  UNL     1      -3.568   3.804  12.428  1.00  0.00    -0.376 N 
HETATM   18  C9  UNL     1      -3.615   4.401  13.717  1.00  0.00     0.194 C 
HETATM   19  S1  UNL     1      -1.976   5.239  13.741  1.00  0.00    -0.138 SA
HETATM   20  C10 UNL     1      -1.929   5.520  11.948  1.00  0.00     0.032 C 
HETATM   21  C11 UNL     1      -0.529   5.385  11.412  1.00  0.00     0.029 C 
HETATM   22  C12 UNL     1      -2.471   6.915  11.724  1.00  0.00     0.029 C 
HETATM   23  C13 UNL     1      -2.872   4.448  11.463  1.00  0.00     0.199 C 
BRANCH  23  24
HETATM   24  C14 UNL     1      -3.801   5.108  10.473  1.00  0.00     0.282 C 
HETATM   25  O5  UNL     1      -3.454   5.362   9.294  1.00  0.00    -0.263 OA
BRANCH  24  26
HETATM   26  O6  UNL     1      -5.093   5.462  10.833  1.00  0.00    -0.325 OA
HETATM   27  C15 UNL     1      -5.796   6.436  10.119  1.00  0.00     0.213 C 
ENDBRANCH  24  26
ENDBRANCH  23  24
ENDBRANCH   7  17
ENDBRANCH   5   7
ENDBRANCH   4   5
ENDBRANCH   3   4
TORSDOF 11
ENDMDL
MODEL 4
REMARK VINA RESULT: -6.834045371      0.987      1.175
REMARK  11 active torsions:
REMARK  status: ('A' for Active; 'I' for Inactive)
REMARK    1  A    between atoms: C3_3  and  O1_4 
REMARK    2  A    between atoms: O1_4  and  C4_5 
REMARK    3  A    between atoms: C4_5  and  C5_7 
REMARK    4  A    between atoms: C5_7  and  C6_8 
REMARK    5  A    between atoms: C5_7  and  N2_17 
REMARK    6  A    between atoms: C6_8  and  C7_9 
REMARK    7  A    between atoms: C7_9  and  C8_10 
REMARK    8  A    between atoms: C8_10  and  O3_11 
REMARK    9  A    between atoms: N1_13  and  O4_15 
REMARK   10  A    between atoms: C13_23  and  C14_24 
REMARK   11  A    between atoms: C14_24  and  O6_26 
ROOT
HETATM    1  C1  UNL     1      -2.831  -2.793  11.192  1.00  0.00     0.014 C 
HETATM    2  C2  UNL     1      -2.935  -1.606  11.111  1.00  0.00    -0.091 C 
HETATM    3  C3  UNL     1      -3.056  -0.152  10.989  1.00  0.00     0.271 C 
ENDROOT
BRANCH   3   4
HETATM    4  O1  UNL     1      -4.216   0.235  11.687  1.00  0.00    -0.308 OA
BRANCH   4   5
HETATM    5  C4  UNL     1      -4.631   1.530  11.878  1.00  0.00     0.282 C 
HETATM    6  O2  UNL     1      -5.666   1.830  11.170  1.00  0.00    -0.263 OA
BRANCH   5   7
HETATM    7  C5  UNL     1      -4.059   2.540  12.742  1.00  0.00     0.181 C 
BRANCH   7   8
HETATM    8  C6  UNL     1      -5.004   2.853  13.920  1.00  0.00     0.043 C 
BRANCH   8   9
HETATM    9  C7  UNL     1      -4.399   2.673  15.253  1.00  0.00     0.088 C 
BRANCH   9  10
HETATM   10  C8  UNL     1      -4.639   1.421  15.957  1.00  0.00     0.135 C 
HETATM   11  N1  UNL     1      -5.784   0.989  16.281  1.00  0.00    -0.251 N 
ATOM     12  H1  UNL     1      -6.593   1.558  16.030  1.00  0.00     0.196 HD
BRANCH  10  13
HETATM   13  O3  UNL     1      -3.512   0.641  16.296  1.00  0.00    -0.348 OA
ATOM     14  H3  UNL     1      -3.666  -0.262  16.548  1.00  0.00     0.219 HD
ENDBRANCH  10  13
BRANCH  11  15
HETATM   15  O4  UNL     1      -6.016  -0.175  16.937  1.00  0.00    -0.288 OA
ATOM     16  H4  UNL     1      -6.435  -0.938  16.558  1.00  0.00     0.244 HD
ENDBRANCH  11  15
ENDBRANCH   9  10
ENDBRANCH   8   9
ENDBRANCH   7   8
BRANCH   7  17
HETATM   17  N2  UNL     1      -3.755   3.823  12.193  1.00  0.00    -0.376 N 
HETATM   18  C9  UNL     1      -4.659   4.847  12.587  1.00  0.00     0.194 C 
HETATM   19  S1  UNL     1      -3.470   6.086  13.251  1.00  0.00    -0.138 SA
HETATM   20  C10 UNL     1      -2.123   5.610  12.132  1.00  0.00     0.032 C 
HETATM   21  C11 UNL     1      -0.785   5.710  12.816  1.00  0.00     0.029 C 
HETATM   22  C12 UNL     1      -2.206   6.547  10.947  1.00  0.00     0.029 C 
HETATM   23  C13 UNL     1      -2.522   4.198  11.783  1.00  0.00     0.199 C 
BRANCH  23  24
HETATM   24  C14 UNL     1      -2.390   4.072  10.284  1.00  0.00     0.282 C 
HETATM   25  O5  UNL     1      -3.387   3.964   9.529  1.00  0.00    -0.263 OA
BRANCH  24  26
HETATM   26  O6  UNL     1      -1.144   4.070   9.675  1.00  0.00    -0.325 OA
HETATM   27  C15 UNL     1      -1.022   4.174   8.287  1.00  0.00     0.213 C 
ENDBRANCH  24  26
ENDBRANCH  23  24
ENDBRANCH   7  17
ENDBRANCH   5   7
ENDBRANCH   4   5
ENDBRANCH   3   4
TORSDOF 11
ENDMDL
MODEL 5
REMARK VINA RESULT: -6.807865535      1.568      2.207
REMARK  11 active torsions:
REMARK  status: ('A' for Active; 'I' for Inactive)
REMARK    1  A    between atoms: C3_3  and  O1_4 
REMARK    2  A    between atoms: O1_4  and  C4_5 
REMARK    3  A    between atoms: C4_5  and  C5_7 
REMARK    4  A    between atoms: C5_7  and  C6_8 
REMARK    5  A    between atoms: C5_7  and  N2_17 
REMARK    6  A    between atoms: C6_8  and  C7_9 
REMARK    7  A    between atoms: C7_9  and  C8_10 
REMARK    8  A    between atoms: C8_10  and  O3_11 
REMARK    9  A    between atoms: N1_13  and  O4_15 
REMARK   10  A    between atoms: C13_23  and  C14_24 
REMARK   11  A    between atoms: C14_24  and  O6_26 
ROOT
HETATM    1  C1  UNL     1      -3.600  -1.697  11.609  1.00  0.00     0.014 C 
HETATM    2  C2  UNL     1      -3.165  -0.672  11.176  1.00  0.00    -0.091 C 
HETATM    3  C3  UNL     1      -2.619   0.573  10.631  1.00  0.00     0.271 C 
ENDROOT
BRANCH   3   4
HETATM    4  O1  UNL     1      -3.695   1.463  10.453  1.00  0.00    -0.308 OA
BRANCH   4   5
HETATM    5  C4  UNL     1      -4.407   2.058  11.465  1.00  0.00     0.282 C 
HETATM    6  O2  UNL     1      -5.676   2.073  11.238  1.00  0.00    -0.263 OA
BRANCH   5   7
HETATM    7  C5  UNL     1      -3.910   2.642  12.691  1.00  0.00     0.181 C 
BRANCH   7   8
HETATM    8  C6  UNL     1      -4.954   2.515  13.820  1.00  0.00     0.043 C 
BRANCH   8   9
HETATM    9  C7  UNL     1      -4.401   2.077  15.117  1.00  0.00     0.088 C 
BRANCH   9  10
HETATM   10  C8  UNL     1      -4.886   0.828  15.686  1.00  0.00     0.135 C 
HETATM   11  N1  UNL     1      -5.538   0.738  16.768  1.00  0.00    -0.251 N 
ATOM     12  H1  UNL     1      -5.737   1.602  17.273  1.00  0.00     0.196 HD
BRANCH  10  13
HETATM   13  O3  UNL     1      -4.606  -0.360  14.975  1.00  0.00    -0.348 OA
ATOM     14  H3  UNL     1      -3.803  -0.387  14.469  1.00  0.00     0.219 HD
ENDBRANCH  10  13
BRANCH  11  15
HETATM   15  O4  UNL     1      -5.992  -0.422  17.305  1.00  0.00    -0.288 OA
ATOM     16  H4  UNL     1      -6.200  -0.551  18.223  1.00  0.00     0.244 HD
ENDBRANCH  11  15
ENDBRANCH   9  10
ENDBRANCH   8   9
ENDBRANCH   7   8
BRANCH   7  17
HETATM   17  N2  UNL     1      -3.557   4.026  12.702  1.00  0.00    -0.376 N 
HETATM   18  C9  UNL     1      -2.504   4.345  13.601  1.00  0.00     0.194 C 
HETATM   19  S1  UNL     1      -1.353   5.208  12.452  1.00  0.00    -0.138 SA
HETATM   20  C10 UNL     1      -2.670   5.849  11.380  1.00  0.00     0.032 C 
HETATM   21  C11 UNL     1      -2.239   5.867   9.938  1.00  0.00     0.029 C 
HETATM   22  C12 UNL     1      -2.979   7.245  11.878  1.00  0.00     0.029 C 
HETATM   23  C13 UNL     1      -3.781   4.872  11.671  1.00  0.00     0.199 C 
BRANCH  23  24
HETATM   24  C14 UNL     1      -5.026   5.693  11.905  1.00  0.00     0.282 C 
HETATM   25  O5  UNL     1      -5.517   5.855  13.048  1.00  0.00    -0.263 OA
BRANCH  24  26
HETATM   26  O6  UNL     1      -5.684   6.308  10.850  1.00  0.00    -0.325 OA
HETATM   27  C15 UNL     1      -6.547   7.385  11.072  1.00  0.00     0.213 C 
ENDBRANCH  24  26
ENDBRANCH  23  24
ENDBRANCH   7  17
ENDBRANCH   5   7
ENDBRANCH   4   5
ENDBRANCH   3   4
TORSDOF 11
ENDMDL
