MODEL 1
REMARK VINA RESULT: -8.362857457      0.000      0.000
REMARK  12 active torsions:
REMARK  status: ('A' for Active; 'I' for Inactive)
REMARK    1  A    between atoms: C2_2  and  N1_3 
REMARK    2  A    between atoms: N1_3  and  C3_5 
REMARK    3  A    between atoms: C4_8  and  N3_9 
REMARK    4  A    between atoms: N3_9  and  O1_10 
REMARK    5  A    between atoms: N3_9  and  C5_12 
REMARK    6  A    between atoms: C5_12  and  C6_13 
REMARK    7  A    between atoms: C6_13  and  N4_14 
REMARK    8  A    between atoms: C7_21  and  N8_22 
REMARK    9  A    between atoms: C8_25  and  N9_26 
REMARK   10  A    between atoms: C9_29  and  N10_30 
REMARK   11  A    between atoms: N10_30  and  C10_32 
REMARK   12  A    between atoms: C10_32  and  O4_34 
ROOT
HETATM    1  C3  UNL     1      15.446   2.156   4.332  1.00  0.00     0.681 A 
HETATM    2  N2  UNL     1      14.114   2.046   4.478  1.00  0.00    -0.172 N 
ATOM      3  H2  UNL     1      13.654   1.190   4.167  1.00  0.00     0.186 HD
HETATM    4  C4  UNL     1      13.366   3.024   5.020  1.00  0.00     0.180 A 
HETATM    5  C8  UNL     1      14.047   4.148   5.418  1.00  0.00     0.193 A 
HETATM    6  C9  UNL     1      15.425   4.265   5.268  1.00  0.00     0.156 A 
HETATM    7  N11 UNL     1      16.105   3.261   4.724  1.00  0.00    -0.174 N 
ATOM      8  H11 UNL     1      17.116   3.328   4.605  1.00  0.00     0.186 HD
ENDROOT
BRANCH   4   9
HETATM    9  N3  UNL     1      11.973   2.980   5.203  1.00  0.00    -0.240 N 
BRANCH   9  10
HETATM   10  O1  UNL     1      11.536   2.794   6.489  1.00  0.00    -0.286 OA
ATOM     11  H1  UNL     1      11.939   2.081   6.971  1.00  0.00     0.244 HD
ENDBRANCH   9  10
BRANCH   9  12
HETATM   12  C5  UNL     1      11.005   3.117   4.151  1.00  0.00     0.180 C 
BRANCH  12  13
HETATM   13  C6  UNL     1      11.410   4.157   3.120  1.00  0.00     0.192 C 
BRANCH  13  14
HETATM   14  N4  UNL     1      10.193   4.876   2.777  1.00  0.00    -0.106 N 
HETATM   15  N5  UNL     1       9.256   4.527   1.905  1.00  0.00    -0.211 N 
HETATM   16  N6  UNL     1       8.306   5.424   1.868  1.00  0.00    -0.213 N 
ATOM     17  H5  UNL     1       9.274   3.677   1.343  1.00  0.00     0.210 HD
HETATM   18  N7  UNL     1       8.594   6.381   2.712  1.00  0.00    -0.115 N 
ATOM     19  H6  UNL     1       7.475   5.384   1.277  1.00  0.00     0.210 HD
HETATM   20  C7  UNL     1       9.766   6.051   3.284  1.00  0.00     0.709 A 
ATOM     21  H7  UNL     1       8.038   7.215   2.900  1.00  0.00     0.207 HD
BRANCH  20  22
HETATM   22  N8  UNL     1      10.401   6.715   4.165  1.00  0.00    -0.232 N 
ATOM     23  H82 UNL     1      11.411   6.749   4.297  1.00  0.00     0.174 HD
ATOM     24  H81 UNL     1       9.950   7.308   4.862  1.00  0.00     0.174 HD
ENDBRANCH  20  22
ENDBRANCH  13  14
ENDBRANCH  12  13
ENDBRANCH   9  12
ENDBRANCH   4   9
BRANCH   5  25
HETATM   25  N9  UNL     1      13.351   5.220   5.996  1.00  0.00    -0.108 N 
HETATM   26  O2  UNL     1      13.000   5.244   7.185  1.00  0.00    -0.531 OA
HETATM   27  O3  UNL     1      13.041   6.297   5.208  1.00  0.00    -0.531 OA
ENDBRANCH   5  25
BRANCH   1  28
HETATM   28  N1  UNL     1      16.133   1.208   3.809  1.00  0.00    -0.226 N 
ATOM     29  H1  UNL     1      17.152   1.252   3.783  1.00  0.00     0.177 HD
BRANCH  28  30
HETATM   30  C2  UNL     1      15.424   0.074   3.257  1.00  0.00     0.133 C 
HETATM   31  C1  UNL     1      16.392  -1.111   3.168  1.00  0.00     0.027 C 
ENDBRANCH  28  30
ENDBRANCH   1  28
BRANCH   6  32
HETATM   32  N10 UNL     1      16.046   5.322   5.642  1.00  0.00    -0.348 N 
ATOM     33  H10 UNL     1      16.175   5.486   6.641  1.00  0.00     0.163 HD
BRANCH  32  34
HETATM   34  C10 UNL     1      16.563   6.280   4.720  1.00  0.00     0.215 C 
HETATM   35  C11 UNL     1      17.954   6.685   5.161  1.00  0.00     0.063 C 
BRANCH  34  36
HETATM   36  O4  UNL     1      16.715   5.672   3.472  1.00  0.00    -0.377 OA
ATOM     37  H4  UNL     1      17.595   5.323   3.402  1.00  0.00     0.212 HD
ENDBRANCH  34  36
ENDBRANCH  32  34
ENDBRANCH   6  32
TORSDOF 12
ENDMDL
MODEL 2
REMARK VINA RESULT: -8.181809366      1.642      3.804
REMARK  12 active torsions:
REMARK  status: ('A' for Active; 'I' for Inactive)
REMARK    1  A    between atoms: C2_2  and  N1_3 
REMARK    2  A    between atoms: N1_3  and  C3_5 
REMARK    3  A    between atoms: C4_8  and  N3_9 
REMARK    4  A    between atoms: N3_9  and  O1_10 
REMARK    5  A    between atoms: N3_9  and  C5_12 
REMARK    6  A    between atoms: C5_12  and  C6_13 
REMARK    7  A    between atoms: C6_13  and  N4_14 
REMARK    8  A    between atoms: C7_21  and  N8_22 
REMARK    9  A    between atoms: C8_25  and  N9_26 
REMARK   10  A    between atoms: C9_29  and  N10_30 
REMARK   11  A    between atoms: N10_30  and  C10_32 
REMARK   12  A    between atoms: C10_32  and  O4_34 
ROOT
HETATM    1  C3  UNL     1      14.713   5.120   5.358  1.00  0.00     0.681 A 
HETATM    2  N2  UNL     1      13.459   5.458   5.704  1.00  0.00    -0.172 N 
ATOM      3  H2  UNL     1      13.251   6.435   5.907  1.00  0.00     0.186 HD
HETATM    4  C4  UNL     1      12.467   4.552   5.791  1.00  0.00     0.180 A 
HETATM    5  C8  UNL     1      12.815   3.255   5.504  1.00  0.00     0.193 A 
HETATM    6  C9  UNL     1      14.112   2.903   5.146  1.00  0.00     0.156 A 
HETATM    7  N11 UNL     1      15.044   3.846   5.079  1.00  0.00    -0.174 N 
ATOM      8  H11 UNL     1      16.001   3.608   4.818  1.00  0.00     0.186 HD
ENDROOT
BRANCH   4   9
HETATM    9  N3  UNL     1      11.137   4.830   6.147  1.00  0.00    -0.240 N 
BRANCH   9  10
HETATM   10  O1  UNL     1      10.605   4.063   7.151  1.00  0.00    -0.286 OA
ATOM     11  H1  UNL     1      11.226   3.602   7.702  1.00  0.00     0.244 HD
ENDBRANCH   9  10
BRANCH   9  12
HETATM   12  C5  UNL     1      10.322   5.845   5.538  1.00  0.00     0.180 C 
BRANCH  12  13
HETATM   13  C6  UNL     1      10.874   6.310   4.201  1.00  0.00     0.192 C 
BRANCH  13  14
HETATM   14  N4  UNL     1      10.034   5.696   3.186  1.00  0.00    -0.106 N 
HETATM   15  N5  UNL     1       8.776   5.990   2.880  1.00  0.00    -0.211 N 
HETATM   16  N6  UNL     1       8.349   5.226   1.908  1.00  0.00    -0.213 N 
ATOM     17  H5  UNL     1       8.220   6.710   3.339  1.00  0.00     0.210 HD
HETATM   18  N7  UNL     1       9.312   4.416   1.553  1.00  0.00    -0.115 N 
ATOM     19  H6  UNL     1       7.417   5.258   1.494  1.00  0.00     0.210 HD
HETATM   20  C7  UNL     1      10.365   4.699   2.341  1.00  0.00     0.709 A 
ATOM     21  H7  UNL     1       9.272   3.707   0.820  1.00  0.00     0.207 HD
BRANCH  20  22
HETATM   22  N8  UNL     1      11.508   4.138   2.321  1.00  0.00    -0.232 N 
ATOM     23  H82 UNL     1      11.893   3.560   1.574  1.00  0.00     0.174 HD
ATOM     24  H81 UNL     1      12.188   4.208   3.077  1.00  0.00     0.174 HD
ENDBRANCH  20  22
ENDBRANCH  13  14
ENDBRANCH  12  13
ENDBRANCH   9  12
ENDBRANCH   4   9
BRANCH   5  25
HETATM   25  N9  UNL     1      11.847   2.242   5.567  1.00  0.00    -0.108 N 
HETATM   26  O2  UNL     1      11.859   1.336   6.413  1.00  0.00    -0.531 OA
HETATM   27  O3  UNL     1      10.832   2.252   4.646  1.00  0.00    -0.531 OA
ENDBRANCH   5  25
BRANCH   1  28
HETATM   28  N1  UNL     1      15.639   6.005   5.285  1.00  0.00    -0.226 N 
ATOM     29  H1  UNL     1      15.456   6.976   5.537  1.00  0.00     0.177 HD
BRANCH  28  30
HETATM   30  C2  UNL     1      16.949   5.587   4.837  1.00  0.00     0.133 C 
HETATM   31  C1  UNL     1      17.982   6.605   5.334  1.00  0.00     0.027 C 
ENDBRANCH  28  30
ENDBRANCH   1  28
BRANCH   6  32
HETATM   32  N10 UNL     1      14.420   1.686   4.883  1.00  0.00    -0.348 N 
ATOM     33  H10 UNL     1      13.898   0.939   5.342  1.00  0.00     0.163 HD
BRANCH  32  34
HETATM   34  C10 UNL     1      15.462   1.335   3.974  1.00  0.00     0.215 C 
HETATM   35  C11 UNL     1      15.538  -0.175   3.875  1.00  0.00     0.063 C 
BRANCH  34  36
HETATM   36  O4  UNL     1      15.125   1.789   2.698  1.00  0.00    -0.377 OA
ATOM     37  H4  UNL     1      15.823   1.565   2.095  1.00  0.00     0.212 HD
ENDBRANCH  34  36
ENDBRANCH  32  34
ENDBRANCH   6  32
TORSDOF 12
ENDMDL
MODEL 3
REMARK VINA RESULT: -7.704144692      2.484      4.162
REMARK  12 active torsions:
REMARK  status: ('A' for Active; 'I' for Inactive)
REMARK    1  A    between atoms: C2_2  and  N1_3 
REMARK    2  A    between atoms: N1_3  and  C3_5 
REMARK    3  A    between atoms: C4_8  and  N3_9 
REMARK    4  A    between atoms: N3_9  and  O1_10 
REMARK    5  A    between atoms: N3_9  and  C5_12 
REMARK    6  A    between atoms: C5_12  and  C6_13 
REMARK    7  A    between atoms: C6_13  and  N4_14 
REMARK    8  A    between atoms: C7_21  and  N8_22 
REMARK    9  A    between atoms: C8_25  and  N9_26 
REMARK   10  A    between atoms: C9_29  and  N10_30 
REMARK   11  A    between atoms: N10_30  and  C10_32 
REMARK   12  A    between atoms: C10_32  and  O4_34 
ROOT
HETATM    1  C3  UNL     1      17.702   2.653   4.833  1.00  0.00     0.681 A 
HETATM    2  N2  UNL     1      17.009   3.790   5.015  1.00  0.00    -0.172 N 
ATOM      3  H2  UNL     1      17.518   4.649   5.222  1.00  0.00     0.186 HD
HETATM    4  C4  UNL     1      15.666   3.836   4.932  1.00  0.00     0.180 A 
HETATM    5  C8  UNL     1      15.043   2.645   4.649  1.00  0.00     0.193 A 
HETATM    6  C9  UNL     1      15.758   1.468   4.461  1.00  0.00     0.156 A 
HETATM    7  N11 UNL     1      17.083   1.491   4.557  1.00  0.00    -0.174 N 
ATOM      8  H11 UNL     1      17.624   0.637   4.422  1.00  0.00     0.186 HD
ENDROOT
BRANCH   4   9
HETATM    9  N3  UNL     1      14.876   4.984   5.110  1.00  0.00    -0.240 N 
BRANCH   9  10
HETATM   10  O1  UNL     1      14.363   5.178   6.367  1.00  0.00    -0.286 OA
ATOM     11  H1  UNL     1      14.148   6.074   6.600  1.00  0.00     0.244 HD
ENDBRANCH   9  10
BRANCH   9  12
HETATM   12  C5  UNL     1      14.583   5.943   4.082  1.00  0.00     0.180 C 
BRANCH  12  13
HETATM   13  C6  UNL     1      13.311   6.725   4.361  1.00  0.00     0.192 C 
BRANCH  13  14
HETATM   14  N4  UNL     1      12.222   5.921   3.829  1.00  0.00    -0.106 N 
HETATM   15  N5  UNL     1      11.928   5.683   2.557  1.00  0.00    -0.211 N 
HETATM   16  N6  UNL     1      10.877   4.910   2.464  1.00  0.00    -0.213 N 
ATOM     17  H5  UNL     1      12.450   6.051   1.762  1.00  0.00     0.210 HD
HETATM   18  N7  UNL     1      10.457   4.623   3.668  1.00  0.00    -0.115 N 
ATOM     19  H6  UNL     1      10.454   4.585   1.594  1.00  0.00     0.210 HD
HETATM   20  C7  UNL     1      11.285   5.246   4.526  1.00  0.00     0.709 A 
ATOM     21  H7  UNL     1       9.656   4.040   3.911  1.00  0.00     0.207 HD
BRANCH  20  22
HETATM   22  N8  UNL     1      11.227   5.224   5.797  1.00  0.00    -0.232 N 
ATOM     23  H82 UNL     1      10.733   5.882   6.399  1.00  0.00     0.174 HD
ATOM     24  H81 UNL     1      11.685   4.519   6.375  1.00  0.00     0.174 HD
ENDBRANCH  20  22
ENDBRANCH  13  14
ENDBRANCH  12  13
ENDBRANCH   9  12
ENDBRANCH   4   9
BRANCH   5  25
HETATM   25  N9  UNL     1      13.645   2.597   4.542  1.00  0.00    -0.108 N 
HETATM   26  O2  UNL     1      13.037   2.741   3.471  1.00  0.00    -0.531 OA
HETATM   27  O3  UNL     1      12.912   2.378   5.678  1.00  0.00    -0.531 OA
ENDBRANCH   5  25
BRANCH   1  28
HETATM   28  N1  UNL     1      18.981   2.639   4.921  1.00  0.00    -0.226 N 
ATOM     29  H1  UNL     1      19.511   3.507   4.992  1.00  0.00     0.177 HD
BRANCH  28  30
HETATM   30  C2  UNL     1      19.652   1.357   4.916  1.00  0.00     0.133 C 
HETATM   31  C1  UNL     1      21.012   1.521   4.227  1.00  0.00     0.027 C 
ENDBRANCH  28  30
ENDBRANCH   1  28
BRANCH   6  32
HETATM   32  N10 UNL     1      15.160   0.364   4.200  1.00  0.00    -0.348 N 
ATOM     33  H10 UNL     1      14.297   0.145   4.697  1.00  0.00     0.163 HD
BRANCH  32  34
HETATM   34  C10 UNL     1      15.653  -0.571   3.242  1.00  0.00     0.215 C 
HETATM   35  C11 UNL     1      15.540  -1.969   3.816  1.00  0.00     0.063 C 
BRANCH  34  36
HETATM   36  O4  UNL     1      14.827  -0.548   2.116  1.00  0.00    -0.377 OA
ATOM     37  H4  UNL     1      14.689   0.354   1.853  1.00  0.00     0.212 HD
ENDBRANCH  34  36
ENDBRANCH  32  34
ENDBRANCH   6  32
TORSDOF 12
ENDMDL
MODEL 4
REMARK VINA RESULT: -7.671410477      2.846      4.884
REMARK  12 active torsions:
REMARK  status: ('A' for Active; 'I' for Inactive)
REMARK    1  A    between atoms: C2_2  and  N1_3 
REMARK    2  A    between atoms: N1_3  and  C3_5 
REMARK    3  A    between atoms: C4_8  and  N3_9 
REMARK    4  A    between atoms: N3_9  and  O1_10 
REMARK    5  A    between atoms: N3_9  and  C5_12 
REMARK    6  A    between atoms: C5_12  and  C6_13 
REMARK    7  A    between atoms: C6_13  and  N4_14 
REMARK    8  A    between atoms: C7_21  and  N8_22 
REMARK    9  A    between atoms: C8_25  and  N9_26 
REMARK   10  A    between atoms: C9_29  and  N10_30 
REMARK   11  A    between atoms: N10_30  and  C10_32 
REMARK   12  A    between atoms: C10_32  and  O4_34 
ROOT
HETATM    1  C3  UNL     1      18.408   1.833   5.196  1.00  0.00     0.681 A 
HETATM    2  N2  UNL     1      17.920   3.063   4.958  1.00  0.00    -0.172 N 
ATOM      3  H2  UNL     1      18.520   3.871   5.124  1.00  0.00     0.186 HD
HETATM    4  C4  UNL     1      16.668   3.267   4.508  1.00  0.00     0.180 A 
HETATM    5  C8  UNL     1      15.914   2.137   4.306  1.00  0.00     0.193 A 
HETATM    6  C9  UNL     1      16.416   0.864   4.552  1.00  0.00     0.156 A 
HETATM    7  N11 UNL     1      17.661   0.732   4.995  1.00  0.00    -0.174 N 
ATOM      8  H11 UNL     1      18.048  -0.193   5.181  1.00  0.00     0.186 HD
ENDROOT
BRANCH   4   9
HETATM    9  N3  UNL     1      16.090   4.519   4.239  1.00  0.00    -0.240 N 
BRANCH   9  10
HETATM   10  O1  UNL     1      16.312   5.033   2.988  1.00  0.00    -0.286 OA
ATOM     11  H1  UNL     1      16.335   4.406   2.274  1.00  0.00     0.244 HD
ENDBRANCH   9  10
BRANCH   9  12
HETATM   12  C5  UNL     1      15.300   5.273   5.173  1.00  0.00     0.180 C 
BRANCH  12  13
HETATM   13  C6  UNL     1      14.416   6.301   4.489  1.00  0.00     0.192 C 
BRANCH  13  14
HETATM   14  N4  UNL     1      13.360   5.547   3.832  1.00  0.00    -0.106 N 
HETATM   15  N5  UNL     1      12.485   4.716   4.384  1.00  0.00    -0.211 N 
HETATM   16  N6  UNL     1      11.683   4.223   3.476  1.00  0.00    -0.213 N 
ATOM     17  H5  UNL     1      12.443   4.494   5.378  1.00  0.00     0.210 HD
HETATM   18  N7  UNL     1      12.011   4.716   2.310  1.00  0.00    -0.115 N 
ATOM     19  H6  UNL     1      10.926   3.561   3.650  1.00  0.00     0.210 HD
HETATM   20  C7  UNL     1      13.053   5.541   2.519  1.00  0.00     0.709 A 
ATOM     21  H7  UNL     1      11.564   4.514   1.416  1.00  0.00     0.207 HD
BRANCH  20  22
HETATM   22  N8  UNL     1      13.675   6.223   1.643  1.00  0.00    -0.232 N 
ATOM     23  H82 UNL     1      14.513   5.947   1.132  1.00  0.00     0.174 HD
ATOM     24  H81 UNL     1      13.392   7.157   1.344  1.00  0.00     0.174 HD
ENDBRANCH  20  22
ENDBRANCH  13  14
ENDBRANCH  12  13
ENDBRANCH   9  12
ENDBRANCH   4   9
BRANCH   5  25
HETATM   25  N9  UNL     1      14.597   2.250   3.836  1.00  0.00    -0.108 N 
HETATM   26  O2  UNL     1      14.311   2.486   2.653  1.00  0.00    -0.531 OA
HETATM   27  O3  UNL     1      13.570   2.092   4.730  1.00  0.00    -0.531 OA
ENDBRANCH   5  25
BRANCH   1  28
HETATM   28  N1  UNL     1      19.605   1.670   5.627  1.00  0.00    -0.226 N 
ATOM     29  H1  UNL     1      19.934   2.164   6.456  1.00  0.00     0.177 HD
BRANCH  28  30
HETATM   30  C2  UNL     1      20.473   0.767   4.904  1.00  0.00     0.133 C 
HETATM   31  C1  UNL     1      21.461   1.598   4.078  1.00  0.00     0.027 C 
ENDBRANCH  28  30
ENDBRANCH   1  28
BRANCH   6  32
HETATM   32  N10 UNL     1      15.698  -0.181   4.359  1.00  0.00    -0.348 N 
ATOM     33  H10 UNL     1      14.989  -0.422   5.053  1.00  0.00     0.163 HD
BRANCH  32  34
HETATM   34  C10 UNL     1      15.849  -1.020   3.215  1.00  0.00     0.215 C 
HETATM   35  C11 UNL     1      15.484  -2.440   3.596  1.00  0.00     0.063 C 
BRANCH  34  36
HETATM   36  O4  UNL     1      14.926  -0.632   2.241  1.00  0.00    -0.377 OA
ATOM     37  H4  UNL     1      15.300  -0.786   1.382  1.00  0.00     0.212 HD
ENDBRANCH  34  36
ENDBRANCH  32  34
ENDBRANCH   6  32
TORSDOF 12
ENDMDL
MODEL 5
REMARK VINA RESULT: -7.593521199      2.929      4.747
REMARK  12 active torsions:
REMARK  status: ('A' for Active; 'I' for Inactive)
REMARK    1  A    between atoms: C2_2  and  N1_3 
REMARK    2  A    between atoms: N1_3  and  C3_5 
REMARK    3  A    between atoms: C4_8  and  N3_9 
REMARK    4  A    between atoms: N3_9  and  O1_10 
REMARK    5  A    between atoms: N3_9  and  C5_12 
REMARK    6  A    between atoms: C5_12  and  C6_13 
REMARK    7  A    between atoms: C6_13  and  N4_14 
REMARK    8  A    between atoms: C7_21  and  N8_22 
REMARK    9  A    between atoms: C8_25  and  N9_26 
REMARK   10  A    between atoms: C9_29  and  N10_30 
REMARK   11  A    between atoms: N10_30  and  C10_32 
REMARK   12  A    between atoms: C10_32  and  O4_34 
ROOT
HETATM    1  C3  UNL     1      14.004   0.365   6.384  1.00  0.00     0.681 A 
HETATM    2  N2  UNL     1      13.401   1.564   6.305  1.00  0.00    -0.172 N 
ATOM      3  H2  UNL     1      12.562   1.731   6.862  1.00  0.00     0.186 HD
HETATM    4  C4  UNL     1      13.864   2.553   5.518  1.00  0.00     0.180 A 
HETATM    5  C8  UNL     1      14.996   2.263   4.796  1.00  0.00     0.193 A 
HETATM    6  C9  UNL     1      15.621   1.024   4.876  1.00  0.00     0.156 A 
HETATM    7  N11 UNL     1      15.112   0.090   5.673  1.00  0.00    -0.174 N 
ATOM      8  H11 UNL     1      15.557  -0.825   5.745  1.00  0.00     0.186 HD
ENDROOT
BRANCH   4   9
HETATM    9  N3  UNL     1      13.287   3.827   5.384  1.00  0.00    -0.240 N 
BRANCH   9  10
HETATM   10  O1  UNL     1      12.377   3.977   4.370  1.00  0.00    -0.286 OA
ATOM     11  H1  UNL     1      12.733   4.164   3.509  1.00  0.00     0.244 HD
ENDBRANCH   9  10
BRANCH   9  12
HETATM   12  C5  UNL     1      13.586   4.953   6.225  1.00  0.00     0.180 C 
BRANCH  12  13
HETATM   13  C6  UNL     1      13.389   6.280   5.512  1.00  0.00     0.192 C 
BRANCH  13  14
HETATM   14  N4  UNL     1      14.561   6.459   4.670  1.00  0.00    -0.106 N 
HETATM   15  N5  UNL     1      15.827   6.585   5.048  1.00  0.00    -0.211 N 
HETATM   16  N6  UNL     1      16.606   6.726   4.007  1.00  0.00    -0.213 N 
ATOM     17  H5  UNL     1      16.148   6.573   6.016  1.00  0.00     0.210 HD
HETATM   18  N7  UNL     1      15.874   6.697   2.924  1.00  0.00    -0.115 N 
ATOM     19  H6  UNL     1      17.619   6.841   4.036  1.00  0.00     0.210 HD
HETATM   20  C7  UNL     1      14.599   6.531   3.324  1.00  0.00     0.709 A 
ATOM     21  H7  UNL     1      16.204   6.783   1.963  1.00  0.00     0.207 HD
BRANCH  20  22
HETATM   22  N8  UNL     1      13.570   6.450   2.581  1.00  0.00    -0.232 N 
ATOM     23  H82 UNL     1      13.475   5.909   1.721  1.00  0.00     0.174 HD
ATOM     24  H81 UNL     1      12.692   6.934   2.771  1.00  0.00     0.174 HD
ENDBRANCH  20  22
ENDBRANCH  13  14
ENDBRANCH  12  13
ENDBRANCH   9  12
ENDBRANCH   4   9
BRANCH   5  25
HETATM   25  N9  UNL     1      15.552   3.233   3.950  1.00  0.00    -0.108 N 
HETATM   26  O2  UNL     1      16.598   3.846   4.208  1.00  0.00    -0.531 OA
HETATM   27  O3  UNL     1      14.907   3.520   2.776  1.00  0.00    -0.531 OA
ENDBRANCH   5  25
BRANCH   1  28
HETATM   28  N1  UNL     1      13.539  -0.559   7.141  1.00  0.00    -0.226 N 
ATOM     29  H1  UNL     1      12.711  -0.399   7.715  1.00  0.00     0.177 HD
BRANCH  28  30
HETATM   30  C2  UNL     1      14.220  -1.835   7.160  1.00  0.00     0.133 C 
HETATM   31  C1  UNL     1      14.429  -2.255   8.619  1.00  0.00     0.027 C 
ENDBRANCH  28  30
ENDBRANCH   1  28
BRANCH   6  32
HETATM   32  N10 UNL     1      16.677   0.769   4.194  1.00  0.00    -0.348 N 
ATOM     33  H10 UNL     1      16.595   0.687   3.180  1.00  0.00     0.163 HD
BRANCH  32  34
HETATM   34  C10 UNL     1      17.959   0.595   4.794  1.00  0.00     0.215 C 
HETATM   35  C11 UNL     1      18.775  -0.355   3.941  1.00  0.00     0.063 C 
BRANCH  34  36
HETATM   36  O4  UNL     1      18.639   1.814   4.775  1.00  0.00    -0.377 OA
ATOM     37  H4  UNL     1      18.007   2.522   4.801  1.00  0.00     0.212 HD
ENDBRANCH  34  36
ENDBRANCH  32  34
ENDBRANCH   6  32
TORSDOF 12
ENDMDL
