MODEL 1
REMARK VINA RESULT: -7.084514075      0.000      0.000
REMARK  14 active torsions:
REMARK  status: ('A' for Active; 'I' for Inactive)
REMARK    1  A    between atoms: C2_2  and  O2_4 
REMARK    2  A    between atoms: O2_4  and  C3_5 
REMARK    3  A    between atoms: C3_5  and  C4_6 
REMARK    4  A    between atoms: C3_5  and  C6_12 
REMARK    5  A    between atoms: C4_6  and  O3_7 
REMARK    6  A    between atoms: C4_6  and  C5_9 
REMARK    7  A    between atoms: C5_9  and  O4_10 
REMARK    8  A    between atoms: C6_12  and  O5_13 
REMARK    9  A    between atoms: C6_12  and  C7_15 
REMARK   10  A    between atoms: C7_15  and  O6_16 
REMARK   11  A    between atoms: C7_15  and  C8_18 
REMARK   12  A    between atoms: C8_18  and  N1_19 
REMARK   13  A    between atoms: N1_19  and  C9_21 
REMARK   14  A    between atoms: C12_26  and  O7_27 
ROOT
HETATM    1  C9  UNL     1      16.762  -0.319   3.554  1.00  0.00     0.149 A 
HETATM    2  S1  UNL     1      15.440  -1.044   2.755  1.00  0.00    -0.039 SA
HETATM    3  C10 UNL     1      16.262  -2.376   2.079  1.00  0.00     0.139 A 
HETATM    4  C11 UNL     1      15.743  -3.454   1.244  1.00  0.00     0.111 C 
HETATM    5  N2  UNL     1      15.322  -4.308   0.586  1.00  0.00    -0.191 NA
HETATM    6  C12 UNL     1      17.536  -2.180   2.519  1.00  0.00     0.172 A 
HETATM    7  N3  UNL     1      17.777  -1.130   3.268  1.00  0.00    -0.311 N 
HETATM    8  C13 UNL     1      19.121  -0.799   3.814  1.00  0.00     0.160 C 
ENDROOT
BRANCH   6   9
HETATM    9  O7  UNL     1      18.541  -3.119   2.146  1.00  0.00    -0.344 OA
ATOM     10  H7  UNL     1      18.871  -3.104   1.255  1.00  0.00     0.219 HD
ENDBRANCH   6   9
BRANCH   1  11
HETATM   11  N1  UNL     1      16.798   0.779   4.286  1.00  0.00    -0.368 N 
ATOM     12  H1  UNL     1      17.631   1.368   4.289  1.00  0.00     0.161 HD
BRANCH  11  13
HETATM   13  C8  UNL     1      15.646   1.143   5.085  1.00  0.00     0.156 C 
BRANCH  13  14
HETATM   14  C7  UNL     1      15.315   2.630   4.904  1.00  0.00     0.167 C 
BRANCH  14  15
HETATM   15  C6  UNL     1      14.250   2.880   3.871  1.00  0.00     0.180 C 
BRANCH  15  16
HETATM   16  C3  UNL     1      13.903   4.321   3.752  1.00  0.00     0.194 C 
BRANCH  16  17
HETATM   17  O2  UNL     1      14.138   5.031   4.971  1.00  0.00    -0.311 OA
BRANCH  17  18
HETATM   18  C2  UNL     1      13.187   5.462   5.841  1.00  0.00     0.255 C 
HETATM   19  C1  UNL     1      12.017   6.289   5.480  1.00  0.00     0.126 C 
HETATM   20  O1  UNL     1      13.311   5.132   7.045  1.00  0.00    -0.266 OA
ENDBRANCH  17  18
ENDBRANCH  16  17
BRANCH  16  21
HETATM   21  C4  UNL     1      14.325   5.115   2.579  1.00  0.00     0.173 C 
BRANCH  21  22
HETATM   22  O3  UNL     1      13.141   5.836   2.112  1.00  0.00    -0.391 OA
ATOM     23  H3  UNL     1      13.146   5.783   1.163  1.00  0.00     0.210 HD
ENDBRANCH  21  22
BRANCH  21  24
HETATM   24  C5  UNL     1      15.287   6.234   2.826  1.00  0.00     0.198 C 
BRANCH  24  25
HETATM   25  O4  UNL     1      16.526   5.862   3.314  1.00  0.00    -0.398 OA
ATOM     26  H4  UNL     1      17.041   5.303   2.745  1.00  0.00     0.209 HD
ENDBRANCH  24  25
ENDBRANCH  21  24
ENDBRANCH  16  21
ENDBRANCH  15  16
BRANCH  15  27
HETATM   27  O5  UNL     1      14.997   2.662   2.634  1.00  0.00    -0.390 OA
ATOM     28  H5  UNL     1      14.869   1.730   2.501  1.00  0.00     0.210 HD
ENDBRANCH  15  27
ENDBRANCH  14  15
BRANCH  14  29
HETATM   29  O6  UNL     1      16.576   3.093   4.382  1.00  0.00    -0.391 OA
ATOM     30  H6  UNL     1      17.210   3.101   5.089  1.00  0.00     0.210 HD
ENDBRANCH  14  29
ENDBRANCH  13  14
ENDBRANCH  11  13
ENDBRANCH   1  11
TORSDOF 14
ENDMDL
MODEL 2
REMARK VINA RESULT: -7.047190710      1.521      2.094
REMARK  14 active torsions:
REMARK  status: ('A' for Active; 'I' for Inactive)
REMARK    1  A    between atoms: C2_2  and  O2_4 
REMARK    2  A    between atoms: O2_4  and  C3_5 
REMARK    3  A    between atoms: C3_5  and  C4_6 
REMARK    4  A    between atoms: C3_5  and  C6_12 
REMARK    5  A    between atoms: C4_6  and  O3_7 
REMARK    6  A    between atoms: C4_6  and  C5_9 
REMARK    7  A    between atoms: C5_9  and  O4_10 
REMARK    8  A    between atoms: C6_12  and  O5_13 
REMARK    9  A    between atoms: C6_12  and  C7_15 
REMARK   10  A    between atoms: C7_15  and  O6_16 
REMARK   11  A    between atoms: C7_15  and  C8_18 
REMARK   12  A    between atoms: C8_18  and  N1_19 
REMARK   13  A    between atoms: N1_19  and  C9_21 
REMARK   14  A    between atoms: C12_26  and  O7_27 
ROOT
HETATM    1  C9  UNL     1      16.923  -0.623   3.276  1.00  0.00     0.149 A 
HETATM    2  S1  UNL     1      15.543  -1.359   2.592  1.00  0.00    -0.039 SA
HETATM    3  C10 UNL     1      16.325  -2.628   1.765  1.00  0.00     0.139 A 
HETATM    4  C11 UNL     1      15.749  -3.685   0.940  1.00  0.00     0.111 C 
HETATM    5  N2  UNL     1      15.284  -4.523   0.292  1.00  0.00    -0.191 NA
HETATM    6  C12 UNL     1      17.634  -2.405   2.071  1.00  0.00     0.172 A 
HETATM    7  N3  UNL     1      17.924  -1.383   2.839  1.00  0.00    -0.311 N 
HETATM    8  C13 UNL     1      19.310  -1.028   3.249  1.00  0.00     0.160 C 
ENDROOT
BRANCH   6   9
HETATM    9  O7  UNL     1      18.620  -3.289   1.542  1.00  0.00    -0.344 OA
ATOM     10  H7  UNL     1      18.486  -3.654   0.676  1.00  0.00     0.219 HD
ENDBRANCH   6   9
BRANCH   1  11
HETATM   11  N1  UNL     1      17.006   0.442   4.052  1.00  0.00    -0.368 N 
ATOM     12  H1  UNL     1      17.795   1.082   3.963  1.00  0.00     0.161 HD
BRANCH  11  13
HETATM   13  C8  UNL     1      15.969   0.694   5.032  1.00  0.00     0.156 C 
BRANCH  13  14
HETATM   14  C7  UNL     1      15.499   2.152   4.951  1.00  0.00     0.167 C 
BRANCH  14  15
HETATM   15  C6  UNL     1      14.367   2.359   3.982  1.00  0.00     0.180 C 
BRANCH  15  16
HETATM   16  C3  UNL     1      13.593   3.595   4.270  1.00  0.00     0.194 C 
BRANCH  16  17
HETATM   17  O2  UNL     1      12.317   3.304   4.849  1.00  0.00    -0.311 OA
BRANCH  17  18
HETATM   18  C2  UNL     1      11.125   3.303   4.196  1.00  0.00     0.255 C 
HETATM   19  C1  UNL     1      10.709   4.293   3.182  1.00  0.00     0.126 C 
HETATM   20  O1  UNL     1      10.312   2.389   4.477  1.00  0.00    -0.266 OA
ENDBRANCH  17  18
ENDBRANCH  16  17
BRANCH  16  21
HETATM   21  C4  UNL     1      14.225   4.760   4.922  1.00  0.00     0.173 C 
BRANCH  21  22
HETATM   22  O3  UNL     1      14.537   5.718   3.862  1.00  0.00    -0.391 OA
ATOM     23  H3  UNL     1      15.005   6.436   4.273  1.00  0.00     0.210 HD
ENDBRANCH  21  22
BRANCH  21  24
HETATM   24  C5  UNL     1      13.365   5.580   5.832  1.00  0.00     0.198 C 
BRANCH  24  25
HETATM   25  O4  UNL     1      13.382   5.213   7.165  1.00  0.00    -0.398 OA
ATOM     26  H4  UNL     1      13.241   4.290   7.339  1.00  0.00     0.209 HD
ENDBRANCH  24  25
ENDBRANCH  21  24
ENDBRANCH  16  21
ENDBRANCH  15  16
BRANCH  15  27
HETATM   27  O5  UNL     1      15.094   2.751   2.776  1.00  0.00    -0.390 OA
ATOM     28  H5  UNL     1      14.999   3.695   2.800  1.00  0.00     0.210 HD
ENDBRANCH  15  27
ENDBRANCH  14  15
BRANCH  14  29
HETATM   29  O6  UNL     1      16.687   2.756   4.403  1.00  0.00    -0.391 OA
ATOM     30  H6  UNL     1      17.087   3.296   5.074  1.00  0.00     0.210 HD
ENDBRANCH  14  29
ENDBRANCH  13  14
ENDBRANCH  11  13
ENDBRANCH   1  11
TORSDOF 14
ENDMDL
MODEL 3
REMARK VINA RESULT: -7.014143684      1.405      1.507
REMARK  14 active torsions:
REMARK  status: ('A' for Active; 'I' for Inactive)
REMARK    1  A    between atoms: C2_2  and  O2_4 
REMARK    2  A    between atoms: O2_4  and  C3_5 
REMARK    3  A    between atoms: C3_5  and  C4_6 
REMARK    4  A    between atoms: C3_5  and  C6_12 
REMARK    5  A    between atoms: C4_6  and  O3_7 
REMARK    6  A    between atoms: C4_6  and  C5_9 
REMARK    7  A    between atoms: C5_9  and  O4_10 
REMARK    8  A    between atoms: C6_12  and  O5_13 
REMARK    9  A    between atoms: C6_12  and  C7_15 
REMARK   10  A    between atoms: C7_15  and  O6_16 
REMARK   11  A    between atoms: C7_15  and  C8_18 
REMARK   12  A    between atoms: C8_18  and  N1_19 
REMARK   13  A    between atoms: N1_19  and  C9_21 
REMARK   14  A    between atoms: C12_26  and  O7_27 
ROOT
HETATM    1  C9  UNL     1      15.493  -0.610   4.417  1.00  0.00     0.149 A 
HETATM    2  S1  UNL     1      15.360  -0.830   2.729  1.00  0.00    -0.039 SA
HETATM    3  C10 UNL     1      15.529  -2.526   2.687  1.00  0.00     0.139 A 
HETATM    4  C11 UNL     1      15.515  -3.426   1.540  1.00  0.00     0.111 C 
HETATM    5  N2  UNL     1      15.498  -4.134   0.625  1.00  0.00    -0.191 NA
HETATM    6  C12 UNL     1      15.681  -2.831   4.006  1.00  0.00     0.172 A 
HETATM    7  N3  UNL     1      15.661  -1.848   4.875  1.00  0.00    -0.311 N 
HETATM    8  C13 UNL     1      15.816  -2.043   6.342  1.00  0.00     0.160 C 
ENDROOT
BRANCH   6   9
HETATM    9  O7  UNL     1      15.856  -4.196   4.377  1.00  0.00    -0.344 OA
ATOM     10  H7  UNL     1      16.402  -4.398   5.127  1.00  0.00     0.219 HD
ENDBRANCH   6   9
BRANCH   1  11
HETATM   11  N1  UNL     1      15.443   0.504   5.123  1.00  0.00    -0.368 N 
ATOM     12  H1  UNL     1      14.722   0.632   5.832  1.00  0.00     0.161 HD
BRANCH  11  13
HETATM   13  C8  UNL     1      16.421   1.545   4.883  1.00  0.00     0.156 C 
BRANCH  13  14
HETATM   14  C7  UNL     1      15.747   2.923   4.876  1.00  0.00     0.167 C 
BRANCH  14  15
HETATM   15  C6  UNL     1      14.535   2.988   3.987  1.00  0.00     0.180 C 
BRANCH  15  16
HETATM   16  C3  UNL     1      14.010   4.371   3.844  1.00  0.00     0.194 C 
BRANCH  16  17
HETATM   17  O2  UNL     1      14.165   5.130   5.047  1.00  0.00    -0.311 OA
BRANCH  17  18
HETATM   18  C2  UNL     1      13.167   5.501   5.892  1.00  0.00     0.255 C 
HETATM   19  C1  UNL     1      11.953   6.246   5.499  1.00  0.00     0.126 C 
HETATM   20  O1  UNL     1      13.286   5.188   7.101  1.00  0.00    -0.266 OA
ENDBRANCH  17  18
ENDBRANCH  16  17
BRANCH  16  21
HETATM   21  C4  UNL     1      14.319   5.188   2.652  1.00  0.00     0.173 C 
BRANCH  21  22
HETATM   22  O3  UNL     1      13.037   5.574   2.063  1.00  0.00    -0.391 OA
ATOM     23  H3  UNL     1      12.627   4.776   1.751  1.00  0.00     0.210 HD
ENDBRANCH  21  22
BRANCH  21  24
HETATM   24  C5  UNL     1      14.961   6.519   2.887  1.00  0.00     0.198 C 
BRANCH  24  25
HETATM   25  O4  UNL     1      16.265   6.482   3.345  1.00  0.00    -0.398 OA
ATOM     26  H4  UNL     1      16.780   7.263   3.181  1.00  0.00     0.209 HD
ENDBRANCH  24  25
ENDBRANCH  21  24
ENDBRANCH  16  21
ENDBRANCH  15  16
BRANCH  15  27
HETATM   27  O5  UNL     1      15.135   2.771   2.673  1.00  0.00    -0.390 OA
ATOM     28  H5  UNL     1      15.166   1.823   2.636  1.00  0.00     0.210 HD
ENDBRANCH  15  27
ENDBRANCH  14  15
BRANCH  14  29
HETATM   29  O6  UNL     1      16.799   3.701   4.272  1.00  0.00    -0.391 OA
ATOM     30  H6  UNL     1      17.206   4.232   4.946  1.00  0.00     0.210 HD
ENDBRANCH  14  29
ENDBRANCH  13  14
ENDBRANCH  11  13
ENDBRANCH   1  11
TORSDOF 14
ENDMDL
MODEL 4
REMARK VINA RESULT: -6.944507574      2.094      2.720
REMARK  14 active torsions:
REMARK  status: ('A' for Active; 'I' for Inactive)
REMARK    1  A    between atoms: C2_2  and  O2_4 
REMARK    2  A    between atoms: O2_4  and  C3_5 
REMARK    3  A    between atoms: C3_5  and  C4_6 
REMARK    4  A    between atoms: C3_5  and  C6_12 
REMARK    5  A    between atoms: C4_6  and  O3_7 
REMARK    6  A    between atoms: C4_6  and  C5_9 
REMARK    7  A    between atoms: C5_9  and  O4_10 
REMARK    8  A    between atoms: C6_12  and  O5_13 
REMARK    9  A    between atoms: C6_12  and  C7_15 
REMARK   10  A    between atoms: C7_15  and  O6_16 
REMARK   11  A    between atoms: C7_15  and  C8_18 
REMARK   12  A    between atoms: C8_18  and  N1_19 
REMARK   13  A    between atoms: N1_19  and  C9_21 
REMARK   14  A    between atoms: C12_26  and  O7_27 
ROOT
HETATM    1  C9  UNL     1      15.484  -1.204   4.248  1.00  0.00     0.149 A 
HETATM    2  S1  UNL     1      15.552  -1.266   2.544  1.00  0.00    -0.039 SA
HETATM    3  C10 UNL     1      15.493  -2.959   2.356  1.00  0.00     0.139 A 
HETATM    4  C11 UNL     1      15.512  -3.753   1.133  1.00  0.00     0.111 C 
HETATM    5  N2  UNL     1      15.523  -4.376   0.157  1.00  0.00    -0.191 NA
HETATM    6  C12 UNL     1      15.423  -3.388   3.648  1.00  0.00     0.172 A 
HETATM    7  N3  UNL     1      15.420  -2.486   4.600  1.00  0.00    -0.311 N 
HETATM    8  C13 UNL     1      15.347  -2.818   6.049  1.00  0.00     0.160 C 
ENDROOT
BRANCH   6   9
HETATM    9  O7  UNL     1      15.359  -4.789   3.901  1.00  0.00    -0.344 OA
ATOM     10  H7  UNL     1      15.092  -5.085   4.763  1.00  0.00     0.219 HD
ENDBRANCH   6   9
BRANCH   1  11
HETATM   11  N1  UNL     1      15.492  -0.154   5.049  1.00  0.00    -0.368 N 
ATOM     12  H1  UNL     1      14.849  -0.107   5.840  1.00  0.00     0.161 HD
BRANCH  11  13
HETATM   13  C8  UNL     1      16.419   0.929   4.797  1.00  0.00     0.156 C 
BRANCH  13  14
HETATM   14  C7  UNL     1      15.705   2.282   4.906  1.00  0.00     0.167 C 
BRANCH  14  15
HETATM   15  C6  UNL     1      14.441   2.354   4.093  1.00  0.00     0.180 C 
BRANCH  15  16
HETATM   16  C3  UNL     1      13.606   3.533   4.444  1.00  0.00     0.194 C 
BRANCH  16  17
HETATM   17  O2  UNL     1      12.312   3.151   4.920  1.00  0.00    -0.311 OA
BRANCH  17  18
HETATM   18  C2  UNL     1      11.146   3.246   4.229  1.00  0.00     0.255 C 
HETATM   19  C1  UNL     1      10.829   4.294   3.237  1.00  0.00     0.126 C 
HETATM   20  O1  UNL     1      10.269   2.376   4.450  1.00  0.00    -0.266 OA
ENDBRANCH  17  18
ENDBRANCH  16  17
BRANCH  16  21
HETATM   21  C4  UNL     1      14.158   4.653   5.234  1.00  0.00     0.173 C 
BRANCH  21  22
HETATM   22  O3  UNL     1      14.727   5.603   4.277  1.00  0.00    -0.391 OA
ATOM     23  H3  UNL     1      15.128   6.297   4.787  1.00  0.00     0.210 HD
ENDBRANCH  21  22
BRANCH  21  24
HETATM   24  C5  UNL     1      13.180   5.512   5.972  1.00  0.00     0.198 C 
BRANCH  24  25
HETATM   25  O4  UNL     1      12.810   5.057   7.224  1.00  0.00    -0.398 OA
ATOM     26  H4  UNL     1      12.348   5.683   7.769  1.00  0.00     0.209 HD
ENDBRANCH  24  25
ENDBRANCH  21  24
ENDBRANCH  16  21
ENDBRANCH  15  16
BRANCH  15  27
HETATM   27  O5  UNL     1      14.964   2.752   2.788  1.00  0.00    -0.390 OA
ATOM     28  H5  UNL     1      14.323   2.365   2.204  1.00  0.00     0.210 HD
ENDBRANCH  15  27
ENDBRANCH  14  15
BRANCH  14  29
HETATM   29  O6  UNL     1      16.695   3.126   4.286  1.00  0.00    -0.391 OA
ATOM     30  H6  UNL     1      16.265   3.912   3.971  1.00  0.00     0.210 HD
ENDBRANCH  14  29
ENDBRANCH  13  14
ENDBRANCH  11  13
ENDBRANCH   1  11
TORSDOF 14
ENDMDL
MODEL 5
REMARK VINA RESULT: -6.736835767      3.099      8.315
REMARK  14 active torsions:
REMARK  status: ('A' for Active; 'I' for Inactive)
REMARK    1  A    between atoms: C2_2  and  O2_4 
REMARK    2  A    between atoms: O2_4  and  C3_5 
REMARK    3  A    between atoms: C3_5  and  C4_6 
REMARK    4  A    between atoms: C3_5  and  C6_12 
REMARK    5  A    between atoms: C4_6  and  O3_7 
REMARK    6  A    between atoms: C4_6  and  C5_9 
REMARK    7  A    between atoms: C5_9  and  O4_10 
REMARK    8  A    between atoms: C6_12  and  O5_13 
REMARK    9  A    between atoms: C6_12  and  C7_15 
REMARK   10  A    between atoms: C7_15  and  O6_16 
REMARK   11  A    between atoms: C7_15  and  C8_18 
REMARK   12  A    between atoms: C8_18  and  N1_19 
REMARK   13  A    between atoms: N1_19  and  C9_21 
REMARK   14  A    between atoms: C12_26  and  O7_27 
ROOT
HETATM    1  C9  UNL     1      16.001   2.743   4.858  1.00  0.00     0.149 A 
HETATM    2  S1  UNL     1      14.447   2.454   5.501  1.00  0.00    -0.039 SA
HETATM    3  C10 UNL     1      13.998   4.071   5.798  1.00  0.00     0.139 A 
HETATM    4  C11 UNL     1      12.759   4.596   6.361  1.00  0.00     0.111 C 
HETATM    5  N2  UNL     1      11.771   5.004   6.803  1.00  0.00    -0.191 NA
HETATM    6  C12 UNL     1      15.097   4.755   5.375  1.00  0.00     0.172 A 
HETATM    7  N3  UNL     1      16.108   4.069   4.899  1.00  0.00    -0.311 N 
HETATM    8  C13 UNL     1      17.366   4.692   4.404  1.00  0.00     0.160 C 
ENDROOT
BRANCH   6   9
HETATM    9  O7  UNL     1      15.096   6.178   5.470  1.00  0.00    -0.344 OA
ATOM     10  H7  UNL     1      15.238   6.578   6.320  1.00  0.00     0.219 HD
ENDBRANCH   6   9
BRANCH   1  11
HETATM   11  N1  UNL     1      16.899   1.882   4.418  1.00  0.00    -0.368 N 
ATOM     12  H1  UNL     1      17.580   2.164   3.713  1.00  0.00     0.161 HD
BRANCH  11  13
HETATM   13  C8  UNL     1      16.912   0.532   4.943  1.00  0.00     0.156 C 
BRANCH  13  14
HETATM   14  C7  UNL     1      16.446  -0.464   3.875  1.00  0.00     0.167 C 
BRANCH  14  15
HETATM   15  C6  UNL     1      16.378  -1.883   4.372  1.00  0.00     0.180 C 
BRANCH  15  16
HETATM   16  C3  UNL     1      15.500  -2.738   3.531  1.00  0.00     0.194 C 
BRANCH  16  17
HETATM   17  O2  UNL     1      15.857  -2.673   2.147  1.00  0.00    -0.311 OA
BRANCH  17  18
HETATM   18  C2  UNL     1      16.017  -3.734   1.313  1.00  0.00     0.255 C 
HETATM   19  C1  UNL     1      17.293  -4.438   1.066  1.00  0.00     0.126 C 
HETATM   20  O1  UNL     1      15.003  -4.149   0.703  1.00  0.00    -0.266 OA
ENDBRANCH  17  18
ENDBRANCH  16  17
BRANCH  16  21
HETATM   21  C4  UNL     1      15.163  -4.119   3.934  1.00  0.00     0.173 C 
BRANCH  21  22
HETATM   22  O3  UNL     1      16.000  -4.435   5.091  1.00  0.00    -0.391 OA
ATOM     23  H3  UNL     1      16.870  -4.618   4.757  1.00  0.00     0.210 HD
ENDBRANCH  21  22
BRANCH  21  24
HETATM   24  C5  UNL     1      13.789  -4.353   4.478  1.00  0.00     0.198 C 
BRANCH  24  25
HETATM   25  O4  UNL     1      13.499  -5.658   4.830  1.00  0.00    -0.398 OA
ATOM     26  H4  UNL     1      13.230  -5.790   5.732  1.00  0.00     0.209 HD
ENDBRANCH  24  25
ENDBRANCH  21  24
ENDBRANCH  16  21
ENDBRANCH  15  16
BRANCH  15  27
HETATM   27  O5  UNL     1      17.701  -2.378   4.002  1.00  0.00    -0.390 OA
ATOM     28  H5  UNL     1      18.259  -1.858   4.568  1.00  0.00     0.210 HD
ENDBRANCH  15  27
ENDBRANCH  14  15
BRANCH  14  29
HETATM   29  O6  UNL     1      17.547  -0.357   2.951  1.00  0.00    -0.391 OA
ATOM     30  H6  UNL     1      17.215  -0.495   2.071  1.00  0.00     0.210 HD
ENDBRANCH  14  29
ENDBRANCH  13  14
ENDBRANCH  11  13
ENDBRANCH   1  11
TORSDOF 14
ENDMDL
