MODEL 1
REMARK VINA RESULT: -7.431415644      0.000      0.000
REMARK  11 active torsions:
REMARK  status: ('A' for Active; 'I' for Inactive)
REMARK    1  A    between atoms: O1_2  and  C2_3 
REMARK    2  A    between atoms: C2_3  and  O2_4 
REMARK    3  A    between atoms: C3_8  and  O5_9 
REMARK    4  A    between atoms: C3_8  and  O8_19 
REMARK    5  A    between atoms: O5_9  and  C4_10 
REMARK    6  A    between atoms: C4_10  and  C5_12 
REMARK    7  A    between atoms: C6_13  and  C7_14 
REMARK    8  A    between atoms: C7_14  and  O7_17 
REMARK    9  A    between atoms: O8_19  and  C10_20 
REMARK   10  A    between atoms: C13_23  and  O9_24 
REMARK   11  A    between atoms: C14_26  and  O10_27 
ROOT
HETATM    1  C2  UNL     1      11.491   5.548   3.856  1.00  0.00     0.338 C 
HETATM    2  O3  UNL     1      12.424   4.735   3.210  1.00  0.00    -0.163 OA
HETATM    3  O4  UNL     1      13.625   4.896   3.661  1.00  0.00    -0.162 OA
HETATM    4  C3  UNL     1      13.832   4.265   4.902  1.00  0.00     0.348 C 
HETATM    5  C13 UNL     1      12.743   4.800   5.803  1.00  0.00     0.251 C 
HETATM    6  C14 UNL     1      12.189   6.039   5.120  1.00  0.00     0.250 C 
ENDROOT
BRANCH   4   7
HETATM    7  O5  UNL     1      13.775   2.908   4.658  1.00  0.00    -0.251 OA
BRANCH   7   8
HETATM    8  C4  UNL     1      13.952   1.884   5.533  1.00  0.00     0.287 C 
HETATM    9  O6  UNL     1      13.040   1.639   6.319  1.00  0.00    -0.260 OA
BRANCH   8  10
HETATM   10  C5  UNL     1      15.174   1.113   5.533  1.00  0.00     0.081 C 
HETATM   11  C6  UNL     1      15.926   0.953   4.460  1.00  0.00     0.016 C 
BRANCH  11  12
HETATM   12  C7  UNL     1      17.157   0.143   4.567  1.00  0.00     0.069 C 
HETATM   13  C8  UNL     1      16.829  -1.123   5.316  1.00  0.00     0.050 C 
HETATM   14  C9  UNL     1      18.291   0.888   5.220  1.00  0.00     0.050 C 
BRANCH  12  15
HETATM   15  O7  UNL     1      17.597  -0.208   3.271  1.00  0.00    -0.387 OA
ATOM     16  H7  UNL     1      18.035   0.537   2.877  1.00  0.00     0.211 HD
ENDBRANCH  12  15
ENDBRANCH  11  12
ENDBRANCH   8  10
ENDBRANCH   7   8
ENDBRANCH   4   7
BRANCH   4  17
HETATM   17  O8  UNL     1      15.005   4.762   5.373  1.00  0.00    -0.324 OA
BRANCH  17  18
HETATM   18  C10 UNL     1      15.979   5.152   4.551  1.00  0.00     0.119 C 
HETATM   19  C11 UNL     1      16.330   6.604   4.858  1.00  0.00     0.039 C 
HETATM   20  C12 UNL     1      17.241   4.383   4.487  1.00  0.00     0.039 C 
ENDBRANCH  17  18
ENDBRANCH   4  17
BRANCH   5  21
HETATM   21  O9  UNL     1      13.261   5.253   7.026  1.00  0.00    -0.384 OA
ATOM     22  H9  UNL     1      12.712   4.991   7.756  1.00  0.00     0.210 HD
ENDBRANCH   5  21
BRANCH   6  23
HETATM   23  O10 UNL     1      11.302   6.720   5.945  1.00  0.00    -0.384 OA
ATOM     24  H10 UNL     1      10.874   7.426   5.474  1.00  0.00     0.210 HD
ENDBRANCH   6  23
BRANCH   1  25
HETATM   25  O1  UNL     1      10.376   4.825   4.270  1.00  0.00    -0.334 OA
HETATM   26  C1  UNL     1      10.321   3.566   3.675  1.00  0.00     0.208 C 
ENDBRANCH   1  25
BRANCH   1  27
HETATM   27  O2  UNL     1      11.123   6.634   3.045  1.00  0.00    -0.339 OA
ATOM     28  H2  UNL     1      10.603   6.350   2.303  1.00  0.00     0.215 HD
ENDBRANCH   1  27
TORSDOF 11
ENDMDL
MODEL 2
REMARK VINA RESULT: -7.357859568      2.140      3.322
REMARK  11 active torsions:
REMARK  status: ('A' for Active; 'I' for Inactive)
REMARK    1  A    between atoms: O1_2  and  C2_3 
REMARK    2  A    between atoms: C2_3  and  O2_4 
REMARK    3  A    between atoms: C3_8  and  O5_9 
REMARK    4  A    between atoms: C3_8  and  O8_19 
REMARK    5  A    between atoms: O5_9  and  C4_10 
REMARK    6  A    between atoms: C4_10  and  C5_12 
REMARK    7  A    between atoms: C6_13  and  C7_14 
REMARK    8  A    between atoms: C7_14  and  O7_17 
REMARK    9  A    between atoms: O8_19  and  C10_20 
REMARK   10  A    between atoms: C13_23  and  O9_24 
REMARK   11  A    between atoms: C14_26  and  O10_27 
ROOT
HETATM    1  C2  UNL     1      12.680   2.473   5.500  1.00  0.00     0.338 C 
HETATM    2  O3  UNL     1      13.501   2.312   4.383  1.00  0.00    -0.163 OA
HETATM    3  O4  UNL     1      13.801   3.435   3.815  1.00  0.00    -0.162 OA
HETATM    4  C3  UNL     1      14.783   4.157   4.519  1.00  0.00     0.348 C 
HETATM    5  C13 UNL     1      14.247   4.285   5.926  1.00  0.00     0.251 C 
HETATM    6  C14 UNL     1      12.766   3.954   5.855  1.00  0.00     0.250 C 
ENDROOT
BRANCH   4   7
HETATM    7  O5  UNL     1      15.951   3.432   4.402  1.00  0.00    -0.251 OA
BRANCH   7   8
HETATM    8  C4  UNL     1      17.219   3.818   4.701  1.00  0.00     0.287 C 
HETATM    9  O6  UNL     1      17.463   5.022   4.710  1.00  0.00    -0.260 OA
BRANCH   8  10
HETATM   10  C5  UNL     1      18.240   2.840   4.999  1.00  0.00     0.081 C 
HETATM   11  C6  UNL     1      18.016   1.539   4.994  1.00  0.00     0.016 C 
BRANCH  11  12
HETATM   12  C7  UNL     1      19.132   0.623   5.313  1.00  0.00     0.069 C 
HETATM   13  C8  UNL     1      19.933   0.396   4.057  1.00  0.00     0.050 C 
HETATM   14  C9  UNL     1      18.666  -0.678   5.910  1.00  0.00     0.050 C 
BRANCH  12  15
HETATM   15  O7  UNL     1      19.972   1.232   6.272  1.00  0.00    -0.387 OA
ATOM     16  H7  UNL     1      19.436   1.666   6.927  1.00  0.00     0.211 HD
ENDBRANCH  12  15
ENDBRANCH  11  12
ENDBRANCH   8  10
ENDBRANCH   7   8
ENDBRANCH   4   7
BRANCH   4  17
HETATM   17  O8  UNL     1      14.771   5.405   3.984  1.00  0.00    -0.324 OA
BRANCH  17  18
HETATM   18  C10 UNL     1      14.409   5.620   2.720  1.00  0.00     0.119 C 
HETATM   19  C11 UNL     1      13.203   6.554   2.704  1.00  0.00     0.039 C 
HETATM   20  C12 UNL     1      15.398   6.138   1.748  1.00  0.00     0.039 C 
ENDBRANCH  17  18
ENDBRANCH   4  17
BRANCH   5  21
HETATM   21  O9  UNL     1      14.309   5.610   6.383  1.00  0.00    -0.384 OA
ATOM     22  H9  UNL     1      13.456   5.922   6.665  1.00  0.00     0.210 HD
ENDBRANCH   5  21
BRANCH   6  23
HETATM   23  O10 UNL     1      12.128   4.215   7.062  1.00  0.00    -0.384 OA
ATOM     24  H10 UNL     1      11.809   5.109   7.091  1.00  0.00     0.210 HD
ENDBRANCH   6  23
BRANCH   1  25
HETATM   25  O1  UNL     1      13.162   1.770   6.601  1.00  0.00    -0.334 OA
HETATM   26  C1  UNL     1      13.972   0.702   6.222  1.00  0.00     0.208 C 
ENDBRANCH   1  25
BRANCH   1  27
HETATM   27  O2  UNL     1      11.354   2.115   5.207  1.00  0.00    -0.339 OA
ATOM     28  H2  UNL     1      11.047   2.545   4.417  1.00  0.00     0.215 HD
ENDBRANCH   1  27
TORSDOF 11
ENDMDL
MODEL 3
REMARK VINA RESULT: -7.128025592      1.452      1.802
REMARK  11 active torsions:
REMARK  status: ('A' for Active; 'I' for Inactive)
REMARK    1  A    between atoms: O1_2  and  C2_3 
REMARK    2  A    between atoms: C2_3  and  O2_4 
REMARK    3  A    between atoms: C3_8  and  O5_9 
REMARK    4  A    between atoms: C3_8  and  O8_19 
REMARK    5  A    between atoms: O5_9  and  C4_10 
REMARK    6  A    between atoms: C4_10  and  C5_12 
REMARK    7  A    between atoms: C6_13  and  C7_14 
REMARK    8  A    between atoms: C7_14  and  O7_17 
REMARK    9  A    between atoms: O8_19  and  C10_20 
REMARK   10  A    between atoms: C13_23  and  O9_24 
REMARK   11  A    between atoms: C14_26  and  O10_27 
ROOT
HETATM    1  C2  UNL     1      11.214   3.807   5.226  1.00  0.00     0.338 C 
HETATM    2  O3  UNL     1      11.746   3.432   3.991  1.00  0.00    -0.163 OA
HETATM    3  O4  UNL     1      12.661   4.244   3.572  1.00  0.00    -0.162 OA
HETATM    4  C3  UNL     1      13.891   4.068   4.233  1.00  0.00     0.348 C 
HETATM    5  C13 UNL     1      13.569   4.186   5.704  1.00  0.00     0.251 C 
HETATM    6  C14 UNL     1      12.195   4.827   5.795  1.00  0.00     0.250 C 
ENDROOT
BRANCH   4   7
HETATM    7  O5  UNL     1      14.369   2.836   3.835  1.00  0.00    -0.251 OA
BRANCH   7   8
HETATM    8  C4  UNL     1      14.839   1.823   4.608  1.00  0.00     0.287 C 
HETATM    9  O6  UNL     1      14.019   1.063   5.116  1.00  0.00    -0.260 OA
BRANCH   8  10
HETATM   10  C5  UNL     1      16.258   1.650   4.820  1.00  0.00     0.081 C 
HETATM   11  C6  UNL     1      16.896   0.527   4.546  1.00  0.00     0.016 C 
BRANCH  11  12
HETATM   12  C7  UNL     1      18.350   0.455   4.801  1.00  0.00     0.069 C 
HETATM   13  C8  UNL     1      18.610  -0.697   5.738  1.00  0.00     0.050 C 
HETATM   14  C9  UNL     1      18.913   1.741   5.343  1.00  0.00     0.050 C 
BRANCH  12  15
HETATM   15  O7  UNL     1      19.023   0.198   3.585  1.00  0.00    -0.387 OA
ATOM     16  H7  UNL     1      19.866  -0.198   3.772  1.00  0.00     0.211 HD
ENDBRANCH  12  15
ENDBRANCH  11  12
ENDBRANCH   8  10
ENDBRANCH   7   8
ENDBRANCH   4   7
BRANCH   4  17
HETATM   17  O8  UNL     1      14.636   5.157   3.910  1.00  0.00    -0.324 OA
BRANCH  17  18
HETATM   18  C10 UNL     1      15.774   5.048   3.225  1.00  0.00     0.119 C 
HETATM   19  C11 UNL     1      15.773   6.076   2.099  1.00  0.00     0.039 C 
HETATM   20  C12 UNL     1      17.072   5.147   3.930  1.00  0.00     0.039 C 
ENDBRANCH  17  18
ENDBRANCH   4  17
BRANCH   5  21
HETATM   21  O9  UNL     1      14.437   5.078   6.353  1.00  0.00    -0.384 OA
ATOM     22  H9  UNL     1      15.058   4.620   6.907  1.00  0.00     0.210 HD
ENDBRANCH   5  21
BRANCH   6  23
HETATM   23  O10 UNL     1      11.871   5.150   7.107  1.00  0.00    -0.384 OA
ATOM     24  H10 UNL     1      12.607   5.557   7.549  1.00  0.00     0.210 HD
ENDBRANCH   6  23
BRANCH   1  25
HETATM   25  O1  UNL     1      11.183   2.740   6.120  1.00  0.00    -0.334 OA
HETATM   26  C1  UNL     1       9.899   2.504   6.604  1.00  0.00     0.208 C 
ENDBRANCH   1  25
BRANCH   1  27
HETATM   27  O2  UNL     1       9.942   4.381   5.073  1.00  0.00    -0.339 OA
ATOM     28  H2  UNL     1       9.952   5.305   5.294  1.00  0.00     0.215 HD
ENDBRANCH   1  27
TORSDOF 11
ENDMDL
MODEL 4
REMARK VINA RESULT: -7.112772001      1.605      2.693
REMARK  11 active torsions:
REMARK  status: ('A' for Active; 'I' for Inactive)
REMARK    1  A    between atoms: O1_2  and  C2_3 
REMARK    2  A    between atoms: C2_3  and  O2_4 
REMARK    3  A    between atoms: C3_8  and  O5_9 
REMARK    4  A    between atoms: C3_8  and  O8_19 
REMARK    5  A    between atoms: O5_9  and  C4_10 
REMARK    6  A    between atoms: C4_10  and  C5_12 
REMARK    7  A    between atoms: C6_13  and  C7_14 
REMARK    8  A    between atoms: C7_14  and  O7_17 
REMARK    9  A    between atoms: O8_19  and  C10_20 
REMARK   10  A    between atoms: C13_23  and  O9_24 
REMARK   11  A    between atoms: C14_26  and  O10_27 
ROOT
HETATM    1  C2  UNL     1      11.157   2.740   5.064  1.00  0.00     0.338 C 
HETATM    2  O3  UNL     1      12.433   2.632   4.506  1.00  0.00    -0.163 OA
HETATM    3  O4  UNL     1      12.881   3.760   4.059  1.00  0.00    -0.162 OA
HETATM    4  C3  UNL     1      13.327   4.615   5.085  1.00  0.00     0.348 C 
HETATM    5  C13 UNL     1      12.158   4.733   6.035  1.00  0.00     0.251 C 
HETATM    6  C14 UNL     1      10.937   4.233   5.283  1.00  0.00     0.250 C 
ENDROOT
BRANCH   4   7
HETATM    7  O5  UNL     1      14.455   4.025   5.615  1.00  0.00    -0.251 OA
BRANCH   7   8
HETATM    8  C4  UNL     1      15.571   3.602   4.966  1.00  0.00     0.287 C 
HETATM    9  O6  UNL     1      16.321   4.456   4.502  1.00  0.00    -0.260 OA
BRANCH   8  10
HETATM   10  C5  UNL     1      15.859   2.192   4.830  1.00  0.00     0.081 C 
HETATM   11  C6  UNL     1      17.079   1.694   4.923  1.00  0.00     0.016 C 
BRANCH  11  12
HETATM   12  C7  UNL     1      17.266   0.236   4.768  1.00  0.00     0.069 C 
HETATM   13  C8  UNL     1      15.996  -0.453   5.200  1.00  0.00     0.050 C 
HETATM   14  C9  UNL     1      18.457  -0.284   5.527  1.00  0.00     0.050 C 
BRANCH  12  15
HETATM   15  O7  UNL     1      17.491  -0.062   3.405  1.00  0.00    -0.387 OA
ATOM     16  H7  UNL     1      18.227  -0.659   3.334  1.00  0.00     0.211 HD
ENDBRANCH  12  15
ENDBRANCH  11  12
ENDBRANCH   8  10
ENDBRANCH   7   8
ENDBRANCH   4   7
BRANCH   4  17
HETATM   17  O8  UNL     1      13.478   5.833   4.502  1.00  0.00    -0.324 OA
BRANCH  17  18
HETATM   18  C10 UNL     1      13.394   5.992   3.182  1.00  0.00     0.119 C 
HETATM   19  C11 UNL     1      12.092   6.714   2.853  1.00  0.00     0.039 C 
HETATM   20  C12 UNL     1      14.487   6.671   2.450  1.00  0.00     0.039 C 
ENDBRANCH  17  18
ENDBRANCH   4  17
BRANCH   5  21
HETATM   21  O9  UNL     1      11.879   6.073   6.345  1.00  0.00    -0.384 OA
ATOM     22  H9  UNL     1      11.485   6.527   5.609  1.00  0.00     0.210 HD
ENDBRANCH   5  21
BRANCH   6  23
HETATM   23  O10 UNL     1       9.769   4.464   5.998  1.00  0.00    -0.384 OA
ATOM     24  H10 UNL     1       9.868   5.208   6.580  1.00  0.00     0.210 HD
ENDBRANCH   6  23
BRANCH   1  25
HETATM   25  O1  UNL     1      11.090   2.138   6.317  1.00  0.00    -0.334 OA
HETATM   26  C1  UNL     1      12.139   1.246   6.523  1.00  0.00     0.208 C 
ENDBRANCH   1  25
BRANCH   1  27
HETATM   27  O2  UNL     1      10.183   2.222   4.196  1.00  0.00    -0.339 OA
ATOM     28  H2  UNL     1      10.186   2.677   3.362  1.00  0.00     0.215 HD
ENDBRANCH   1  27
TORSDOF 11
ENDMDL
MODEL 5
REMARK VINA RESULT: -7.000560276      3.085      8.111
REMARK  11 active torsions:
REMARK  status: ('A' for Active; 'I' for Inactive)
REMARK    1  A    between atoms: O1_2  and  C2_3 
REMARK    2  A    between atoms: C2_3  and  O2_4 
REMARK    3  A    between atoms: C3_8  and  O5_9 
REMARK    4  A    between atoms: C3_8  and  O8_19 
REMARK    5  A    between atoms: O5_9  and  C4_10 
REMARK    6  A    between atoms: C4_10  and  C5_12 
REMARK    7  A    between atoms: C6_13  and  C7_14 
REMARK    8  A    between atoms: C7_14  and  O7_17 
REMARK    9  A    between atoms: O8_19  and  C10_20 
REMARK   10  A    between atoms: C13_23  and  O9_24 
REMARK   11  A    between atoms: C14_26  and  O10_27 
ROOT
HETATM    1  C2  UNL     1      17.127  -3.884   1.652  1.00  0.00     0.338 C 
HETATM    2  O3  UNL     1      16.591  -3.736   2.932  1.00  0.00    -0.163 OA
HETATM    3  O4  UNL     1      17.411  -3.168   3.756  1.00  0.00    -0.162 OA
HETATM    4  C3  UNL     1      17.506  -1.777   3.560  1.00  0.00     0.348 C 
HETATM    5  C13 UNL     1      17.860  -1.608   2.101  1.00  0.00     0.251 C 
HETATM    6  C14 UNL     1      18.342  -2.963   1.614  1.00  0.00     0.250 C 
ENDROOT
BRANCH   4   7
HETATM    7  O5  UNL     1      16.285  -1.253   3.931  1.00  0.00    -0.251 OA
BRANCH   7   8
HETATM    8  C4  UNL     1      15.422  -0.513   3.187  1.00  0.00     0.287 C 
HETATM    9  O6  UNL     1      14.811  -1.082   2.286  1.00  0.00    -0.260 OA
BRANCH   8  10
HETATM   10  C5  UNL     1      15.235   0.895   3.451  1.00  0.00     0.081 C 
HETATM   11  C6  UNL     1      15.100   1.389   4.669  1.00  0.00     0.016 C 
BRANCH  11  12
HETATM   12  C7  UNL     1      14.913   2.846   4.830  1.00  0.00     0.069 C 
HETATM   13  C8  UNL     1      16.267   3.506   4.780  1.00  0.00     0.050 C 
HETATM   14  C9  UNL     1      14.173   3.203   6.091  1.00  0.00     0.050 C 
BRANCH  12  15
HETATM   15  O7  UNL     1      14.140   3.336   3.753  1.00  0.00    -0.387 OA
ATOM     16  H7  UNL     1      14.428   4.216   3.537  1.00  0.00     0.211 HD
ENDBRANCH  12  15
ENDBRANCH  11  12
ENDBRANCH   8  10
ENDBRANCH   7   8
ENDBRANCH   4   7
BRANCH   4  17
HETATM   17  O8  UNL     1      18.593  -1.384   4.272  1.00  0.00    -0.324 OA
BRANCH  17  18
HETATM   18  C10 UNL     1      18.476  -0.678   5.396  1.00  0.00     0.119 C 
HETATM   19  C11 UNL     1      19.375  -1.294   6.462  1.00  0.00     0.039 C 
HETATM   20  C12 UNL     1      18.725   0.781   5.380  1.00  0.00     0.039 C 
ENDBRANCH  17  18
ENDBRANCH   4  17
BRANCH   5  21
HETATM   21  O9  UNL     1      18.952  -0.744   1.932  1.00  0.00    -0.384 OA
ATOM     22  H9  UNL     1      18.674   0.163   1.872  1.00  0.00     0.210 HD
ENDBRANCH   5  21
BRANCH   6  23
HETATM   23  O10 UNL     1      18.867  -2.884   0.329  1.00  0.00    -0.384 OA
ATOM     24  H10 UNL     1      19.167  -2.004   0.138  1.00  0.00     0.210 HD
ENDBRANCH   6  23
BRANCH   1  25
HETATM   25  O1  UNL     1      16.251  -3.430   0.670  1.00  0.00    -0.334 OA
HETATM   26  C1  UNL     1      15.968  -4.416  -0.272  1.00  0.00     0.208 C 
ENDBRANCH   1  25
BRANCH   1  27
HETATM   27  O2  UNL     1      17.511  -5.214   1.417  1.00  0.00    -0.339 OA
ATOM     28  H2  UNL     1      17.965  -5.301   0.587  1.00  0.00     0.215 HD
ENDBRANCH   1  27
TORSDOF 11
ENDMDL
