MODEL 1
REMARK VINA RESULT: -7.938477874      0.000      0.000
REMARK  9 active torsions:
REMARK  status: ('A' for Active; 'I' for Inactive)
REMARK    1  A    between atoms: N1_6  and  C4_7 
REMARK    2  A    between atoms: C4_7  and  N2_8 
REMARK    3  A    between atoms: N2_8  and  C5_10 
REMARK    4  A    between atoms: C6_11  and  C7_12 
REMARK    5  A    between atoms: C7_12  and  O2_13 
REMARK    6  A    between atoms: C7_12  and  O3_15 
REMARK    7  A    between atoms: C9_21  and  C10_22 
REMARK    8  A    between atoms: N5_23  and  O5_25 
REMARK    9  A    between atoms: C11_27  and  O6_28 
ROOT
HETATM    1  C5  UNL     1      14.901   3.543   3.969  1.00  0.00     0.137 A 
HETATM    2  C6  UNL     1      15.830   4.450   4.479  1.00  0.00     0.111 A 
HETATM    3  C8  UNL     1      15.222   5.681   4.622  1.00  0.00     0.277 A 
HETATM    4  O4  UNL     1      15.773   6.725   5.056  1.00  0.00    -0.266 OA
HETATM    5  N3  UNL     1      13.960   5.504   4.205  1.00  0.00    -0.250 N 
HETATM    6  N4  UNL     1      13.767   4.248   3.821  1.00  0.00    -0.258 N 
HETATM    7  C9  UNL     1      12.379   4.088   3.378  1.00  0.00     0.180 C 
HETATM    8  C11 UNL     1      12.045   5.497   2.924  1.00  0.00     0.168 C 
HETATM    9  C12 UNL     1      12.734   6.283   4.044  1.00  0.00     0.187 C 
ENDROOT
BRANCH   1  10
HETATM   10  N2  UNL     1      15.177   2.182   3.696  1.00  0.00    -0.358 N 
ATOM     11  H2  UNL     1      15.630   1.918   2.821  1.00  0.00     0.162 HD
BRANCH  10  12
HETATM   12  C4  UNL     1      14.817   1.171   4.655  1.00  0.00     0.251 C 
BRANCH  12  13
HETATM   13  N1  UNL     1      15.463  -0.104   4.385  1.00  0.00    -0.326 N 
HETATM   14  C1  UNL     1      15.670  -0.645   3.107  1.00  0.00     0.231 C 
HETATM   15  O1  UNL     1      14.847  -0.649   2.118  1.00  0.00    -0.272 OA
HETATM   16  C2  UNL     1      17.008  -1.267   2.937  1.00  0.00     0.178 C 
HETATM   17  S1  UNL     1      17.296  -1.869   4.639  1.00  0.00    -0.140 SA
HETATM   18  C3  UNL     1      15.955  -0.943   5.459  1.00  0.00     0.202 C 
ENDBRANCH  12  13
ENDBRANCH  10  12
ENDBRANCH   1  10
BRANCH   2  19
HETATM   19  C7  UNL     1      17.258   4.207   4.839  1.00  0.00     0.297 C 
BRANCH  19  20
HETATM   20  O2  UNL     1      17.644   2.934   4.465  1.00  0.00    -0.367 OA
ATOM     21  H2  UNL     1      17.389   2.300   5.124  1.00  0.00     0.213 HD
ENDBRANCH  19  20
BRANCH  19  22
HETATM   22  O3  UNL     1      18.044   5.182   4.204  1.00  0.00    -0.367 OA
ATOM     23  H3  UNL     1      18.484   4.776   3.466  1.00  0.00     0.213 HD
ENDBRANCH  19  22
ENDBRANCH   2  19
BRANCH   7  24
HETATM   24  C10 UNL     1      11.496   3.831   4.562  1.00  0.00     0.116 C 
HETATM   25  N5  UNL     1      10.649   2.883   4.478  1.00  0.00    -0.282 N 
ATOM     26  H5  UNL     1      10.611   2.343   3.613  1.00  0.00     0.192 HD
BRANCH  25  27
HETATM   27  O5  UNL     1       9.789   2.550   5.491  1.00  0.00    -0.290 OA
ATOM     28  H5  UNL     1       8.850   2.464   5.370  1.00  0.00     0.244 HD
ENDBRANCH  25  27
ENDBRANCH   7  24
BRANCH   8  29
HETATM   29  O6  UNL     1      10.674   5.738   2.924  1.00  0.00    -0.391 OA
ATOM     30  H6  UNL     1      10.383   6.155   2.121  1.00  0.00     0.210 HD
ENDBRANCH   8  29
TORSDOF 9
ENDMDL
MODEL 2
REMARK VINA RESULT: -7.884165399      2.147      4.049
REMARK  9 active torsions:
REMARK  status: ('A' for Active; 'I' for Inactive)
REMARK    1  A    between atoms: N1_6  and  C4_7 
REMARK    2  A    between atoms: C4_7  and  N2_8 
REMARK    3  A    between atoms: N2_8  and  C5_10 
REMARK    4  A    between atoms: C6_11  and  C7_12 
REMARK    5  A    between atoms: C7_12  and  O2_13 
REMARK    6  A    between atoms: C7_12  and  O3_15 
REMARK    7  A    between atoms: C9_21  and  C10_22 
REMARK    8  A    between atoms: N5_23  and  O5_25 
REMARK    9  A    between atoms: C11_27  and  O6_28 
ROOT
HETATM    1  C5  UNL     1      14.222   2.777   4.671  1.00  0.00     0.137 A 
HETATM    2  C6  UNL     1      13.335   2.967   5.729  1.00  0.00     0.111 A 
HETATM    3  C8  UNL     1      13.451   4.264   6.185  1.00  0.00     0.277 A 
HETATM    4  O4  UNL     1      12.796   4.771   7.131  1.00  0.00    -0.266 OA
HETATM    5  N3  UNL     1      14.388   4.829   5.410  1.00  0.00    -0.250 N 
HETATM    6  N4  UNL     1      14.844   3.958   4.518  1.00  0.00    -0.258 N 
HETATM    7  C9  UNL     1      15.860   4.608   3.685  1.00  0.00     0.180 C 
HETATM    8  C11 UNL     1      16.387   5.671   4.632  1.00  0.00     0.168 C 
HETATM    9  C12 UNL     1      15.061   6.117   5.257  1.00  0.00     0.187 C 
ENDROOT
BRANCH   1  10
HETATM   10  N2  UNL     1      14.372   1.563   3.958  1.00  0.00    -0.358 N 
ATOM     11  H2  UNL     1      13.583   1.171   3.445  1.00  0.00     0.162 HD
BRANCH  10  12
HETATM   12  C4  UNL     1      15.641   0.883   3.959  1.00  0.00     0.251 C 
BRANCH  12  13
HETATM   13  N1  UNL     1      15.495  -0.563   3.934  1.00  0.00    -0.326 N 
HETATM   14  C1  UNL     1      15.305  -1.332   2.776  1.00  0.00     0.231 C 
HETATM   15  O1  UNL     1      14.546  -1.059   1.773  1.00  0.00    -0.272 OA
HETATM   16  C2  UNL     1      16.095  -2.589   2.764  1.00  0.00     0.178 C 
HETATM   17  S1  UNL     1      16.123  -2.963   4.552  1.00  0.00    -0.140 SA
HETATM   18  C3  UNL     1      15.531  -1.345   5.153  1.00  0.00     0.202 C 
ENDBRANCH  12  13
ENDBRANCH  10  12
ENDBRANCH   1  10
BRANCH   2  19
HETATM   19  C7  UNL     1      12.383   1.983   6.325  1.00  0.00     0.297 C 
BRANCH  19  20
HETATM   20  O2  UNL     1      11.271   1.833   5.519  1.00  0.00    -0.367 OA
ATOM     21  H2  UNL     1      10.609   1.309   5.955  1.00  0.00     0.213 HD
ENDBRANCH  19  20
BRANCH  19  22
HETATM   22  O3  UNL     1      13.057   0.762   6.490  1.00  0.00    -0.367 OA
ATOM     23  H3  UNL     1      12.612   0.265   7.167  1.00  0.00     0.213 HD
ENDBRANCH  19  22
ENDBRANCH   2  19
BRANCH   7  24
HETATM   24  C10 UNL     1      15.198   5.360   2.571  1.00  0.00     0.116 C 
HETATM   25  N5  UNL     1      15.946   5.934   1.714  1.00  0.00    -0.282 N 
ATOM     26  H5  UNL     1      16.957   5.857   1.825  1.00  0.00     0.192 HD
BRANCH  25  27
HETATM   27  O5  UNL     1      15.460   6.650   0.651  1.00  0.00    -0.290 OA
ATOM     28  H5  UNL     1      15.992   7.248   0.139  1.00  0.00     0.244 HD
ENDBRANCH  25  27
ENDBRANCH   7  24
BRANCH   8  29
HETATM   29  O6  UNL     1      16.991   6.726   3.953  1.00  0.00    -0.391 OA
ATOM     30  H6  UNL     1      16.354   7.334   3.595  1.00  0.00     0.210 HD
ENDBRANCH   8  29
TORSDOF 9
ENDMDL
MODEL 3
REMARK VINA RESULT: -7.626664973      2.906      6.072
REMARK  9 active torsions:
REMARK  status: ('A' for Active; 'I' for Inactive)
REMARK    1  A    between atoms: N1_6  and  C4_7 
REMARK    2  A    between atoms: C4_7  and  N2_8 
REMARK    3  A    between atoms: N2_8  and  C5_10 
REMARK    4  A    between atoms: C6_11  and  C7_12 
REMARK    5  A    between atoms: C7_12  and  O2_13 
REMARK    6  A    between atoms: C7_12  and  O3_15 
REMARK    7  A    between atoms: C9_21  and  C10_22 
REMARK    8  A    between atoms: N5_23  and  O5_25 
REMARK    9  A    between atoms: C11_27  and  O6_28 
ROOT
HETATM    1  C5  UNL     1      14.928   2.690   4.311  1.00  0.00     0.137 A 
HETATM    2  C6  UNL     1      15.915   3.664   4.456  1.00  0.00     0.111 A 
HETATM    3  C8  UNL     1      17.119   3.046   4.723  1.00  0.00     0.277 A 
HETATM    4  O4  UNL     1      18.218   3.629   4.910  1.00  0.00    -0.266 OA
HETATM    5  N3  UNL     1      16.849   1.733   4.735  1.00  0.00    -0.250 N 
HETATM    6  N4  UNL     1      15.561   1.519   4.492  1.00  0.00    -0.258 N 
HETATM    7  C9  UNL     1      15.301   0.077   4.506  1.00  0.00     0.180 C 
HETATM    8  C11 UNL     1      16.397  -0.416   5.434  1.00  0.00     0.168 C 
HETATM    9  C12 UNL     1      17.548   0.466   4.939  1.00  0.00     0.187 C 
ENDROOT
BRANCH   1  10
HETATM   10  N2  UNL     1      13.568   2.962   4.029  1.00  0.00    -0.358 N 
ATOM     11  H2  UNL     1      13.279   3.187   3.077  1.00  0.00     0.162 HD
BRANCH  10  12
HETATM   12  C4  UNL     1      12.594   2.922   5.088  1.00  0.00     0.251 C 
BRANCH  12  13
HETATM   13  N1  UNL     1      11.968   4.215   5.314  1.00  0.00    -0.326 N 
HETATM   14  C1  UNL     1      12.552   5.277   6.020  1.00  0.00     0.231 C 
HETATM   15  O1  UNL     1      13.226   5.212   7.114  1.00  0.00    -0.272 OA
HETATM   16  C2  UNL     1      12.334   6.601   5.383  1.00  0.00     0.178 C 
HETATM   17  S1  UNL     1      10.695   6.322   4.624  1.00  0.00    -0.140 SA
HETATM   18  C3  UNL     1      10.640   4.508   4.812  1.00  0.00     0.202 C 
ENDBRANCH  12  13
ENDBRANCH  10  12
ENDBRANCH   1  10
BRANCH   2  19
HETATM   19  C7  UNL     1      15.774   5.147   4.350  1.00  0.00     0.297 C 
BRANCH  19  20
HETATM   20  O2  UNL     1      15.945   5.740   5.586  1.00  0.00    -0.367 OA
ATOM     21  H2  UNL     1      15.373   6.493   5.678  1.00  0.00     0.213 HD
ENDBRANCH  19  20
BRANCH  19  22
HETATM   22  O3  UNL     1      16.723   5.615   3.427  1.00  0.00    -0.367 OA
ATOM     23  H3  UNL     1      16.491   6.504   3.187  1.00  0.00     0.213 HD
ENDBRANCH  19  22
ENDBRANCH   2  19
BRANCH   7  24
HETATM   24  C10 UNL     1      15.622  -0.510   3.165  1.00  0.00     0.116 C 
HETATM   25  N5  UNL     1      15.013  -1.574   2.820  1.00  0.00    -0.282 N 
ATOM     26  H5  UNL     1      14.338  -1.978   3.469  1.00  0.00     0.192 HD
BRANCH  25  27
HETATM   27  O5  UNL     1      15.219  -2.204   1.620  1.00  0.00    -0.290 OA
ATOM     28  H5  UNL     1      15.889  -2.864   1.486  1.00  0.00     0.244 HD
ENDBRANCH  25  27
ENDBRANCH   7  24
BRANCH   8  29
HETATM   29  O6  UNL     1      16.688  -1.763   5.235  1.00  0.00    -0.391 OA
ATOM     30  H6  UNL     1      17.614  -1.947   5.331  1.00  0.00     0.210 HD
ENDBRANCH   8  29
TORSDOF 9
ENDMDL
MODEL 4
REMARK VINA RESULT: -7.574435533      2.878      6.067
REMARK  9 active torsions:
REMARK  status: ('A' for Active; 'I' for Inactive)
REMARK    1  A    between atoms: N1_6  and  C4_7 
REMARK    2  A    between atoms: C4_7  and  N2_8 
REMARK    3  A    between atoms: N2_8  and  C5_10 
REMARK    4  A    between atoms: C6_11  and  C7_12 
REMARK    5  A    between atoms: C7_12  and  O2_13 
REMARK    6  A    between atoms: C7_12  and  O3_15 
REMARK    7  A    between atoms: C9_21  and  C10_22 
REMARK    8  A    between atoms: N5_23  and  O5_25 
REMARK    9  A    between atoms: C11_27  and  O6_28 
ROOT
HETATM    1  C5  UNL     1      15.484   2.700   4.265  1.00  0.00     0.137 A 
HETATM    2  C6  UNL     1      16.622   3.444   4.573  1.00  0.00     0.111 A 
HETATM    3  C8  UNL     1      17.624   2.584   4.973  1.00  0.00     0.277 A 
HETATM    4  O4  UNL     1      18.785   2.921   5.324  1.00  0.00    -0.266 OA
HETATM    5  N3  UNL     1      17.088   1.357   4.902  1.00  0.00    -0.250 N 
HETATM    6  N4  UNL     1      15.829   1.421   4.486  1.00  0.00    -0.258 N 
HETATM    7  C9  UNL     1      15.276   0.066   4.414  1.00  0.00     0.180 C 
HETATM    8  C11 UNL     1      16.109  -0.654   5.459  1.00  0.00     0.168 C 
HETATM    9  C12 UNL     1      17.474  -0.031   5.151  1.00  0.00     0.187 C 
ENDROOT
BRANCH   1  10
HETATM   10  N2  UNL     1      14.261   3.255   3.817  1.00  0.00    -0.358 N 
ATOM     11  H2  UNL     1      14.162   3.560   2.848  1.00  0.00     0.162 HD
BRANCH  10  12
HETATM   12  C4  UNL     1      13.157   3.389   4.730  1.00  0.00     0.251 C 
BRANCH  12  13
HETATM   13  N1  UNL     1      12.542   4.705   4.667  1.00  0.00    -0.326 N 
HETATM   14  C1  UNL     1      12.748   5.639   3.640  1.00  0.00     0.231 C 
HETATM   15  O1  UNL     1      13.859   5.935   3.064  1.00  0.00    -0.272 OA
HETATM   16  C2  UNL     1      11.505   6.332   3.213  1.00  0.00     0.178 C 
HETATM   17  S1  UNL     1      10.596   6.359   4.798  1.00  0.00    -0.140 SA
HETATM   18  C3  UNL     1      11.640   5.167   5.703  1.00  0.00     0.202 C 
ENDBRANCH  12  13
ENDBRANCH  10  12
ENDBRANCH   1  10
BRANCH   2  19
HETATM   19  C7  UNL     1      16.808   4.923   4.503  1.00  0.00     0.297 C 
BRANCH  19  20
HETATM   20  O2  UNL     1      16.663   5.370   3.204  1.00  0.00    -0.367 OA
ATOM     21  H2  UNL     1      16.825   6.305   3.152  1.00  0.00     0.213 HD
ENDBRANCH  19  20
BRANCH  19  22
HETATM   22  O3  UNL     1      15.866   5.526   5.354  1.00  0.00    -0.367 OA
ATOM     23  H3  UNL     1      15.195   5.930   4.816  1.00  0.00     0.213 HD
ENDBRANCH  19  22
ENDBRANCH   2  19
BRANCH   7  24
HETATM   24  C10 UNL     1      15.647  -0.565   3.105  1.00  0.00     0.116 C 
HETATM   25  N5  UNL     1      14.986  -1.588   2.729  1.00  0.00    -0.282 N 
ATOM     26  H5  UNL     1      14.239  -1.929   3.333  1.00  0.00     0.192 HD
BRANCH  25  27
HETATM   27  O5  UNL     1      15.230  -2.251   1.555  1.00  0.00    -0.290 OA
ATOM     28  H5  UNL     1      14.641  -2.225   0.810  1.00  0.00     0.244 HD
ENDBRANCH  25  27
ENDBRANCH   7  24
BRANCH   8  29
HETATM   29  O6  UNL     1      16.138  -2.030   5.251  1.00  0.00    -0.391 OA
ATOM     30  H6  UNL     1      16.723  -2.274   4.545  1.00  0.00     0.210 HD
ENDBRANCH   8  29
TORSDOF 9
ENDMDL
MODEL 5
REMARK VINA RESULT: -7.486258575      1.095      1.288
REMARK  9 active torsions:
REMARK  status: ('A' for Active; 'I' for Inactive)
REMARK    1  A    between atoms: N1_6  and  C4_7 
REMARK    2  A    between atoms: C4_7  and  N2_8 
REMARK    3  A    between atoms: N2_8  and  C5_10 
REMARK    4  A    between atoms: C6_11  and  C7_12 
REMARK    5  A    between atoms: C7_12  and  O2_13 
REMARK    6  A    between atoms: C7_12  and  O3_15 
REMARK    7  A    between atoms: C9_21  and  C10_22 
REMARK    8  A    between atoms: N5_23  and  O5_25 
REMARK    9  A    between atoms: C11_27  and  O6_28 
ROOT
HETATM    1  C5  UNL     1      15.027   3.677   3.796  1.00  0.00     0.137 A 
HETATM    2  C6  UNL     1      15.939   4.523   4.426  1.00  0.00     0.111 A 
HETATM    3  C8  UNL     1      15.327   5.734   4.678  1.00  0.00     0.277 A 
HETATM    4  O4  UNL     1      15.864   6.726   5.236  1.00  0.00    -0.266 OA
HETATM    5  N3  UNL     1      14.079   5.605   4.206  1.00  0.00    -0.250 N 
HETATM    6  N4  UNL     1      13.898   4.396   3.687  1.00  0.00    -0.258 N 
HETATM    7  C9  UNL     1      12.525   4.287   3.188  1.00  0.00     0.180 C 
HETATM    8  C11 UNL     1      12.204   5.737   2.872  1.00  0.00     0.168 C 
HETATM    9  C12 UNL     1      12.858   6.400   4.089  1.00  0.00     0.187 C 
ENDROOT
BRANCH   1  10
HETATM   10  N2  UNL     1      15.312   2.351   3.391  1.00  0.00    -0.358 N 
ATOM     11  H2  UNL     1      15.868   2.181   2.553  1.00  0.00     0.162 HD
BRANCH  10  12
HETATM   12  C4  UNL     1      14.815   1.243   4.164  1.00  0.00     0.251 C 
BRANCH  12  13
HETATM   13  N1  UNL     1      15.536   0.010   3.891  1.00  0.00    -0.326 N 
HETATM   14  C1  UNL     1      16.561  -0.516   4.693  1.00  0.00     0.231 C 
HETATM   15  O1  UNL     1      17.519   0.129   5.259  1.00  0.00    -0.272 OA
HETATM   16  C2  UNL     1      16.475  -1.988   4.874  1.00  0.00     0.178 C 
HETATM   17  S1  UNL     1      15.742  -2.461   3.268  1.00  0.00    -0.140 SA
HETATM   18  C3  UNL     1      15.241  -0.794   2.722  1.00  0.00     0.202 C 
ENDBRANCH  12  13
ENDBRANCH  10  12
ENDBRANCH   1  10
BRANCH   2  19
HETATM   19  C7  UNL     1      17.356   4.240   4.803  1.00  0.00     0.297 C 
BRANCH  19  20
HETATM   20  O2  UNL     1      17.692   2.938   4.484  1.00  0.00    -0.367 OA
ATOM     21  H2  UNL     1      18.107   2.900   3.631  1.00  0.00     0.213 HD
ENDBRANCH  19  20
BRANCH  19  22
HETATM   22  O3  UNL     1      18.182   5.156   4.131  1.00  0.00    -0.367 OA
ATOM     23  H3  UNL     1      17.683   5.540   3.419  1.00  0.00     0.213 HD
ENDBRANCH  19  22
ENDBRANCH   2  19
BRANCH   7  24
HETATM   24  C10 UNL     1      11.605   3.911   4.310  1.00  0.00     0.116 C 
HETATM   25  N5  UNL     1      10.779   2.962   4.110  1.00  0.00    -0.282 N 
ATOM     26  H5  UNL     1      10.781   2.503   3.199  1.00  0.00     0.192 HD
BRANCH  25  27
HETATM   27  O5  UNL     1       9.889   2.526   5.056  1.00  0.00    -0.290 OA
ATOM     28  H5  UNL     1       9.377   1.732   4.964  1.00  0.00     0.244 HD
ENDBRANCH  25  27
ENDBRANCH   7  24
BRANCH   8  29
HETATM   29  O6  UNL     1      10.834   5.981   2.855  1.00  0.00    -0.391 OA
ATOM     30  H6  UNL     1      10.383   5.545   3.569  1.00  0.00     0.210 HD
ENDBRANCH   8  29
TORSDOF 9
ENDMDL
