MODEL 1
REMARK VINA RESULT: -7.514413351      0.000      0.000
REMARK  6 active torsions:
REMARK  status: ('A' for Active; 'I' for Inactive)
REMARK    1  A    between atoms: C3_4  and  N2_5 
REMARK    2  A    between atoms: N2_5  and  C4_7 
REMARK    3  A    between atoms: C4_7  and  C5_8 
REMARK    4  A    between atoms: C9_13  and  O2_14 
REMARK    5  A    between atoms: C10_16  and  C11_17 
REMARK    6  A    between atoms: N3_18  and  C12_20 
ROOT
HETATM    1  C12 UNL     1      -0.237   4.035  10.133  1.00  0.00     0.112 C 
HETATM    2  C13 UNL     1       1.110   4.146  10.834  1.00  0.00     0.055 C 
HETATM    3  C14 UNL     1      -0.854   5.414  10.005  1.00  0.00     0.055 C 
HETATM    4  C15 UNL     1      -0.078   3.476   8.789  1.00  0.00     0.090 C 
HETATM    5  N4  UNL     1       0.061   3.048   7.718  1.00  0.00    -0.195 NA
ENDROOT
BRANCH   1   6
HETATM    6  N3  UNL     1      -1.057   3.152  10.938  1.00  0.00    -0.377 N 
HETATM    7  C11 UNL     1      -2.308   2.992  10.737  1.00  0.00     0.104 C 
ATOM      8  H3  UNL     1      -0.615   2.635  11.699  1.00  0.00     0.160 HD
BRANCH   7   9
HETATM    9  C10 UNL     1      -3.051   2.088  11.593  1.00  0.00     0.083 A 
HETATM   10  C9  UNL     1      -3.664   2.594  12.753  1.00  0.00     0.110 A 
HETATM   11  C3  UNL     1      -4.370   1.755  13.575  1.00  0.00     0.078 A 
HETATM   12  C2  UNL     1      -4.470   0.399  13.242  1.00  0.00     0.125 A 
HETATM   13  N1  UNL     1      -3.882  -0.076  12.132  1.00  0.00    -0.326 N 
HETATM   14  C1  UNL     1      -3.984  -1.485  11.783  1.00  0.00     0.159 C 
HETATM   15  C16 UNL     1      -3.192   0.752  11.332  1.00  0.00     0.261 A 
HETATM   16  O3  UNL     1      -2.655   0.248  10.293  1.00  0.00    -0.267 OA
BRANCH  10  17
HETATM   17  O2  UNL     1      -3.538   3.945  13.045  1.00  0.00    -0.357 OA
ATOM     18  H2  UNL     1      -2.687   4.369  13.054  1.00  0.00     0.217 HD
ENDBRANCH  10  17
BRANCH  11  19
HETATM   19  N2  UNL     1      -5.008   2.237  14.768  1.00  0.00    -0.384 N 
ATOM     20  H2  UNL     1      -5.900   2.727  14.692  1.00  0.00     0.159 HD
BRANCH  19  21
HETATM   21  C4  UNL     1      -4.420   2.046  16.071  1.00  0.00     0.151 C 
BRANCH  21  22
HETATM   22  C5  UNL     1      -5.457   2.320  17.125  1.00  0.00     0.139 C 
HETATM   23  C6  UNL     1      -6.845   2.360  16.544  1.00  0.00     0.035 C 
HETATM   24  C7  UNL     1      -7.447   1.041  16.929  1.00  0.00     0.029 C 
HETATM   25  C8  UNL     1      -6.274   0.285  17.551  1.00  0.00     0.168 C 
HETATM   26  O1  UNL     1      -5.427   1.273  18.038  1.00  0.00    -0.384 OA
ENDBRANCH  21  22
ENDBRANCH  19  21
ENDBRANCH  11  19
ENDBRANCH   7   9
ENDBRANCH   1   6
TORSDOF 6
ENDMDL
MODEL 2
REMARK VINA RESULT: -7.281265585      1.035      1.434
REMARK  6 active torsions:
REMARK  status: ('A' for Active; 'I' for Inactive)
REMARK    1  A    between atoms: C3_4  and  N2_5 
REMARK    2  A    between atoms: N2_5  and  C4_7 
REMARK    3  A    between atoms: C4_7  and  C5_8 
REMARK    4  A    between atoms: C9_13  and  O2_14 
REMARK    5  A    between atoms: C10_16  and  C11_17 
REMARK    6  A    between atoms: N3_18  and  C12_20 
ROOT
HETATM    1  C12 UNL     1       0.154   4.094  10.048  1.00  0.00     0.112 C 
HETATM    2  C13 UNL     1      -0.603   5.401  10.233  1.00  0.00     0.055 C 
HETATM    3  C14 UNL     1       0.347   3.828   8.568  1.00  0.00     0.055 C 
HETATM    4  C15 UNL     1       1.475   4.166  10.678  1.00  0.00     0.090 C 
HETATM    5  N4  UNL     1       2.526   4.239  11.166  1.00  0.00    -0.195 NA
ENDROOT
BRANCH   1   6
HETATM    6  N3  UNL     1      -0.637   3.059  10.682  1.00  0.00    -0.377 N 
HETATM    7  C11 UNL     1      -1.909   3.120  10.780  1.00  0.00     0.104 C 
ATOM      8  H3  UNL     1      -0.157   2.245  11.068  1.00  0.00     0.160 HD
BRANCH   7   9
HETATM    9  C10 UNL     1      -2.620   2.038  11.432  1.00  0.00     0.083 A 
HETATM   10  C9  UNL     1      -3.408   2.321  12.562  1.00  0.00     0.110 A 
HETATM   11  C3  UNL     1      -4.088   1.312  13.192  1.00  0.00     0.078 A 
HETATM   12  C2  UNL     1      -3.985   0.007  12.696  1.00  0.00     0.125 A 
HETATM   13  N1  UNL     1      -3.231  -0.255  11.616  1.00  0.00    -0.326 N 
HETATM   14  C1  UNL     1      -3.123  -1.610  11.098  1.00  0.00     0.159 C 
HETATM   15  C16 UNL     1      -2.568   0.739  11.004  1.00  0.00     0.261 A 
HETATM   16  O3  UNL     1      -1.869   0.434   9.985  1.00  0.00    -0.267 OA
BRANCH  10  17
HETATM   17  O2  UNL     1      -3.480   3.630  13.020  1.00  0.00    -0.357 OA
ATOM     18  H2  UNL     1      -2.904   4.303  12.677  1.00  0.00     0.217 HD
ENDBRANCH  10  17
BRANCH  11  19
HETATM   19  N2  UNL     1      -4.901   1.565  14.349  1.00  0.00    -0.384 N 
ATOM     20  H2  UNL     1      -5.696   2.198  14.268  1.00  0.00     0.159 HD
BRANCH  19  21
HETATM   21  C4  UNL     1      -4.620   0.945  15.621  1.00  0.00     0.151 C 
BRANCH  21  22
HETATM   22  C5  UNL     1      -5.088   1.853  16.724  1.00  0.00     0.139 C 
HETATM   23  C6  UNL     1      -6.225   2.733  16.279  1.00  0.00     0.035 C 
HETATM   24  C7  UNL     1      -7.444   2.103  16.887  1.00  0.00     0.029 C 
HETATM   25  C8  UNL     1      -6.907   0.803  17.486  1.00  0.00     0.168 C 
HETATM   26  O1  UNL     1      -5.569   1.059  17.758  1.00  0.00    -0.384 OA
ENDBRANCH  21  22
ENDBRANCH  19  21
ENDBRANCH  11  19
ENDBRANCH   7   9
ENDBRANCH   1   6
TORSDOF 6
ENDMDL
MODEL 3
REMARK VINA RESULT: -7.268132555      2.687      5.438
REMARK  6 active torsions:
REMARK  status: ('A' for Active; 'I' for Inactive)
REMARK    1  A    between atoms: C3_4  and  N2_5 
REMARK    2  A    between atoms: N2_5  and  C4_7 
REMARK    3  A    between atoms: C4_7  and  C5_8 
REMARK    4  A    between atoms: C9_13  and  O2_14 
REMARK    5  A    between atoms: C10_16  and  C11_17 
REMARK    6  A    between atoms: N3_18  and  C12_20 
ROOT
HETATM    1  C12 UNL     1      -2.994  -0.185  11.096  1.00  0.00     0.112 C 
HETATM    2  C13 UNL     1      -1.642   0.330  10.623  1.00  0.00     0.055 C 
HETATM    3  C14 UNL     1      -4.002  -0.067   9.970  1.00  0.00     0.055 C 
HETATM    4  C15 UNL     1      -2.904  -1.593  11.488  1.00  0.00     0.090 C 
HETATM    5  N4  UNL     1      -2.826  -2.715  11.780  1.00  0.00    -0.195 NA
ENDROOT
BRANCH   1   6
HETATM    6  N3  UNL     1      -3.371   0.620  12.241  1.00  0.00    -0.377 N 
HETATM    7  C11 UNL     1      -4.415   0.387  12.939  1.00  0.00     0.104 C 
ATOM      8  H3  UNL     1      -2.776   1.408  12.501  1.00  0.00     0.160 HD
BRANCH   7   9
HETATM    9  C10 UNL     1      -4.716   1.245  14.068  1.00  0.00     0.083 A 
HETATM   10  C9  UNL     1      -4.753   2.638  13.877  1.00  0.00     0.110 A 
HETATM   11  C3  UNL     1      -5.035   3.466  14.933  1.00  0.00     0.078 A 
HETATM   12  C2  UNL     1      -5.284   2.906  16.191  1.00  0.00     0.125 A 
HETATM   13  N1  UNL     1      -5.246   1.575  16.365  1.00  0.00    -0.326 N 
HETATM   14  C1  UNL     1      -5.505   0.990  17.672  1.00  0.00     0.159 C 
HETATM   15  C16 UNL     1      -4.970   0.770  15.327  1.00  0.00     0.261 A 
HETATM   16  O3  UNL     1      -4.948  -0.483  15.548  1.00  0.00    -0.267 OA
BRANCH  10  17
HETATM   17  O2  UNL     1      -4.498   3.150  12.612  1.00  0.00    -0.357 OA
ATOM     18  H2  UNL     1      -4.760   2.678  11.830  1.00  0.00     0.217 HD
ENDBRANCH  10  17
BRANCH  11  19
HETATM   19  N2  UNL     1      -5.080   4.892  14.774  1.00  0.00    -0.384 N 
ATOM     20  H2  UNL     1      -5.966   5.339  14.539  1.00  0.00     0.159 HD
BRANCH  19  21
HETATM   21  C4  UNL     1      -3.903   5.710  14.939  1.00  0.00     0.151 C 
BRANCH  21  22
HETATM   22  C5  UNL     1      -3.568   6.361  13.625  1.00  0.00     0.139 C 
HETATM   23  C6  UNL     1      -2.589   7.491  13.797  1.00  0.00     0.035 C 
HETATM   24  C7  UNL     1      -1.278   6.920  13.339  1.00  0.00     0.029 C 
HETATM   25  C8  UNL     1      -1.597   5.443  13.111  1.00  0.00     0.168 C 
HETATM   26  O1  UNL     1      -2.955   5.409  12.819  1.00  0.00    -0.384 OA
ENDBRANCH  21  22
ENDBRANCH  19  21
ENDBRANCH  11  19
ENDBRANCH   7   9
ENDBRANCH   1   6
TORSDOF 6
ENDMDL
MODEL 4
REMARK VINA RESULT: -7.222679614      3.114      6.477
REMARK  6 active torsions:
REMARK  status: ('A' for Active; 'I' for Inactive)
REMARK    1  A    between atoms: C3_4  and  N2_5 
REMARK    2  A    between atoms: N2_5  and  C4_7 
REMARK    3  A    between atoms: C4_7  and  C5_8 
REMARK    4  A    between atoms: C9_13  and  O2_14 
REMARK    5  A    between atoms: C10_16  and  C11_17 
REMARK    6  A    between atoms: N3_18  and  C12_20 
ROOT
HETATM    1  C12 UNL     1      -3.691  -0.179  11.804  1.00  0.00     0.112 C 
HETATM    2  C13 UNL     1      -3.057  -1.493  11.369  1.00  0.00     0.055 C 
HETATM    3  C14 UNL     1      -4.860   0.142  10.894  1.00  0.00     0.055 C 
HETATM    4  C15 UNL     1      -4.190  -0.274  13.177  1.00  0.00     0.090 C 
HETATM    5  N4  UNL     1      -4.597  -0.365  14.262  1.00  0.00    -0.195 NA
ENDROOT
BRANCH   1   6
HETATM    6  N3  UNL     1      -2.655   0.831  11.726  1.00  0.00    -0.377 N 
HETATM    7  C11 UNL     1      -2.888   2.038  11.378  1.00  0.00     0.104 C 
ATOM      8  H3  UNL     1      -1.697   0.567  11.959  1.00  0.00     0.160 HD
BRANCH   7   9
HETATM    9  C10 UNL     1      -1.790   2.983  11.327  1.00  0.00     0.083 A 
HETATM   10  C9  UNL     1      -1.786   4.075  12.212  1.00  0.00     0.110 A 
HETATM   11  C3  UNL     1      -0.757   4.980  12.179  1.00  0.00     0.078 A 
HETATM   12  C2  UNL     1       0.281   4.797  11.258  1.00  0.00     0.125 A 
HETATM   13  N1  UNL     1       0.271   3.751  10.416  1.00  0.00    -0.326 N 
HETATM   14  C1  UNL     1       1.349   3.559   9.458  1.00  0.00     0.159 C 
HETATM   15  C16 UNL     1      -0.741   2.869  10.454  1.00  0.00     0.261 A 
HETATM   16  O3  UNL     1      -0.700   1.897   9.634  1.00  0.00    -0.267 OA
BRANCH  10  17
HETATM   17  O2  UNL     1      -2.837   4.218  13.108  1.00  0.00    -0.357 OA
ATOM     18  H2  UNL     1      -2.954   3.608  13.828  1.00  0.00     0.217 HD
ENDBRANCH  10  17
BRANCH  11  19
HETATM   19  N2  UNL     1      -0.722   6.107  13.067  1.00  0.00    -0.384 N 
ATOM     20  H2  UNL     1      -0.547   5.953  14.060  1.00  0.00     0.159 HD
BRANCH  19  21
HETATM   21  C4  UNL     1      -0.926   7.453  12.590  1.00  0.00     0.151 C 
BRANCH  21  22
HETATM   22  C5  UNL     1      -2.126   8.042  13.278  1.00  0.00     0.139 C 
HETATM   23  C6  UNL     1      -2.314   7.472  14.658  1.00  0.00     0.035 C 
HETATM   24  C7  UNL     1      -1.816   8.549  15.577  1.00  0.00     0.029 C 
HETATM   25  C8  UNL     1      -1.217   9.579  14.621  1.00  0.00     0.168 C 
HETATM   26  O1  UNL     1      -1.908   9.407  13.428  1.00  0.00    -0.384 OA
ENDBRANCH  21  22
ENDBRANCH  19  21
ENDBRANCH  11  19
ENDBRANCH   7   9
ENDBRANCH   1   6
TORSDOF 6
ENDMDL
MODEL 5
REMARK VINA RESULT: -7.061918049      1.113      1.306
REMARK  6 active torsions:
REMARK  status: ('A' for Active; 'I' for Inactive)
REMARK    1  A    between atoms: C3_4  and  N2_5 
REMARK    2  A    between atoms: N2_5  and  C4_7 
REMARK    3  A    between atoms: C4_7  and  C5_8 
REMARK    4  A    between atoms: C9_13  and  O2_14 
REMARK    5  A    between atoms: C10_16  and  C11_17 
REMARK    6  A    between atoms: N3_18  and  C12_20 
ROOT
HETATM    1  C12 UNL     1      -2.436   5.145   9.329  1.00  0.00     0.112 C 
HETATM    2  C13 UNL     1      -1.782   6.175  10.238  1.00  0.00     0.055 C 
HETATM    3  C14 UNL     1      -3.465   5.828   8.451  1.00  0.00     0.055 C 
HETATM    4  C15 UNL     1      -1.441   4.510   8.463  1.00  0.00     0.090 C 
HETATM    5  N4  UNL     1      -0.646   4.024   7.769  1.00  0.00    -0.195 NA
ENDROOT
BRANCH   1   6
HETATM    6  N3  UNL     1      -3.042   4.150  10.193  1.00  0.00    -0.377 N 
HETATM    7  C11 UNL     1      -2.372   3.215  10.750  1.00  0.00     0.104 C 
ATOM      8  H3  UNL     1      -4.047   4.199  10.364  1.00  0.00     0.160 HD
BRANCH   7   9
HETATM    9  C10 UNL     1      -3.061   2.262  11.598  1.00  0.00     0.083 A 
HETATM   10  C9  UNL     1      -3.695   2.721  12.766  1.00  0.00     0.110 A 
HETATM   11  C3  UNL     1      -4.351   1.836  13.581  1.00  0.00     0.078 A 
HETATM   12  C2  UNL     1      -4.378   0.480  13.233  1.00  0.00     0.125 A 
HETATM   13  N1  UNL     1      -3.770   0.050  12.116  1.00  0.00    -0.326 N 
HETATM   14  C1  UNL     1      -3.797  -1.358  11.752  1.00  0.00     0.159 C 
HETATM   15  C16 UNL     1      -3.130   0.924  11.322  1.00  0.00     0.261 A 
HETATM   16  O3  UNL     1      -2.571   0.461  10.276  1.00  0.00    -0.267 OA
BRANCH  10  17
HETATM   17  O2  UNL     1      -3.642   4.074  13.073  1.00  0.00    -0.357 OA
ATOM     18  H2  UNL     1      -4.172   4.440  13.771  1.00  0.00     0.217 HD
ENDBRANCH  10  17
BRANCH  11  19
HETATM   19  N2  UNL     1      -5.009   2.269  14.782  1.00  0.00    -0.384 N 
ATOM     20  H2  UNL     1      -5.904   2.754  14.712  1.00  0.00     0.159 HD
BRANCH  19  21
HETATM   21  C4  UNL     1      -4.436   2.036  16.085  1.00  0.00     0.151 C 
BRANCH  21  22
HETATM   22  C5  UNL     1      -5.476   2.310  17.136  1.00  0.00     0.139 C 
HETATM   23  C6  UNL     1      -6.863   2.343  16.553  1.00  0.00     0.035 C 
HETATM   24  C7  UNL     1      -7.462   1.022  16.941  1.00  0.00     0.029 C 
HETATM   25  C8  UNL     1      -6.287   0.272  17.567  1.00  0.00     0.168 C 
HETATM   26  O1  UNL     1      -5.444   1.265  18.053  1.00  0.00    -0.384 OA
ENDBRANCH  21  22
ENDBRANCH  19  21
ENDBRANCH  11  19
ENDBRANCH   7   9
ENDBRANCH   1   6
TORSDOF 6
ENDMDL
