MODEL 1
REMARK VINA RESULT: -7.818106620      0.000      0.000
REMARK  5 active torsions:
REMARK  status: ('A' for Active; 'I' for Inactive)
REMARK    1  A    between atoms: C2_2  and  C3_3 
REMARK    2  A    between atoms: N1_6  and  C6_7 
REMARK    3  A    between atoms: C7_10  and  N3_11 
REMARK    4  A    between atoms: C10_23  and  C11_24 
REMARK    5  A    between atoms: C11_24  and  C14_27 
ROOT
HETATM    1  C6  UNL     1      -4.476   3.175  15.001  1.00  0.00     0.709 A 
HETATM    2  N2  UNL     1      -3.963   1.931  14.912  1.00  0.00    -0.020 N 
ATOM      3  H2  UNL     1      -3.089   1.793  14.404  1.00  0.00     0.203 HD
HETATM    4  C7  UNL     1      -4.578   0.849  15.480  1.00  0.00     0.725 A 
HETATM    5  N4  UNL     1      -5.712   1.042  16.138  1.00  0.00     0.105 N 
HETATM    6  N5  UNL     1      -6.489   0.169  16.765  1.00  0.00     0.030 NA
HETATM    7  N6  UNL     1      -7.507   0.868  17.259  1.00  0.00     0.007 NA
HETATM    8  N7  UNL     1      -7.365   2.158  16.943  1.00  0.00    -0.115 N 
ATOM      9  H7  UNL     1      -8.001   2.914  17.196  1.00  0.00     0.202 HD
HETATM   10  C8  UNL     1      -6.240   2.276  16.239  1.00  0.00     0.744 A 
HETATM   11  N8  UNL     1      -5.622   3.334  15.673  1.00  0.00    -0.019 N 
ATOM     12  H8  UNL     1      -6.033   4.264  15.758  1.00  0.00     0.203 HD
ENDROOT
BRANCH   1  13
HETATM   13  N1  UNL     1      -3.766   4.221  14.362  1.00  0.00    -0.216 N 
HETATM   14  C5  UNL     1      -2.352   4.476  14.542  1.00  0.00     0.141 C 
HETATM   15  C4  UNL     1      -2.178   5.967  14.480  1.00  0.00     0.025 C 
HETATM   16  C3  UNL     1      -2.455   6.539  13.099  1.00  0.00    -0.007 C 
HETATM   17  C10 UNL     1      -3.520   5.761  12.481  1.00  0.00     0.016 C 
HETATM   18  C9  UNL     1      -4.490   5.114  13.483  1.00  0.00     0.146 C 
BRANCH  16  19
HETATM   19  C2  UNL     1      -2.541   7.997  13.269  1.00  0.00     0.000 C 
HETATM   20  C1  UNL     1      -1.841   8.343  14.592  1.00  0.00     0.005 C 
ENDBRANCH  16  19
BRANCH  17  21
HETATM   21  C11 UNL     1      -4.350   6.375  11.414  1.00  0.00    -0.043 C 
HETATM   22  C12 UNL     1      -3.558   7.327  10.543  1.00  0.00     0.015 C 
HETATM   23  C13 UNL     1      -4.675   5.204  10.447  1.00  0.00     0.015 C 
BRANCH  21  24
HETATM   24  C14 UNL     1      -5.685   6.858  11.843  1.00  0.00     0.004 C 
HETATM   25  C15 UNL     1      -6.141   8.081  11.070  1.00  0.00     0.006 C 
ENDBRANCH  21  24
ENDBRANCH  17  21
ENDBRANCH   1  13
BRANCH   4  26
HETATM   26  N3  UNL     1      -3.975  -0.279  15.324  1.00  0.00    -0.232 N 
ATOM     27  H32 UNL     1      -2.967  -0.414  15.243  1.00  0.00     0.174 HD
ATOM     28  H31 UNL     1      -4.579  -1.099  15.275  1.00  0.00     0.174 HD
ENDBRANCH   4  26
TORSDOF 5
ENDMDL
MODEL 2
REMARK VINA RESULT: -7.602684285      1.546      2.303
REMARK  5 active torsions:
REMARK  status: ('A' for Active; 'I' for Inactive)
REMARK    1  A    between atoms: C2_2  and  C3_3 
REMARK    2  A    between atoms: N1_6  and  C6_7 
REMARK    3  A    between atoms: C7_10  and  N3_11 
REMARK    4  A    between atoms: C10_23  and  C11_24 
REMARK    5  A    between atoms: C11_24  and  C14_27 
ROOT
HETATM    1  C6  UNL     1      -4.515   3.119  14.941  1.00  0.00     0.709 A 
HETATM    2  N2  UNL     1      -3.988   1.879  14.884  1.00  0.00    -0.020 N 
ATOM      3  H2  UNL     1      -3.114   1.737  14.376  1.00  0.00     0.203 HD
HETATM    4  C7  UNL     1      -4.586   0.806  15.485  1.00  0.00     0.725 A 
HETATM    5  N4  UNL     1      -5.720   1.003  16.142  1.00  0.00     0.105 N 
HETATM    6  N5  UNL     1      -6.484   0.139  16.798  1.00  0.00     0.030 NA
HETATM    7  N6  UNL     1      -7.508   0.839  17.276  1.00  0.00     0.007 NA
HETATM    8  N7  UNL     1      -7.383   2.121  16.924  1.00  0.00    -0.115 N 
ATOM      9  H7  UNL     1      -8.027   2.876  17.158  1.00  0.00     0.202 HD
HETATM   10  C8  UNL     1      -6.263   2.233  16.211  1.00  0.00     0.744 A 
HETATM   11  N8  UNL     1      -5.660   3.282  15.613  1.00  0.00    -0.019 N 
ATOM     12  H8  UNL     1      -6.082   4.209  15.674  1.00  0.00     0.203 HD
ENDROOT
BRANCH   1  13
HETATM   13  N1  UNL     1      -3.821   4.155  14.269  1.00  0.00    -0.216 N 
HETATM   14  C5  UNL     1      -3.456   5.418  14.875  1.00  0.00     0.141 C 
HETATM   15  C4  UNL     1      -3.569   6.456  13.795  1.00  0.00     0.025 C 
HETATM   16  C3  UNL     1      -2.528   6.289  12.701  1.00  0.00    -0.007 C 
HETATM   17  C10 UNL     1      -2.273   4.867  12.518  1.00  0.00     0.016 C 
HETATM   18  C9  UNL     1      -3.463   3.962  12.880  1.00  0.00     0.146 C 
BRANCH  16  19
HETATM   19  C2  UNL     1      -2.949   7.163  11.596  1.00  0.00     0.000 C 
HETATM   20  C1  UNL     1      -4.483   7.239  11.636  1.00  0.00     0.005 C 
ENDBRANCH  16  19
BRANCH  17  21
HETATM   21  C11 UNL     1      -1.743   4.379  11.219  1.00  0.00    -0.043 C 
HETATM   22  C12 UNL     1      -0.469   5.088  10.814  1.00  0.00     0.015 C 
HETATM   23  C13 UNL     1      -1.261   2.932  11.511  1.00  0.00     0.015 C 
BRANCH  21  24
HETATM   24  C14 UNL     1      -2.750   4.205  10.144  1.00  0.00     0.004 C 
HETATM   25  C15 UNL     1      -2.362   4.912   8.859  1.00  0.00     0.006 C 
ENDBRANCH  21  24
ENDBRANCH  17  21
ENDBRANCH   1  13
BRANCH   4  26
HETATM   26  N3  UNL     1      -3.970  -0.319  15.358  1.00  0.00    -0.232 N 
ATOM     27  H32 UNL     1      -3.019  -0.520  15.668  1.00  0.00     0.174 HD
ATOM     28  H31 UNL     1      -4.497  -1.061  14.897  1.00  0.00     0.174 HD
ENDBRANCH   4  26
TORSDOF 5
ENDMDL
MODEL 3
REMARK VINA RESULT: -7.482141889      0.500      1.751
REMARK  5 active torsions:
REMARK  status: ('A' for Active; 'I' for Inactive)
REMARK    1  A    between atoms: C2_2  and  C3_3 
REMARK    2  A    between atoms: N1_6  and  C6_7 
REMARK    3  A    between atoms: C7_10  and  N3_11 
REMARK    4  A    between atoms: C10_23  and  C11_24 
REMARK    5  A    between atoms: C11_24  and  C14_27 
ROOT
HETATM    1  C6  UNL     1      -4.348   3.371  14.806  1.00  0.00     0.709 A 
HETATM    2  N2  UNL     1      -5.450   3.692  15.513  1.00  0.00    -0.020 N 
ATOM      3  H2  UNL     1      -5.756   4.665  15.536  1.00  0.00     0.203 HD
HETATM    4  C7  UNL     1      -6.172   2.754  16.200  1.00  0.00     0.725 A 
HETATM    5  N4  UNL     1      -5.765   1.493  16.162  1.00  0.00     0.105 N 
HETATM    6  N5  UNL     1      -6.282   0.416  16.737  1.00  0.00     0.030 NA
HETATM    7  N6  UNL     1      -5.499  -0.600  16.390  1.00  0.00     0.007 NA
HETATM    8  N7  UNL     1      -4.508  -0.162  15.610  1.00  0.00    -0.115 N 
ATOM      9  H7  UNL     1      -3.765  -0.730  15.202  1.00  0.00     0.202 HD
HETATM   10  C8  UNL     1      -4.667   1.152  15.461  1.00  0.00     0.744 A 
HETATM   11  N8  UNL     1      -3.966   2.089  14.788  1.00  0.00    -0.019 N 
ATOM     12  H8  UNL     1      -3.136   1.817  14.261  1.00  0.00     0.203 HD
ENDROOT
BRANCH   1  13
HETATM   13  N1  UNL     1      -3.667   4.423  14.145  1.00  0.00    -0.216 N 
HETATM   14  C5  UNL     1      -2.240   4.653  14.234  1.00  0.00     0.141 C 
HETATM   15  C4  UNL     1      -2.046   6.142  14.197  1.00  0.00     0.025 C 
HETATM   16  C3  UNL     1      -2.408   6.753  12.854  1.00  0.00    -0.007 C 
HETATM   17  C10 UNL     1      -3.525   6.007  12.291  1.00  0.00     0.016 C 
HETATM   18  C9  UNL     1      -4.435   5.348  13.341  1.00  0.00     0.146 C 
BRANCH  16  19
HETATM   19  C2  UNL     1      -2.458   8.208  13.065  1.00  0.00     0.000 C 
HETATM   20  C1  UNL     1      -1.832   8.489  14.440  1.00  0.00     0.005 C 
ENDBRANCH  16  19
BRANCH  17  21
HETATM   21  C11 UNL     1      -4.417   6.661  11.300  1.00  0.00    -0.043 C 
HETATM   22  C12 UNL     1      -3.691   7.695  10.465  1.00  0.00     0.015 C 
HETATM   23  C13 UNL     1      -4.742   5.545  10.269  1.00  0.00     0.015 C 
BRANCH  21  24
HETATM   24  C14 UNL     1      -5.748   7.068  11.809  1.00  0.00     0.004 C 
HETATM   25  C15 UNL     1      -6.346   8.223  11.030  1.00  0.00     0.006 C 
ENDBRANCH  21  24
ENDBRANCH  17  21
ENDBRANCH   1  13
BRANCH   4  26
HETATM   26  N3  UNL     1      -7.207   3.198  16.827  1.00  0.00    -0.232 N 
ATOM     27  H32 UNL     1      -7.612   4.129  16.731  1.00  0.00     0.174 HD
ATOM     28  H31 UNL     1      -7.643   2.544  17.478  1.00  0.00     0.174 HD
ENDBRANCH   4  26
TORSDOF 5
ENDMDL
MODEL 4
REMARK VINA RESULT: -7.427267303      1.443      1.747
REMARK  5 active torsions:
REMARK  status: ('A' for Active; 'I' for Inactive)
REMARK    1  A    between atoms: C2_2  and  C3_3 
REMARK    2  A    between atoms: N1_6  and  C6_7 
REMARK    3  A    between atoms: C7_10  and  N3_11 
REMARK    4  A    between atoms: C10_23  and  C11_24 
REMARK    5  A    between atoms: C11_24  and  C14_27 
ROOT
HETATM    1  C6  UNL     1      -3.775   3.109  13.606  1.00  0.00     0.709 A 
HETATM    2  N2  UNL     1      -3.852   1.994  12.853  1.00  0.00    -0.020 N 
ATOM      3  H2  UNL     1      -3.616   2.050  11.862  1.00  0.00     0.203 HD
HETATM    4  C7  UNL     1      -4.237   0.789  13.374  1.00  0.00     0.725 A 
HETATM    5  N4  UNL     1      -4.542   0.728  14.663  1.00  0.00     0.105 N 
HETATM    6  N5  UNL     1      -4.938  -0.304  15.394  1.00  0.00     0.030 NA
HETATM    7  N6  UNL     1      -5.115   0.161  16.626  1.00  0.00     0.007 NA
HETATM    8  N7  UNL     1      -4.831   1.466  16.662  1.00  0.00    -0.115 N 
ATOM      9  H7  UNL     1      -4.881   2.072  17.481  1.00  0.00     0.202 HD
HETATM   10  C8  UNL     1      -4.470   1.831  15.432  1.00  0.00     0.744 A 
HETATM   11  N8  UNL     1      -4.088   3.012  14.903  1.00  0.00    -0.019 N 
ATOM     12  H8  UNL     1      -4.038   3.839  15.498  1.00  0.00     0.203 HD
ENDROOT
BRANCH   1  13
HETATM   13  N1  UNL     1      -3.381   4.307  12.961  1.00  0.00    -0.216 N 
HETATM   14  C5  UNL     1      -2.015   4.629  12.603  1.00  0.00     0.141 C 
HETATM   15  C4  UNL     1      -1.868   6.114  12.779  1.00  0.00     0.025 C 
HETATM   16  C3  UNL     1      -2.682   6.913  11.775  1.00  0.00    -0.007 C 
HETATM   17  C10 UNL     1      -3.914   6.188  11.495  1.00  0.00     0.016 C 
HETATM   18  C9  UNL     1      -4.394   5.292  12.649  1.00  0.00     0.146 C 
BRANCH  16  19
HETATM   19  C2  UNL     1      -2.678   8.302  12.256  1.00  0.00     0.000 C 
HETATM   20  C1  UNL     1      -1.954   8.312  13.612  1.00  0.00     0.005 C 
ENDBRANCH  16  19
BRANCH  17  21
HETATM   21  C11 UNL     1      -5.103   6.927  11.002  1.00  0.00    -0.043 C 
HETATM   22  C12 UNL     1      -4.729   8.206  10.283  1.00  0.00     0.015 C 
HETATM   23  C13 UNL     1      -5.673   6.039   9.863  1.00  0.00     0.015 C 
BRANCH  21  24
HETATM   24  C14 UNL     1      -6.229   7.036  11.960  1.00  0.00     0.004 C 
HETATM   25  C15 UNL     1      -7.315   7.982  11.484  1.00  0.00     0.006 C 
ENDBRANCH  21  24
ENDBRANCH  17  21
ENDBRANCH   1  13
BRANCH   4  26
HETATM   26  N3  UNL     1      -4.260  -0.196  12.543  1.00  0.00    -0.232 N 
ATOM     27  H32 UNL     1      -4.248  -0.122  11.526  1.00  0.00     0.174 HD
ATOM     28  H31 UNL     1      -4.300  -1.125  12.961  1.00  0.00     0.174 HD
ENDBRANCH   4  26
TORSDOF 5
ENDMDL
MODEL 5
REMARK VINA RESULT: -7.218424660      1.769      3.052
REMARK  5 active torsions:
REMARK  status: ('A' for Active; 'I' for Inactive)
REMARK    1  A    between atoms: C2_2  and  C3_3 
REMARK    2  A    between atoms: N1_6  and  C6_7 
REMARK    3  A    between atoms: C7_10  and  N3_11 
REMARK    4  A    between atoms: C10_23  and  C11_24 
REMARK    5  A    between atoms: C11_24  and  C14_27 
ROOT
HETATM    1  C6  UNL     1      -4.281   3.237  14.754  1.00  0.00     0.709 A 
HETATM    2  N2  UNL     1      -5.372   3.596  15.461  1.00  0.00    -0.020 N 
ATOM      3  H2  UNL     1      -5.655   4.576  15.469  1.00  0.00     0.203 HD
HETATM    4  C7  UNL     1      -6.111   2.688  16.169  1.00  0.00     0.725 A 
HETATM    5  N4  UNL     1      -5.733   1.418  16.152  1.00  0.00     0.105 N 
HETATM    6  N5  UNL     1      -6.272   0.363  16.749  1.00  0.00     0.030 NA
HETATM    7  N6  UNL     1      -5.515  -0.677  16.417  1.00  0.00     0.007 NA
HETATM    8  N7  UNL     1      -4.518  -0.276  15.623  1.00  0.00    -0.115 N 
ATOM      9  H7  UNL     1      -3.791  -0.868  15.222  1.00  0.00     0.202 HD
HETATM   10  C8  UNL     1      -4.648   1.039  15.452  1.00  0.00     0.744 A 
HETATM   11  N8  UNL     1      -3.929   1.946  14.758  1.00  0.00    -0.019 N 
ATOM     12  H8  UNL     1      -3.109   1.645  14.231  1.00  0.00     0.203 HD
ENDROOT
BRANCH   1  13
HETATM   13  N1  UNL     1      -3.580   4.261  14.071  1.00  0.00    -0.216 N 
HETATM   14  C5  UNL     1      -3.302   5.569  14.626  1.00  0.00     0.141 C 
HETATM   15  C4  UNL     1      -3.378   6.541  13.483  1.00  0.00     0.025 C 
HETATM   16  C3  UNL     1      -2.259   6.354  12.471  1.00  0.00    -0.007 C 
HETATM   17  C10 UNL     1      -1.943   4.935  12.387  1.00  0.00     0.016 C 
HETATM   18  C9  UNL     1      -3.122   4.006  12.722  1.00  0.00     0.146 C 
BRANCH  16  19
HETATM   19  C2  UNL     1      -2.635   7.149  11.292  1.00  0.00     0.000 C 
HETATM   20  C1  UNL     1      -4.140   7.442  11.403  1.00  0.00     0.005 C 
ENDBRANCH  16  19
BRANCH  17  21
HETATM   21  C11 UNL     1      -1.310   4.397  11.156  1.00  0.00    -0.043 C 
HETATM   22  C12 UNL     1       0.048   5.012  10.892  1.00  0.00     0.015 C 
HETATM   23  C13 UNL     1      -0.965   2.924  11.504  1.00  0.00     0.015 C 
BRANCH  21  24
HETATM   24  C14 UNL     1      -2.202   4.281   9.978  1.00  0.00     0.004 C 
HETATM   25  C15 UNL     1      -1.531   4.718   8.690  1.00  0.00     0.006 C 
ENDBRANCH  21  24
ENDBRANCH  17  21
ENDBRANCH   1  13
BRANCH   4  26
HETATM   26  N3  UNL     1      -7.132   3.167  16.794  1.00  0.00    -0.232 N 
ATOM     27  H32 UNL     1      -8.105   3.092  16.496  1.00  0.00     0.174 HD
ATOM     28  H31 UNL     1      -6.925   3.668  17.658  1.00  0.00     0.174 HD
ENDBRANCH   4  26
TORSDOF 5
ENDMDL
