MODEL 1
REMARK VINA RESULT: -7.031082824      0.000      0.000
REMARK  5 active torsions:
REMARK  status: ('A' for Active; 'I' for Inactive)
REMARK    1  A    between atoms: O1_2  and  C2_3 
REMARK    2  A    between atoms: C2_3  and  C3_5 
REMARK    3  A    between atoms: C3_5  and  C5_7 
REMARK    4  A    between atoms: C5_7  and  O3_8 
REMARK    5  A    between atoms: O3_8  and  C6_9 
ROOT
HETATM    1  C6  UNL     1      -4.704   1.712  12.873  1.00  0.00     0.179 A 
HETATM    2  N1  UNL     1      -4.748   0.447  13.224  1.00  0.00    -0.256 N 
ATOM      3  H1  UNL     1      -5.267   0.115  14.037  1.00  0.00     0.191 HD
HETATM    4  N2  UNL     1      -4.047  -0.372  12.417  1.00  0.00    -0.184 N 
HETATM    5  N3  UNL     1      -3.803  -1.645  12.361  1.00  0.00    -0.258 N 
ATOM      6  H3  UNL     1      -4.190  -2.281  13.057  1.00  0.00     0.191 HD
HETATM    7  C7  UNL     1      -3.036  -2.101  11.375  1.00  0.00     0.160 A 
HETATM    8  N4  UNL     1      -2.677  -3.350  11.150  1.00  0.00    -0.378 N 
ATOM      9  H41 UNL     1      -2.088  -3.699  10.393  1.00  0.00     0.158 HD
ATOM     10  H42 UNL     1      -2.903  -4.200  11.665  1.00  0.00     0.158 HD
HETATM   11  S1  UNL     1      -2.658  -0.678  10.512  1.00  0.00    -0.030 SA
HETATM   12  C8  UNL     1      -3.527   0.422  11.494  1.00  0.00     0.140 A 
HETATM   13  C9  UNL     1      -3.894   1.736  11.715  1.00  0.00     0.100 A 
HETATM   14 BR1  UNL     1      -3.456   3.273  10.741  1.00  0.00    -0.043 Br
ENDROOT
BRANCH   1  15
HETATM   15  O3  UNL     1      -5.287   2.793  13.446  1.00  0.00    -0.333 OA
BRANCH  15  16
HETATM   16  C5  UNL     1      -5.582   3.217  14.678  1.00  0.00     0.191 C 
BRANCH  16  17
HETATM   17  C3  UNL     1      -4.569   3.330  15.750  1.00  0.00     0.106 C 
HETATM   18  C4  UNL     1      -3.202   3.744  15.356  1.00  0.00     0.022 C 
BRANCH  17  19
HETATM   19  C2  UNL     1      -4.455   2.005  16.457  1.00  0.00     0.264 C 
HETATM   20  O2  UNL     1      -3.553   1.221  16.118  1.00  0.00    -0.265 OA
BRANCH  19  21
HETATM   21  O1  UNL     1      -5.351   1.693  17.458  1.00  0.00    -0.326 OA
HETATM   22  C1  UNL     1      -6.105   0.519  17.433  1.00  0.00     0.213 C 
ENDBRANCH  19  21
ENDBRANCH  17  19
ENDBRANCH  16  17
ENDBRANCH  15  16
ENDBRANCH   1  15
TORSDOF 5
ENDMDL
MODEL 2
REMARK VINA RESULT: -6.769201346      0.761      1.038
REMARK  5 active torsions:
REMARK  status: ('A' for Active; 'I' for Inactive)
REMARK    1  A    between atoms: O1_2  and  C2_3 
REMARK    2  A    between atoms: C2_3  and  C3_5 
REMARK    3  A    between atoms: C3_5  and  C5_7 
REMARK    4  A    between atoms: C5_7  and  O3_8 
REMARK    5  A    between atoms: O3_8  and  C6_9 
ROOT
HETATM    1  C6  UNL     1      -4.468   1.977  12.759  1.00  0.00     0.179 A 
HETATM    2  N1  UNL     1      -4.742   0.718  13.013  1.00  0.00    -0.256 N 
ATOM      3  H1  UNL     1      -5.461   0.429  13.677  1.00  0.00     0.191 HD
HETATM    4  N2  UNL     1      -3.990  -0.159  12.321  1.00  0.00    -0.184 N 
HETATM    5  N3  UNL     1      -3.898  -1.450  12.238  1.00  0.00    -0.258 N 
ATOM      6  H3  UNL     1      -4.502  -2.053  12.796  1.00  0.00     0.191 HD
HETATM    7  C7  UNL     1      -2.999  -1.970  11.407  1.00  0.00     0.160 A 
HETATM    8  N4  UNL     1      -2.756  -3.247  11.185  1.00  0.00    -0.378 N 
ATOM      9  H41 UNL     1      -2.066  -3.645  10.547  1.00  0.00     0.158 HD
ATOM     10  H42 UNL     1      -3.191  -4.077  11.587  1.00  0.00     0.158 HD
HETATM   11  S1  UNL     1      -2.271  -0.581  10.734  1.00  0.00    -0.030 SA
HETATM   12  C8  UNL     1      -3.190   0.590  11.580  1.00  0.00     0.140 A 
HETATM   13  C9  UNL     1      -3.431   1.933  11.801  1.00  0.00     0.100 A 
HETATM   14 BR1  UNL     1      -2.607   3.430  11.039  1.00  0.00    -0.043 Br
ENDROOT
BRANCH   1  15
HETATM   15  O3  UNL     1      -5.023   3.105  13.265  1.00  0.00    -0.333 OA
BRANCH  15  16
HETATM   16  C5  UNL     1      -5.187   3.673  14.463  1.00  0.00     0.191 C 
BRANCH  16  17
HETATM   17  C3  UNL     1      -5.896   3.003  15.576  1.00  0.00     0.106 C 
HETATM   18  C4  UNL     1      -6.699   3.853  16.485  1.00  0.00     0.022 C 
BRANCH  17  19
HETATM   19  C2  UNL     1      -4.892   2.260  16.418  1.00  0.00     0.264 C 
HETATM   20  O2  UNL     1      -3.692   2.308  16.100  1.00  0.00    -0.265 OA
BRANCH  19  21
HETATM   21  O1  UNL     1      -5.325   1.547  17.516  1.00  0.00    -0.326 OA
HETATM   22  C1  UNL     1      -6.086   0.384  17.387  1.00  0.00     0.213 C 
ENDBRANCH  19  21
ENDBRANCH  17  19
ENDBRANCH  16  17
ENDBRANCH  15  16
ENDBRANCH   1  15
TORSDOF 5
ENDMDL
MODEL 3
REMARK VINA RESULT: -6.448835433      3.286      4.204
REMARK  5 active torsions:
REMARK  status: ('A' for Active; 'I' for Inactive)
REMARK    1  A    between atoms: O1_2  and  C2_3 
REMARK    2  A    between atoms: C2_3  and  C3_5 
REMARK    3  A    between atoms: C3_5  and  C5_7 
REMARK    4  A    between atoms: C5_7  and  O3_8 
REMARK    5  A    between atoms: O3_8  and  C6_9 
ROOT
HETATM    1  C6  UNL     1      -4.257   3.214  13.629  1.00  0.00     0.179 A 
HETATM    2  N1  UNL     1      -3.256   3.942  14.069  1.00  0.00    -0.256 N 
ATOM      3  H1  UNL     1      -3.235   4.348  15.004  1.00  0.00     0.191 HD
HETATM    4  N2  UNL     1      -2.261   4.104  13.176  1.00  0.00    -0.184 N 
HETATM    5  N3  UNL     1      -1.117   4.715  13.153  1.00  0.00    -0.258 N 
ATOM      6  H3  UNL     1      -0.787   5.237  13.964  1.00  0.00     0.191 HD
HETATM    7  C7  UNL     1      -0.383   4.645  12.046  1.00  0.00     0.160 A 
HETATM    8  N4  UNL     1       0.797   5.193  11.830  1.00  0.00    -0.378 N 
ATOM      9  H41 UNL     1       1.360   5.139  10.981  1.00  0.00     0.158 HD
ATOM     10  H42 UNL     1       1.377   5.766  12.443  1.00  0.00     0.158 HD
HETATM   11  S1  UNL     1      -1.351   3.686  11.020  1.00  0.00    -0.030 SA
HETATM   12  C8  UNL     1      -2.654   3.437  12.103  1.00  0.00     0.140 A 
HETATM   13  C9  UNL     1      -3.890   2.856  12.312  1.00  0.00     0.100 A 
HETATM   14 BR1  UNL     1      -4.923   1.808  11.156  1.00  0.00    -0.043 Br
ENDROOT
BRANCH   1  15
HETATM   15  O3  UNL     1      -5.405   2.850  14.251  1.00  0.00    -0.333 OA
BRANCH  15  16
HETATM   16  C5  UNL     1      -5.889   2.829  15.496  1.00  0.00     0.191 C 
BRANCH  16  17
HETATM   17  C3  UNL     1      -5.922   1.602  16.321  1.00  0.00     0.106 C 
HETATM   18  C4  UNL     1      -6.004   1.769  17.791  1.00  0.00     0.022 C 
BRANCH  17  19
HETATM   19  C2  UNL     1      -4.693   0.782  16.026  1.00  0.00     0.264 C 
HETATM   20  O2  UNL     1      -3.602   1.149  16.492  1.00  0.00    -0.265 OA
BRANCH  19  21
HETATM   21  O1  UNL     1      -4.807  -0.351  15.249  1.00  0.00    -0.326 OA
HETATM   22  C1  UNL     1      -4.222  -0.440  13.984  1.00  0.00     0.213 C 
ENDBRANCH  19  21
ENDBRANCH  17  19
ENDBRANCH  16  17
ENDBRANCH  15  16
ENDBRANCH   1  15
TORSDOF 5
ENDMDL
MODEL 4
REMARK VINA RESULT: -6.410422349      1.104      1.417
REMARK  5 active torsions:
REMARK  status: ('A' for Active; 'I' for Inactive)
REMARK    1  A    between atoms: O1_2  and  C2_3 
REMARK    2  A    between atoms: C2_3  and  C3_5 
REMARK    3  A    between atoms: C3_5  and  C5_7 
REMARK    4  A    between atoms: C5_7  and  O3_8 
REMARK    5  A    between atoms: O3_8  and  C6_9 
ROOT
HETATM    1  C6  UNL     1      -4.322   1.785  12.225  1.00  0.00     0.179 A 
HETATM    2  N1  UNL     1      -4.815   0.581  12.407  1.00  0.00    -0.256 N 
ATOM      3  H1  UNL     1      -5.720   0.414  12.848  1.00  0.00     0.191 HD
HETATM    4  N2  UNL     1      -4.021  -0.411  11.961  1.00  0.00    -0.184 N 
HETATM    5  N3  UNL     1      -4.078  -1.707  11.922  1.00  0.00    -0.258 N 
ATOM      6  H3  UNL     1      -4.884  -2.205  12.298  1.00  0.00     0.191 HD
HETATM    7  C7  UNL     1      -3.061  -2.370  11.381  1.00  0.00     0.160 A 
HETATM    8  N4  UNL     1      -2.933  -3.676  11.250  1.00  0.00    -0.378 N 
ATOM      9  H41 UNL     1      -2.152  -4.185  10.834  1.00  0.00     0.158 HD
ATOM     10  H42 UNL     1      -3.565  -4.428  11.524  1.00  0.00     0.158 HD
HETATM   11  S1  UNL     1      -2.003  -1.113  10.921  1.00  0.00    -0.030 SA
HETATM   12  C8  UNL     1      -2.959   0.200  11.464  1.00  0.00     0.140 A 
HETATM   13  C9  UNL     1      -3.075   1.570  11.594  1.00  0.00     0.100 A 
HETATM   14 BR1  UNL     1      -1.888   2.920  11.073  1.00  0.00    -0.043 Br
ENDROOT
BRANCH   1  15
HETATM   15  O3  UNL     1      -4.843   2.994  12.543  1.00  0.00    -0.333 OA
BRANCH  15  16
HETATM   16  C5  UNL     1      -5.009   3.740  13.638  1.00  0.00     0.191 C 
BRANCH  16  17
HETATM   17  C3  UNL     1      -5.237   3.155  14.978  1.00  0.00     0.106 C 
HETATM   18  C4  UNL     1      -6.003   3.962  15.955  1.00  0.00     0.022 C 
BRANCH  17  19
HETATM   19  C2  UNL     1      -3.904   2.832  15.602  1.00  0.00     0.264 C 
HETATM   20  O2  UNL     1      -2.981   3.659  15.505  1.00  0.00    -0.265 OA
BRANCH  19  21
HETATM   21  O1  UNL     1      -3.739   1.634  16.264  1.00  0.00    -0.326 OA
HETATM   22  C1  UNL     1      -4.445   0.486  15.897  1.00  0.00     0.213 C 
ENDBRANCH  19  21
ENDBRANCH  17  19
ENDBRANCH  16  17
ENDBRANCH  15  16
ENDBRANCH   1  15
TORSDOF 5
ENDMDL
MODEL 5
REMARK VINA RESULT: -6.399634447      3.473      5.370
REMARK  5 active torsions:
REMARK  status: ('A' for Active; 'I' for Inactive)
REMARK    1  A    between atoms: O1_2  and  C2_3 
REMARK    2  A    between atoms: C2_3  and  C3_5 
REMARK    3  A    between atoms: C3_5  and  C5_7 
REMARK    4  A    between atoms: C5_7  and  O3_8 
REMARK    5  A    between atoms: O3_8  and  C6_9 
ROOT
HETATM    1  C6  UNL     1      -4.086   2.709  13.124  1.00  0.00     0.179 A 
HETATM    2  N1  UNL     1      -4.041   1.501  13.637  1.00  0.00    -0.256 N 
ATOM      3  H1  UNL     1      -3.563   0.722  13.181  1.00  0.00     0.191 HD
HETATM    4  N2  UNL     1      -4.680   1.379  14.815  1.00  0.00    -0.184 N 
HETATM    5  N3  UNL     1      -4.899   0.424  15.666  1.00  0.00    -0.258 N 
ATOM      6  H3  UNL     1      -4.542  -0.516  15.498  1.00  0.00     0.191 HD
HETATM    7  C7  UNL     1      -5.600   0.699  16.762  1.00  0.00     0.160 A 
HETATM    8  N4  UNL     1      -5.925  -0.129  17.735  1.00  0.00    -0.378 N 
ATOM      9  H41 UNL     1      -6.463   0.082  18.576  1.00  0.00     0.158 HD
ATOM     10  H42 UNL     1      -5.714  -1.120  17.851  1.00  0.00     0.158 HD
HETATM   11  S1  UNL     1      -5.954   2.357  16.568  1.00  0.00    -0.030 SA
HETATM   12  C8  UNL     1      -5.161   2.586  15.068  1.00  0.00     0.140 A 
HETATM   13  C9  UNL     1      -4.830   3.467  14.056  1.00  0.00     0.100 A 
HETATM   14 BR1  UNL     1      -5.238   5.285  13.882  1.00  0.00    -0.043 Br
ENDROOT
BRANCH   1  15
HETATM   15  O3  UNL     1      -3.556   3.183  11.971  1.00  0.00    -0.333 OA
BRANCH  15  16
HETATM   16  C5  UNL     1      -2.407   3.731  11.565  1.00  0.00     0.191 C 
BRANCH  16  17
HETATM   17  C3  UNL     1      -1.113   3.017  11.631  1.00  0.00     0.106 C 
HETATM   18  C4  UNL     1       0.085   3.727  11.125  1.00  0.00     0.022 C 
BRANCH  17  19
HETATM   19  C2  UNL     1      -1.229   1.723  10.869  1.00  0.00     0.264 C 
HETATM   20  O2  UNL     1      -0.840   1.686   9.690  1.00  0.00    -0.265 OA
BRANCH  19  21
HETATM   21  O1  UNL     1      -1.763   0.616  11.494  1.00  0.00    -0.326 OA
HETATM   22  C1  UNL     1      -2.649  -0.244  10.842  1.00  0.00     0.213 C 
ENDBRANCH  19  21
ENDBRANCH  17  19
ENDBRANCH  16  17
ENDBRANCH  15  16
ENDBRANCH   1  15
TORSDOF 5
ENDMDL
