MODEL 1
REMARK VINA RESULT: -7.067110629      0.000      0.000
REMARK  9 active torsions:
REMARK  status: ('A' for Active; 'I' for Inactive)
REMARK    1  A    between atoms: C2_2  and  O1_4 
REMARK    2  A    between atoms: O1_4  and  C4_5 
REMARK    3  A    between atoms: C5_6  and  O2_7 
REMARK    4  A    between atoms: O2_7  and  C6_8 
REMARK    5  A    between atoms: C6_8  and  C7_9 
REMARK    6  A    between atoms: C7_9  and  O3_11 
REMARK    7  A    between atoms: C7_9  and  C9_13 
REMARK    8  A    between atoms: C13_22  and  N3_23 
REMARK    9  A    between atoms: C17_27  and  N4_28 
ROOT
HETATM    1  C4  UNL     1      -3.538   3.363  12.498  1.00  0.00     0.164 A 
HETATM    2  C5  UNL     1      -4.662   3.439  13.329  1.00  0.00     0.181 A 
HETATM    3  N1  UNL     1      -5.243   4.609  13.579  1.00  0.00    -0.331 N 
ATOM      4  H1  UNL     1      -6.062   4.653  14.186  1.00  0.00     0.168 HD
HETATM    5  C12 UNL     1      -4.749   5.734  13.031  1.00  0.00     0.184 A 
HETATM    6  N2  UNL     1      -3.671   5.685  12.231  1.00  0.00    -0.336 N 
ATOM      7  H2  UNL     1      -3.313   6.550  11.825  1.00  0.00     0.168 HD
HETATM    8  C13 UNL     1      -3.038   4.496  11.944  1.00  0.00     0.142 A 
ENDROOT
BRANCH   2   9
HETATM    9  O2  UNL     1      -5.222   2.313  13.928  1.00  0.00    -0.330 OA
BRANCH   9  10
HETATM   10  C6  UNL     1      -5.890   2.384  15.170  1.00  0.00     0.218 C 
BRANCH  10  11
HETATM   11  C7  UNL     1      -5.410   1.263  16.052  1.00  0.00     0.111 C 
HETATM   12  C8  UNL     1      -4.040   1.629  16.576  1.00  0.00     0.051 C 
BRANCH  11  13
HETATM   13  O3  UNL     1      -5.310   0.100  15.300  1.00  0.00    -0.385 OA
ATOM     14  H3  UNL     1      -4.416  -0.220  15.335  1.00  0.00     0.210 HD
ENDBRANCH  11  13
BRANCH  11  15
HETATM   15  C9  UNL     1      -6.353   1.033  17.225  1.00  0.00     0.128 C 
HETATM   16  C10 UNL     1      -7.782   1.194  16.801  1.00  0.00     0.054 C 
HETATM   17  C11 UNL     1      -6.030   1.957  18.361  1.00  0.00     0.054 C 
HETATM   18  F1  UNL     1      -6.136  -0.264  17.659  1.00  0.00    -0.240 F 
ENDBRANCH  11  15
ENDBRANCH  10  11
ENDBRANCH   9  10
ENDBRANCH   2   9
BRANCH   1  19
HETATM   19  O1  UNL     1      -2.996   2.136  12.292  1.00  0.00    -0.339 OA
BRANCH  19  20
HETATM   20  C2  UNL     1      -3.154   1.205  11.290  1.00  0.00     0.121 C 
HETATM   21  C1  UNL     1      -3.859  -0.012  11.934  1.00  0.00     0.040 C 
HETATM   22  C3  UNL     1      -1.820   0.694  10.841  1.00  0.00     0.040 C 
ENDBRANCH  19  20
ENDBRANCH   1  19
BRANCH   8  23
HETATM   23  N3  UNL     1      -1.931   4.538  11.067  1.00  0.00    -0.363 N 
HETATM   24  C14 UNL     1      -0.597   4.821  11.573  1.00  0.00     0.124 C 
HETATM   25  C15 UNL     1       0.384   3.750  11.124  1.00  0.00     0.022 C 
HETATM   26  C16 UNL     1       0.255   3.459   9.656  1.00  0.00     0.036 C 
HETATM   27  C17 UNL     1      -0.660   4.498   9.047  1.00  0.00     0.201 C 
HETATM   28  C18 UNL     1      -2.034   4.295   9.645  1.00  0.00     0.157 C 
BRANCH  27  29
HETATM   29  N4  UNL     1      -0.709   4.375   7.598  1.00  0.00    -0.073 N 
ATOM     30  H43 UNL     1      -0.268   3.512   7.280  1.00  0.00     0.274 HD
ATOM     31  H42 UNL     1      -1.657   4.197   7.268  1.00  0.00     0.274 HD
ATOM     32  H41 UNL     1      -0.302   5.193   7.143  1.00  0.00     0.274 HD
ENDBRANCH  27  29
ENDBRANCH   8  23
TORSDOF 9
ENDMDL
MODEL 2
REMARK VINA RESULT: -7.028921605      0.917      1.420
REMARK  9 active torsions:
REMARK  status: ('A' for Active; 'I' for Inactive)
REMARK    1  A    between atoms: C2_2  and  O1_4 
REMARK    2  A    between atoms: O1_4  and  C4_5 
REMARK    3  A    between atoms: C5_6  and  O2_7 
REMARK    4  A    between atoms: O2_7  and  C6_8 
REMARK    5  A    between atoms: C6_8  and  C7_9 
REMARK    6  A    between atoms: C7_9  and  O3_11 
REMARK    7  A    between atoms: C7_9  and  C9_13 
REMARK    8  A    between atoms: C13_22  and  N3_23 
REMARK    9  A    between atoms: C17_27  and  N4_28 
ROOT
HETATM    1  C4  UNL     1      -3.562   3.448  12.680  1.00  0.00     0.164 A 
HETATM    2  C5  UNL     1      -4.750   3.603  13.405  1.00  0.00     0.181 A 
HETATM    3  N1  UNL     1      -5.260   4.812  13.620  1.00  0.00    -0.331 N 
ATOM      4  H1  UNL     1      -6.126   4.915  14.149  1.00  0.00     0.168 HD
HETATM    5  C12 UNL     1      -4.632   5.901  13.139  1.00  0.00     0.184 A 
HETATM    6  N2  UNL     1      -3.492   5.777  12.441  1.00  0.00    -0.336 N 
ATOM      7  H2  UNL     1      -3.032   6.615  12.085  1.00  0.00     0.168 HD
HETATM    8  C13 UNL     1      -2.927   4.544  12.193  1.00  0.00     0.142 A 
ENDROOT
BRANCH   2   9
HETATM    9  O2  UNL     1      -5.448   2.519  13.930  1.00  0.00    -0.330 OA
BRANCH   9  10
HETATM   10  C6  UNL     1      -5.996   2.544  15.231  1.00  0.00     0.218 C 
BRANCH  10  11
HETATM   11  C7  UNL     1      -5.454   1.382  16.017  1.00  0.00     0.111 C 
HETATM   12  C8  UNL     1      -4.074   1.749  16.511  1.00  0.00     0.051 C 
BRANCH  11  13
HETATM   13  O3  UNL     1      -5.357   0.273  15.186  1.00  0.00    -0.385 OA
ATOM     14  H3  UNL     1      -6.229  -0.006  14.933  1.00  0.00     0.210 HD
ENDBRANCH  11  13
BRANCH  11  15
HETATM   15  C9  UNL     1      -6.343   1.050  17.207  1.00  0.00     0.128 C 
HETATM   16  C10 UNL     1      -7.793   1.137  16.833  1.00  0.00     0.054 C 
HETATM   17  C11 UNL     1      -6.041   1.950  18.369  1.00  0.00     0.054 C 
HETATM   18  F1  UNL     1      -6.034  -0.246  17.584  1.00  0.00    -0.240 F 
ENDBRANCH  11  15
ENDBRANCH  10  11
ENDBRANCH   9  10
ENDBRANCH   2   9
BRANCH   1  19
HETATM   19  O1  UNL     1      -3.099   2.185  12.503  1.00  0.00    -0.339 OA
BRANCH  19  20
HETATM   20  C2  UNL     1      -3.184   1.301  11.451  1.00  0.00     0.121 C 
HETATM   21  C1  UNL     1      -3.844   0.019  12.010  1.00  0.00     0.040 C 
HETATM   22  C3  UNL     1      -1.814   0.879  11.016  1.00  0.00     0.040 C 
ENDBRANCH  19  20
ENDBRANCH   1  19
BRANCH   8  23
HETATM   23  N3  UNL     1      -1.743   4.508  11.422  1.00  0.00    -0.363 N 
HETATM   24  C14 UNL     1      -1.808   4.509   9.969  1.00  0.00     0.124 C 
HETATM   25  C15 UNL     1      -0.935   5.614   9.396  1.00  0.00     0.022 C 
HETATM   26  C16 UNL     1       0.430   5.625  10.022  1.00  0.00     0.036 C 
HETATM   27  C17 UNL     1       0.573   4.377  10.865  1.00  0.00     0.201 C 
HETATM   28  C18 UNL     1      -0.418   4.483  12.001  1.00  0.00     0.157 C 
BRANCH  27  29
HETATM   29  N4  UNL     1       1.928   4.238  11.378  1.00  0.00    -0.073 N 
ATOM     30  H43 UNL     1       2.619   4.293  10.630  1.00  0.00     0.274 HD
ATOM     31  H42 UNL     1       2.212   5.059  11.913  1.00  0.00     0.274 HD
ATOM     32  H41 UNL     1       2.032   3.382  11.923  1.00  0.00     0.274 HD
ENDBRANCH  27  29
ENDBRANCH   8  23
TORSDOF 9
ENDMDL
MODEL 3
REMARK VINA RESULT: -6.928273972      1.000      1.060
REMARK  9 active torsions:
REMARK  status: ('A' for Active; 'I' for Inactive)
REMARK    1  A    between atoms: C2_2  and  O1_4 
REMARK    2  A    between atoms: O1_4  and  C4_5 
REMARK    3  A    between atoms: C5_6  and  O2_7 
REMARK    4  A    between atoms: O2_7  and  C6_8 
REMARK    5  A    between atoms: C6_8  and  C7_9 
REMARK    6  A    between atoms: C7_9  and  O3_11 
REMARK    7  A    between atoms: C7_9  and  C9_13 
REMARK    8  A    between atoms: C13_22  and  N3_23 
REMARK    9  A    between atoms: C17_27  and  N4_28 
ROOT
HETATM    1  C4  UNL     1      -2.869   3.676  12.615  1.00  0.00     0.164 A 
HETATM    2  C5  UNL     1      -3.637   3.816  13.777  1.00  0.00     0.181 A 
HETATM    3  N1  UNL     1      -4.051   5.015  14.176  1.00  0.00    -0.331 N 
ATOM      4  H1  UNL     1      -4.611   5.106  15.024  1.00  0.00     0.168 HD
HETATM    5  C12 UNL     1      -3.731   6.108  13.459  1.00  0.00     0.184 A 
HETATM    6  N2  UNL     1      -2.995   5.998  12.341  1.00  0.00    -0.336 N 
ATOM      7  H2  UNL     1      -2.764   6.839  11.813  1.00  0.00     0.168 HD
HETATM    8  C13 UNL     1      -2.545   4.776  11.891  1.00  0.00     0.142 A 
ENDROOT
BRANCH   2   9
HETATM    9  O2  UNL     1      -4.002   2.726  14.564  1.00  0.00    -0.330 OA
BRANCH   9  10
HETATM   10  C6  UNL     1      -5.353   2.361  14.752  1.00  0.00     0.218 C 
BRANCH  10  11
HETATM   11  C7  UNL     1      -5.464   1.496  15.978  1.00  0.00     0.111 C 
HETATM   12  C8  UNL     1      -4.161   1.588  16.739  1.00  0.00     0.051 C 
BRANCH  11  13
HETATM   13  O3  UNL     1      -5.669   0.178  15.590  1.00  0.00    -0.385 OA
ATOM     14  H3  UNL     1      -6.075   0.164  14.732  1.00  0.00     0.210 HD
ENDBRANCH  11  13
BRANCH  11  15
HETATM   15  C9  UNL     1      -6.606   1.946  16.878  1.00  0.00     0.128 C 
HETATM   16  C10 UNL     1      -7.002   3.360  16.571  1.00  0.00     0.054 C 
HETATM   17  C11 UNL     1      -6.237   1.802  18.324  1.00  0.00     0.054 C 
HETATM   18  F1  UNL     1      -7.669   1.097  16.624  1.00  0.00    -0.240 F 
ENDBRANCH  11  15
ENDBRANCH  10  11
ENDBRANCH   9  10
ENDBRANCH   2   9
BRANCH   1  19
HETATM   19  O1  UNL     1      -2.479   2.422  12.272  1.00  0.00    -0.339 OA
BRANCH  19  20
HETATM   20  C2  UNL     1      -2.874   1.566  11.270  1.00  0.00     0.121 C 
HETATM   21  C1  UNL     1      -3.886   0.585  11.908  1.00  0.00     0.040 C 
HETATM   22  C3  UNL     1      -1.724   0.712  10.832  1.00  0.00     0.040 C 
ENDBRANCH  19  20
ENDBRANCH   1  19
BRANCH   8  23
HETATM   23  N3  UNL     1      -1.804   4.754  10.687  1.00  0.00    -0.363 N 
HETATM   24  C14 UNL     1      -0.349   4.763  10.715  1.00  0.00     0.124 C 
HETATM   25  C15 UNL     1       0.208   3.616   9.887  1.00  0.00     0.022 C 
HETATM   26  C16 UNL     1      -0.452   3.532   8.540  1.00  0.00     0.036 C 
HETATM   27  C17 UNL     1      -1.305   4.767   8.354  1.00  0.00     0.201 C 
HETATM   28  C18 UNL     1      -2.416   4.707   9.378  1.00  0.00     0.157 C 
BRANCH  27  29
HETATM   29  N4  UNL     1      -1.853   4.832   7.007  1.00  0.00    -0.073 N 
ATOM     30  H43 UNL     1      -1.518   4.062   6.429  1.00  0.00     0.274 HD
ATOM     31  H42 UNL     1      -2.849   4.614   6.997  1.00  0.00     0.274 HD
ATOM     32  H41 UNL     1      -1.664   5.737   6.574  1.00  0.00     0.274 HD
ENDBRANCH  27  29
ENDBRANCH   8  23
TORSDOF 9
ENDMDL
MODEL 4
REMARK VINA RESULT: -6.842001714      1.820      3.052
REMARK  9 active torsions:
REMARK  status: ('A' for Active; 'I' for Inactive)
REMARK    1  A    between atoms: C2_2  and  O1_4 
REMARK    2  A    between atoms: O1_4  and  C4_5 
REMARK    3  A    between atoms: C5_6  and  O2_7 
REMARK    4  A    between atoms: O2_7  and  C6_8 
REMARK    5  A    between atoms: C6_8  and  C7_9 
REMARK    6  A    between atoms: C7_9  and  O3_11 
REMARK    7  A    between atoms: C7_9  and  C9_13 
REMARK    8  A    between atoms: C13_22  and  N3_23 
REMARK    9  A    between atoms: C17_27  and  N4_28 
ROOT
HETATM    1  C4  UNL     1      -3.517   2.314  12.294  1.00  0.00     0.164 A 
HETATM    2  C5  UNL     1      -4.292   1.294  12.860  1.00  0.00     0.181 A 
HETATM    3  N1  UNL     1      -4.199   0.045  12.414  1.00  0.00    -0.331 N 
ATOM      4  H1  UNL     1      -4.768  -0.691  12.832  1.00  0.00     0.168 HD
HETATM    5  C12 UNL     1      -3.353  -0.247  11.409  1.00  0.00     0.184 A 
HETATM    6  N2  UNL     1      -2.600   0.715  10.851  1.00  0.00    -0.336 N 
ATOM      7  H2  UNL     1      -1.965   0.472  10.091  1.00  0.00     0.168 HD
HETATM    8  C13 UNL     1      -2.664   2.022  11.281  1.00  0.00     0.142 A 
ENDROOT
BRANCH   2   9
HETATM    9  O2  UNL     1      -5.187   1.529  13.901  1.00  0.00    -0.330 OA
BRANCH   9  10
HETATM   10  C6  UNL     1      -5.114   0.822  15.121  1.00  0.00     0.218 C 
BRANCH  10  11
HETATM   11  C7  UNL     1      -5.404   1.767  16.256  1.00  0.00     0.111 C 
HETATM   12  C8  UNL     1      -6.112   2.977  15.693  1.00  0.00     0.051 C 
BRANCH  11  13
HETATM   13  O3  UNL     1      -4.206   2.171  16.832  1.00  0.00    -0.385 OA
ATOM     14  H3  UNL     1      -4.228   3.111  16.971  1.00  0.00     0.210 HD
ENDBRANCH  11  13
BRANCH  11  15
HETATM   15  C9  UNL     1      -6.284   1.115  17.313  1.00  0.00     0.128 C 
HETATM   16  C10 UNL     1      -7.718   1.091  16.875  1.00  0.00     0.054 C 
HETATM   17  C11 UNL     1      -6.144   1.815  18.632  1.00  0.00     0.054 C 
HETATM   18  F1  UNL     1      -5.821  -0.180  17.470  1.00  0.00    -0.240 F 
ENDBRANCH  11  15
ENDBRANCH  10  11
ENDBRANCH   9  10
ENDBRANCH   2   9
BRANCH   1  19
HETATM   19  O1  UNL     1      -3.669   3.565  12.798  1.00  0.00    -0.339 OA
BRANCH  19  20
HETATM   20  C2  UNL     1      -3.252   4.153  13.971  1.00  0.00     0.121 C 
HETATM   21  C1  UNL     1      -4.058   5.466  14.111  1.00  0.00     0.040 C 
HETATM   22  C3  UNL     1      -1.822   4.582  13.857  1.00  0.00     0.040 C 
ENDBRANCH  19  20
ENDBRANCH   1  19
BRANCH   8  23
HETATM   23  N3  UNL     1      -1.811   2.961  10.657  1.00  0.00    -0.363 N 
HETATM   24  C14 UNL     1      -2.361   4.018   9.822  1.00  0.00     0.124 C 
HETATM   25  C15 UNL     1      -1.843   5.376  10.270  1.00  0.00     0.022 C 
HETATM   26  C16 UNL     1      -0.354   5.364  10.471  1.00  0.00     0.036 C 
HETATM   27  C17 UNL     1       0.184   4.055   9.937  1.00  0.00     0.201 C 
HETATM   28  C18 UNL     1      -0.372   2.950  10.806  1.00  0.00     0.157 C 
BRANCH  27  29
HETATM   29  N4  UNL     1       1.639   4.036   9.954  1.00  0.00    -0.073 N 
ATOM     30  H43 UNL     1       2.030   4.708   9.294  1.00  0.00     0.274 HD
ATOM     31  H42 UNL     1       2.009   4.432  10.818  1.00  0.00     0.274 HD
ATOM     32  H41 UNL     1       1.999   3.096   9.790  1.00  0.00     0.274 HD
ENDBRANCH  27  29
ENDBRANCH   8  23
TORSDOF 9
ENDMDL
MODEL 5
REMARK VINA RESULT: -6.818064665      1.597      2.841
REMARK  9 active torsions:
REMARK  status: ('A' for Active; 'I' for Inactive)
REMARK    1  A    between atoms: C2_2  and  O1_4 
REMARK    2  A    between atoms: O1_4  and  C4_5 
REMARK    3  A    between atoms: C5_6  and  O2_7 
REMARK    4  A    between atoms: O2_7  and  C6_8 
REMARK    5  A    between atoms: C6_8  and  C7_9 
REMARK    6  A    between atoms: C7_9  and  O3_11 
REMARK    7  A    between atoms: C7_9  and  C9_13 
REMARK    8  A    between atoms: C13_22  and  N3_23 
REMARK    9  A    between atoms: C17_27  and  N4_28 
ROOT
HETATM    1  C4  UNL     1      -3.468   3.027  12.446  1.00  0.00     0.164 A 
HETATM    2  C5  UNL     1      -4.352   2.231  13.185  1.00  0.00     0.181 A 
HETATM    3  N1  UNL     1      -4.591   0.973  12.828  1.00  0.00    -0.331 N 
ATOM      4  H1  UNL     1      -5.236   0.401  13.373  1.00  0.00     0.168 HD
HETATM    5  C12 UNL     1      -3.981   0.455  11.746  1.00  0.00     0.184 A 
HETATM    6  N2  UNL     1      -3.129   1.199  11.023  1.00  0.00    -0.336 N 
ATOM      7  H2  UNL     1      -2.677   0.787  10.207  1.00  0.00     0.168 HD
HETATM    8  C13 UNL     1      -2.852   2.507  11.356  1.00  0.00     0.142 A 
ENDROOT
BRANCH   2   9
HETATM    9  O2  UNL     1      -5.016   2.706  14.313  1.00  0.00    -0.330 OA
BRANCH   9  10
HETATM   10  C6  UNL     1      -6.028   1.959  14.953  1.00  0.00     0.218 C 
BRANCH  10  11
HETATM   11  C7  UNL     1      -5.414   1.140  16.056  1.00  0.00     0.111 C 
HETATM   12  C8  UNL     1      -4.150   1.832  16.509  1.00  0.00     0.051 C 
BRANCH  11  13
HETATM   13  O3  UNL     1      -5.089  -0.118  15.565  1.00  0.00    -0.385 OA
ATOM     14  H3  UNL     1      -4.696  -0.633  16.260  1.00  0.00     0.210 HD
ENDBRANCH  11  13
BRANCH  11  15
HETATM   15  C9  UNL     1      -6.362   0.996  17.239  1.00  0.00     0.128 C 
HETATM   16  C10 UNL     1      -7.787   1.177  16.807  1.00  0.00     0.054 C 
HETATM   17  C11 UNL     1      -6.011   1.968  18.327  1.00  0.00     0.054 C 
HETATM   18  F1  UNL     1      -6.182  -0.282  17.738  1.00  0.00    -0.240 F 
ENDBRANCH  11  15
ENDBRANCH  10  11
ENDBRANCH   9  10
ENDBRANCH   2   9
BRANCH   1  19
HETATM   19  O1  UNL     1      -3.276   4.303  12.868  1.00  0.00    -0.339 OA
BRANCH  19  20
HETATM   20  C2  UNL     1      -2.601   4.837  13.942  1.00  0.00     0.121 C 
HETATM   21  C1  UNL     1      -3.522   5.929  14.536  1.00  0.00     0.040 C 
HETATM   22  C3  UNL     1      -1.378   5.564  13.478  1.00  0.00     0.040 C 
ENDBRANCH  19  20
ENDBRANCH   1  19
BRANCH   8  23
HETATM   23  N3  UNL     1      -1.918   3.203  10.554  1.00  0.00    -0.363 N 
HETATM   24  C14 UNL     1      -2.368   4.200   9.594  1.00  0.00     0.124 C 
HETATM   25  C15 UNL     1      -1.630   5.513   9.803  1.00  0.00     0.022 C 
HETATM   26  C16 UNL     1      -0.148   5.303   9.932  1.00  0.00     0.036 C 
HETATM   27  C17 UNL     1       0.158   3.865   9.581  1.00  0.00     0.201 C 
HETATM   28  C18 UNL     1      -0.490   2.995  10.635  1.00  0.00     0.157 C 
BRANCH  27  29
HETATM   29  N4  UNL     1       1.593   3.626   9.531  1.00  0.00    -0.073 N 
ATOM     30  H43 UNL     1       1.806   2.629   9.523  1.00  0.00     0.274 HD
ATOM     31  H42 UNL     1       1.983   3.877   8.623  1.00  0.00     0.274 HD
ATOM     32  H41 UNL     1       2.075   4.106  10.292  1.00  0.00     0.274 HD
ENDBRANCH  27  29
ENDBRANCH   8  23
TORSDOF 9
ENDMDL
