MODEL 1
REMARK VINA RESULT: -7.093244088      0.000      0.000
REMARK  8 active torsions:
REMARK  status: ('A' for Active; 'I' for Inactive)
REMARK    1  A    between atoms: N1_4  and  C4_5 
REMARK    2  A    between atoms: C5_7  and  C6_8 
REMARK    3  A    between atoms: C6_8  and  S1_9 
REMARK    4  A    between atoms: S1_9  and  C7_10 
REMARK    5  A    between atoms: C7_10  and  C8_11 
REMARK    6  A    between atoms: C8_11  and  C9_12 
REMARK    7  A    between atoms: C14_19  and  N3_20 
REMARK    8  A    between atoms: N3_20  and  O2_22 
ROOT
HETATM    1  C4  UNL     1      -4.352   2.903  10.957  1.00  0.00     0.263 C 
HETATM    2  O1  UNL     1      -4.947   4.098  11.303  1.00  0.00    -0.358 OA
HETATM    3  C5  UNL     1      -4.439   5.132  10.594  1.00  0.00     0.135 C 
HETATM    4  C11 UNL     1      -3.157   4.640   9.924  1.00  0.00     0.056 C 
HETATM    5  C12 UNL     1      -2.951   3.305  10.600  1.00  0.00     0.145 C 
HETATM    6  C13 UNL     1      -2.102   3.481  11.757  1.00  0.00     0.068 C 
HETATM    7  N2  UNL     1      -1.410   3.603  12.682  1.00  0.00    -0.197 NA
ENDROOT
BRANCH   1   8
HETATM    8  N1  UNL     1      -4.431   2.025  12.080  1.00  0.00    -0.162 N 
HETATM    9  C3  UNL     1      -4.658   2.480  13.322  1.00  0.00     0.124 A 
HETATM   10  C2  UNL     1      -4.735   1.643  14.417  1.00  0.00     0.023 A 
HETATM   11  C1  UNL     1      -4.981   2.108  15.798  1.00  0.00     0.056 C 
HETATM   12  C15 UNL     1      -4.573   0.285  14.220  1.00  0.00     0.266 A 
HETATM   13  N4  UNL     1      -4.347  -0.153  12.972  1.00  0.00    -0.154 N 
HETATM   14  O3  UNL     1      -4.633  -0.537  15.185  1.00  0.00    -0.267 OA
HETATM   15  C14 UNL     1      -4.278   0.704  11.917  1.00  0.00     0.709 A 
ATOM     16  H4  UNL     1      -4.224  -1.152  12.810  1.00  0.00     0.187 HD
BRANCH  15  17
HETATM   17  N3  UNL     1      -4.064   0.233  10.768  1.00  0.00    -0.098 N 
ATOM     18  H3  UNL     1      -3.116  -0.028  10.498  1.00  0.00     0.213 HD
BRANCH  17  19
HETATM   19  O2  UNL     1      -5.094   0.068   9.879  1.00  0.00    -0.276 OA
ATOM     20  H2  UNL     1      -5.878   0.600   9.942  1.00  0.00     0.245 HD
ENDBRANCH  17  19
ENDBRANCH  15  17
ENDBRANCH   1   8
BRANCH   3  21
HETATM   21  C6  UNL     1      -4.046   6.306  11.429  1.00  0.00     0.105 C 
BRANCH  21  22
HETATM   22  S1  UNL     1      -4.612   6.389  13.105  1.00  0.00    -0.167 SA
BRANCH  22  23
HETATM   23  C7  UNL     1      -3.414   6.024  14.372  1.00  0.00     0.075 C 
BRANCH  23  24
HETATM   24  C8  UNL     1      -2.157   6.822  14.255  1.00  0.00     0.030 C 
BRANCH  24  25
HETATM   25  C9  UNL     1      -2.343   8.250  14.685  1.00  0.00     0.079 C 
HETATM   26  C10 UNL     1      -1.418   8.774  15.723  1.00  0.00     0.026 C 
HETATM   27 CL1  UNL     1      -2.260   9.331  13.259  1.00  0.00    -0.125 Cl
ENDBRANCH  24  25
ENDBRANCH  23  24
ENDBRANCH  22  23
ENDBRANCH  21  22
ENDBRANCH   3  21
TORSDOF 8
ENDMDL
MODEL 2
REMARK VINA RESULT: -7.017868316      3.089      4.680
REMARK  8 active torsions:
REMARK  status: ('A' for Active; 'I' for Inactive)
REMARK    1  A    between atoms: N1_4  and  C4_5 
REMARK    2  A    between atoms: C5_7  and  C6_8 
REMARK    3  A    between atoms: C6_8  and  S1_9 
REMARK    4  A    between atoms: S1_9  and  C7_10 
REMARK    5  A    between atoms: C7_10  and  C8_11 
REMARK    6  A    between atoms: C8_11  and  C9_12 
REMARK    7  A    between atoms: C14_19  and  N3_20 
REMARK    8  A    between atoms: N3_20  and  O2_22 
ROOT
HETATM    1  C4  UNL     1      -3.909   4.552  11.801  1.00  0.00     0.263 C 
HETATM    2  O1  UNL     1      -5.082   4.525  12.524  1.00  0.00    -0.358 OA
HETATM    3  C5  UNL     1      -5.257   5.663  13.234  1.00  0.00     0.135 C 
HETATM    4  C11 UNL     1      -3.923   6.407  13.240  1.00  0.00     0.056 C 
HETATM    5  C12 UNL     1      -2.991   5.369  12.662  1.00  0.00     0.145 C 
HETATM    6  C13 UNL     1      -2.399   4.607  13.739  1.00  0.00     0.068 C 
HETATM    7  N2  UNL     1      -1.905   3.993  14.593  1.00  0.00    -0.197 NA
ENDROOT
BRANCH   1   8
HETATM    8  N1  UNL     1      -3.473   3.206  11.609  1.00  0.00    -0.162 N 
HETATM    9  C3  UNL     1      -4.055   2.175  12.241  1.00  0.00     0.124 A 
HETATM   10  C2  UNL     1      -3.642   0.869  12.066  1.00  0.00     0.023 A 
HETATM   11  C1  UNL     1      -4.258  -0.291  12.745  1.00  0.00     0.056 C 
HETATM   12  C15 UNL     1      -2.591   0.621  11.206  1.00  0.00     0.266 A 
HETATM   13  N4  UNL     1      -2.020   1.663  10.583  1.00  0.00    -0.154 N 
HETATM   14  O3  UNL     1      -2.164  -0.558  11.002  1.00  0.00    -0.267 OA
HETATM   15  C14 UNL     1      -2.455   2.937  10.781  1.00  0.00     0.709 A 
ATOM     16  H4  UNL     1      -1.241   1.496   9.945  1.00  0.00     0.187 HD
BRANCH  15  17
HETATM   17  N3  UNL     1      -1.880   3.875  10.166  1.00  0.00    -0.098 N 
ATOM     18  H3  UNL     1      -1.528   4.678  10.686  1.00  0.00     0.213 HD
BRANCH  17  19
HETATM   19  O2  UNL     1      -1.723   3.825   8.805  1.00  0.00    -0.276 OA
ATOM     20  H2  UNL     1      -1.096   4.390   8.369  1.00  0.00     0.245 HD
ENDBRANCH  17  19
ENDBRANCH  15  17
ENDBRANCH   1   8
BRANCH   3  21
HETATM   21  C6  UNL     1      -5.611   5.436  14.667  1.00  0.00     0.105 C 
BRANCH  21  22
HETATM   22  S1  UNL     1      -6.258   3.859  15.147  1.00  0.00    -0.167 SA
BRANCH  22  23
HETATM   23  C7  UNL     1      -5.070   2.557  15.418  1.00  0.00     0.075 C 
BRANCH  23  24
HETATM   24  C8  UNL     1      -5.151   1.948  16.778  1.00  0.00     0.030 C 
BRANCH  24  25
HETATM   25  C9  UNL     1      -6.533   2.028  17.362  1.00  0.00     0.079 C 
HETATM   26  C10 UNL     1      -7.435   0.870  17.135  1.00  0.00     0.026 C 
HETATM   27 CL1  UNL     1      -6.432   2.326  19.126  1.00  0.00    -0.125 Cl
ENDBRANCH  24  25
ENDBRANCH  23  24
ENDBRANCH  22  23
ENDBRANCH  21  22
ENDBRANCH   3  21
TORSDOF 8
ENDMDL
MODEL 3
REMARK VINA RESULT: -6.906508797      2.022      2.963
REMARK  8 active torsions:
REMARK  status: ('A' for Active; 'I' for Inactive)
REMARK    1  A    between atoms: N1_4  and  C4_5 
REMARK    2  A    between atoms: C5_7  and  C6_8 
REMARK    3  A    between atoms: C6_8  and  S1_9 
REMARK    4  A    between atoms: S1_9  and  C7_10 
REMARK    5  A    between atoms: C7_10  and  C8_11 
REMARK    6  A    between atoms: C8_11  and  C9_12 
REMARK    7  A    between atoms: C14_19  and  N3_20 
REMARK    8  A    between atoms: N3_20  and  O2_22 
ROOT
HETATM    1  C4  UNL     1      -4.563   3.053  11.330  1.00  0.00     0.263 C 
HETATM    2  O1  UNL     1      -5.005   4.267  11.811  1.00  0.00    -0.358 OA
HETATM    3  C5  UNL     1      -4.521   5.298  11.081  1.00  0.00     0.135 C 
HETATM    4  C11 UNL     1      -3.391   4.751  10.211  1.00  0.00     0.056 C 
HETATM    5  C12 UNL     1      -3.199   3.369  10.790  1.00  0.00     0.145 C 
HETATM    6  C13 UNL     1      -2.183   3.418  11.818  1.00  0.00     0.068 C 
HETATM    7  N2  UNL     1      -1.360   3.438  12.637  1.00  0.00    -0.197 NA
ENDROOT
BRANCH   1   8
HETATM    8  N1  UNL     1      -4.553   2.123  12.413  1.00  0.00    -0.162 N 
HETATM    9  C3  UNL     1      -4.675   2.518  13.690  1.00  0.00     0.124 A 
HETATM   10  C2  UNL     1      -4.665   1.629  14.746  1.00  0.00     0.023 A 
HETATM   11  C1  UNL     1      -4.796   2.029  16.163  1.00  0.00     0.056 C 
HETATM   12  C15 UNL     1      -4.525   0.283  14.472  1.00  0.00     0.266 A 
HETATM   13  N4  UNL     1      -4.404  -0.096  13.191  1.00  0.00    -0.154 N 
HETATM   14  O3  UNL     1      -4.509  -0.584  15.399  1.00  0.00    -0.267 OA
HETATM   15  C14 UNL     1      -4.418   0.810  12.175  1.00  0.00     0.709 A 
ATOM     16  H4  UNL     1      -4.298  -1.086  12.972  1.00  0.00     0.187 HD
BRANCH  15  17
HETATM   17  N3  UNL     1      -4.302   0.394  10.992  1.00  0.00    -0.098 N 
ATOM     18  H3  UNL     1      -3.378   0.348  10.562  1.00  0.00     0.213 HD
BRANCH  17  19
HETATM   19  O2  UNL     1      -5.404   0.004  10.277  1.00  0.00    -0.276 OA
ATOM     20  H2  UNL     1      -5.378  -0.033   9.328  1.00  0.00     0.245 HD
ENDBRANCH  17  19
ENDBRANCH  15  17
ENDBRANCH   1   8
BRANCH   3  21
HETATM   21  C6  UNL     1      -3.920   6.392  11.901  1.00  0.00     0.105 C 
BRANCH  21  22
HETATM   22  S1  UNL     1      -3.516   7.926  11.113  1.00  0.00    -0.167 SA
BRANCH  22  23
HETATM   23  C7  UNL     1      -4.815   8.711  10.179  1.00  0.00     0.075 C 
BRANCH  23  24
HETATM   24  C8  UNL     1      -5.980   9.133  11.012  1.00  0.00     0.030 C 
BRANCH  24  25
HETATM   25  C9  UNL     1      -7.183   8.258  10.800  1.00  0.00     0.079 C 
HETATM   26  C10 UNL     1      -7.173   7.364   9.614  1.00  0.00     0.026 C 
HETATM   27 CL1  UNL     1      -7.470   7.256  12.258  1.00  0.00    -0.125 Cl
ENDBRANCH  24  25
ENDBRANCH  23  24
ENDBRANCH  22  23
ENDBRANCH  21  22
ENDBRANCH   3  21
TORSDOF 8
ENDMDL
MODEL 4
REMARK VINA RESULT: -6.887098323      2.450      3.626
REMARK  8 active torsions:
REMARK  status: ('A' for Active; 'I' for Inactive)
REMARK    1  A    between atoms: N1_4  and  C4_5 
REMARK    2  A    between atoms: C5_7  and  C6_8 
REMARK    3  A    between atoms: C6_8  and  S1_9 
REMARK    4  A    between atoms: S1_9  and  C7_10 
REMARK    5  A    between atoms: C7_10  and  C8_11 
REMARK    6  A    between atoms: C8_11  and  C9_12 
REMARK    7  A    between atoms: C14_19  and  N3_20 
REMARK    8  A    between atoms: N3_20  and  O2_22 
ROOT
HETATM    1  C4  UNL     1      -4.431   2.980  11.033  1.00  0.00     0.263 C 
HETATM    2  O1  UNL     1      -5.025   4.162  11.421  1.00  0.00    -0.358 OA
HETATM    3  C5  UNL     1      -4.539   5.216  10.726  1.00  0.00     0.135 C 
HETATM    4  C11 UNL     1      -3.269   4.749  10.016  1.00  0.00     0.056 C 
HETATM    5  C12 UNL     1      -3.040   3.399  10.655  1.00  0.00     0.145 C 
HETATM    6  C13 UNL     1      -2.167   3.552  11.797  1.00  0.00     0.068 C 
HETATM    7  N2  UNL     1      -1.456   3.657  12.710  1.00  0.00    -0.197 NA
ENDROOT
BRANCH   1   8
HETATM    8  N1  UNL     1      -4.480   2.075  12.136  1.00  0.00    -0.162 N 
HETATM    9  C3  UNL     1      -4.701   2.496  13.391  1.00  0.00     0.124 A 
HETATM   10  C2  UNL     1      -4.750   1.632  14.467  1.00  0.00     0.023 A 
HETATM   11  C1  UNL     1      -4.990   2.060  15.861  1.00  0.00     0.056 C 
HETATM   12  C15 UNL     1      -4.564   0.283  14.236  1.00  0.00     0.266 A 
HETATM   13  N4  UNL     1      -4.343  -0.121  12.976  1.00  0.00    -0.154 N 
HETATM   14  O3  UNL     1      -4.596  -0.563  15.182  1.00  0.00    -0.267 OA
HETATM   15  C14 UNL     1      -4.302   0.761  11.940  1.00  0.00     0.709 A 
ATOM     16  H4  UNL     1      -4.202  -1.114  12.789  1.00  0.00     0.187 HD
BRANCH  15  17
HETATM   17  N3  UNL     1      -4.093   0.321  10.778  1.00  0.00    -0.098 N 
ATOM     18  H3  UNL     1      -3.137   0.133  10.475  1.00  0.00     0.213 HD
BRANCH  17  19
HETATM   19  O2  UNL     1      -5.136   0.094   9.919  1.00  0.00    -0.276 OA
ATOM     20  H2  UNL     1      -4.998  -0.372   9.103  1.00  0.00     0.245 HD
ENDBRANCH  17  19
ENDBRANCH  15  17
ENDBRANCH   1   8
BRANCH   3  21
HETATM   21  C6  UNL     1      -4.135   6.372  11.580  1.00  0.00     0.105 C 
BRANCH  21  22
HETATM   22  S1  UNL     1      -5.180   7.800  11.634  1.00  0.00    -0.167 SA
BRANCH  22  23
HETATM   23  C7  UNL     1      -6.879   7.566  11.148  1.00  0.00     0.075 C 
BRANCH  23  24
HETATM   24  C8  UNL     1      -7.255   8.307   9.907  1.00  0.00     0.030 C 
BRANCH  24  25
HETATM   25  C9  UNL     1      -7.926   7.424   8.894  1.00  0.00     0.079 C 
HETATM   26  C10 UNL     1      -9.083   7.994   8.156  1.00  0.00     0.026 C 
HETATM   27 CL1  UNL     1      -6.723   6.848   7.697  1.00  0.00    -0.125 Cl
ENDBRANCH  24  25
ENDBRANCH  23  24
ENDBRANCH  22  23
ENDBRANCH  21  22
ENDBRANCH   3  21
TORSDOF 8
ENDMDL
MODEL 5
REMARK VINA RESULT: -6.886766264      2.476      3.440
REMARK  8 active torsions:
REMARK  status: ('A' for Active; 'I' for Inactive)
REMARK    1  A    between atoms: N1_4  and  C4_5 
REMARK    2  A    between atoms: C5_7  and  C6_8 
REMARK    3  A    between atoms: C6_8  and  S1_9 
REMARK    4  A    between atoms: S1_9  and  C7_10 
REMARK    5  A    between atoms: C7_10  and  C8_11 
REMARK    6  A    between atoms: C8_11  and  C9_12 
REMARK    7  A    between atoms: C14_19  and  N3_20 
REMARK    8  A    between atoms: N3_20  and  O2_22 
ROOT
HETATM    1  C4  UNL     1      -4.761   3.038  12.965  1.00  0.00     0.263 C 
HETATM    2  O1  UNL     1      -5.424   4.242  13.082  1.00  0.00    -0.358 OA
HETATM    3  C5  UNL     1      -4.849   5.203  12.325  1.00  0.00     0.135 C 
HETATM    4  C11 UNL     1      -3.478   4.686  11.894  1.00  0.00     0.056 C 
HETATM    5  C12 UNL     1      -3.334   3.449  12.749  1.00  0.00     0.145 C 
HETATM    6  C13 UNL     1      -2.653   3.793  13.976  1.00  0.00     0.068 C 
HETATM    7  N2  UNL     1      -2.095   4.050  14.963  1.00  0.00    -0.197 NA
ENDROOT
BRANCH   1   8
HETATM    8  N1  UNL     1      -4.971   2.297  14.167  1.00  0.00    -0.162 N 
HETATM    9  C3  UNL     1      -5.579   2.834  15.236  1.00  0.00     0.124 A 
HETATM   10  C2  UNL     1      -5.787   2.129  16.405  1.00  0.00     0.023 A 
HETATM   11  C1  UNL     1      -6.451   2.688  17.601  1.00  0.00     0.056 C 
HETATM   12  C15 UNL     1      -5.351   0.820  16.470  1.00  0.00     0.266 A 
HETATM   13  N4  UNL     1      -4.745   0.298  15.392  1.00  0.00    -0.154 N 
HETATM   14  O3  UNL     1      -5.512   0.118  17.515  1.00  0.00    -0.267 OA
HETATM   15  C14 UNL     1      -4.558   1.025  14.257  1.00  0.00     0.709 A 
ATOM     16  H4  UNL     1      -4.416  -0.667  15.425  1.00  0.00     0.187 HD
BRANCH  15  17
HETATM   17  N3  UNL     1      -3.983   0.480  13.278  1.00  0.00    -0.098 N 
ATOM     18  H3  UNL     1      -3.153   0.913  12.874  1.00  0.00     0.213 HD
BRANCH  17  19
HETATM   19  O2  UNL     1      -4.464  -0.690  12.748  1.00  0.00    -0.276 OA
ATOM     20  H2  UNL     1      -4.077  -1.524  12.986  1.00  0.00     0.245 HD
ENDBRANCH  17  19
ENDBRANCH  15  17
ENDBRANCH   1   8
BRANCH   3  21
HETATM   21  C6  UNL     1      -4.599   6.482  13.055  1.00  0.00     0.105 C 
BRANCH  21  22
HETATM   22  S1  UNL     1      -3.700   7.770  12.237  1.00  0.00    -0.167 SA
BRANCH  22  23
HETATM   23  C7  UNL     1      -4.512   8.565  10.864  1.00  0.00     0.075 C 
BRANCH  23  24
HETATM   24  C8  UNL     1      -5.852   9.128  11.206  1.00  0.00     0.030 C 
BRANCH  24  25
HETATM   25  C9  UNL     1      -6.979   8.263  10.719  1.00  0.00     0.079 C 
HETATM   26  C10 UNL     1      -6.637   7.167   9.776  1.00  0.00     0.026 C 
HETATM   27 CL1  UNL     1      -7.851   7.554  12.115  1.00  0.00    -0.125 Cl
ENDBRANCH  24  25
ENDBRANCH  23  24
ENDBRANCH  22  23
ENDBRANCH  21  22
ENDBRANCH   3  21
TORSDOF 8
ENDMDL
