MODEL 1
REMARK VINA RESULT: -7.128923403      0.000      0.000
REMARK  7 active torsions:
REMARK  status: ('A' for Active; 'I' for Inactive)
REMARK    1  A    between atoms: C4_5  and  C5_6 
REMARK    2  A    between atoms: C6_9  and  S1_10 
REMARK    3  A    between atoms: S1_10  and  C7_11 
REMARK    4  A    between atoms: C7_11  and  C8_12 
REMARK    5  A    between atoms: C9_16  and  N2_17 
REMARK    6  A    between atoms: C10_19  and  C11_20 
REMARK    7  A    between atoms: C10_19  and  N3_22 
ROOT
HETATM    1  C1  UNL     1      -2.816   4.366  14.609  1.00  0.00     0.040 C 
HETATM    2  C2  UNL     1      -4.147   3.973  14.029  1.00  0.00     0.110 C 
HETATM    3  C3  UNL     1      -3.847   3.154  12.817  1.00  0.00     0.077 C 
HETATM    4  N1  UNL     1      -3.618   2.529  11.844  1.00  0.00    -0.196 NA
HETATM    5  C4  UNL     1      -4.839   3.084  14.989  1.00  0.00     0.067 C 
HETATM    6  C6  UNL     1      -5.889   3.508  15.562  1.00  0.00     0.054 C 
HETATM    7  S2  UNL     1      -6.080   5.295  14.976  1.00  0.00    -0.094 SA
HETATM    8  C9  UNL     1      -4.998   5.071  13.572  1.00  0.00     0.178 C 
ENDROOT
BRANCH   5   9
HETATM    9  C5  UNL     1      -4.187   1.784  15.211  1.00  0.00     0.209 C 
HETATM   10  O1  UNL     1      -3.330   1.654  16.191  1.00  0.00    -0.644 OA
HETATM   11  O2  UNL     1      -4.335   0.627  14.528  1.00  0.00    -0.644 OA
ENDBRANCH   5   9
BRANCH   8  12
HETATM   12  N2  UNL     1      -4.277   6.275  13.211  1.00  0.00    -0.358 N 
HETATM   13  C10 UNL     1      -4.614   7.015  12.232  1.00  0.00     0.161 C 
ATOM     14  H2  UNL     1      -3.464   6.541  13.767  1.00  0.00     0.162 HD
BRANCH  13  15
HETATM   15  C11 UNL     1      -5.788   6.731  11.339  1.00  0.00     0.197 C 
HETATM   16 CL1  UNL     1      -7.238   7.499  11.981  1.00  0.00    -0.122 Cl
ENDBRANCH  13  15
BRANCH  13  17
HETATM   17  N3  UNL     1      -3.876   8.184  11.918  1.00  0.00    -0.102 N 
HETATM   18  O5  UNL     1      -2.802   8.394  12.504  1.00  0.00    -0.531 OA
HETATM   19  O6  UNL     1      -4.335   9.068  10.987  1.00  0.00    -0.531 OA
ENDBRANCH  13  17
ENDBRANCH   8  12
BRANCH   6  20
HETATM   20  S1  UNL     1      -7.051   2.955  16.695  1.00  0.00    -0.112 SA
BRANCH  20  21
HETATM   21  C7  UNL     1      -7.497   1.313  16.895  1.00  0.00     0.193 C 
BRANCH  21  22
HETATM   22  C8  UNL     1      -6.330   0.541  17.565  1.00  0.00     0.182 C 
HETATM   23  O3  UNL     1      -5.739   1.186  18.455  1.00  0.00    -0.647 OA
HETATM   24  O4  UNL     1      -6.014  -0.727  17.183  1.00  0.00    -0.647 OA
ENDBRANCH  21  22
ENDBRANCH  20  21
ENDBRANCH   6  20
TORSDOF 7
ENDMDL
MODEL 2
REMARK VINA RESULT: -6.925899735      3.357      4.011
REMARK  7 active torsions:
REMARK  status: ('A' for Active; 'I' for Inactive)
REMARK    1  A    between atoms: C4_5  and  C5_6 
REMARK    2  A    between atoms: C6_9  and  S1_10 
REMARK    3  A    between atoms: S1_10  and  C7_11 
REMARK    4  A    between atoms: C7_11  and  C8_12 
REMARK    5  A    between atoms: C9_16  and  N2_17 
REMARK    6  A    between atoms: C10_19  and  C11_20 
REMARK    7  A    between atoms: C10_19  and  N3_22 
ROOT
HETATM    1  C1  UNL     1      -2.042   1.870  11.772  1.00  0.00     0.040 C 
HETATM    2  C2  UNL     1      -2.940   3.065  11.946  1.00  0.00     0.110 C 
HETATM    3  C3  UNL     1      -3.374   3.460  10.573  1.00  0.00     0.077 C 
HETATM    4  N1  UNL     1      -3.700   3.795   9.490  1.00  0.00    -0.196 NA
HETATM    5  C4  UNL     1      -4.155   2.642  12.677  1.00  0.00     0.067 C 
HETATM    6  C6  UNL     1      -4.342   3.085  13.852  1.00  0.00     0.054 C 
HETATM    7  S2  UNL     1      -2.796   4.099  14.245  1.00  0.00    -0.094 SA
HETATM    8  C9  UNL     1      -2.320   4.254  12.530  1.00  0.00     0.178 C 
ENDROOT
BRANCH   5   9
HETATM    9  C5  UNL     1      -5.016   1.694  11.954  1.00  0.00     0.209 C 
HETATM   10  O1  UNL     1      -4.862   0.410  12.148  1.00  0.00    -0.644 OA
HETATM   11  O2  UNL     1      -6.004   1.944  11.065  1.00  0.00    -0.644 OA
ENDBRANCH   5   9
BRANCH   8  12
HETATM   12  N2  UNL     1      -0.887   4.334  12.342  1.00  0.00    -0.358 N 
HETATM   13  C10 UNL     1      -0.326   5.283  11.706  1.00  0.00     0.161 C 
ATOM     14  H2  UNL     1      -0.301   3.598  12.736  1.00  0.00     0.162 HD
BRANCH  13  15
HETATM   15  C11 UNL     1      -1.075   6.424  11.079  1.00  0.00     0.197 C 
HETATM   16 CL1  UNL     1      -1.100   6.245   9.327  1.00  0.00    -0.122 Cl
ENDBRANCH  13  15
BRANCH  13  17
HETATM   17  N3  UNL     1       1.083   5.318  11.548  1.00  0.00    -0.102 N 
HETATM   18  O5  UNL     1       1.688   6.381  11.759  1.00  0.00    -0.531 OA
HETATM   19  O6  UNL     1       1.768   4.202  11.167  1.00  0.00    -0.531 OA
ENDBRANCH  13  17
ENDBRANCH   8  12
BRANCH   6  20
HETATM   20  S1  UNL     1      -5.503   2.958  15.107  1.00  0.00    -0.112 SA
BRANCH  20  21
HETATM   21  C7  UNL     1      -5.797   1.529  16.006  1.00  0.00     0.193 C 
BRANCH  21  22
HETATM   22  C8  UNL     1      -4.602   0.556  15.830  1.00  0.00     0.182 C 
HETATM   23  O3  UNL     1      -3.554   0.929  16.394  1.00  0.00    -0.647 OA
HETATM   24  O4  UNL     1      -4.732  -0.594  15.111  1.00  0.00    -0.647 OA
ENDBRANCH  21  22
ENDBRANCH  20  21
ENDBRANCH   6  20
TORSDOF 7
ENDMDL
MODEL 3
REMARK VINA RESULT: -6.891828698      3.286      3.939
REMARK  7 active torsions:
REMARK  status: ('A' for Active; 'I' for Inactive)
REMARK    1  A    between atoms: C4_5  and  C5_6 
REMARK    2  A    between atoms: C6_9  and  S1_10 
REMARK    3  A    between atoms: S1_10  and  C7_11 
REMARK    4  A    between atoms: C7_11  and  C8_12 
REMARK    5  A    between atoms: C9_16  and  N2_17 
REMARK    6  A    between atoms: C10_19  and  C11_20 
REMARK    7  A    between atoms: C10_19  and  N3_22 
ROOT
HETATM    1  C1  UNL     1      -2.001   1.968  11.728  1.00  0.00     0.040 C 
HETATM    2  C2  UNL     1      -2.910   3.152  11.926  1.00  0.00     0.110 C 
HETATM    3  C3  UNL     1      -3.393   3.535  10.566  1.00  0.00     0.077 C 
HETATM    4  N1  UNL     1      -3.758   3.861   9.493  1.00  0.00    -0.196 NA
HETATM    5  C4  UNL     1      -4.095   2.716  12.698  1.00  0.00     0.067 C 
HETATM    6  C6  UNL     1      -4.250   3.161  13.876  1.00  0.00     0.054 C 
HETATM    7  S2  UNL     1      -2.706   4.198  14.216  1.00  0.00    -0.094 SA
HETATM    8  C9  UNL     1      -2.288   4.351  12.485  1.00  0.00     0.178 C 
ENDROOT
BRANCH   5   9
HETATM    9  C5  UNL     1      -4.966   1.752  12.006  1.00  0.00     0.209 C 
HETATM   10  O1  UNL     1      -4.825   0.474  12.244  1.00  0.00    -0.644 OA
HETATM   11  O2  UNL     1      -5.951   1.982  11.109  1.00  0.00    -0.644 OA
ENDBRANCH   5   9
BRANCH   8  12
HETATM   12  N2  UNL     1      -0.863   4.451  12.251  1.00  0.00    -0.358 N 
HETATM   13  C10 UNL     1      -0.277   5.555  12.013  1.00  0.00     0.161 C 
ATOM     14  H2  UNL     1      -0.304   3.598  12.277  1.00  0.00     0.162 HD
BRANCH  13  15
HETATM   15  C11 UNL     1      -0.986   6.877  11.947  1.00  0.00     0.197 C 
HETATM   16 CL1  UNL     1      -1.123   7.575  13.558  1.00  0.00    -0.122 Cl
ENDBRANCH  13  15
BRANCH  13  17
HETATM   17  N3  UNL     1       1.123   5.601  11.788  1.00  0.00    -0.102 N 
HETATM   18  O5  UNL     1       1.683   4.621  11.272  1.00  0.00    -0.531 OA
HETATM   19  O6  UNL     1       1.847   6.703  12.135  1.00  0.00    -0.531 OA
ENDBRANCH  13  17
ENDBRANCH   8  12
BRANCH   6  20
HETATM   20  S1  UNL     1      -5.368   3.023  15.169  1.00  0.00    -0.112 SA
BRANCH  20  21
HETATM   21  C7  UNL     1      -5.797   1.543  15.919  1.00  0.00     0.193 C 
BRANCH  21  22
HETATM   22  C8  UNL     1      -4.608   0.552  15.816  1.00  0.00     0.182 C 
HETATM   23  O3  UNL     1      -3.574   0.935  16.400  1.00  0.00    -0.647 OA
HETATM   24  O4  UNL     1      -4.728  -0.622  15.137  1.00  0.00    -0.647 OA
ENDBRANCH  21  22
ENDBRANCH  20  21
ENDBRANCH   6  20
TORSDOF 7
ENDMDL
MODEL 4
REMARK VINA RESULT: -6.671915842      1.614      2.053
REMARK  7 active torsions:
REMARK  status: ('A' for Active; 'I' for Inactive)
REMARK    1  A    between atoms: C4_5  and  C5_6 
REMARK    2  A    between atoms: C6_9  and  S1_10 
REMARK    3  A    between atoms: S1_10  and  C7_11 
REMARK    4  A    between atoms: C7_11  and  C8_12 
REMARK    5  A    between atoms: C9_16  and  N2_17 
REMARK    6  A    between atoms: C10_19  and  C11_20 
REMARK    7  A    between atoms: C10_19  and  N3_22 
ROOT
HETATM    1  C1  UNL     1      -2.474   4.168  12.683  1.00  0.00     0.040 C 
HETATM    2  C2  UNL     1      -3.959   4.301  12.478  1.00  0.00     0.110 C 
HETATM    3  C3  UNL     1      -4.196   4.091  11.019  1.00  0.00     0.077 C 
HETATM    4  N1  UNL     1      -4.389   3.953   9.864  1.00  0.00    -0.196 NA
HETATM    5  C4  UNL     1      -4.637   3.195  13.189  1.00  0.00     0.067 C 
HETATM    6  C6  UNL     1      -5.357   3.471  14.196  1.00  0.00     0.054 C 
HETATM    7  S2  UNL     1      -5.152   5.334  14.450  1.00  0.00    -0.094 SA
HETATM    8  C9  UNL     1      -4.535   5.608  12.795  1.00  0.00     0.178 C 
ENDROOT
BRANCH   5   9
HETATM    9  C5  UNL     1      -4.357   1.852  12.657  1.00  0.00     0.209 C 
HETATM   10  O1  UNL     1      -5.335   1.145  12.153  1.00  0.00    -0.644 OA
HETATM   11  O2  UNL     1      -3.183   1.185  12.598  1.00  0.00    -0.644 OA
ENDBRANCH   5   9
BRANCH   8  12
HETATM   12  N2  UNL     1      -3.600   6.710  12.712  1.00  0.00    -0.358 N 
HETATM   13  C10 UNL     1      -3.724   7.659  11.872  1.00  0.00     0.161 C 
ATOM     14  H2  UNL     1      -2.807   6.727  13.353  1.00  0.00     0.162 HD
BRANCH  13  15
HETATM   15  C11 UNL     1      -4.844   7.749  10.876  1.00  0.00     0.197 C 
HETATM   16 CL1  UNL     1      -6.240   8.540  11.602  1.00  0.00    -0.122 Cl
ENDBRANCH  13  15
BRANCH  13  17
HETATM   17  N3  UNL     1      -2.781   8.717  11.829  1.00  0.00    -0.102 N 
HETATM   18  O5  UNL     1      -1.623   8.478  11.450  1.00  0.00    -0.531 OA
HETATM   19  O6  UNL     1      -3.135   9.981  12.198  1.00  0.00    -0.531 OA
ENDBRANCH  13  17
ENDBRANCH   8  12
BRANCH   6  20
HETATM   20  S1  UNL     1      -6.336   2.655  15.344  1.00  0.00    -0.112 SA
BRANCH  20  21
HETATM   21  C7  UNL     1      -5.723   1.684  16.615  1.00  0.00     0.193 C 
BRANCH  21  22
HETATM   22  C8  UNL     1      -4.653   0.714  16.050  1.00  0.00     0.182 C 
HETATM   23  O3  UNL     1      -3.477   1.082  16.247  1.00  0.00    -0.647 OA
HETATM   24  O4  UNL     1      -5.012  -0.428  15.401  1.00  0.00    -0.647 OA
ENDBRANCH  21  22
ENDBRANCH  20  21
ENDBRANCH   6  20
TORSDOF 7
ENDMDL
MODEL 5
REMARK VINA RESULT: -6.645657470      2.749      3.381
REMARK  7 active torsions:
REMARK  status: ('A' for Active; 'I' for Inactive)
REMARK    1  A    between atoms: C4_5  and  C5_6 
REMARK    2  A    between atoms: C6_9  and  S1_10 
REMARK    3  A    between atoms: S1_10  and  C7_11 
REMARK    4  A    between atoms: C7_11  and  C8_12 
REMARK    5  A    between atoms: C9_16  and  N2_17 
REMARK    6  A    between atoms: C10_19  and  C11_20 
REMARK    7  A    between atoms: C10_19  and  N3_22 
ROOT
HETATM    1  C1  UNL     1      -2.174   2.403  12.098  1.00  0.00     0.040 C 
HETATM    2  C2  UNL     1      -3.281   3.419  12.185  1.00  0.00     0.110 C 
HETATM    3  C3  UNL     1      -3.696   3.702  10.779  1.00  0.00     0.077 C 
HETATM    4  N1  UNL     1      -4.011   3.951   9.670  1.00  0.00    -0.196 NA
HETATM    5  C4  UNL     1      -4.443   2.798  12.860  1.00  0.00     0.067 C 
HETATM    6  C6  UNL     1      -4.776   3.222  14.008  1.00  0.00     0.054 C 
HETATM    7  S2  UNL     1      -3.464   4.508  14.457  1.00  0.00    -0.094 SA
HETATM    8  C9  UNL     1      -2.921   4.712  12.766  1.00  0.00     0.178 C 
ENDROOT
BRANCH   5   9
HETATM    9  C5  UNL     1      -5.074   1.695  12.119  1.00  0.00     0.209 C 
HETATM   10  O1  UNL     1      -4.716   0.463  12.373  1.00  0.00    -0.644 OA
HETATM   11  O2  UNL     1      -6.023   1.745  11.158  1.00  0.00    -0.644 OA
ENDBRANCH   5   9
BRANCH   8  12
HETATM   12  N2  UNL     1      -1.517   5.047  12.656  1.00  0.00    -0.358 N 
HETATM   13  C10 UNL     1      -1.107   6.206  12.323  1.00  0.00     0.161 C 
ATOM     14  H2  UNL     1      -0.826   4.323  12.853  1.00  0.00     0.162 HD
BRANCH  13  15
HETATM   15  C11 UNL     1      -2.022   7.354  12.008  1.00  0.00     0.197 C 
HETATM   16 CL1  UNL     1      -2.470   8.198  13.488  1.00  0.00    -0.122 Cl
ENDBRANCH  13  15
BRANCH  13  17
HETATM   17  N3  UNL     1       0.280   6.485  12.228  1.00  0.00    -0.102 N 
HETATM   18  O5  UNL     1       1.044   5.604  11.806  1.00  0.00    -0.531 OA
HETATM   19  O6  UNL     1       0.771   7.703  12.595  1.00  0.00    -0.531 OA
ENDBRANCH  13  17
ENDBRANCH   8  12
BRANCH   6  20
HETATM   20  S1  UNL     1      -5.969   2.912  15.201  1.00  0.00    -0.112 SA
BRANCH  20  21
HETATM   21  C7  UNL     1      -5.900   1.613  16.316  1.00  0.00     0.193 C 
BRANCH  21  22
HETATM   22  C8  UNL     1      -4.699   0.697  15.965  1.00  0.00     0.182 C 
HETATM   23  O3  UNL     1      -5.021  -0.380  15.424  1.00  0.00    -0.647 OA
HETATM   24  O4  UNL     1      -3.421   1.076  16.243  1.00  0.00    -0.647 OA
ENDBRANCH  21  22
ENDBRANCH  20  21
ENDBRANCH   6  20
TORSDOF 7
ENDMDL
