MODEL 1
REMARK VINA RESULT: -7.598603286      0.000      0.000
REMARK  9 active torsions:
REMARK  status: ('A' for Active; 'I' for Inactive)
REMARK    1  A    between atoms: C2_2  and  C5_5 
REMARK    2  A    between atoms: C8_8  and  O1_9 
REMARK    3  A    between atoms: O1_9  and  C9_10 
REMARK    4  A    between atoms: C9_10  and  C10_11 
REMARK    5  A    between atoms: C10_11  and  O2_12 
REMARK    6  A    between atoms: C10_11  and  C11_14 
REMARK    7  A    between atoms: C11_14  and  N1_15 
REMARK    8  A    between atoms: C12_18  and  C13_19 
REMARK    9  A    between atoms: C13_19  and  O3_20 
ROOT
HETATM    1  C10 UNL     1      -4.805   1.065  11.544  1.00  0.00     0.162 C 
ENDROOT
BRANCH   1   2
HETATM    2  C9  UNL     1      -4.861   1.576  12.959  1.00  0.00     0.201 C 
BRANCH   2   3
HETATM    3  O1  UNL     1      -5.540   2.755  13.127  1.00  0.00    -0.382 OA
BRANCH   3   4
HETATM    4  C8  UNL     1      -5.075   3.638  14.061  1.00  0.00     0.139 C 
HETATM    5  C7  UNL     1      -6.245   4.235  14.771  1.00  0.00     0.034 C 
HETATM    6  C6  UNL     1      -6.720   3.564  15.999  1.00  0.00     0.008 C 
HETATM    7  C5  UNL     1      -6.004   2.261  16.171  1.00  0.00    -0.006 C 
HETATM    8  C16 UNL     1      -4.532   2.620  16.296  1.00  0.00     0.028 C 
HETATM    9  C15 UNL     1      -4.070   2.964  14.908  1.00  0.00     0.111 C 
HETATM   10 CL1  UNL     1      -2.625   4.021  15.103  1.00  0.00    -0.122 Cl
BRANCH   7  11
HETATM   11  C2  UNL     1      -6.489   1.466  17.355  1.00  0.00    -0.048 C 
HETATM   12  C1  UNL     1      -6.453   2.305  18.589  1.00  0.00     0.015 C 
HETATM   13  C3  UNL     1      -5.793   0.161  17.541  1.00  0.00     0.015 C 
HETATM   14  C4  UNL     1      -7.967   1.156  17.079  1.00  0.00     0.015 C 
ENDBRANCH   7  11
ENDBRANCH   3   4
ENDBRANCH   2   3
ENDBRANCH   1   2
BRANCH   1  15
HETATM   15  O2  UNL     1      -5.862   1.583  10.778  1.00  0.00    -0.392 OA
ATOM     16  H2  UNL     1      -5.654   2.452  10.452  1.00  0.00     0.210 HD
ENDBRANCH   1  15
BRANCH   1  17
HETATM   17  C11 UNL     1      -3.481   1.378  10.926  1.00  0.00     0.186 C 
BRANCH  17  18
HETATM   18  N1  UNL     1      -3.109   2.810  11.019  1.00  0.00    -0.248 N 
HETATM   19  N2  UNL     1      -3.953   3.686  10.585  1.00  0.00    -0.290 N 
HETATM   20  C12 UNL     1      -3.687   4.969  10.659  1.00  0.00     0.095 A 
ATOM     21  H2  UNL     1      -4.837   3.376  10.180  1.00  0.00     0.187 HD
HETATM   22  S1  UNL     1      -2.149   4.948  11.388  1.00  0.00    -0.011 SA
HETATM   23  C14 UNL     1      -1.968   3.247  11.541  1.00  0.00     0.306 A 
HETATM   24  O4  UNL     1      -0.972   2.598  12.034  1.00  0.00    -0.258 OA
BRANCH  20  25
HETATM   25  C13 UNL     1      -4.576   6.087  10.194  1.00  0.00     0.230 C 
BRANCH  25  26
HETATM   26  O3  UNL     1      -5.865   5.529  10.026  1.00  0.00    -0.394 OA
ATOM     27  H3  UNL     1      -6.268   5.521  10.886  1.00  0.00     0.209 HD
ENDBRANCH  25  26
ENDBRANCH  20  25
ENDBRANCH  17  18
ENDBRANCH   1  17
TORSDOF 9
ENDMDL
MODEL 2
REMARK VINA RESULT: -7.201417906      1.180      1.299
REMARK  9 active torsions:
REMARK  status: ('A' for Active; 'I' for Inactive)
REMARK    1  A    between atoms: C2_2  and  C5_5 
REMARK    2  A    between atoms: C8_8  and  O1_9 
REMARK    3  A    between atoms: O1_9  and  C9_10 
REMARK    4  A    between atoms: C9_10  and  C10_11 
REMARK    5  A    between atoms: C10_11  and  O2_12 
REMARK    6  A    between atoms: C10_11  and  C11_14 
REMARK    7  A    between atoms: C11_14  and  N1_15 
REMARK    8  A    between atoms: C12_18  and  C13_19 
REMARK    9  A    between atoms: C13_19  and  O3_20 
ROOT
HETATM    1  C10 UNL     1      -4.096   1.759  11.320  1.00  0.00     0.162 C 
ENDROOT
BRANCH   1   2
HETATM    2  C9  UNL     1      -4.732   1.753  12.685  1.00  0.00     0.201 C 
BRANCH   2   3
HETATM    3  O1  UNL     1      -5.494   2.854  12.978  1.00  0.00    -0.382 OA
BRANCH   3   4
HETATM    4  C8  UNL     1      -5.035   3.718  13.933  1.00  0.00     0.139 C 
HETATM    5  C7  UNL     1      -6.210   4.298  14.650  1.00  0.00     0.034 C 
HETATM    6  C6  UNL     1      -6.689   3.600  15.862  1.00  0.00     0.008 C 
HETATM    7  C5  UNL     1      -5.971   2.295  16.009  1.00  0.00    -0.006 C 
HETATM    8  C16 UNL     1      -4.500   2.654  16.149  1.00  0.00     0.028 C 
HETATM    9  C15 UNL     1      -4.032   3.029  14.770  1.00  0.00     0.111 C 
HETATM   10 CL1  UNL     1      -2.591   4.084  14.994  1.00  0.00    -0.122 Cl
BRANCH   7  11
HETATM   11  C2  UNL     1      -6.459   1.474  17.173  1.00  0.00    -0.048 C 
HETATM   12  C1  UNL     1      -6.419   2.283  18.427  1.00  0.00     0.015 C 
HETATM   13  C3  UNL     1      -5.769   0.161  17.328  1.00  0.00     0.015 C 
HETATM   14  C4  UNL     1      -7.939   1.177  16.890  1.00  0.00     0.015 C 
ENDBRANCH   7  11
ENDBRANCH   3   4
ENDBRANCH   2   3
ENDBRANCH   1   2
BRANCH   1  15
HETATM   15  O2  UNL     1      -5.054   1.978  10.317  1.00  0.00    -0.392 OA
ATOM     16  H2  UNL     1      -4.736   1.686   9.471  1.00  0.00     0.210 HD
ENDBRANCH   1  15
BRANCH   1  17
HETATM   17  C11 UNL     1      -3.002   2.774  11.257  1.00  0.00     0.186 C 
BRANCH  17  18
HETATM   18  N1  UNL     1      -3.314   3.926  10.379  1.00  0.00    -0.248 N 
HETATM   19  N2  UNL     1      -4.335   4.659  10.679  1.00  0.00    -0.290 N 
HETATM   20  C12 UNL     1      -4.649   5.704   9.950  1.00  0.00     0.095 A 
ATOM     21  H2  UNL     1      -4.903   4.422  11.493  1.00  0.00     0.187 HD
HETATM   22  S1  UNL     1      -3.431   5.658   8.761  1.00  0.00    -0.011 SA
HETATM   23  C14 UNL     1      -2.596   4.263   9.312  1.00  0.00     0.306 A 
HETATM   24  O4  UNL     1      -1.551   3.711   8.801  1.00  0.00    -0.258 OA
BRANCH  20  25
HETATM   25  C13 UNL     1      -5.803   6.635  10.186  1.00  0.00     0.230 C 
BRANCH  25  26
HETATM   26  O3  UNL     1      -6.916   6.068   9.523  1.00  0.00    -0.394 OA
ATOM     27  H3  UNL     1      -7.338   6.778   9.052  1.00  0.00     0.209 HD
ENDBRANCH  25  26
ENDBRANCH  20  25
ENDBRANCH  17  18
ENDBRANCH   1  17
TORSDOF 9
ENDMDL
MODEL 3
REMARK VINA RESULT: -7.199488386      1.453      2.072
REMARK  9 active torsions:
REMARK  status: ('A' for Active; 'I' for Inactive)
REMARK    1  A    between atoms: C2_2  and  C5_5 
REMARK    2  A    between atoms: C8_8  and  O1_9 
REMARK    3  A    between atoms: O1_9  and  C9_10 
REMARK    4  A    between atoms: C9_10  and  C10_11 
REMARK    5  A    between atoms: C10_11  and  O2_12 
REMARK    6  A    between atoms: C10_11  and  C11_14 
REMARK    7  A    between atoms: C11_14  and  N1_15 
REMARK    8  A    between atoms: C12_18  and  C13_19 
REMARK    9  A    between atoms: C13_19  and  O3_20 
ROOT
HETATM    1  C10 UNL     1      -4.830   1.829  11.282  1.00  0.00     0.162 C 
ENDROOT
BRANCH   1   2
HETATM    2  C9  UNL     1      -4.884   2.039  12.772  1.00  0.00     0.201 C 
BRANCH   2   3
HETATM    3  O1  UNL     1      -5.597   3.136  13.181  1.00  0.00    -0.382 OA
BRANCH   3   4
HETATM    4  C8  UNL     1      -5.074   3.907  14.181  1.00  0.00     0.139 C 
HETATM    5  C7  UNL     1      -6.201   4.476  14.978  1.00  0.00     0.034 C 
HETATM    6  C6  UNL     1      -6.669   3.707  16.151  1.00  0.00     0.008 C 
HETATM    7  C5  UNL     1      -6.001   2.369  16.177  1.00  0.00    -0.006 C 
HETATM    8  C16 UNL     1      -4.513   2.660  16.292  1.00  0.00     0.028 C 
HETATM    9  C15 UNL     1      -4.074   3.119  14.930  1.00  0.00     0.111 C 
HETATM   10 CL1  UNL     1      -2.585   4.099  15.182  1.00  0.00    -0.122 Cl
BRANCH   7  11
HETATM   11  C2  UNL     1      -6.485   1.482  17.293  1.00  0.00    -0.048 C 
HETATM   12  C1  UNL     1      -6.475   2.228  18.586  1.00  0.00     0.015 C 
HETATM   13  C3  UNL     1      -5.771   0.177  17.391  1.00  0.00     0.015 C 
HETATM   14  C4  UNL     1      -7.956   1.171  16.978  1.00  0.00     0.015 C 
ENDBRANCH   7  11
ENDBRANCH   3   4
ENDBRANCH   2   3
ENDBRANCH   1   2
BRANCH   1  15
HETATM   15  O2  UNL     1      -6.107   1.560  10.764  1.00  0.00    -0.392 OA
ATOM     16  H2  UNL     1      -6.049   1.082   9.945  1.00  0.00     0.210 HD
ENDBRANCH   1  15
BRANCH   1  17
HETATM   17  C11 UNL     1      -4.207   3.007  10.609  1.00  0.00     0.186 C 
BRANCH  17  18
HETATM   18  N1  UNL     1      -2.769   3.177  10.925  1.00  0.00    -0.248 N 
HETATM   19  N2  UNL     1      -2.403   4.265  11.519  1.00  0.00    -0.290 N 
HETATM   20  C12 UNL     1      -1.146   4.463  11.842  1.00  0.00     0.095 A 
ATOM     21  H2  UNL     1      -3.099   4.977  11.740  1.00  0.00     0.187 HD
HETATM   22  S1  UNL     1      -0.427   3.028  11.276  1.00  0.00    -0.011 SA
HETATM   23  C14 UNL     1      -1.837   2.270  10.653  1.00  0.00     0.306 A 
HETATM   24  O4  UNL     1      -1.931   1.124  10.076  1.00  0.00    -0.258 OA
BRANCH  20  25
HETATM   25  C13 UNL     1      -0.588   5.675  12.531  1.00  0.00     0.230 C 
BRANCH  25  26
HETATM   26  O3  UNL     1       0.801   5.680  12.267  1.00  0.00    -0.394 OA
ATOM     27  H3  UNL     1       0.896   5.592  11.326  1.00  0.00     0.209 HD
ENDBRANCH  25  26
ENDBRANCH  20  25
ENDBRANCH  17  18
ENDBRANCH   1  17
TORSDOF 9
ENDMDL
MODEL 4
REMARK VINA RESULT: -7.173178646      2.897      6.049
REMARK  9 active torsions:
REMARK  status: ('A' for Active; 'I' for Inactive)
REMARK    1  A    between atoms: C2_2  and  C5_5 
REMARK    2  A    between atoms: C8_8  and  O1_9 
REMARK    3  A    between atoms: O1_9  and  C9_10 
REMARK    4  A    between atoms: C9_10  and  C10_11 
REMARK    5  A    between atoms: C10_11  and  O2_12 
REMARK    6  A    between atoms: C10_11  and  C11_14 
REMARK    7  A    between atoms: C11_14  and  N1_15 
REMARK    8  A    between atoms: C12_18  and  C13_19 
REMARK    9  A    between atoms: C13_19  and  O3_20 
ROOT
HETATM    1  C10 UNL     1      -4.618   0.852  15.972  1.00  0.00     0.162 C 
ENDROOT
BRANCH   1   2
HETATM    2  C9  UNL     1      -4.624   0.182  14.624  1.00  0.00     0.201 C 
BRANCH   2   3
HETATM    3  O1  UNL     1      -3.891   0.815  13.654  1.00  0.00    -0.382 OA
BRANCH   3   4
HETATM    4  C8  UNL     1      -4.159   0.517  12.347  1.00  0.00     0.139 C 
HETATM    5  C7  UNL     1      -4.787   1.712  11.709  1.00  0.00     0.034 C 
HETATM    6  C6  UNL     1      -3.894   2.687  11.048  1.00  0.00     0.008 C 
HETATM    7  C5  UNL     1      -2.467   2.341  11.337  1.00  0.00    -0.006 C 
HETATM    8  C16 UNL     1      -2.261   0.952  10.756  1.00  0.00     0.028 C 
HETATM    9  C15 UNL     1      -2.933   0.001  11.706  1.00  0.00     0.111 C 
HETATM   10 CL1  UNL     1      -3.316  -1.479  10.755  1.00  0.00    -0.122 Cl
BRANCH   7  11
HETATM   11  C2  UNL     1      -1.487   3.335  10.772  1.00  0.00    -0.048 C 
HETATM   12  C1  UNL     1      -0.209   3.293  11.542  1.00  0.00     0.015 C 
HETATM   13  C3  UNL     1      -2.023   4.721  10.648  1.00  0.00     0.015 C 
HETATM   14  C4  UNL     1      -1.160   2.847   9.353  1.00  0.00     0.015 C 
ENDBRANCH   7  11
ENDBRANCH   3   4
ENDBRANCH   2   3
ENDBRANCH   1   2
BRANCH   1  15
HETATM   15  O2  UNL     1      -3.318   1.239  16.338  1.00  0.00    -0.392 OA
ATOM     16  H2  UNL     1      -2.828   0.502  16.684  1.00  0.00     0.210 HD
ENDBRANCH   1  15
BRANCH   1  17
HETATM   17  C11 UNL     1      -5.554   2.016  15.983  1.00  0.00     0.186 C 
BRANCH  17  18
HETATM   18  N1  UNL     1      -5.073   3.169  15.187  1.00  0.00    -0.248 N 
HETATM   19  N2  UNL     1      -3.803   3.407  15.168  1.00  0.00    -0.290 N 
HETATM   20  C12 UNL     1      -3.316   4.402  14.465  1.00  0.00     0.095 A 
ATOM     21  H2  UNL     1      -3.172   2.813  15.707  1.00  0.00     0.187 HD
HETATM   22  S1  UNL     1      -4.733   5.052  13.782  1.00  0.00    -0.011 SA
HETATM   23  C14 UNL     1      -5.866   3.963  14.474  1.00  0.00     0.306 A 
HETATM   24  O4  UNL     1      -7.144   3.949  14.324  1.00  0.00    -0.258 OA
BRANCH  20  25
HETATM   25  C13 UNL     1      -1.867   4.786  14.357  1.00  0.00     0.230 C 
BRANCH  25  26
HETATM   26  O3  UNL     1      -1.152   3.876  15.169  1.00  0.00    -0.394 OA
ATOM     27  H3  UNL     1      -0.550   3.418  14.593  1.00  0.00     0.209 HD
ENDBRANCH  25  26
ENDBRANCH  20  25
ENDBRANCH  17  18
ENDBRANCH   1  17
TORSDOF 9
ENDMDL
MODEL 5
REMARK VINA RESULT: -7.042958404      2.985      6.132
REMARK  9 active torsions:
REMARK  status: ('A' for Active; 'I' for Inactive)
REMARK    1  A    between atoms: C2_2  and  C5_5 
REMARK    2  A    between atoms: C8_8  and  O1_9 
REMARK    3  A    between atoms: O1_9  and  C9_10 
REMARK    4  A    between atoms: C9_10  and  C10_11 
REMARK    5  A    between atoms: C10_11  and  O2_12 
REMARK    6  A    between atoms: C10_11  and  C11_14 
REMARK    7  A    between atoms: C11_14  and  N1_15 
REMARK    8  A    between atoms: C12_18  and  C13_19 
REMARK    9  A    between atoms: C13_19  and  O3_20 
ROOT
HETATM    1  C10 UNL     1      -2.369   3.943  14.248  1.00  0.00     0.162 C 
ENDROOT
BRANCH   1   2
HETATM    2  C9  UNL     1      -1.649   4.499  13.049  1.00  0.00     0.201 C 
BRANCH   2   3
HETATM    3  O1  UNL     1      -1.023   3.569  12.260  1.00  0.00    -0.382 OA
BRANCH   3   4
HETATM    4  C8  UNL     1      -1.450   3.428  10.969  1.00  0.00     0.139 C 
HETATM    5  C7  UNL     1      -0.927   2.135  10.437  1.00  0.00     0.034 C 
HETATM    6  C6  UNL     1      -1.776   0.934  10.590  1.00  0.00     0.008 C 
HETATM    7  C5  UNL     1      -2.955   1.257  11.454  1.00  0.00    -0.006 C 
HETATM    8  C16 UNL     1      -3.710   2.352  10.718  1.00  0.00     0.028 C 
HETATM    9  C15 UNL     1      -2.915   3.611  10.919  1.00  0.00     0.111 C 
HETATM   10 CL1  UNL     1      -3.349   4.708   9.559  1.00  0.00    -0.122 Cl
BRANCH   7  11
HETATM   11  C2  UNL     1      -3.831   0.066  11.736  1.00  0.00    -0.048 C 
HETATM   12  C1  UNL     1      -4.330   0.114  13.142  1.00  0.00     0.015 C 
HETATM   13  C3  UNL     1      -3.205  -1.246  11.405  1.00  0.00     0.015 C 
HETATM   14  C4  UNL     1      -5.061   0.222  10.829  1.00  0.00     0.015 C 
ENDBRANCH   7  11
ENDBRANCH   3   4
ENDBRANCH   2   3
ENDBRANCH   1   2
BRANCH   1  15
HETATM   15  O2  UNL     1      -1.504   3.830  15.348  1.00  0.00    -0.392 OA
ATOM     16  H2  UNL     1      -0.806   3.210  15.172  1.00  0.00     0.210 HD
ENDBRANCH   1  15
BRANCH   1  17
HETATM   17  C11 UNL     1      -3.562   4.779  14.577  1.00  0.00     0.186 C 
BRANCH  17  18
HETATM   18  N1  UNL     1      -4.733   3.988  15.024  1.00  0.00    -0.248 N 
HETATM   19  N2  UNL     1      -4.514   2.877  15.646  1.00  0.00    -0.290 N 
HETATM   20  C12 UNL     1      -5.510   2.144  16.083  1.00  0.00     0.095 A 
ATOM     21  H2  UNL     1      -3.554   2.567  15.800  1.00  0.00     0.187 HD
HETATM   22  S1  UNL     1      -6.848   3.073  15.589  1.00  0.00    -0.011 SA
HETATM   23  C14 UNL     1      -5.995   4.362  14.840  1.00  0.00     0.306 A 
HETATM   24  O4  UNL     1      -6.482   5.402  14.260  1.00  0.00    -0.258 OA
BRANCH  20  25
HETATM   25  C13 UNL     1      -5.396   0.839  16.818  1.00  0.00     0.230 C 
BRANCH  25  26
HETATM   26  O3  UNL     1      -6.636   0.179  16.656  1.00  0.00    -0.394 OA
ATOM     27  H3  UNL     1      -6.651  -0.524  17.295  1.00  0.00     0.209 HD
ENDBRANCH  25  26
ENDBRANCH  20  25
ENDBRANCH  17  18
ENDBRANCH   1  17
TORSDOF 9
ENDMDL
