MODEL 1
REMARK VINA RESULT: -7.775227532      0.000      0.000
REMARK  7 active torsions:
REMARK  status: ('A' for Active; 'I' for Inactive)
REMARK    1  A    between atoms: O1_2  and  C2_3 
REMARK    2  A    between atoms: C3_6  and  N2_7 
REMARK    3  A    between atoms: N2_7  and  C4_9 
REMARK    4  A    between atoms: C8_15  and  C9_16 
REMARK    5  A    between atoms: C10_19  and  N5_20 
REMARK    6  A    between atoms: N7_25  and  C11_26 
REMARK    7  A    between atoms: C14_29  and  N8_31 
ROOT
HETATM    1  C9  UNL     1      -2.663   4.591  12.734  1.00  0.00     0.154 A 
HETATM    2  N4  UNL     1      -1.316   4.315  12.947  1.00  0.00    -0.172 N 
ATOM      3  H4  UNL     1      -0.932   3.919  13.804  1.00  0.00     0.186 HD
HETATM    4  C10 UNL     1      -0.606   4.639  11.882  1.00  0.00     0.709 A 
HETATM    5  N6  UNL     1      -1.463   5.112  10.998  1.00  0.00    -0.127 N 
ATOM      6  H6  UNL     1      -1.215   5.447  10.068  1.00  0.00     0.206 HD
HETATM    7  N7  UNL     1      -2.721   5.089  11.504  1.00  0.00    -0.256 N 
ENDROOT
BRANCH   1   8
HETATM    8  C8  UNL     1      -3.629   4.283  13.755  1.00  0.00     0.077 A 
HETATM    9  C2  UNL     1      -4.105   2.957  13.866  1.00  0.00     0.172 A 
HETATM   10  N1  UNL     1      -5.034   2.654  14.785  1.00  0.00    -0.170 N 
HETATM   11  C3  UNL     1      -5.567   3.533  15.638  1.00  0.00     0.680 A 
ATOM     12  H1  UNL     1      -5.354   1.686  14.836  1.00  0.00     0.186 HD
HETATM   13  N3  UNL     1      -5.138   4.791  15.559  1.00  0.00    -0.201 N 
HETATM   14  C7  UNL     1      -4.180   5.164  14.630  1.00  0.00     0.126 A 
ATOM     15  H3  UNL     1      -5.520   5.492  16.193  1.00  0.00     0.183 HD
BRANCH   9  16
HETATM   16  O1  UNL     1      -3.591   1.984  13.004  1.00  0.00    -0.340 OA
HETATM   17  C1  UNL     1      -4.475   1.459  12.035  1.00  0.00     0.211 C 
ENDBRANCH   9  16
BRANCH  11  18
HETATM   18  N2  UNL     1      -6.465   3.194  16.513  1.00  0.00    -0.222 N 
ATOM     19  H2  UNL     1      -7.307   3.765  16.579  1.00  0.00     0.178 HD
BRANCH  18  20
HETATM   20  C4  UNL     1      -6.347   2.073  17.387  1.00  0.00     0.091 C 
HETATM   21  C5  UNL     1      -7.470   1.069  17.160  1.00  0.00     0.032 C 
HETATM   22  C6  UNL     1      -6.206   2.439  18.830  1.00  0.00     0.032 C 
ENDBRANCH  18  20
ENDBRANCH  11  18
ENDBRANCH   1   8
BRANCH   7  23
HETATM   23  C11 UNL     1      -3.873   5.509  10.786  1.00  0.00     0.111 C 
HETATM   24  C12 UNL     1      -3.380   6.213   9.500  1.00  0.00     0.030 C 
HETATM   25  C13 UNL     1      -3.481   7.706   9.586  1.00  0.00     0.044 C 
HETATM   26  C14 UNL     1      -4.974   8.068   9.525  1.00  0.00     0.158 C 
HETATM   27  C15 UNL     1      -5.407   7.627   8.135  1.00  0.00     0.049 C 
HETATM   28  C18 UNL     1      -5.663   7.209  10.505  1.00  0.00     0.022 C 
HETATM   29  C19 UNL     1      -6.795   7.830  11.252  1.00  0.00     0.012 C 
HETATM   30  C20 UNL     1      -4.689   6.583  11.499  1.00  0.00     0.034 C 
BRANCH  26  31
HETATM   31  N8  UNL     1      -5.193   9.462   9.735  1.00  0.00     0.089 N 
HETATM   32  C16 UNL     1      -5.553  10.119   8.452  1.00  0.00     0.310 C 
HETATM   33  C17 UNL     1      -4.032  10.179  10.251  1.00  0.00     0.310 C 
ENDBRANCH  26  31
ENDBRANCH   7  23
BRANCH   4  34
HETATM   34  N5  UNL     1       0.668   4.505  11.766  1.00  0.00    -0.130 N 
HETATM   35 CL1  UNL     1       1.423   3.928  10.311  1.00  0.00     0.026 Cl
ATOM     36  H5  UNL     1       1.259   4.748  12.560  1.00  0.00     0.199 HD
ENDBRANCH   4  34
TORSDOF 7
ENDMDL
MODEL 2
REMARK VINA RESULT: -7.675989550      1.025      1.233
REMARK  7 active torsions:
REMARK  status: ('A' for Active; 'I' for Inactive)
REMARK    1  A    between atoms: O1_2  and  C2_3 
REMARK    2  A    between atoms: C3_6  and  N2_7 
REMARK    3  A    between atoms: N2_7  and  C4_9 
REMARK    4  A    between atoms: C8_15  and  C9_16 
REMARK    5  A    between atoms: C10_19  and  N5_20 
REMARK    6  A    between atoms: N7_25  and  C11_26 
REMARK    7  A    between atoms: C14_29  and  N8_31 
ROOT
HETATM    1  C9  UNL     1      -2.774   4.658  12.392  1.00  0.00     0.154 A 
HETATM    2  N4  UNL     1      -1.384   4.701  12.331  1.00  0.00    -0.172 N 
ATOM      3  H4  UNL     1      -0.759   4.272  13.013  1.00  0.00     0.186 HD
HETATM    4  C10 UNL     1      -0.990   5.375  11.266  1.00  0.00     0.709 A 
HETATM    5  N6  UNL     1      -2.089   5.761  10.648  1.00  0.00    -0.127 N 
ATOM      6  H6  UNL     1      -2.112   6.305   9.786  1.00  0.00     0.206 HD
HETATM    7  N7  UNL     1      -3.184   5.332  11.322  1.00  0.00    -0.256 N 
ENDROOT
BRANCH   1   8
HETATM    8  C8  UNL     1      -3.425   3.942  13.456  1.00  0.00     0.077 A 
HETATM    9  C2  UNL     1      -3.602   2.546  13.330  1.00  0.00     0.172 A 
HETATM   10  N1  UNL     1      -4.240   1.862  14.292  1.00  0.00    -0.170 N 
HETATM   11  C3  UNL     1      -4.740   2.411  15.403  1.00  0.00     0.680 A 
ATOM     12  H1  UNL     1      -4.349   0.855  14.167  1.00  0.00     0.186 HD
HETATM   13  N3  UNL     1      -4.588   3.726  15.551  1.00  0.00    -0.201 N 
HETATM   14  C7  UNL     1      -3.938   4.484  14.591  1.00  0.00     0.126 A 
ATOM     15  H3  UNL     1      -4.955   4.182  16.386  1.00  0.00     0.183 HD
BRANCH   9  16
HETATM   16  O1  UNL     1      -3.103   1.905  12.192  1.00  0.00    -0.340 OA
HETATM   17  C1  UNL     1      -4.044   1.254  11.363  1.00  0.00     0.211 C 
ENDBRANCH   9  16
BRANCH  11  18
HETATM   18  N2  UNL     1      -5.350   1.709  16.309  1.00  0.00    -0.222 N 
ATOM     19  H2  UNL     1      -4.985   0.780  16.520  1.00  0.00     0.178 HD
BRANCH  18  20
HETATM   20  C4  UNL     1      -6.497   2.156  17.029  1.00  0.00     0.091 C 
HETATM   21  C5  UNL     1      -6.144   2.536  18.461  1.00  0.00     0.032 C 
HETATM   22  C6  UNL     1      -7.658   1.214  16.970  1.00  0.00     0.032 C 
ENDBRANCH  18  20
ENDBRANCH  11  18
ENDBRANCH   1   8
BRANCH   7  23
HETATM   23  C11 UNL     1      -4.521   5.564  10.897  1.00  0.00     0.111 C 
HETATM   24  C12 UNL     1      -4.452   6.115   9.453  1.00  0.00     0.030 C 
HETATM   25  C13 UNL     1      -4.686   7.594   9.390  1.00  0.00     0.044 C 
HETATM   26  C14 UNL     1      -6.174   7.836   9.692  1.00  0.00     0.158 C 
HETATM   27  C15 UNL     1      -6.901   7.175   8.530  1.00  0.00     0.049 C 
HETATM   28  C18 UNL     1      -6.492   7.075  10.913  1.00  0.00     0.022 C 
HETATM   29  C19 UNL     1      -7.453   7.712  11.861  1.00  0.00     0.012 C 
HETATM   30  C20 UNL     1      -5.235   6.665  11.674  1.00  0.00     0.034 C 
BRANCH  26  31
HETATM   31  N8  UNL     1      -6.478   9.227   9.791  1.00  0.00     0.089 N 
HETATM   32  C16 UNL     1      -7.151   9.689   8.550  1.00  0.00     0.310 C 
HETATM   33  C17 UNL     1      -5.311  10.084   9.967  1.00  0.00     0.310 C 
ENDBRANCH  26  31
ENDBRANCH   7  23
BRANCH   4  34
HETATM   34  N5  UNL     1       0.232   5.592  10.931  1.00  0.00    -0.130 N 
HETATM   35 CL1  UNL     1       1.479   4.393  11.096  1.00  0.00     0.026 Cl
ATOM     36  H5  UNL     1       0.480   6.505  10.552  1.00  0.00     0.199 HD
ENDBRANCH   4  34
TORSDOF 7
ENDMDL
MODEL 3
REMARK VINA RESULT: -7.570608870      1.362      1.971
REMARK  7 active torsions:
REMARK  status: ('A' for Active; 'I' for Inactive)
REMARK    1  A    between atoms: O1_2  and  C2_3 
REMARK    2  A    between atoms: C3_6  and  N2_7 
REMARK    3  A    between atoms: N2_7  and  C4_9 
REMARK    4  A    between atoms: C8_15  and  C9_16 
REMARK    5  A    between atoms: C10_19  and  N5_20 
REMARK    6  A    between atoms: N7_25  and  C11_26 
REMARK    7  A    between atoms: C14_29  and  N8_31 
ROOT
HETATM    1  C9  UNL     1      -2.605   4.459  11.812  1.00  0.00     0.154 A 
HETATM    2  N4  UNL     1      -1.627   3.747  11.124  1.00  0.00    -0.172 N 
ATOM      3  H4  UNL     1      -1.270   2.833  11.401  1.00  0.00     0.186 HD
HETATM    4  C10 UNL     1      -1.227   4.422  10.062  1.00  0.00     0.709 A 
HETATM    5  N6  UNL     1      -1.923   5.542  10.055  1.00  0.00    -0.127 N 
ATOM      6  H6  UNL     1      -1.838   6.276   9.352  1.00  0.00     0.206 HD
HETATM    7  N7  UNL     1      -2.767   5.579  11.115  1.00  0.00    -0.256 N 
ENDROOT
BRANCH   1   8
HETATM    8  C8  UNL     1      -3.212   3.893  12.987  1.00  0.00     0.077 A 
HETATM    9  C2  UNL     1      -4.136   2.836  12.836  1.00  0.00     0.172 A 
HETATM   10  N1  UNL     1      -4.744   2.318  13.914  1.00  0.00    -0.170 N 
HETATM   11  C3  UNL     1      -4.540   2.733  15.167  1.00  0.00     0.680 A 
ATOM     12  H1  UNL     1      -5.406   1.555  13.767  1.00  0.00     0.186 HD
HETATM   13  N3  UNL     1      -3.672   3.728  15.343  1.00  0.00    -0.201 N 
HETATM   14  C7  UNL     1      -3.014   4.303  14.267  1.00  0.00     0.126 A 
ATOM     15  H3  UNL     1      -3.488   4.073  16.285  1.00  0.00     0.183 HD
BRANCH   9  16
HETATM   16  O1  UNL     1      -4.400   2.351  11.552  1.00  0.00    -0.340 OA
HETATM   17  C1  UNL     1      -4.613   0.960  11.426  1.00  0.00     0.211 C 
ENDBRANCH   9  16
BRANCH  11  18
HETATM   18  N2  UNL     1      -5.150   2.201  16.182  1.00  0.00    -0.222 N 
ATOM     19  H2  UNL     1      -4.604   1.616  16.815  1.00  0.00     0.178 HD
BRANCH  18  20
HETATM   20  C4  UNL     1      -6.535   2.383  16.469  1.00  0.00     0.091 C 
HETATM   21  C5  UNL     1      -6.784   3.690  17.211  1.00  0.00     0.032 C 
HETATM   22  C6  UNL     1      -7.173   1.218  17.157  1.00  0.00     0.032 C 
ENDBRANCH  18  20
ENDBRANCH  11  18
ENDBRANCH   1   8
BRANCH   7  23
HETATM   23  C11 UNL     1      -3.672   6.643  11.373  1.00  0.00     0.111 C 
HETATM   24  C12 UNL     1      -5.090   6.134  11.020  1.00  0.00     0.030 C 
HETATM   25  C13 UNL     1      -5.585   6.671   9.711  1.00  0.00     0.044 C 
HETATM   26  C14 UNL     1      -5.887   8.165   9.914  1.00  0.00     0.158 C 
HETATM   27  C15 UNL     1      -7.033   8.180  10.914  1.00  0.00     0.049 C 
HETATM   28  C18 UNL     1      -4.707   8.755  10.572  1.00  0.00     0.022 C 
HETATM   29  C19 UNL     1      -4.337  10.138  10.154  1.00  0.00     0.012 C 
HETATM   30  C20 UNL     1      -3.482   7.852  10.462  1.00  0.00     0.034 C 
BRANCH  26  31
HETATM   31  N8  UNL     1      -6.239   8.808   8.690  1.00  0.00     0.089 N 
HETATM   32  C16 UNL     1      -7.714   8.955   8.598  1.00  0.00     0.310 C 
HETATM   33  C17 UNL     1      -5.824   8.085   7.493  1.00  0.00     0.310 C 
ENDBRANCH  26  31
ENDBRANCH   7  23
BRANCH   4  34
HETATM   34  N5  UNL     1      -0.333   4.033   9.224  1.00  0.00    -0.130 N 
HETATM   35 CL1  UNL     1       1.348   3.887   9.642  1.00  0.00     0.026 Cl
ATOM     36  H5  UNL     1      -0.622   3.800   8.274  1.00  0.00     0.199 HD
ENDBRANCH   4  34
TORSDOF 7
ENDMDL
MODEL 4
REMARK VINA RESULT: -7.507289292      0.909      1.625
REMARK  7 active torsions:
REMARK  status: ('A' for Active; 'I' for Inactive)
REMARK    1  A    between atoms: O1_2  and  C2_3 
REMARK    2  A    between atoms: C3_6  and  N2_7 
REMARK    3  A    between atoms: N2_7  and  C4_9 
REMARK    4  A    between atoms: C8_15  and  C9_16 
REMARK    5  A    between atoms: C10_19  and  N5_20 
REMARK    6  A    between atoms: N7_25  and  C11_26 
REMARK    7  A    between atoms: C14_29  and  N8_31 
ROOT
HETATM    1  C9  UNL     1      -2.588   5.113  13.111  1.00  0.00     0.154 A 
HETATM    2  N4  UNL     1      -1.361   4.459  13.047  1.00  0.00    -0.172 N 
ATOM      3  H4  UNL     1      -1.100   3.654  13.616  1.00  0.00     0.186 HD
HETATM    4  C10 UNL     1      -0.582   5.028  12.145  1.00  0.00     0.709 A 
HETATM    5  N6  UNL     1      -1.279   6.025  11.634  1.00  0.00    -0.127 N 
ATOM      6  H6  UNL     1      -0.944   6.657  10.907  1.00  0.00     0.206 HD
HETATM    7  N7  UNL     1      -2.503   6.089  12.213  1.00  0.00    -0.256 N 
ENDROOT
BRANCH   1   8
HETATM    8  C8  UNL     1      -3.608   4.638  14.007  1.00  0.00     0.077 A 
HETATM    9  C2  UNL     1      -4.026   3.292  13.910  1.00  0.00     0.172 A 
HETATM   10  N1  UNL     1      -5.004   2.835  14.709  1.00  0.00    -0.170 N 
HETATM   11  C3  UNL     1      -5.639   3.574  15.622  1.00  0.00     0.680 A 
ATOM     12  H1  UNL     1      -5.280   1.858  14.612  1.00  0.00     0.186 HD
HETATM   13  N3  UNL     1      -5.266   4.848  15.738  1.00  0.00    -0.201 N 
HETATM   14  C7  UNL     1      -4.263   5.375  14.941  1.00  0.00     0.126 A 
ATOM     15  H3  UNL     1      -5.726   5.446  16.424  1.00  0.00     0.183 HD
BRANCH   9  16
HETATM   16  O1  UNL     1      -3.405   2.459  12.975  1.00  0.00    -0.340 OA
HETATM   17  C1  UNL     1      -4.170   1.384  12.471  1.00  0.00     0.211 C 
ENDBRANCH   9  16
BRANCH  11  18
HETATM   18  N2  UNL     1      -6.580   3.090  16.375  1.00  0.00    -0.222 N 
ATOM     19  H2  UNL     1      -7.513   3.493  16.292  1.00  0.00     0.178 HD
BRANCH  18  20
HETATM   20  C4  UNL     1      -6.391   2.030  17.310  1.00  0.00     0.091 C 
HETATM   21  C5  UNL     1      -7.497   0.989  17.204  1.00  0.00     0.032 C 
HETATM   22  C6  UNL     1      -6.187   2.490  18.719  1.00  0.00     0.032 C 
ENDBRANCH  18  20
ENDBRANCH  11  18
ENDBRANCH   1   8
BRANCH   7  23
HETATM   23  C11 UNL     1      -3.500   7.038  11.861  1.00  0.00     0.111 C 
HETATM   24  C12 UNL     1      -4.714   6.247  11.319  1.00  0.00     0.030 C 
HETATM   25  C13 UNL     1      -4.817   6.302   9.825  1.00  0.00     0.044 C 
HETATM   26  C14 UNL     1      -5.246   7.729   9.448  1.00  0.00     0.158 C 
HETATM   27  C15 UNL     1      -6.641   7.867  10.040  1.00  0.00     0.049 C 
HETATM   28  C18 UNL     1      -4.356   8.651  10.176  1.00  0.00     0.022 C 
HETATM   29  C19 UNL     1      -3.950   9.892   9.453  1.00  0.00     0.012 C 
HETATM   30  C20 UNL     1      -3.108   7.944  10.698  1.00  0.00     0.034 C 
BRANCH  26  31
HETATM   31  N8  UNL     1      -5.244   7.931   8.035  1.00  0.00     0.089 N 
HETATM   32  C16 UNL     1      -6.638   7.950   7.523  1.00  0.00     0.310 C 
HETATM   33  C17 UNL     1      -4.546   6.893   7.284  1.00  0.00     0.310 C 
ENDBRANCH  26  31
ENDBRANCH   7  23
BRANCH   4  34
HETATM   34  N5  UNL     1       0.613   4.657  11.851  1.00  0.00    -0.130 N 
HETATM   35 CL1  UNL     1       0.999   3.808  10.384  1.00  0.00     0.026 Cl
ATOM     36  H5  UNL     1       1.366   4.870  12.505  1.00  0.00     0.199 HD
ENDBRANCH   4  34
TORSDOF 7
ENDMDL
MODEL 5
REMARK VINA RESULT: -7.425652794      1.398      1.897
REMARK  7 active torsions:
REMARK  status: ('A' for Active; 'I' for Inactive)
REMARK    1  A    between atoms: O1_2  and  C2_3 
REMARK    2  A    between atoms: C3_6  and  N2_7 
REMARK    3  A    between atoms: N2_7  and  C4_9 
REMARK    4  A    between atoms: C8_15  and  C9_16 
REMARK    5  A    between atoms: C10_19  and  N5_20 
REMARK    6  A    between atoms: N7_25  and  C11_26 
REMARK    7  A    between atoms: C14_29  and  N8_31 
ROOT
HETATM    1  C9  UNL     1      -3.738   5.287  12.196  1.00  0.00     0.154 A 
HETATM    2  N4  UNL     1      -2.519   4.702  11.868  1.00  0.00    -0.172 N 
ATOM      3  H4  UNL     1      -2.054   3.979  12.417  1.00  0.00     0.186 HD
HETATM    4  C10 UNL     1      -2.049   5.214  10.746  1.00  0.00     0.709 A 
HETATM    5  N6  UNL     1      -2.935   6.108  10.350  1.00  0.00    -0.127 N 
ATOM      6  H6  UNL     1      -2.853   6.676   9.508  1.00  0.00     0.206 HD
HETATM    7  N7  UNL     1      -3.970   6.163  11.225  1.00  0.00    -0.256 N 
ENDROOT
BRANCH   1   8
HETATM    8  C8  UNL     1      -4.450   4.852  13.368  1.00  0.00     0.077 A 
HETATM    9  C2  UNL     1      -5.196   3.654  13.307  1.00  0.00     0.172 A 
HETATM   10  N1  UNL     1      -5.900   3.249  14.376  1.00  0.00    -0.170 N 
HETATM   11  C3  UNL     1      -5.956   3.907  15.536  1.00  0.00     0.680 A 
ATOM     12  H1  UNL     1      -6.427   2.378  14.296  1.00  0.00     0.186 HD
HETATM   13  N3  UNL     1      -5.262   5.041  15.625  1.00  0.00    -0.201 N 
HETATM   14  C7  UNL     1      -4.517   5.509  14.555  1.00  0.00     0.126 A 
ATOM     15  H3  UNL     1      -5.279   5.573  16.495  1.00  0.00     0.183 HD
BRANCH   9  16
HETATM   16  O1  UNL     1      -5.183   2.913  12.123  1.00  0.00    -0.340 OA
HETATM   17  C1  UNL     1      -4.547   1.652  12.166  1.00  0.00     0.211 C 
ENDBRANCH   9  16
BRANCH  11  18
HETATM   18  N2  UNL     1      -6.650   3.476  16.546  1.00  0.00    -0.222 N 
ATOM     19  H2  UNL     1      -7.448   4.034  16.850  1.00  0.00     0.178 HD
BRANCH  18  20
HETATM   20  C4  UNL     1      -6.368   2.271  17.255  1.00  0.00     0.091 C 
HETATM   21  C5  UNL     1      -7.444   1.220  17.018  1.00  0.00     0.032 C 
HETATM   22  C6  UNL     1      -6.093   2.473  18.712  1.00  0.00     0.032 C 
ENDBRANCH  18  20
ENDBRANCH  11  18
ENDBRANCH   1   8
BRANCH   7  23
HETATM   23  C11 UNL     1      -5.100   7.010  11.066  1.00  0.00     0.111 C 
HETATM   24  C12 UNL     1      -5.987   6.387   9.963  1.00  0.00     0.030 C 
HETATM   25  C13 UNL     1      -5.868   7.105   8.653  1.00  0.00     0.044 C 
HETATM   26  C14 UNL     1      -6.566   8.466   8.811  1.00  0.00     0.158 C 
HETATM   27  C15 UNL     1      -8.027   8.109   9.043  1.00  0.00     0.049 C 
HETATM   28  C18 UNL     1      -6.048   9.071  10.052  1.00  0.00     0.022 C 
HETATM   29  C19 UNL     1      -5.848  10.549  10.036  1.00  0.00     0.012 C 
HETATM   30  C20 UNL     1      -4.763   8.395  10.522  1.00  0.00     0.034 C 
BRANCH  26  31
HETATM   31  N8  UNL     1      -6.393   9.290   7.659  1.00  0.00     0.089 N 
HETATM   32  C16 UNL     1      -7.637   9.293   6.846  1.00  0.00     0.310 C 
HETATM   33  C17 UNL     1      -5.323   8.857   6.768  1.00  0.00     0.310 C 
ENDBRANCH  26  31
ENDBRANCH   7  23
BRANCH   4  34
HETATM   34  N5  UNL     1      -0.944   4.883  10.179  1.00  0.00    -0.130 N 
HETATM   35 CL1  UNL     1      -0.131   3.383  10.509  1.00  0.00     0.026 Cl
ATOM     36  H5  UNL     1      -0.526   5.528   9.509  1.00  0.00     0.199 HD
ENDBRANCH   4  34
TORSDOF 7
ENDMDL
