MODEL 1
REMARK VINA RESULT: -8.296495928      0.000      0.000
REMARK  7 active torsions:
REMARK  status: ('A' for Active; 'I' for Inactive)
REMARK    1  A    between atoms: O1_2  and  S1_3 
REMARK    2  A    between atoms: S1_3  and  O4_6 
REMARK    3  A    between atoms: O4_6  and  C2_7 
REMARK    4  A    between atoms: C4_9  and  O5_10 
REMARK    5  A    between atoms: C7_14  and  C8_15 
REMARK    6  A    between atoms: C8_15  and  C9_16 
REMARK    7  A    between atoms: C10_17  and  O6_18 
ROOT
HETATM    1  C2  UNL     1      -4.614   2.376  13.391  1.00  0.00     0.159 C 
HETATM    2  C3  UNL     1      -4.102   1.421  12.333  1.00  0.00     0.066 C 
HETATM    3  C4  UNL     1      -4.720   1.685  10.985  1.00  0.00     0.124 C 
HETATM    4  C5  UNL     1      -4.244   3.017  10.501  1.00  0.00     0.066 C 
HETATM    5  C6  UNL     1      -4.183   4.036  11.574  1.00  0.00    -0.071 C 
HETATM    6  C7  UNL     1      -3.797   5.262  11.216  1.00  0.00    -0.023 C 
HETATM    7  C17 UNL     1      -4.509   3.803  12.988  1.00  0.00     0.003 C 
HETATM    8  C18 UNL     1      -3.464   4.547  13.816  1.00  0.00     0.022 C 
HETATM    9  C19 UNL     1      -5.836   4.526  13.254  1.00  0.00     0.022 C 
ENDROOT
BRANCH   6  10
HETATM   10  C8  UNL     1      -3.439   5.627   9.818  1.00  0.00     0.035 C 
BRANCH  10  11
HETATM   11  C9  UNL     1      -4.139   6.897   9.396  1.00  0.00     0.026 C 
HETATM   12  C10 UNL     1      -4.261   7.007   7.894  1.00  0.00     0.126 C 
HETATM   13  C11 UNL     1      -5.271   8.131   7.757  1.00  0.00     0.070 C 
HETATM   14  C12 UNL     1      -6.302   7.749   8.793  1.00  0.00     0.065 C 
HETATM   15  C13 UNL     1      -7.422   7.002   8.103  1.00  0.00     0.046 C 
HETATM   16  O7  UNL     1      -6.845   8.830   9.441  1.00  0.00    -0.379 OA
HETATM   17  C16 UNL     1      -5.591   6.899   9.822  1.00  0.00     0.047 C 
HETATM   18  C14 UNL     1      -6.185   9.021  10.628  1.00  0.00     0.189 C 
HETATM   19  C15 UNL     1      -5.769   7.660  11.124  1.00  0.00     0.113 C 
HETATM   20 CL1  UNL     1      -7.055   6.866  12.052  1.00  0.00    -0.122 Cl
BRANCH  12  21
HETATM   21  O6  UNL     1      -4.801   5.832   7.380  1.00  0.00    -0.395 OA
ATOM     22  H6  UNL     1      -4.972   5.937   6.451  1.00  0.00     0.210 HD
ENDBRANCH  12  21
ENDBRANCH  10  11
ENDBRANCH   6  10
BRANCH   3  23
HETATM   23  O5  UNL     1      -4.242   0.712  10.108  1.00  0.00    -0.395 OA
ATOM     24  H5  UNL     1      -3.750   0.082  10.623  1.00  0.00     0.210 HD
ENDBRANCH   3  23
BRANCH   1  25
HETATM   25  O4  UNL     1      -3.821   2.168  14.516  1.00  0.00    -0.247 OA
BRANCH  25  26
HETATM   26  S1  UNL     1      -4.545   1.192  15.654  1.00  0.00     0.402 S 
HETATM   27  O2  UNL     1      -3.567   0.944  16.764  1.00  0.00    -0.169 OA
HETATM   28  O3  UNL     1      -4.812  -0.149  15.008  1.00  0.00    -0.169 OA
BRANCH  26  29
HETATM   29  O1  UNL     1      -6.003   1.791  16.198  1.00  0.00    -0.259 OA
HETATM   30  C1  UNL     1      -6.536   0.875  17.106  1.00  0.00     0.228 C 
ENDBRANCH  26  29
ENDBRANCH  25  26
ENDBRANCH   1  25
TORSDOF 7
ENDMDL
MODEL 2
REMARK VINA RESULT: -8.258522617      1.655      2.365
REMARK  7 active torsions:
REMARK  status: ('A' for Active; 'I' for Inactive)
REMARK    1  A    between atoms: O1_2  and  S1_3 
REMARK    2  A    between atoms: S1_3  and  O4_6 
REMARK    3  A    between atoms: O4_6  and  C2_7 
REMARK    4  A    between atoms: C4_9  and  O5_10 
REMARK    5  A    between atoms: C7_14  and  C8_15 
REMARK    6  A    between atoms: C8_15  and  C9_16 
REMARK    7  A    between atoms: C10_17  and  O6_18 
ROOT
HETATM    1  C2  UNL     1      -4.697   2.763  13.567  1.00  0.00     0.159 C 
HETATM    2  C3  UNL     1      -3.980   2.190  12.362  1.00  0.00     0.066 C 
HETATM    3  C4  UNL     1      -4.642   2.587  11.068  1.00  0.00     0.124 C 
HETATM    4  C5  UNL     1      -4.483   4.063  10.890  1.00  0.00     0.066 C 
HETATM    5  C6  UNL     1      -4.656   4.821  12.151  1.00  0.00    -0.071 C 
HETATM    6  C7  UNL     1      -4.561   6.149  12.070  1.00  0.00    -0.023 C 
HETATM    7  C17 UNL     1      -4.921   4.229  13.471  1.00  0.00     0.003 C 
HETATM    8  C18 UNL     1      -4.073   4.997  14.482  1.00  0.00     0.022 C 
HETATM    9  C19 UNL     1      -6.378   4.565  13.814  1.00  0.00     0.022 C 
ENDROOT
BRANCH   6  10
HETATM   10  C8  UNL     1      -4.297   6.870  10.796  1.00  0.00     0.035 C 
BRANCH  10  11
HETATM   11  C9  UNL     1      -5.521   6.870   9.911  1.00  0.00     0.026 C 
HETATM   12  C10 UNL     1      -6.706   7.527  10.580  1.00  0.00     0.126 C 
HETATM   13  C11 UNL     1      -7.648   7.713   9.405  1.00  0.00     0.070 C 
HETATM   14  C12 UNL     1      -6.713   8.240   8.340  1.00  0.00     0.065 C 
HETATM   15  C13 UNL     1      -6.805   9.749   8.324  1.00  0.00     0.046 C 
HETATM   16  O7  UNL     1      -7.013   7.779   7.083  1.00  0.00    -0.379 OA
HETATM   17  C16 UNL     1      -5.328   7.750   8.696  1.00  0.00     0.047 C 
HETATM   18  C14 UNL     1      -6.218   6.698   6.797  1.00  0.00     0.189 C 
HETATM   19  C15 UNL     1      -4.902   6.923   7.496  1.00  0.00     0.113 C 
HETATM   20 CL1  UNL     1      -3.790   7.904   6.522  1.00  0.00    -0.122 Cl
BRANCH  12  21
HETATM   21  O6  UNL     1      -6.332   8.772  11.078  1.00  0.00    -0.395 OA
ATOM     22  H6  UNL     1      -7.095   9.220  11.424  1.00  0.00     0.210 HD
ENDBRANCH  12  21
ENDBRANCH  10  11
ENDBRANCH   6  10
BRANCH   3  23
HETATM   23  O5  UNL     1      -3.955   1.952  10.035  1.00  0.00    -0.395 OA
ATOM     24  H5  UNL     1      -4.301   2.285   9.216  1.00  0.00     0.210 HD
ENDBRANCH   3  23
BRANCH   1  25
HETATM   25  O4  UNL     1      -3.878   2.505  14.663  1.00  0.00    -0.247 OA
BRANCH  25  26
HETATM   26  S1  UNL     1      -4.522   1.384  15.711  1.00  0.00     0.402 S 
HETATM   27  O2  UNL     1      -3.478   1.023  16.726  1.00  0.00    -0.169 OA
HETATM   28  O3  UNL     1      -4.809   0.127  14.923  1.00  0.00    -0.169 OA
BRANCH  26  29
HETATM   29  O1  UNL     1      -5.953   1.884  16.405  1.00  0.00    -0.259 OA
HETATM   30  C1  UNL     1      -6.502   0.802  17.093  1.00  0.00     0.228 C 
ENDBRANCH  26  29
ENDBRANCH  25  26
ENDBRANCH   1  25
TORSDOF 7
ENDMDL
MODEL 3
REMARK VINA RESULT: -8.203439119      2.844      4.189
REMARK  7 active torsions:
REMARK  status: ('A' for Active; 'I' for Inactive)
REMARK    1  A    between atoms: O1_2  and  S1_3 
REMARK    2  A    between atoms: S1_3  and  O4_6 
REMARK    3  A    between atoms: O4_6  and  C2_7 
REMARK    4  A    between atoms: C4_9  and  O5_10 
REMARK    5  A    between atoms: C7_14  and  C8_15 
REMARK    6  A    between atoms: C8_15  and  C9_16 
REMARK    7  A    between atoms: C10_17  and  O6_18 
ROOT
HETATM    1  C2  UNL     1      -4.609   2.325  13.385  1.00  0.00     0.159 C 
HETATM    2  C3  UNL     1      -4.195   1.370  12.284  1.00  0.00     0.066 C 
HETATM    3  C4  UNL     1      -4.849   1.704  10.970  1.00  0.00     0.124 C 
HETATM    4  C5  UNL     1      -4.317   3.019  10.498  1.00  0.00     0.066 C 
HETATM    5  C6  UNL     1      -4.156   4.005  11.591  1.00  0.00    -0.071 C 
HETATM    6  C7  UNL     1      -3.715   5.216  11.247  1.00  0.00    -0.023 C 
HETATM    7  C17 UNL     1      -4.439   3.754  13.012  1.00  0.00     0.003 C 
HETATM    8  C18 UNL     1      -3.320   4.416  13.814  1.00  0.00     0.022 C 
HETATM    9  C19 UNL     1      -5.710   4.543  13.349  1.00  0.00     0.022 C 
ENDROOT
BRANCH   6  10
HETATM   10  C8  UNL     1      -3.392   5.596   9.845  1.00  0.00     0.035 C 
BRANCH  10  11
HETATM   11  C9  UNL     1      -1.900   5.726   9.650  1.00  0.00     0.026 C 
HETATM   12  C10 UNL     1      -1.418   7.140   9.882  1.00  0.00     0.126 C 
HETATM   13  C11 UNL     1       0.082   6.932   9.978  1.00  0.00     0.070 C 
HETATM   14  C12 UNL     1       0.170   5.714  10.868  1.00  0.00     0.065 C 
HETATM   15  C13 UNL     1       0.399   6.174  12.290  1.00  0.00     0.046 C 
HETATM   16  O7  UNL     1       1.190   4.864  10.523  1.00  0.00    -0.379 OA
HETATM   17  C16 UNL     1      -1.133   4.964  10.709  1.00  0.00     0.047 C 
HETATM   18  C14 UNL     1       0.692   3.860   9.733  1.00  0.00     0.189 C 
HETATM   19  C15 UNL     1      -0.719   3.597  10.192  1.00  0.00     0.113 C 
HETATM   20 CL1  UNL     1      -0.778   2.457  11.550  1.00  0.00    -0.122 Cl
BRANCH  12  21
HETATM   21  O6  UNL     1      -1.901   7.607  11.101  1.00  0.00    -0.395 OA
ATOM     22  H6  UNL     1      -2.849   7.545  11.114  1.00  0.00     0.210 HD
ENDBRANCH  12  21
ENDBRANCH  10  11
ENDBRANCH   6  10
BRANCH   3  23
HETATM   23  O5  UNL     1      -4.463   0.728  10.051  1.00  0.00    -0.395 OA
ATOM     24  H5  UNL     1      -4.329   1.161   9.216  1.00  0.00     0.210 HD
ENDBRANCH   3  23
BRANCH   1  25
HETATM   25  O4  UNL     1      -3.786   2.043  14.471  1.00  0.00    -0.247 OA
BRANCH  25  26
HETATM   26  S1  UNL     1      -4.546   1.152  15.653  1.00  0.00     0.402 S 
HETATM   27  O2  UNL     1      -3.597   0.971  16.801  1.00  0.00    -0.169 OA
HETATM   28  O3  UNL     1      -4.811  -0.227  15.093  1.00  0.00    -0.169 OA
BRANCH  26  29
HETATM   29  O1  UNL     1      -6.010   1.797  16.120  1.00  0.00    -0.259 OA
HETATM   30  C1  UNL     1      -6.586   0.936  17.054  1.00  0.00     0.228 C 
ENDBRANCH  26  29
ENDBRANCH  25  26
ENDBRANCH   1  25
TORSDOF 7
ENDMDL
MODEL 4
REMARK VINA RESULT: -8.157861632      1.594      1.987
REMARK  7 active torsions:
REMARK  status: ('A' for Active; 'I' for Inactive)
REMARK    1  A    between atoms: O1_2  and  S1_3 
REMARK    2  A    between atoms: S1_3  and  O4_6 
REMARK    3  A    between atoms: O4_6  and  C2_7 
REMARK    4  A    between atoms: C4_9  and  O5_10 
REMARK    5  A    between atoms: C7_14  and  C8_15 
REMARK    6  A    between atoms: C8_15  and  C9_16 
REMARK    7  A    between atoms: C10_17  and  O6_18 
ROOT
HETATM    1  C2  UNL     1      -4.661   2.796  13.574  1.00  0.00     0.159 C 
HETATM    2  C3  UNL     1      -4.108   2.116  12.338  1.00  0.00     0.066 C 
HETATM    3  C4  UNL     1      -4.762   2.616  11.076  1.00  0.00     0.124 C 
HETATM    4  C5  UNL     1      -4.376   4.047  10.880  1.00  0.00     0.066 C 
HETATM    5  C6  UNL     1      -4.361   4.821  12.142  1.00  0.00    -0.071 C 
HETATM    6  C7  UNL     1      -4.058   6.117  12.047  1.00  0.00    -0.023 C 
HETATM    7  C17 UNL     1      -4.651   4.278  13.478  1.00  0.00     0.003 C 
HETATM    8  C18 UNL     1      -3.640   4.899  14.440  1.00  0.00     0.022 C 
HETATM    9  C19 UNL     1      -6.015   4.845  13.892  1.00  0.00     0.022 C 
ENDROOT
BRANCH   6  10
HETATM   10  C8  UNL     1      -3.745   6.787  10.756  1.00  0.00     0.035 C 
BRANCH  10  11
HETATM   11  C9  UNL     1      -4.609   8.011  10.560  1.00  0.00     0.026 C 
HETATM   12  C10 UNL     1      -3.804   9.289  10.612  1.00  0.00     0.126 C 
HETATM   13  C11 UNL     1      -4.796  10.291  10.052  1.00  0.00     0.070 C 
HETATM   14  C12 UNL     1      -5.358   9.540   8.866  1.00  0.00     0.065 C 
HETATM   15  C13 UNL     1      -4.610   9.972   7.626  1.00  0.00     0.046 C 
HETATM   16  O7  UNL     1      -6.695   9.773   8.663  1.00  0.00    -0.379 OA
HETATM   17  C16 UNL     1      -5.183   8.067   9.161  1.00  0.00     0.047 C 
HETATM   18  C14 UNL     1      -7.421   8.764   9.243  1.00  0.00     0.189 C 
HETATM   19  C15 UNL     1      -6.595   7.509   9.137  1.00  0.00     0.113 C 
HETATM   20 CL1  UNL     1      -6.831   6.684   7.584  1.00  0.00    -0.122 Cl
BRANCH  12  21
HETATM   21  O6  UNL     1      -2.710   9.190   9.757  1.00  0.00    -0.395 OA
ATOM     22  H6  UNL     1      -2.094   9.888   9.944  1.00  0.00     0.210 HD
ENDBRANCH  12  21
ENDBRANCH  10  11
ENDBRANCH   6  10
BRANCH   3  23
HETATM   23  O5  UNL     1      -4.239   1.879  10.015  1.00  0.00    -0.395 OA
ATOM     24  H5  UNL     1      -4.845   1.958   9.287  1.00  0.00     0.210 HD
ENDBRANCH   3  23
BRANCH   1  25
HETATM   25  O4  UNL     1      -3.840   2.408  14.628  1.00  0.00    -0.247 OA
BRANCH  25  26
HETATM   26  S1  UNL     1      -4.557   1.300  15.642  1.00  0.00     0.402 S 
HETATM   27  O2  UNL     1      -3.575   0.926  16.714  1.00  0.00    -0.169 OA
HETATM   28  O3  UNL     1      -4.819   0.044  14.842  1.00  0.00    -0.169 OA
BRANCH  26  29
HETATM   29  O1  UNL     1      -6.017   1.822  16.255  1.00  0.00    -0.259 OA
HETATM   30  C1  UNL     1      -6.510   0.831  17.104  1.00  0.00     0.228 C 
ENDBRANCH  26  29
ENDBRANCH  25  26
ENDBRANCH   1  25
TORSDOF 7
ENDMDL
MODEL 5
REMARK VINA RESULT: -8.049711755      2.984      3.648
REMARK  7 active torsions:
REMARK  status: ('A' for Active; 'I' for Inactive)
REMARK    1  A    between atoms: O1_2  and  S1_3 
REMARK    2  A    between atoms: S1_3  and  O4_6 
REMARK    3  A    between atoms: O4_6  and  C2_7 
REMARK    4  A    between atoms: C4_9  and  O5_10 
REMARK    5  A    between atoms: C7_14  and  C8_15 
REMARK    6  A    between atoms: C8_15  and  C9_16 
REMARK    7  A    between atoms: C10_17  and  O6_18 
ROOT
HETATM    1  C2  UNL     1      -4.669   2.862  13.611  1.00  0.00     0.159 C 
HETATM    2  C3  UNL     1      -4.072   2.329  12.324  1.00  0.00     0.066 C 
HETATM    3  C4  UNL     1      -4.754   2.896  11.107  1.00  0.00     0.124 C 
HETATM    4  C5  UNL     1      -4.458   4.360  11.039  1.00  0.00     0.066 C 
HETATM    5  C6  UNL     1      -4.494   5.020  12.364  1.00  0.00    -0.071 C 
HETATM    6  C7  UNL     1      -4.271   6.335  12.385  1.00  0.00    -0.023 C 
HETATM    7  C17 UNL     1      -4.751   4.345  13.645  1.00  0.00     0.003 C 
HETATM    8  C18 UNL     1      -3.783   4.941  14.665  1.00  0.00     0.022 C 
HETATM    9  C19 UNL     1      -6.149   4.787  14.096  1.00  0.00     0.022 C 
ENDROOT
BRANCH   6  10
HETATM   10  C8  UNL     1      -3.999   7.134  11.160  1.00  0.00     0.035 C 
BRANCH  10  11
HETATM   11  C9  UNL     1      -2.550   7.556  11.101  1.00  0.00     0.026 C 
HETATM   12  C10 UNL     1      -2.284   8.524   9.971  1.00  0.00     0.126 C 
HETATM   13  C11 UNL     1      -0.908   9.045  10.340  1.00  0.00     0.070 C 
HETATM   14  C12 UNL     1      -1.060   9.296  11.823  1.00  0.00     0.065 C 
HETATM   15  C13 UNL     1      -1.390  10.757  12.032  1.00  0.00     0.046 C 
HETATM   16  O7  UNL     1       0.074   9.006  12.539  1.00  0.00    -0.379 OA
HETATM   17  C16 UNL     1      -2.162   8.381  12.309  1.00  0.00     0.047 C 
HETATM   18  C14 UNL     1      -0.034   7.743  13.063  1.00  0.00     0.189 C 
HETATM   19  C15 UNL     1      -1.494   7.514  13.360  1.00  0.00     0.113 C 
HETATM   20 CL1  UNL     1      -1.955   8.135  14.957  1.00  0.00    -0.122 Cl
BRANCH  12  21
HETATM   21  O6  UNL     1      -3.205   9.566  10.020  1.00  0.00    -0.395 OA
ATOM     22  H6  UNL     1      -3.354   9.819  10.924  1.00  0.00     0.210 HD
ENDBRANCH  12  21
ENDBRANCH  10  11
ENDBRANCH   6  10
BRANCH   3  23
HETATM   23  O5  UNL     1      -4.183   2.288   9.989  1.00  0.00    -0.395 OA
ATOM     24  H5  UNL     1      -4.380   2.835   9.237  1.00  0.00     0.210 HD
ENDBRANCH   3  23
BRANCH   1  25
HETATM   25  O4  UNL     1      -3.827   2.435  14.634  1.00  0.00    -0.247 OA
BRANCH  25  26
HETATM   26  S1  UNL     1      -4.543   1.331  15.652  1.00  0.00     0.402 S 
HETATM   27  O2  UNL     1      -3.555   0.949  16.714  1.00  0.00    -0.169 OA
HETATM   28  O3  UNL     1      -4.822   0.079  14.853  1.00  0.00    -0.169 OA
BRANCH  26  29
HETATM   29  O1  UNL     1      -5.993   1.864  16.279  1.00  0.00    -0.259 OA
HETATM   30  C1  UNL     1      -6.526   0.843  17.067  1.00  0.00     0.228 C 
ENDBRANCH  26  29
ENDBRANCH  25  26
ENDBRANCH   1  25
TORSDOF 7
ENDMDL
