MODEL 1
REMARK VINA RESULT: -8.085748271      0.000      0.000
REMARK  11 active torsions:
REMARK  status: ('A' for Active; 'I' for Inactive)
REMARK    1  A    between atoms: C4_4  and  C5_5 
REMARK    2  A    between atoms: C9_13  and  C10_14 
REMARK    3  A    between atoms: C10_14  and  O1_15 
REMARK    4  A    between atoms: C10_14  and  C11_17 
REMARK    5  A    between atoms: C11_17  and  N3_18 
REMARK    6  A    between atoms: N3_18  and  C12_20 
REMARK    7  A    between atoms: C12_20  and  C13_21 
REMARK    8  A    between atoms: C13_21  and  N4_22 
REMARK    9  A    between atoms: N4_22  and  C15_24 
REMARK   10  A    between atoms: C15_24  and  C16_25 
REMARK   11  A    between atoms: C16_25  and  S1_26 
ROOT
HETATM    1  C1  UNL     1      11.533   6.176  25.477  1.00  0.00     0.048 C 
HETATM    2  C2  UNL     1      12.927   6.576  25.071  1.00  0.00    -0.059 A 
HETATM    3  C3  UNL     1      13.497   7.739  25.485  1.00  0.00     0.020 A 
HETATM    4  C4  UNL     1      14.799   8.123  25.114  1.00  0.00    -0.009 A 
HETATM    5  C8  UNL     1      15.550   7.323  24.307  1.00  0.00     0.012 A 
HETATM    6  C9  UNL     1      16.830   7.415  23.750  1.00  0.00     0.004 A 
HETATM    7  C17 UNL     1      16.982   6.243  22.992  1.00  0.00     0.099 A 
HETATM    8  N5  UNL     1      15.878   5.514  23.089  1.00  0.00    -0.365 N 
ATOM      9  H5  UNL     1      15.735   4.615  22.629  1.00  0.00     0.165 HD
HETATM   10  C18 UNL     1      14.972   6.121  23.875  1.00  0.00     0.044 A 
HETATM   11  C19 UNL     1      13.694   5.781  24.261  1.00  0.00     0.037 A 
ENDROOT
BRANCH   6  12
HETATM   12  C10 UNL     1      17.809   8.501  23.886  1.00  0.00     0.192 C 
BRANCH  12  13
HETATM   13  O1  UNL     1      17.543   9.606  23.095  1.00  0.00    -0.386 OA
ATOM     14  H1  UNL     1      16.859  10.171  23.434  1.00  0.00     0.210 HD
ENDBRANCH  12  13
BRANCH  12  15
HETATM   15  C11 UNL     1      19.143   7.946  23.334  1.00  0.00     0.097 C 
BRANCH  15  16
HETATM   16  N3  UNL     1      19.946   8.842  22.652  1.00  0.00    -0.375 N 
ATOM     17  H3  UNL     1      19.675   9.102  21.703  1.00  0.00     0.164 HD
BRANCH  16  18
HETATM   18  C12 UNL     1      21.104   9.411  23.183  1.00  0.00     0.104 C 
BRANCH  18  19
HETATM   19  C13 UNL     1      22.398   8.704  22.785  1.00  0.00     0.106 C 
BRANCH  19  20
HETATM   20  N4  UNL     1      23.442   8.894  23.704  1.00  0.00    -0.372 N 
HETATM   21  C14 UNL     1      24.769   8.678  23.307  1.00  0.00     0.154 C 
BRANCH  20  22
HETATM   22  C15 UNL     1      23.173   9.015  25.074  1.00  0.00     0.079 C 
BRANCH  22  23
HETATM   23  C16 UNL     1      23.607   7.839  25.881  1.00  0.00     0.201 C 
BRANCH  23  24
HETATM   24  S1  UNL     1      22.337   7.186  26.654  1.00  0.00     0.255 S 
HETATM   25  O2  UNL     1      21.104   7.251  26.059  1.00  0.00    -0.211 OA
HETATM   26  O3  UNL     1      22.630   5.767  27.191  1.00  0.00    -0.211 OA
ENDBRANCH  23  24
ENDBRANCH  22  23
ENDBRANCH  20  22
ENDBRANCH  19  20
ENDBRANCH  18  19
ENDBRANCH  16  18
ENDBRANCH  15  16
ENDBRANCH  12  15
ENDBRANCH   6  12
BRANCH   4  27
HETATM   27  C5  UNL     1      15.302   9.357  25.671  1.00  0.00     0.009 A 
HETATM   28  C6  UNL     1      15.020  10.609  25.165  1.00  0.00     0.120 A 
HETATM   29  N1  UNL     1      15.560  11.518  26.013  1.00  0.00    -0.311 N 
HETATM   30  N2  UNL     1      16.155  10.888  27.008  1.00  0.00    -0.311 N 
ATOM     31  H1  UNL     1      15.512  12.531  25.900  1.00  0.00     0.186 HD
HETATM   32  C7  UNL     1      16.006   9.542  26.814  1.00  0.00     0.120 A 
ATOM     33  H2  UNL     1      16.643  11.329  27.788  1.00  0.00     0.186 HD
ENDBRANCH   4  27
TORSDOF 11
ENDMDL
MODEL 2
REMARK VINA RESULT: -8.024978830      1.855      2.157
REMARK  11 active torsions:
REMARK  status: ('A' for Active; 'I' for Inactive)
REMARK    1  A    between atoms: C4_4  and  C5_5 
REMARK    2  A    between atoms: C9_13  and  C10_14 
REMARK    3  A    between atoms: C10_14  and  O1_15 
REMARK    4  A    between atoms: C10_14  and  C11_17 
REMARK    5  A    between atoms: C11_17  and  N3_18 
REMARK    6  A    between atoms: N3_18  and  C12_20 
REMARK    7  A    between atoms: C12_20  and  C13_21 
REMARK    8  A    between atoms: C13_21  and  N4_22 
REMARK    9  A    between atoms: N4_22  and  C15_24 
REMARK   10  A    between atoms: C15_24  and  C16_25 
REMARK   11  A    between atoms: C16_25  and  S1_26 
ROOT
HETATM    1  C1  UNL     1      11.568   6.769  25.350  1.00  0.00     0.048 C 
HETATM    2  C2  UNL     1      13.024   6.942  25.003  1.00  0.00    -0.059 A 
HETATM    3  C3  UNL     1      13.726   8.052  25.356  1.00  0.00     0.020 A 
HETATM    4  C4  UNL     1      15.085   8.225  25.041  1.00  0.00    -0.009 A 
HETATM    5  C8  UNL     1      15.761   7.263  24.353  1.00  0.00     0.012 A 
HETATM    6  C9  UNL     1      17.070   7.133  23.875  1.00  0.00     0.004 A 
HETATM    7  C17 UNL     1      17.099   5.887  23.228  1.00  0.00     0.099 A 
HETATM    8  N5  UNL     1      15.901   5.323  23.313  1.00  0.00    -0.365 N 
ATOM      9  H5  UNL     1      15.661   4.412  22.921  1.00  0.00     0.165 HD
HETATM   10  C18 UNL     1      15.047   6.114  23.985  1.00  0.00     0.044 A 
HETATM   11  C19 UNL     1      13.716   5.982  24.315  1.00  0.00     0.037 A 
ENDROOT
BRANCH   6  12
HETATM   12  C10 UNL     1      18.180   8.088  23.984  1.00  0.00     0.192 C 
BRANCH  12  13
HETATM   13  O1  UNL     1      18.674   8.524  22.767  1.00  0.00    -0.386 OA
ATOM     14  H1  UNL     1      19.383   7.993  22.423  1.00  0.00     0.210 HD
ENDBRANCH  12  13
BRANCH  12  15
HETATM   15  C11 UNL     1      19.355   7.306  24.619  1.00  0.00     0.097 C 
BRANCH  15  16
HETATM   16  N3  UNL     1      20.316   8.061  25.267  1.00  0.00    -0.375 N 
ATOM     17  H3  UNL     1      20.171   9.070  25.331  1.00  0.00     0.164 HD
BRANCH  16  18
HETATM   18  C12 UNL     1      21.471   7.527  25.838  1.00  0.00     0.104 C 
BRANCH  18  19
HETATM   19  C13 UNL     1      22.528   8.563  26.218  1.00  0.00     0.106 C 
BRANCH  19  20
HETATM   20  N4  UNL     1      23.650   8.551  25.374  1.00  0.00    -0.372 N 
HETATM   21  C14 UNL     1      24.794   7.832  25.745  1.00  0.00     0.154 C 
BRANCH  20  22
HETATM   22  C15 UNL     1      23.755   9.464  24.316  1.00  0.00     0.079 C 
BRANCH  22  23
HETATM   23  C16 UNL     1      23.743   8.829  22.967  1.00  0.00     0.201 C 
BRANCH  23  24
HETATM   24  S1  UNL     1      22.230   8.788  22.377  1.00  0.00     0.255 S 
HETATM   25  O2  UNL     1      21.619   7.570  22.226  1.00  0.00    -0.211 OA
HETATM   26  O3  UNL     1      21.294   9.808  23.062  1.00  0.00    -0.211 OA
ENDBRANCH  23  24
ENDBRANCH  22  23
ENDBRANCH  20  22
ENDBRANCH  19  20
ENDBRANCH  18  19
ENDBRANCH  16  18
ENDBRANCH  15  16
ENDBRANCH  12  15
ENDBRANCH   6  12
BRANCH   4  27
HETATM   27  C5  UNL     1      15.723   9.427  25.525  1.00  0.00     0.009 A 
HETATM   28  C6  UNL     1      15.948  10.550  24.756  1.00  0.00     0.120 A 
HETATM   29  N1  UNL     1      16.448  11.506  25.577  1.00  0.00    -0.311 N 
HETATM   30  N2  UNL     1      16.540  11.028  26.802  1.00  0.00    -0.311 N 
ATOM     31  H1  UNL     1      16.711  12.450  25.291  1.00  0.00     0.186 HD
HETATM   32  C7  UNL     1      16.093   9.734  26.792  1.00  0.00     0.120 A 
ATOM     33  H2  UNL     1      16.885  11.534  27.618  1.00  0.00     0.186 HD
ENDBRANCH   4  27
TORSDOF 11
ENDMDL
MODEL 3
REMARK VINA RESULT: -7.934783939      1.731      2.100
REMARK  11 active torsions:
REMARK  status: ('A' for Active; 'I' for Inactive)
REMARK    1  A    between atoms: C4_4  and  C5_5 
REMARK    2  A    between atoms: C9_13  and  C10_14 
REMARK    3  A    between atoms: C10_14  and  O1_15 
REMARK    4  A    between atoms: C10_14  and  C11_17 
REMARK    5  A    between atoms: C11_17  and  N3_18 
REMARK    6  A    between atoms: N3_18  and  C12_20 
REMARK    7  A    between atoms: C12_20  and  C13_21 
REMARK    8  A    between atoms: C13_21  and  N4_22 
REMARK    9  A    between atoms: N4_22  and  C15_24 
REMARK   10  A    between atoms: C15_24  and  C16_25 
REMARK   11  A    between atoms: C16_25  and  S1_26 
ROOT
HETATM    1  C1  UNL     1      11.553   6.297  25.601  1.00  0.00     0.048 C 
HETATM    2  C2  UNL     1      12.938   6.652  25.128  1.00  0.00    -0.059 A 
HETATM    3  C3  UNL     1      13.561   7.800  25.508  1.00  0.00     0.020 A 
HETATM    4  C4  UNL     1      14.855   8.141  25.075  1.00  0.00    -0.009 A 
HETATM    5  C8  UNL     1      15.544   7.315  24.239  1.00  0.00     0.012 A 
HETATM    6  C9  UNL     1      16.799   7.364  23.623  1.00  0.00     0.004 A 
HETATM    7  C17 UNL     1      16.880   6.185  22.867  1.00  0.00     0.099 A 
HETATM    8  N5  UNL     1      15.760   5.490  23.020  1.00  0.00    -0.365 N 
ATOM      9  H5  UNL     1      15.569   4.593  22.573  1.00  0.00     0.165 HD
HETATM   10  C18 UNL     1      14.910   6.129  23.842  1.00  0.00     0.044 A 
HETATM   11  C19 UNL     1      13.642   5.830  24.290  1.00  0.00     0.037 A 
ENDROOT
BRANCH   6  12
HETATM   12  C10 UNL     1      17.816   8.421  23.706  1.00  0.00     0.192 C 
BRANCH  12  13
HETATM   13  O1  UNL     1      17.476   9.588  23.042  1.00  0.00    -0.386 OA
ATOM     14  H1  UNL     1      18.212  10.159  22.858  1.00  0.00     0.210 HD
ENDBRANCH  12  13
BRANCH  12  15
HETATM   15  C11 UNL     1      19.049   7.888  22.941  1.00  0.00     0.097 C 
BRANCH  15  16
HETATM   16  N3  UNL     1      20.214   7.748  23.674  1.00  0.00    -0.375 N 
ATOM     17  H3  UNL     1      21.103   7.810  23.179  1.00  0.00     0.164 HD
BRANCH  16  18
HETATM   18  C12 UNL     1      20.244   7.528  25.052  1.00  0.00     0.104 C 
BRANCH  18  19
HETATM   19  C13 UNL     1      21.302   8.339  25.800  1.00  0.00     0.106 C 
BRANCH  19  20
HETATM   20  N4  UNL     1      22.423   7.580  26.174  1.00  0.00    -0.372 N 
HETATM   21  C14 UNL     1      22.255   6.415  26.934  1.00  0.00     0.154 C 
BRANCH  20  22
HETATM   22  C15 UNL     1      23.715   8.109  26.050  1.00  0.00     0.079 C 
BRANCH  22  23
HETATM   23  C16 UNL     1      23.833   9.180  25.020  1.00  0.00     0.201 C 
BRANCH  23  24
HETATM   24  S1  UNL     1      24.263   8.542  23.590  1.00  0.00     0.255 S 
HETATM   25  O2  UNL     1      25.175   7.518  23.578  1.00  0.00    -0.211 OA
HETATM   26  O3  UNL     1      23.051   8.227  22.686  1.00  0.00    -0.211 OA
ENDBRANCH  23  24
ENDBRANCH  22  23
ENDBRANCH  20  22
ENDBRANCH  19  20
ENDBRANCH  18  19
ENDBRANCH  16  18
ENDBRANCH  15  16
ENDBRANCH  12  15
ENDBRANCH   6  12
BRANCH   4  27
HETATM   27  C5  UNL     1      15.420   9.363  25.599  1.00  0.00     0.009 A 
HETATM   28  C6  UNL     1      15.068  10.627  25.174  1.00  0.00     0.120 A 
HETATM   29  N1  UNL     1      15.710  11.514  25.972  1.00  0.00    -0.311 N 
HETATM   30  N2  UNL     1      16.434  10.861  26.860  1.00  0.00    -0.311 N 
ATOM     31  H1  UNL     1      15.643  12.530  25.898  1.00  0.00     0.186 HD
HETATM   32  C7  UNL     1      16.268   9.520  26.645  1.00  0.00     0.120 A 
ATOM     33  H2  UNL     1      17.018  11.282  27.583  1.00  0.00     0.186 HD
ENDBRANCH   4  27
TORSDOF 11
ENDMDL
MODEL 4
REMARK VINA RESULT: -7.455835374      1.334      1.441
REMARK  11 active torsions:
REMARK  status: ('A' for Active; 'I' for Inactive)
REMARK    1  A    between atoms: C4_4  and  C5_5 
REMARK    2  A    between atoms: C9_13  and  C10_14 
REMARK    3  A    between atoms: C10_14  and  O1_15 
REMARK    4  A    between atoms: C10_14  and  C11_17 
REMARK    5  A    between atoms: C11_17  and  N3_18 
REMARK    6  A    between atoms: N3_18  and  C12_20 
REMARK    7  A    between atoms: C12_20  and  C13_21 
REMARK    8  A    between atoms: C13_21  and  N4_22 
REMARK    9  A    between atoms: N4_22  and  C15_24 
REMARK   10  A    between atoms: C15_24  and  C16_25 
REMARK   11  A    between atoms: C16_25  and  S1_26 
ROOT
HETATM    1  C1  UNL     1      11.578   6.158  25.478  1.00  0.00     0.048 C 
HETATM    2  C2  UNL     1      12.976   6.567  25.097  1.00  0.00    -0.059 A 
HETATM    3  C3  UNL     1      13.529   7.737  25.516  1.00  0.00     0.020 A 
HETATM    4  C4  UNL     1      14.834   8.129  25.169  1.00  0.00    -0.009 A 
HETATM    5  C8  UNL     1      15.608   7.331  24.381  1.00  0.00     0.012 A 
HETATM    6  C9  UNL     1      16.898   7.429  23.849  1.00  0.00     0.004 A 
HETATM    7  C17 UNL     1      17.073   6.255  23.101  1.00  0.00     0.099 A 
HETATM    8  N5  UNL     1      15.974   5.518  23.180  1.00  0.00    -0.365 N 
ATOM      9  H5  UNL     1      15.847   4.614  22.723  1.00  0.00     0.165 HD
HETATM   10  C18 UNL     1      15.047   6.122  23.945  1.00  0.00     0.044 A 
HETATM   11  C19 UNL     1      13.765   5.773  24.308  1.00  0.00     0.037 A 
ENDROOT
BRANCH   6  12
HETATM   12  C10 UNL     1      17.865   8.524  23.998  1.00  0.00     0.192 C 
BRANCH  12  13
HETATM   13  O1  UNL     1      18.327   9.039  22.799  1.00  0.00    -0.386 OA
ATOM     14  H1  UNL     1      18.038   9.926  22.619  1.00  0.00     0.210 HD
ENDBRANCH  12  13
BRANCH  12  15
HETATM   15  C11 UNL     1      19.118   7.900  24.656  1.00  0.00     0.097 C 
BRANCH  15  16
HETATM   16  N3  UNL     1      20.184   8.753  24.878  1.00  0.00    -0.375 N 
ATOM     17  H3  UNL     1      19.997   9.645  25.338  1.00  0.00     0.164 HD
BRANCH  16  18
HETATM   18  C12 UNL     1      21.500   8.467  24.511  1.00  0.00     0.104 C 
BRANCH  18  19
HETATM   19  C13 UNL     1      21.795   8.642  23.022  1.00  0.00     0.106 C 
BRANCH  19  20
HETATM   20  N4  UNL     1      23.149   8.892  22.748  1.00  0.00    -0.372 N 
HETATM   21  C14 UNL     1      23.767   8.267  21.656  1.00  0.00     0.154 C 
BRANCH  20  22
HETATM   22  C15 UNL     1      23.965   9.522  23.698  1.00  0.00     0.079 C 
BRANCH  22  23
HETATM   23  C16 UNL     1      25.187   8.746  24.054  1.00  0.00     0.201 C 
BRANCH  23  24
HETATM   24  S1  UNL     1      25.102   8.235  25.593  1.00  0.00     0.255 S 
HETATM   25  O2  UNL     1      24.652   9.108  26.549  1.00  0.00    -0.211 OA
HETATM   26  O3  UNL     1      24.425   6.853  25.728  1.00  0.00    -0.211 OA
ENDBRANCH  23  24
ENDBRANCH  22  23
ENDBRANCH  20  22
ENDBRANCH  19  20
ENDBRANCH  18  19
ENDBRANCH  16  18
ENDBRANCH  15  16
ENDBRANCH  12  15
ENDBRANCH   6  12
BRANCH   4  27
HETATM   27  C5  UNL     1      15.316   9.370  25.728  1.00  0.00     0.009 A 
HETATM   28  C6  UNL     1      15.034  10.617  25.209  1.00  0.00     0.120 A 
HETATM   29  N1  UNL     1      15.550  11.535  26.063  1.00  0.00    -0.311 N 
HETATM   30  N2  UNL     1      16.131  10.916  27.073  1.00  0.00    -0.311 N 
ATOM     31  H1  UNL     1      15.497  12.547  25.943  1.00  0.00     0.186 HD
HETATM   32  C7  UNL     1      15.996   9.567  26.883  1.00  0.00     0.120 A 
ATOM     33  H2  UNL     1      16.600  11.365  27.860  1.00  0.00     0.186 HD
ENDBRANCH   4  27
TORSDOF 11
ENDMDL
MODEL 5
REMARK VINA RESULT: -7.420474339      2.009      2.607
REMARK  11 active torsions:
REMARK  status: ('A' for Active; 'I' for Inactive)
REMARK    1  A    between atoms: C4_4  and  C5_5 
REMARK    2  A    between atoms: C9_13  and  C10_14 
REMARK    3  A    between atoms: C10_14  and  O1_15 
REMARK    4  A    between atoms: C10_14  and  C11_17 
REMARK    5  A    between atoms: C11_17  and  N3_18 
REMARK    6  A    between atoms: N3_18  and  C12_20 
REMARK    7  A    between atoms: C12_20  and  C13_21 
REMARK    8  A    between atoms: C13_21  and  N4_22 
REMARK    9  A    between atoms: N4_22  and  C15_24 
REMARK   10  A    between atoms: C15_24  and  C16_25 
REMARK   11  A    between atoms: C16_25  and  S1_26 
ROOT
HETATM    1  C1  UNL     1      11.816   6.658  25.493  1.00  0.00     0.048 C 
HETATM    2  C2  UNL     1      13.233   6.948  25.071  1.00  0.00    -0.059 A 
HETATM    3  C3  UNL     1      13.863   8.108  25.398  1.00  0.00     0.020 A 
HETATM    4  C4  UNL     1      15.186   8.389  25.013  1.00  0.00    -0.009 A 
HETATM    5  C8  UNL     1      15.898   7.488  24.279  1.00  0.00     0.012 A 
HETATM    6  C9  UNL     1      17.184   7.465  23.731  1.00  0.00     0.004 A 
HETATM    7  C17 UNL     1      17.276   6.230  23.069  1.00  0.00     0.099 A 
HETATM    8  N5  UNL     1      16.132   5.573  23.211  1.00  0.00    -0.365 N 
ATOM      9  H5  UNL     1      15.943   4.649  22.822  1.00  0.00     0.165 HD
HETATM   10  C18 UNL     1      15.256   6.289  23.937  1.00  0.00     0.044 A 
HETATM   11  C19 UNL     1      13.959   6.051  24.335  1.00  0.00     0.037 A 
ENDROOT
BRANCH   6  12
HETATM   12  C10 UNL     1      18.221   8.504  23.791  1.00  0.00     0.192 C 
BRANCH  12  13
HETATM   13  O1  UNL     1      18.994   8.600  22.647  1.00  0.00    -0.386 OA
ATOM     14  H1  UNL     1      19.421   9.441  22.535  1.00  0.00     0.210 HD
ENDBRANCH  12  13
BRANCH  12  15
HETATM   15  C11 UNL     1      19.213   8.054  24.890  1.00  0.00     0.097 C 
BRANCH  15  16
HETATM   16  N3  UNL     1      20.438   7.583  24.454  1.00  0.00    -0.375 N 
ATOM     17  H3  UNL     1      20.447   6.797  23.804  1.00  0.00     0.164 HD
BRANCH  16  18
HETATM   18  C12 UNL     1      21.664   8.120  24.851  1.00  0.00     0.104 C 
BRANCH  18  19
HETATM   19  C13 UNL     1      22.174   9.257  23.967  1.00  0.00     0.106 C 
BRANCH  19  20
HETATM   20  N4  UNL     1      23.048   8.827  22.955  1.00  0.00    -0.372 N 
HETATM   21  C14 UNL     1      24.396   8.587  23.254  1.00  0.00     0.154 C 
BRANCH  20  22
HETATM   22  C15 UNL     1      22.673   8.907  21.608  1.00  0.00     0.079 C 
BRANCH  22  23
HETATM   23  C16 UNL     1      22.794   7.617  20.870  1.00  0.00     0.201 C 
BRANCH  23  24
HETATM   24  S1  UNL     1      21.339   6.907  20.734  1.00  0.00     0.255 S 
HETATM   25  O2  UNL     1      20.783   6.335  21.848  1.00  0.00    -0.211 OA
HETATM   26  O3  UNL     1      20.315   7.784  19.979  1.00  0.00    -0.211 OA
ENDBRANCH  23  24
ENDBRANCH  22  23
ENDBRANCH  20  22
ENDBRANCH  19  20
ENDBRANCH  18  19
ENDBRANCH  16  18
ENDBRANCH  15  16
ENDBRANCH  12  15
ENDBRANCH   6  12
BRANCH   4  27
HETATM   27  C5  UNL     1      15.753   9.634  25.476  1.00  0.00     0.009 A 
HETATM   28  C6  UNL     1      16.244   9.838  26.749  1.00  0.00     0.120 A 
HETATM   29  N1  UNL     1      16.800  11.074  26.773  1.00  0.00    -0.311 N 
HETATM   30  N2  UNL     1      16.675  11.634  25.585  1.00  0.00    -0.311 N 
ATOM     31  H1  UNL     1      17.246  11.504  27.584  1.00  0.00     0.186 HD
HETATM   32  C7  UNL     1      16.026  10.754  24.763  1.00  0.00     0.120 A 
ATOM     33  H2  UNL     1      17.005  12.564  25.324  1.00  0.00     0.186 HD
ENDBRANCH   4  27
TORSDOF 11
ENDMDL
