MODEL 1
REMARK VINA RESULT: -8.052205359      0.000      0.000
REMARK  11 active torsions:
REMARK  status: ('A' for Active; 'I' for Inactive)
REMARK    1  A    between atoms: N1_1  and  C1_5 
REMARK    2  A    between atoms: C1_5  and  C2_6 
REMARK    3  A    between atoms: C2_6  and  N2_7 
REMARK    4  A    between atoms: N2_7  and  C3_9 
REMARK    5  A    between atoms: C3_9  and  C4_10 
REMARK    6  A    between atoms: C4_10  and  O1_11 
REMARK    7  A    between atoms: O1_11  and  C5_12 
REMARK    8  A    between atoms: C5_12  and  C6_13 
REMARK    9  A    between atoms: C6_13  and  N3_14 
REMARK       I    between atoms: N3_14  and  C7_16 
REMARK   10  A    between atoms: C7_16  and  C8_18 
REMARK   11  A    between atoms: N4_19  and  C9_21 
ROOT
HETATM    1  C8  UNL     1      17.016   5.252  23.367  1.00  0.00     0.162 C 
HETATM    2  N4  UNL     1      16.491   6.492  23.519  1.00  0.00    -0.359 N 
ATOM      3  H4  UNL     1      16.895   7.031  22.753  1.00  0.00     0.165 HD
ENDROOT
BRANCH   1   4
HETATM    4  C7  UNL     1      18.048   5.042  22.281  1.00  0.00     0.256 C 
HETATM    5  N3  UNL     1      18.990   6.074  22.059  1.00  0.00    -0.354 N 
ATOM      6  H3  UNL     1      18.947   6.916  22.635  1.00  0.00     0.162 HD
HETATM    7  O2  UNL     1      18.033   3.989  21.632  1.00  0.00    -0.267 OA
BRANCH   5   8
HETATM    8  C6  UNL     1      20.003   5.975  21.050  1.00  0.00     0.149 C 
BRANCH   8   9
HETATM    9  C5  UNL     1      20.734   7.284  20.916  1.00  0.00     0.187 C 
BRANCH   9  10
HETATM   10  O1  UNL     1      21.612   7.341  22.012  1.00  0.00    -0.388 OA
BRANCH  10  11
HETATM   11  C4  UNL     1      21.927   8.664  22.326  1.00  0.00     0.186 C 
BRANCH  11  12
HETATM   12  C3  UNL     1      21.656   8.919  23.775  1.00  0.00     0.140 C 
BRANCH  12  13
HETATM   13  N2  UNL     1      21.414   7.673  24.429  1.00  0.00    -0.418 N 
ATOM     14  H2  UNL     1      21.383   6.786  23.928  1.00  0.00     0.153 HD
BRANCH  13  15
HETATM   15  C2  UNL     1      21.218   7.766  25.845  1.00  0.00     0.141 C 
BRANCH  15  16
HETATM   16  C1  UNL     1      22.427   7.167  26.534  1.00  0.00     0.248 C 
BRANCH  16  17
HETATM   17  N1  UNL     1      22.071   6.077  27.420  1.00  0.00    -0.078 N 
ATOM     18  H13 UNL     1      22.051   6.384  28.393  1.00  0.00     0.274 HD
ATOM     19  H12 UNL     1      21.090   5.820  27.311  1.00  0.00     0.274 HD
ATOM     20  H11 UNL     1      22.679   5.268  27.302  1.00  0.00     0.274 HD
ENDBRANCH  16  17
ENDBRANCH  15  16
ENDBRANCH  13  15
ENDBRANCH  12  13
ENDBRANCH  11  12
ENDBRANCH  10  11
ENDBRANCH   9  10
ENDBRANCH   8   9
ENDBRANCH   5   8
ENDBRANCH   1   4
BRANCH   2  21
HETATM   21  C9  UNL     1      15.781   7.293  24.106  1.00  0.00     0.057 A 
HETATM   22  C10 UNL     1      14.450   7.044  24.429  1.00  0.00     0.018 A 
HETATM   23  C11 UNL     1      13.813   5.864  24.103  1.00  0.00     0.016 A 
HETATM   24  C15 UNL     1      13.758   8.036  25.105  1.00  0.00     0.045 A 
HETATM   25  C12 UNL     1      12.486   5.632  24.430  1.00  0.00     0.001 A 
HETATM   26  C13 UNL     1      11.807   6.617  25.099  1.00  0.00     0.002 A 
HETATM   27  C14 UNL     1      12.427   7.795  25.430  1.00  0.00     0.030 A 
HETATM   28  N5  UNL     1      14.301   9.211  25.457  1.00  0.00    -0.355 N 
HETATM   29  C16 UNL     1      15.579   9.490  25.164  1.00  0.00     0.045 A 
ATOM     30  H5  UNL     1      13.735   9.899  25.953  1.00  0.00     0.166 HD
HETATM   31  C17 UNL     1      16.114  10.726  25.544  1.00  0.00     0.030 A 
HETATM   32  C21 UNL     1      16.310   8.547  24.498  1.00  0.00     0.018 A 
HETATM   33  C18 UNL     1      17.421  11.029  25.249  1.00  0.00     0.002 A 
HETATM   34  C19 UNL     1      18.178  10.097  24.579  1.00  0.00     0.001 A 
HETATM   35  C20 UNL     1      17.621   8.890  24.219  1.00  0.00     0.016 A 
ENDBRANCH   2  21
TORSDOF 11
ENDMDL
MODEL 2
REMARK VINA RESULT: -7.931069826      0.298      3.398
REMARK  11 active torsions:
REMARK  status: ('A' for Active; 'I' for Inactive)
REMARK    1  A    between atoms: N1_1  and  C1_5 
REMARK    2  A    between atoms: C1_5  and  C2_6 
REMARK    3  A    between atoms: C2_6  and  N2_7 
REMARK    4  A    between atoms: N2_7  and  C3_9 
REMARK    5  A    between atoms: C3_9  and  C4_10 
REMARK    6  A    between atoms: C4_10  and  O1_11 
REMARK    7  A    between atoms: O1_11  and  C5_12 
REMARK    8  A    between atoms: C5_12  and  C6_13 
REMARK    9  A    between atoms: C6_13  and  N3_14 
REMARK       I    between atoms: N3_14  and  C7_16 
REMARK   10  A    between atoms: C7_16  and  C8_18 
REMARK   11  A    between atoms: N4_19  and  C9_21 
ROOT
HETATM    1  C8  UNL     1      17.042   5.215  23.347  1.00  0.00     0.162 C 
HETATM    2  N4  UNL     1      16.561   6.476  23.475  1.00  0.00    -0.359 N 
ATOM      3  H4  UNL     1      16.894   6.957  22.639  1.00  0.00     0.165 HD
ENDROOT
BRANCH   1   4
HETATM    4  C7  UNL     1      17.952   4.914  22.176  1.00  0.00     0.256 C 
HETATM    5  N3  UNL     1      18.904   5.896  21.812  1.00  0.00    -0.354 N 
ATOM      6  H3  UNL     1      18.949   6.764  22.347  1.00  0.00     0.162 HD
HETATM    7  O2  UNL     1      17.834   3.835  21.585  1.00  0.00    -0.267 OA
BRANCH   5   8
HETATM    8  C6  UNL     1      19.806   5.709  20.714  1.00  0.00     0.149 C 
BRANCH   8   9
HETATM    9  C5  UNL     1      21.087   6.460  20.961  1.00  0.00     0.187 C 
BRANCH   9  10
HETATM   10  O1  UNL     1      20.952   7.029  22.239  1.00  0.00    -0.388 OA
BRANCH  10  11
HETATM   11  C4  UNL     1      21.545   8.293  22.283  1.00  0.00     0.186 C 
BRANCH  11  12
HETATM   12  C3  UNL     1      21.717   8.722  23.706  1.00  0.00     0.140 C 
BRANCH  12  13
HETATM   13  N2  UNL     1      21.325   7.651  24.566  1.00  0.00    -0.418 N 
ATOM     14  H2  UNL     1      21.023   6.744  24.210  1.00  0.00     0.153 HD
BRANCH  13  15
HETATM   15  C2  UNL     1      21.389   7.949  25.965  1.00  0.00     0.141 C 
BRANCH  15  16
HETATM   16  C1  UNL     1      22.544   7.174  26.565  1.00  0.00     0.248 C 
BRANCH  16  17
HETATM   17  N1  UNL     1      22.097   6.107  27.437  1.00  0.00    -0.078 N 
ATOM     18  H13 UNL     1      21.341   6.420  28.045  1.00  0.00     0.274 HD
ATOM     19  H12 UNL     1      21.597   5.389  26.913  1.00  0.00     0.274 HD
ATOM     20  H11 UNL     1      22.861   5.703  27.978  1.00  0.00     0.274 HD
ENDBRANCH  16  17
ENDBRANCH  15  16
ENDBRANCH  13  15
ENDBRANCH  12  13
ENDBRANCH  11  12
ENDBRANCH  10  11
ENDBRANCH   9  10
ENDBRANCH   8   9
ENDBRANCH   5   8
ENDBRANCH   1   4
BRANCH   2  21
HETATM   21  C9  UNL     1      15.932   7.329  24.080  1.00  0.00     0.057 A 
HETATM   22  C10 UNL     1      16.472   8.556  24.459  1.00  0.00     0.018 A 
HETATM   23  C11 UNL     1      17.778   8.909  24.187  1.00  0.00     0.016 A 
HETATM   24  C15 UNL     1      15.645   9.439  25.135  1.00  0.00     0.045 A 
HETATM   25  C12 UNL     1      18.301  10.134  24.573  1.00  0.00     0.001 A 
HETATM   26  C13 UNL     1      17.478  11.004  25.241  1.00  0.00     0.002 A 
HETATM   27  C14 UNL     1      16.178  10.665  25.518  1.00  0.00     0.030 A 
HETATM   28  N5  UNL     1      14.367   9.171  25.441  1.00  0.00    -0.355 N 
HETATM   29  C16 UNL     1      13.809   8.002  25.095  1.00  0.00     0.045 A 
ATOM     30  H5  UNL     1      13.812   9.865  25.942  1.00  0.00     0.166 HD
HETATM   31  C17 UNL     1      12.473   7.755  25.430  1.00  0.00     0.030 A 
HETATM   32  C21 UNL     1      14.579   7.093  24.425  1.00  0.00     0.018 A 
HETATM   33  C18 UNL     1      11.888   6.561  25.085  1.00  0.00     0.002 A 
HETATM   34  C19 UNL     1      12.641   5.629  24.411  1.00  0.00     0.001 A 
HETATM   35  C20 UNL     1      13.953   5.903  24.096  1.00  0.00     0.016 A 
ENDBRANCH   2  21
TORSDOF 11
ENDMDL
MODEL 3
REMARK VINA RESULT: -7.828346070      0.976      1.281
REMARK  11 active torsions:
REMARK  status: ('A' for Active; 'I' for Inactive)
REMARK    1  A    between atoms: N1_1  and  C1_5 
REMARK    2  A    between atoms: C1_5  and  C2_6 
REMARK    3  A    between atoms: C2_6  and  N2_7 
REMARK    4  A    between atoms: N2_7  and  C3_9 
REMARK    5  A    between atoms: C3_9  and  C4_10 
REMARK    6  A    between atoms: C4_10  and  O1_11 
REMARK    7  A    between atoms: O1_11  and  C5_12 
REMARK    8  A    between atoms: C5_12  and  C6_13 
REMARK    9  A    between atoms: C6_13  and  N3_14 
REMARK       I    between atoms: N3_14  and  C7_16 
REMARK   10  A    between atoms: C7_16  and  C8_18 
REMARK   11  A    between atoms: N4_19  and  C9_21 
ROOT
HETATM    1  C8  UNL     1      16.743   5.443  23.182  1.00  0.00     0.162 C 
HETATM    2  N4  UNL     1      16.372   6.664  23.639  1.00  0.00    -0.359 N 
ATOM      3  H4  UNL     1      17.102   7.291  23.299  1.00  0.00     0.165 HD
ENDROOT
BRANCH   1   4
HETATM    4  C7  UNL     1      18.068   5.323  22.462  1.00  0.00     0.256 C 
HETATM    5  N3  UNL     1      18.870   6.484  22.361  1.00  0.00    -0.354 N 
ATOM      6  H3  UNL     1      18.536   7.354  22.776  1.00  0.00     0.162 HD
HETATM    7  O2  UNL     1      18.400   4.228  21.991  1.00  0.00    -0.267 OA
BRANCH   5   8
HETATM    8  C6  UNL     1      20.138   6.475  21.693  1.00  0.00     0.149 C 
BRANCH   8   9
HETATM    9  C5  UNL     1      20.889   7.746  21.986  1.00  0.00     0.187 C 
BRANCH   9  10
HETATM   10  O1  UNL     1      21.463   7.563  23.255  1.00  0.00    -0.388 OA
BRANCH  10  11
HETATM   11  C4  UNL     1      21.028   8.548  24.143  1.00  0.00     0.186 C 
BRANCH  11  12
HETATM   12  C3  UNL     1      20.942   7.981  25.526  1.00  0.00     0.140 C 
BRANCH  12  13
HETATM   13  N2  UNL     1      22.205   7.415  25.876  1.00  0.00    -0.418 N 
ATOM     14  H2  UNL     1      22.429   6.433  25.717  1.00  0.00     0.153 HD
BRANCH  13  15
HETATM   15  C2  UNL     1      23.132   8.332  26.468  1.00  0.00     0.141 C 
BRANCH  15  16
HETATM   16  C1  UNL     1      24.495   8.099  25.848  1.00  0.00     0.248 C 
BRANCH  16  17
HETATM   17  N1  UNL     1      24.430   7.983  24.405  1.00  0.00    -0.078 N 
ATOM     18  H13 UNL     1      23.480   7.780  24.094  1.00  0.00     0.274 HD
ATOM     19  H12 UNL     1      24.557   8.890  23.957  1.00  0.00     0.274 HD
ATOM     20  H11 UNL     1      25.091   7.297  24.042  1.00  0.00     0.274 HD
ENDBRANCH  16  17
ENDBRANCH  15  16
ENDBRANCH  13  15
ENDBRANCH  12  13
ENDBRANCH  11  12
ENDBRANCH  10  11
ENDBRANCH   9  10
ENDBRANCH   8   9
ENDBRANCH   5   8
ENDBRANCH   1   4
BRANCH   2  21
HETATM   21  C9  UNL     1      15.609   7.396  24.249  1.00  0.00     0.057 A 
HETATM   22  C10 UNL     1      14.299   7.045  24.565  1.00  0.00     0.018 A 
HETATM   23  C11 UNL     1      13.746   5.833  24.205  1.00  0.00     0.016 A 
HETATM   24  C15 UNL     1      13.541   7.966  25.270  1.00  0.00     0.045 A 
HETATM   25  C12 UNL     1      12.439   5.499  24.527  1.00  0.00     0.001 A 
HETATM   26  C13 UNL     1      11.694   6.414  25.224  1.00  0.00     0.002 A 
HETATM   27  C14 UNL     1      12.231   7.623  25.588  1.00  0.00     0.030 A 
HETATM   28  N5  UNL     1      14.001   9.165  25.654  1.00  0.00    -0.355 N 
HETATM   29  C16 UNL     1      15.255   9.543  25.369  1.00  0.00     0.045 A 
ATOM     30  H5  UNL     1      13.390   9.798  26.171  1.00  0.00     0.166 HD
HETATM   31  C17 UNL     1      15.704  10.802  25.784  1.00  0.00     0.030 A 
HETATM   32  C21 UNL     1      16.050   8.672  24.676  1.00  0.00     0.018 A 
HETATM   33  C18 UNL     1      16.986  11.203  25.497  1.00  0.00     0.002 A 
HETATM   34  C19 UNL     1      17.804  10.347  24.801  1.00  0.00     0.001 A 
HETATM   35  C20 UNL     1      17.333   9.114  24.407  1.00  0.00     0.016 A 
ENDBRANCH   2  21
TORSDOF 11
ENDMDL
MODEL 4
REMARK VINA RESULT: -7.744943647      1.366      1.569
REMARK  11 active torsions:
REMARK  status: ('A' for Active; 'I' for Inactive)
REMARK    1  A    between atoms: N1_1  and  C1_5 
REMARK    2  A    between atoms: C1_5  and  C2_6 
REMARK    3  A    between atoms: C2_6  and  N2_7 
REMARK    4  A    between atoms: N2_7  and  C3_9 
REMARK    5  A    between atoms: C3_9  and  C4_10 
REMARK    6  A    between atoms: C4_10  and  O1_11 
REMARK    7  A    between atoms: O1_11  and  C5_12 
REMARK    8  A    between atoms: C5_12  and  C6_13 
REMARK    9  A    between atoms: C6_13  and  N3_14 
REMARK       I    between atoms: N3_14  and  C7_16 
REMARK   10  A    between atoms: C7_16  and  C8_18 
REMARK   11  A    between atoms: N4_19  and  C9_21 
ROOT
HETATM    1  C8  UNL     1      17.639   8.031  21.965  1.00  0.00     0.162 C 
HETATM    2  N4  UNL     1      17.188   7.858  23.231  1.00  0.00    -0.359 N 
ATOM      3  H4  UNL     1      17.910   7.295  23.680  1.00  0.00     0.165 HD
ENDROOT
BRANCH   1   4
HETATM    4  C7  UNL     1      18.910   7.318  21.557  1.00  0.00     0.256 C 
HETATM    5  N3  UNL     1      19.675   7.882  20.508  1.00  0.00    -0.354 N 
ATOM      6  H3  UNL     1      19.351   8.744  20.068  1.00  0.00     0.162 HD
HETATM    7  O2  UNL     1      19.233   6.280  22.146  1.00  0.00    -0.267 OA
BRANCH   5   8
HETATM    8  C6  UNL     1      20.889   7.280  20.045  1.00  0.00     0.149 C 
BRANCH   8   9
HETATM    9  C5  UNL     1      22.072   8.122  20.441  1.00  0.00     0.187 C 
BRANCH   9  10
HETATM   10  O1  UNL     1      22.390   7.734  21.753  1.00  0.00    -0.388 OA
BRANCH  10  11
HETATM   11  C4  UNL     1      22.653   8.851  22.550  1.00  0.00     0.186 C 
BRANCH  11  12
HETATM   12  C3  UNL     1      21.568   9.014  23.568  1.00  0.00     0.140 C 
BRANCH  12  13
HETATM   13  N2  UNL     1      21.230   7.731  24.096  1.00  0.00    -0.418 N 
ATOM     14  H2  UNL     1      21.295   6.875  23.546  1.00  0.00     0.153 HD
BRANCH  13  15
HETATM   15  C2  UNL     1      20.791   7.740  25.460  1.00  0.00     0.141 C 
BRANCH  15  16
HETATM   16  C1  UNL     1      21.914   7.204  26.325  1.00  0.00     0.248 C 
BRANCH  16  17
HETATM   17  N1  UNL     1      22.680   8.263  26.949  1.00  0.00    -0.078 N 
ATOM     18  H13 UNL     1      22.258   9.176  26.775  1.00  0.00     0.274 HD
ATOM     19  H12 UNL     1      22.590   8.234  27.964  1.00  0.00     0.274 HD
ATOM     20  H11 UNL     1      23.660   8.251  26.666  1.00  0.00     0.274 HD
ENDBRANCH  16  17
ENDBRANCH  15  16
ENDBRANCH  13  15
ENDBRANCH  12  13
ENDBRANCH  11  12
ENDBRANCH  10  11
ENDBRANCH   9  10
ENDBRANCH   8   9
ENDBRANCH   5   8
ENDBRANCH   1   4
BRANCH   2  21
HETATM   21  C9  UNL     1      16.357   8.034  24.108  1.00  0.00     0.057 A 
HETATM   22  C10 UNL     1      15.270   7.187  24.314  1.00  0.00     0.018 A 
HETATM   23  C11 UNL     1      15.035   6.075  23.533  1.00  0.00     0.016 A 
HETATM   24  C15 UNL     1      14.405   7.497  25.352  1.00  0.00     0.045 A 
HETATM   25  C12 UNL     1      13.946   5.243  23.750  1.00  0.00     0.001 A 
HETATM   26  C13 UNL     1      13.094   5.554  24.778  1.00  0.00     0.002 A 
HETATM   27  C14 UNL     1      13.317   6.657  25.563  1.00  0.00     0.030 A 
HETATM   28  N5  UNL     1      14.561   8.559  26.155  1.00  0.00    -0.355 N 
HETATM   29  C16 UNL     1      15.593   9.399  25.990  1.00  0.00     0.045 A 
ATOM     30  H5  UNL     1      13.886   8.731  26.901  1.00  0.00     0.166 HD
HETATM   31  C17 UNL     1      15.725  10.499  26.844  1.00  0.00     0.030 A 
HETATM   32  C21 UNL     1      16.479   9.142  24.981  1.00  0.00     0.018 A 
HETATM   33  C18 UNL     1      16.776  11.369  26.686  1.00  0.00     0.002 A 
HETATM   34  C19 UNL     1      17.680  11.133  25.679  1.00  0.00     0.001 A 
HETATM   35  C20 UNL     1      17.522  10.041  24.855  1.00  0.00     0.016 A 
ENDBRANCH   2  21
TORSDOF 11
ENDMDL
MODEL 5
REMARK VINA RESULT: -7.631994016      1.583      3.727
REMARK  11 active torsions:
REMARK  status: ('A' for Active; 'I' for Inactive)
REMARK    1  A    between atoms: N1_1  and  C1_5 
REMARK    2  A    between atoms: C1_5  and  C2_6 
REMARK    3  A    between atoms: C2_6  and  N2_7 
REMARK    4  A    between atoms: N2_7  and  C3_9 
REMARK    5  A    between atoms: C3_9  and  C4_10 
REMARK    6  A    between atoms: C4_10  and  O1_11 
REMARK    7  A    between atoms: O1_11  and  C5_12 
REMARK    8  A    between atoms: C5_12  and  C6_13 
REMARK    9  A    between atoms: C6_13  and  N3_14 
REMARK       I    between atoms: N3_14  and  C7_16 
REMARK   10  A    between atoms: C7_16  and  C8_18 
REMARK   11  A    between atoms: N4_19  and  C9_21 
ROOT
HETATM    1  C8  UNL     1      17.565   8.383  21.879  1.00  0.00     0.162 C 
HETATM    2  N4  UNL     1      17.183   8.138  23.157  1.00  0.00    -0.359 N 
ATOM      3  H4  UNL     1      17.920   7.540  23.529  1.00  0.00     0.165 HD
ENDROOT
BRANCH   1   4
HETATM    4  C7  UNL     1      18.800   7.682  21.357  1.00  0.00     0.256 C 
HETATM    5  N3  UNL     1      20.061   8.218  21.711  1.00  0.00    -0.354 N 
ATOM      6  H3  UNL     1      20.097   9.048  22.303  1.00  0.00     0.162 HD
HETATM    7  O2  UNL     1      18.666   6.678  20.648  1.00  0.00    -0.267 OA
BRANCH   5   8
HETATM    8  C6  UNL     1      21.288   7.631  21.261  1.00  0.00     0.149 C 
BRANCH   8   9
HETATM    9  C5  UNL     1      22.444   8.545  21.568  1.00  0.00     0.187 C 
BRANCH   9  10
HETATM   10  O1  UNL     1      22.879   8.187  22.855  1.00  0.00    -0.388 OA
BRANCH  10  11
HETATM   11  C4  UNL     1      24.127   8.749  23.131  1.00  0.00     0.186 C 
BRANCH  11  12
HETATM   12  C3  UNL     1      24.245   9.025  24.597  1.00  0.00     0.140 C 
BRANCH  12  13
HETATM   13  N2  UNL     1      23.944   7.831  25.321  1.00  0.00    -0.418 N 
ATOM     14  H2  UNL     1      24.269   6.912  25.023  1.00  0.00     0.153 HD
BRANCH  13  15
HETATM   15  C2  UNL     1      23.150   8.026  26.497  1.00  0.00     0.141 C 
BRANCH  15  16
HETATM   16  C1  UNL     1      21.971   7.076  26.439  1.00  0.00     0.248 C 
BRANCH  16  17
HETATM   17  N1  UNL     1      22.057   6.031  27.439  1.00  0.00    -0.078 N 
ATOM     18  H13 UNL     1      22.669   5.275  27.130  1.00  0.00     0.274 HD
ATOM     19  H12 UNL     1      22.584   6.344  28.254  1.00  0.00     0.274 HD
ATOM     20  H11 UNL     1      21.140   5.676  27.707  1.00  0.00     0.274 HD
ENDBRANCH  16  17
ENDBRANCH  15  16
ENDBRANCH  13  15
ENDBRANCH  12  13
ENDBRANCH  11  12
ENDBRANCH  10  11
ENDBRANCH   9  10
ENDBRANCH   8   9
ENDBRANCH   5   8
ENDBRANCH   1   4
BRANCH   2  21
HETATM   21  C9  UNL     1      16.405   8.269  24.089  1.00  0.00     0.057 A 
HETATM   22  C10 UNL     1      16.477   9.317  25.004  1.00  0.00     0.018 A 
HETATM   23  C11 UNL     1      17.445  10.298  24.938  1.00  0.00     0.016 A 
HETATM   24  C15 UNL     1      15.526   9.353  26.012  1.00  0.00     0.045 A 
HETATM   25  C12 UNL     1      17.502  11.333  25.859  1.00  0.00     0.001 A 
HETATM   26  C13 UNL     1      16.559  11.364  26.853  1.00  0.00     0.002 A 
HETATM   27  C14 UNL     1      15.591  10.395  26.930  1.00  0.00     0.030 A 
HETATM   28  N5  UNL     1      14.555   8.438  26.147  1.00  0.00    -0.355 N 
HETATM   29  C16 UNL     1      14.452   7.414  25.288  1.00  0.00     0.045 A 
ATOM     30  H5  UNL     1      13.886   8.522  26.913  1.00  0.00     0.166 HD
HETATM   31  C17 UNL     1      13.427   6.476  25.460  1.00  0.00     0.030 A 
HETATM   32  C21 UNL     1      15.363   7.329  24.273  1.00  0.00     0.018 A 
HETATM   33  C18 UNL     1      13.311   5.420  24.589  1.00  0.00     0.002 A 
HETATM   34  C19 UNL     1      14.215   5.311  23.560  1.00  0.00     0.001 A 
HETATM   35  C20 UNL     1      15.212   6.251  23.419  1.00  0.00     0.016 A 
ENDBRANCH   2  21
TORSDOF 11
ENDMDL
