MODEL 1
REMARK VINA RESULT: -6.433963117      0.000      0.000
REMARK  13 active torsions:
REMARK  status: ('A' for Active; 'I' for Inactive)
REMARK    1  A    between atoms: C1_4  and  C2_5 
REMARK    2  A    between atoms: C1_4  and  N2_14 
REMARK    3  A    between atoms: C2_5  and  C3_6 
REMARK    4  A    between atoms: C7_10  and  O1_11 
REMARK    5  A    between atoms: N2_14  and  C9_16 
REMARK    6  A    between atoms: C9_16  and  C10_17 
REMARK    7  A    between atoms: C10_17  and  O2_18 
REMARK    8  A    between atoms: O2_18  and  C11_19 
REMARK    9  A    between atoms: C11_19  and  C12_20 
REMARK   10  A    between atoms: C12_20  and  O3_21 
REMARK   11  A    between atoms: O3_21  and  C13_22 
REMARK   12  A    between atoms: C13_22  and  C14_23 
REMARK   13  A    between atoms: C14_23  and  C15_24 
ROOT
HETATM    1  C10 UNL     1     -16.008   6.305 -30.637  1.00  0.00     0.187 C 
ENDROOT
BRANCH   1   2
HETATM    2  C9  UNL     1     -14.759   6.644 -29.851  1.00  0.00     0.147 C 
BRANCH   2   3
HETATM    3  N2  UNL     1     -14.770   6.049 -28.545  1.00  0.00    -0.378 N 
ATOM      4  H2  UNL     1     -14.236   5.195 -28.389  1.00  0.00     0.160 HD
BRANCH   3   5
HETATM    5  C1  UNL     1     -15.488   6.601 -27.479  1.00  0.00     0.074 C 
HETATM    6  N1  UNL     1     -15.831   7.820 -27.399  1.00  0.00    -0.389 N 
ATOM      7  H12 UNL     1     -16.355   8.222 -26.621  1.00  0.00     0.157 HD
ATOM      8  H11 UNL     1     -15.568   8.451 -28.155  1.00  0.00     0.157 HD
BRANCH   5   9
HETATM    9  C2  UNL     1     -15.877   5.667 -26.362  1.00  0.00     0.114 C 
BRANCH   9  10
HETATM   10  C3  UNL     1     -17.340   5.413 -26.411  1.00  0.00    -0.049 A 
HETATM   11  C4  UNL     1     -18.133   5.769 -25.327  1.00  0.00     0.007 A 
HETATM   12  C5  UNL     1     -19.498   5.517 -25.396  1.00  0.00     0.003 A 
HETATM   13  C6  UNL     1     -20.053   4.928 -26.511  1.00  0.00     0.036 A 
HETATM   14  C7  UNL     1     -19.282   4.568 -27.594  1.00  0.00     0.066 A 
HETATM   15  C8  UNL     1     -17.912   4.830 -27.506  1.00  0.00     0.044 A 
BRANCH  14  16
HETATM   16  O1  UNL     1     -19.832   3.973 -28.725  1.00  0.00    -0.361 OA
ATOM     17  H1  UNL     1     -19.790   3.035 -28.870  1.00  0.00     0.217 HD
ENDBRANCH  14  16
ENDBRANCH   9  10
ENDBRANCH   5   9
ENDBRANCH   3   5
ENDBRANCH   2   3
ENDBRANCH   1   2
BRANCH   1  18
HETATM   18  O2  UNL     1     -16.953   7.308 -30.519  1.00  0.00    -0.387 OA
BRANCH  18  19
HETATM   19  C11 UNL     1     -18.234   6.951 -30.864  1.00  0.00     0.193 C 
BRANCH  19  20
HETATM   20  C12 UNL     1     -18.274   5.518 -31.304  1.00  0.00     0.193 C 
BRANCH  20  21
HETATM   21  O3  UNL     1     -19.559   4.967 -31.236  1.00  0.00    -0.389 OA
BRANCH  21  22
HETATM   22  C13 UNL     1     -20.140   4.739 -32.457  1.00  0.00     0.175 C 
BRANCH  22  23
HETATM   23  C14 UNL     1     -21.590   5.177 -32.500  1.00  0.00     0.102 C 
BRANCH  23  24
HETATM   24  C15 UNL     1     -21.978   5.724 -31.160  1.00  0.00     0.084 A 
HETATM   25  N3  UNL     1     -21.879   7.003 -30.767  1.00  0.00    -0.344 N 
HETATM   26  C16 UNL     1     -22.315   7.124 -29.509  1.00  0.00     0.060 A 
ATOM     27  H3  UNL     1     -21.523   7.767 -31.341  1.00  0.00     0.167 HD
HETATM   28  C17 UNL     1     -22.430   8.192 -28.639  1.00  0.00     0.032 A 
HETATM   29  C21 UNL     1     -22.700   5.865 -29.110  1.00  0.00     0.060 A 
HETATM   30  C18 UNL     1     -22.933   7.968 -27.377  1.00  0.00     0.002 A 
HETATM   31  C19 UNL     1     -23.324   6.705 -26.961  1.00  0.00     0.002 A 
HETATM   32  C20 UNL     1     -23.208   5.660 -27.824  1.00  0.00     0.032 A 
HETATM   33  N4  UNL     1     -22.483   5.030 -30.137  1.00  0.00    -0.344 N 
ATOM     34  H4  UNL     1     -22.672   4.027 -30.137  1.00  0.00     0.167 HD
ENDBRANCH  23  24
ENDBRANCH  22  23
ENDBRANCH  21  22
ENDBRANCH  20  21
ENDBRANCH  19  20
ENDBRANCH  18  19
ENDBRANCH   1  18
TORSDOF 13
ENDMDL
MODEL 2
REMARK VINA RESULT: -6.426804898      2.751      5.134
REMARK  13 active torsions:
REMARK  status: ('A' for Active; 'I' for Inactive)
REMARK    1  A    between atoms: C1_4  and  C2_5 
REMARK    2  A    between atoms: C1_4  and  N2_14 
REMARK    3  A    between atoms: C2_5  and  C3_6 
REMARK    4  A    between atoms: C7_10  and  O1_11 
REMARK    5  A    between atoms: N2_14  and  C9_16 
REMARK    6  A    between atoms: C9_16  and  C10_17 
REMARK    7  A    between atoms: C10_17  and  O2_18 
REMARK    8  A    between atoms: O2_18  and  C11_19 
REMARK    9  A    between atoms: C11_19  and  C12_20 
REMARK   10  A    between atoms: C12_20  and  O3_21 
REMARK   11  A    between atoms: O3_21  and  C13_22 
REMARK   12  A    between atoms: C13_22  and  C14_23 
REMARK   13  A    between atoms: C14_23  and  C15_24 
ROOT
HETATM    1  C10 UNL     1     -15.592   6.563 -30.791  1.00  0.00     0.187 C 
ENDROOT
BRANCH   1   2
HETATM    2  C9  UNL     1     -14.529   6.598 -29.713  1.00  0.00     0.147 C 
BRANCH   2   3
HETATM    3  N2  UNL     1     -14.939   5.888 -28.534  1.00  0.00    -0.378 N 
ATOM      4  H2  UNL     1     -14.789   4.881 -28.489  1.00  0.00     0.160 HD
BRANCH   3   5
HETATM    5  C1  UNL     1     -15.536   6.531 -27.446  1.00  0.00     0.074 C 
HETATM    6  N1  UNL     1     -15.743   7.781 -27.376  1.00  0.00    -0.389 N 
ATOM      7  H12 UNL     1     -16.179   8.250 -26.581  1.00  0.00     0.157 HD
ATOM      8  H11 UNL     1     -15.455   8.369 -28.158  1.00  0.00     0.157 HD
BRANCH   5   9
HETATM    9  C2  UNL     1     -15.962   5.664 -26.290  1.00  0.00     0.114 C 
BRANCH   9  10
HETATM   10  C3  UNL     1     -17.422   5.401 -26.375  1.00  0.00    -0.049 A 
HETATM   11  C4  UNL     1     -18.240   5.730 -25.301  1.00  0.00     0.007 A 
HETATM   12  C5  UNL     1     -19.601   5.471 -25.403  1.00  0.00     0.003 A 
HETATM   13  C6  UNL     1     -20.129   4.900 -26.541  1.00  0.00     0.036 A 
HETATM   14  C7  UNL     1     -19.333   4.568 -27.615  1.00  0.00     0.066 A 
HETATM   15  C8  UNL     1     -17.967   4.836 -27.493  1.00  0.00     0.044 A 
BRANCH  14  16
HETATM   16  O1  UNL     1     -19.855   3.992 -28.768  1.00  0.00    -0.361 OA
ATOM     17  H1  UNL     1     -20.421   3.229 -28.737  1.00  0.00     0.217 HD
ENDBRANCH  14  16
ENDBRANCH   9  10
ENDBRANCH   5   9
ENDBRANCH   3   5
ENDBRANCH   2   3
ENDBRANCH   1   2
BRANCH   1  18
HETATM   18  O2  UNL     1     -16.628   7.428 -30.490  1.00  0.00    -0.387 OA
BRANCH  18  19
HETATM   19  C11 UNL     1     -17.890   6.904 -30.636  1.00  0.00     0.193 C 
BRANCH  19  20
HETATM   20  C12 UNL     1     -17.812   5.487 -31.121  1.00  0.00     0.193 C 
BRANCH  20  21
HETATM   21  O3  UNL     1     -19.073   4.934 -31.377  1.00  0.00    -0.389 OA
BRANCH  21  22
HETATM   22  C13 UNL     1     -19.974   5.814 -31.919  1.00  0.00     0.175 C 
BRANCH  22  23
HETATM   23  C14 UNL     1     -20.832   5.177 -32.994  1.00  0.00     0.102 C 
BRANCH  23  24
HETATM   24  C15 UNL     1     -19.963   4.806 -34.159  1.00  0.00     0.084 A 
HETATM   25  N3  UNL     1     -19.020   3.853 -34.172  1.00  0.00    -0.344 N 
HETATM   26  C16 UNL     1     -18.446   3.802 -35.378  1.00  0.00     0.060 A 
ATOM     27  H3  UNL     1     -18.776   3.257 -33.380  1.00  0.00     0.167 HD
HETATM   28  C17 UNL     1     -17.442   3.023 -35.923  1.00  0.00     0.032 A 
HETATM   29  C21 UNL     1     -19.063   4.766 -36.141  1.00  0.00     0.060 A 
HETATM   30  C18 UNL     1     -17.079   3.234 -37.235  1.00  0.00     0.002 A 
HETATM   31  C19 UNL     1     -17.692   4.201 -38.016  1.00  0.00     0.002 A 
HETATM   32  C20 UNL     1     -18.678   4.963 -37.471  1.00  0.00     0.032 A 
HETATM   33  N4  UNL     1     -19.985   5.364 -35.371  1.00  0.00    -0.344 N 
ATOM     34  H4  UNL     1     -20.602   6.121 -35.665  1.00  0.00     0.167 HD
ENDBRANCH  23  24
ENDBRANCH  22  23
ENDBRANCH  21  22
ENDBRANCH  20  21
ENDBRANCH  19  20
ENDBRANCH  18  19
ENDBRANCH   1  18
TORSDOF 13
ENDMDL
MODEL 3
REMARK VINA RESULT: -6.370834749      0.521      1.190
REMARK  13 active torsions:
REMARK  status: ('A' for Active; 'I' for Inactive)
REMARK    1  A    between atoms: C1_4  and  C2_5 
REMARK    2  A    between atoms: C1_4  and  N2_14 
REMARK    3  A    between atoms: C2_5  and  C3_6 
REMARK    4  A    between atoms: C7_10  and  O1_11 
REMARK    5  A    between atoms: N2_14  and  C9_16 
REMARK    6  A    between atoms: C9_16  and  C10_17 
REMARK    7  A    between atoms: C10_17  and  O2_18 
REMARK    8  A    between atoms: O2_18  and  C11_19 
REMARK    9  A    between atoms: C11_19  and  C12_20 
REMARK   10  A    between atoms: C12_20  and  O3_21 
REMARK   11  A    between atoms: O3_21  and  C13_22 
REMARK   12  A    between atoms: C13_22  and  C14_23 
REMARK   13  A    between atoms: C14_23  and  C15_24 
ROOT
HETATM    1  C10 UNL     1     -15.538   6.488 -30.831  1.00  0.00     0.187 C 
ENDROOT
BRANCH   1   2
HETATM    2  C9  UNL     1     -14.540   6.343 -29.701  1.00  0.00     0.147 C 
BRANCH   2   3
HETATM    3  N2  UNL     1     -15.124   5.723 -28.547  1.00  0.00    -0.378 N 
ATOM      4  H2  UNL     1     -15.205   4.707 -28.522  1.00  0.00     0.160 HD
BRANCH   3   5
HETATM    5  C1  UNL     1     -15.587   6.463 -27.455  1.00  0.00     0.074 C 
HETATM    6  N1  UNL     1     -15.642   7.730 -27.418  1.00  0.00    -0.389 N 
ATOM      7  H12 UNL     1     -15.980   8.270 -26.621  1.00  0.00     0.157 HD
ATOM      8  H11 UNL     1     -15.325   8.256 -28.232  1.00  0.00     0.157 HD
BRANCH   5   9
HETATM    9  C2  UNL     1     -16.055   5.686 -26.252  1.00  0.00     0.114 C 
BRANCH   9  10
HETATM   10  C3  UNL     1     -17.507   5.398 -26.377  1.00  0.00    -0.049 A 
HETATM   11  C4  UNL     1     -18.359   5.704 -25.322  1.00  0.00     0.007 A 
HETATM   12  C5  UNL     1     -19.712   5.423 -25.462  1.00  0.00     0.003 A 
HETATM   13  C6  UNL     1     -20.200   4.853 -26.618  1.00  0.00     0.036 A 
HETATM   14  C7  UNL     1     -19.371   4.544 -27.673  1.00  0.00     0.066 A 
HETATM   15  C8  UNL     1     -18.013   4.834 -27.514  1.00  0.00     0.044 A 
BRANCH  14  16
HETATM   16  O1  UNL     1     -19.853   3.969 -28.845  1.00  0.00    -0.361 OA
ATOM     17  H1  UNL     1     -19.409   3.243 -29.268  1.00  0.00     0.217 HD
ENDBRANCH  14  16
ENDBRANCH   9  10
ENDBRANCH   5   9
ENDBRANCH   3   5
ENDBRANCH   2   3
ENDBRANCH   1   2
BRANCH   1  18
HETATM   18  O2  UNL     1     -16.550   7.365 -30.487  1.00  0.00    -0.387 OA
BRANCH  18  19
HETATM   19  C11 UNL     1     -17.824   6.921 -30.743  1.00  0.00     0.193 C 
BRANCH  19  20
HETATM   20  C12 UNL     1     -17.809   5.458 -31.074  1.00  0.00     0.193 C 
BRANCH  20  21
HETATM   21  O3  UNL     1     -19.088   4.949 -31.328  1.00  0.00    -0.389 OA
BRANCH  21  22
HETATM   22  C13 UNL     1     -19.454   4.982 -32.649  1.00  0.00     0.175 C 
BRANCH  22  23
HETATM   23  C14 UNL     1     -20.873   5.480 -32.845  1.00  0.00     0.102 C 
BRANCH  23  24
HETATM   24  C15 UNL     1     -21.503   5.707 -31.504  1.00  0.00     0.084 A 
HETATM   25  N3  UNL     1     -22.249   4.827 -30.820  1.00  0.00    -0.344 N 
HETATM   26  C16 UNL     1     -22.644   5.372 -29.665  1.00  0.00     0.060 A 
ATOM     27  H3  UNL     1     -22.479   3.884 -31.133  1.00  0.00     0.167 HD
HETATM   28  C17 UNL     1     -23.412   4.916 -28.610  1.00  0.00     0.032 A 
HETATM   29  C21 UNL     1     -22.119   6.643 -29.638  1.00  0.00     0.060 A 
HETATM   30  C18 UNL     1     -23.636   5.756 -27.542  1.00  0.00     0.002 A 
HETATM   31  C19 UNL     1     -23.114   7.039 -27.500  1.00  0.00     0.002 A 
HETATM   32  C20 UNL     1     -22.360   7.479 -28.543  1.00  0.00     0.032 A 
HETATM   33  N4  UNL     1     -21.427   6.821 -30.773  1.00  0.00    -0.344 N 
ATOM     34  H4  UNL     1     -20.925   7.670 -31.035  1.00  0.00     0.167 HD
ENDBRANCH  23  24
ENDBRANCH  22  23
ENDBRANCH  21  22
ENDBRANCH  20  21
ENDBRANCH  19  20
ENDBRANCH  18  19
ENDBRANCH   1  18
TORSDOF 13
ENDMDL
MODEL 4
REMARK VINA RESULT: -6.315304420      0.848      1.399
REMARK  13 active torsions:
REMARK  status: ('A' for Active; 'I' for Inactive)
REMARK    1  A    between atoms: C1_4  and  C2_5 
REMARK    2  A    between atoms: C1_4  and  N2_14 
REMARK    3  A    between atoms: C2_5  and  C3_6 
REMARK    4  A    between atoms: C7_10  and  O1_11 
REMARK    5  A    between atoms: N2_14  and  C9_16 
REMARK    6  A    between atoms: C9_16  and  C10_17 
REMARK    7  A    between atoms: C10_17  and  O2_18 
REMARK    8  A    between atoms: O2_18  and  C11_19 
REMARK    9  A    between atoms: C11_19  and  C12_20 
REMARK   10  A    between atoms: C12_20  and  O3_21 
REMARK   11  A    between atoms: O3_21  and  C13_22 
REMARK   12  A    between atoms: C13_22  and  C14_23 
REMARK   13  A    between atoms: C14_23  and  C15_24 
ROOT
HETATM    1  C10 UNL     1     -16.703   6.419 -30.524  1.00  0.00     0.187 C 
ENDROOT
BRANCH   1   2
HETATM    2  C9  UNL     1     -15.568   6.854 -29.621  1.00  0.00     0.147 C 
BRANCH   2   3
HETATM    3  N2  UNL     1     -16.006   7.057 -28.269  1.00  0.00    -0.378 N 
ATOM      4  H2  UNL     1     -16.601   7.858 -28.060  1.00  0.00     0.160 HD
BRANCH   3   5
HETATM    5  C1  UNL     1     -15.646   6.194 -27.230  1.00  0.00     0.074 C 
HETATM    6  N1  UNL     1     -14.876   6.508 -26.271  1.00  0.00    -0.389 N 
ATOM      7  H12 UNL     1     -14.613   5.878 -25.513  1.00  0.00     0.157 HD
ATOM      8  H11 UNL     1     -14.483   7.449 -26.248  1.00  0.00     0.157 HD
BRANCH   5   9
HETATM    9  C2  UNL     1     -16.226   4.804 -27.264  1.00  0.00     0.114 C 
BRANCH   9  10
HETATM   10  C3  UNL     1     -17.684   4.865 -26.990  1.00  0.00    -0.049 A 
HETATM   11  C4  UNL     1     -18.138   5.491 -25.836  1.00  0.00     0.007 A 
HETATM   12  C5  UNL     1     -19.507   5.532 -25.600  1.00  0.00     0.003 A 
HETATM   13  C6  UNL     1     -20.395   4.965 -26.489  1.00  0.00     0.036 A 
HETATM   14  C7  UNL     1     -19.963   4.340 -27.638  1.00  0.00     0.066 A 
HETATM   15  C8  UNL     1     -18.583   4.310 -27.857  1.00  0.00     0.044 A 
BRANCH  14  16
HETATM   16  O1  UNL     1     -20.850   3.764 -28.541  1.00  0.00    -0.361 OA
ATOM     17  H1  UNL     1     -21.269   4.272 -29.227  1.00  0.00     0.217 HD
ENDBRANCH  14  16
ENDBRANCH   9  10
ENDBRANCH   5   9
ENDBRANCH   3   5
ENDBRANCH   2   3
ENDBRANCH   1   2
BRANCH   1  18
HETATM   18  O2  UNL     1     -17.545   7.479 -30.805  1.00  0.00    -0.387 OA
BRANCH  18  19
HETATM   19  C11 UNL     1     -18.826   7.133 -31.161  1.00  0.00     0.193 C 
BRANCH  19  20
HETATM   20  C12 UNL     1     -18.940   5.646 -31.313  1.00  0.00     0.193 C 
BRANCH  20  21
HETATM   21  O3  UNL     1     -20.214   5.165 -30.988  1.00  0.00    -0.389 OA
BRANCH  21  22
HETATM   22  C13 UNL     1     -20.972   4.800 -32.071  1.00  0.00     0.175 C 
BRANCH  22  23
HETATM   23  C14 UNL     1     -22.336   5.462 -32.074  1.00  0.00     0.102 C 
BRANCH  23  24
HETATM   24  C15 UNL     1     -22.572   6.105 -30.741  1.00  0.00     0.084 A 
HETATM   25  N3  UNL     1     -23.042   5.498 -29.641  1.00  0.00    -0.344 N 
HETATM   26  C16 UNL     1     -23.125   6.380 -28.639  1.00  0.00     0.060 A 
ATOM     27  H3  UNL     1     -23.298   4.513 -29.578  1.00  0.00     0.167 HD
HETATM   28  C17 UNL     1     -23.535   6.290 -27.322  1.00  0.00     0.032 A 
HETATM   29  C21 UNL     1     -22.687   7.582 -29.145  1.00  0.00     0.060 A 
HETATM   30  C18 UNL     1     -23.495   7.421 -26.537  1.00  0.00     0.002 A 
HETATM   31  C19 UNL     1     -23.057   8.638 -27.033  1.00  0.00     0.002 A 
HETATM   32  C20 UNL     1     -22.655   8.718 -28.330  1.00  0.00     0.032 A 
HETATM   33  N4  UNL     1     -22.357   7.385 -30.430  1.00  0.00    -0.344 N 
ATOM     34  H4  UNL     1     -21.999   8.098 -31.067  1.00  0.00     0.167 HD
ENDBRANCH  23  24
ENDBRANCH  22  23
ENDBRANCH  21  22
ENDBRANCH  20  21
ENDBRANCH  19  20
ENDBRANCH  18  19
ENDBRANCH   1  18
TORSDOF 13
ENDMDL
MODEL 5
REMARK VINA RESULT: -6.266866916      1.552      2.573
REMARK  13 active torsions:
REMARK  status: ('A' for Active; 'I' for Inactive)
REMARK    1  A    between atoms: C1_4  and  C2_5 
REMARK    2  A    between atoms: C1_4  and  N2_14 
REMARK    3  A    between atoms: C2_5  and  C3_6 
REMARK    4  A    between atoms: C7_10  and  O1_11 
REMARK    5  A    between atoms: N2_14  and  C9_16 
REMARK    6  A    between atoms: C9_16  and  C10_17 
REMARK    7  A    between atoms: C10_17  and  O2_18 
REMARK    8  A    between atoms: O2_18  and  C11_19 
REMARK    9  A    between atoms: C11_19  and  C12_20 
REMARK   10  A    between atoms: C12_20  and  O3_21 
REMARK   11  A    between atoms: O3_21  and  C13_22 
REMARK   12  A    between atoms: C13_22  and  C14_23 
REMARK   13  A    between atoms: C14_23  and  C15_24 
ROOT
HETATM    1  C10 UNL     1     -19.577   7.179 -30.453  1.00  0.00     0.187 C 
ENDROOT
BRANCH   1   2
HETATM    2  C9  UNL     1     -18.165   6.920 -30.938  1.00  0.00     0.147 C 
BRANCH   2   3
HETATM    3  N2  UNL     1     -17.218   6.931 -29.859  1.00  0.00    -0.378 N 
ATOM      4  H2  UNL     1     -17.172   7.750 -29.253  1.00  0.00     0.160 HD
BRANCH   3   5
HETATM    5  C1  UNL     1     -16.357   5.858 -29.611  1.00  0.00     0.074 C 
HETATM    6  N1  UNL     1     -15.902   5.081 -30.505  1.00  0.00    -0.389 N 
ATOM      7  H12 UNL     1     -15.273   4.298 -30.324  1.00  0.00     0.157 HD
ATOM      8  H11 UNL     1     -16.181   5.236 -31.474  1.00  0.00     0.157 HD
BRANCH   5   9
HETATM    9  C2  UNL     1     -15.945   5.630 -28.180  1.00  0.00     0.114 C 
BRANCH   9  10
HETATM   10  C3  UNL     1     -17.153   5.426 -27.340  1.00  0.00    -0.049 A 
HETATM   11  C4  UNL     1     -17.179   5.930 -26.045  1.00  0.00     0.007 A 
HETATM   12  C5  UNL     1     -18.319   5.723 -25.278  1.00  0.00     0.003 A 
HETATM   13  C6  UNL     1     -19.399   5.034 -25.788  1.00  0.00     0.036 A 
HETATM   14  C7  UNL     1     -19.391   4.529 -27.069  1.00  0.00     0.066 A 
HETATM   15  C8  UNL     1     -18.235   4.747 -27.824  1.00  0.00     0.044 A 
BRANCH  14  16
HETATM   16  O1  UNL     1     -20.475   3.832 -27.593  1.00  0.00    -0.361 OA
ATOM     17  H1  UNL     1     -20.363   3.119 -28.210  1.00  0.00     0.217 HD
ENDBRANCH  14  16
ENDBRANCH   9  10
ENDBRANCH   5   9
ENDBRANCH   3   5
ENDBRANCH   2   3
ENDBRANCH   1   2
BRANCH   1  18
HETATM   18  O2  UNL     1     -20.313   6.009 -30.427  1.00  0.00    -0.387 OA
BRANCH  18  19
HETATM   19  C11 UNL     1     -19.939   5.060 -31.346  1.00  0.00     0.193 C 
BRANCH  19  20
HETATM   20  C12 UNL     1     -20.955   3.959 -31.400  1.00  0.00     0.193 C 
BRANCH  20  21
HETATM   21  O3  UNL     1     -21.397   3.569 -30.130  1.00  0.00    -0.389 OA
BRANCH  21  22
HETATM   22  C13 UNL     1     -22.421   2.657 -30.145  1.00  0.00     0.175 C 
BRANCH  22  23
HETATM   23  C14 UNL     1     -23.755   3.276 -29.780  1.00  0.00     0.102 C 
BRANCH  23  24
HETATM   24  C15 UNL     1     -23.519   4.621 -29.161  1.00  0.00     0.084 A 
HETATM   25  N3  UNL     1     -23.264   4.863 -27.866  1.00  0.00    -0.344 N 
HETATM   26  C16 UNL     1     -23.109   6.178 -27.676  1.00  0.00     0.060 A 
ATOM     27  H3  UNL     1     -23.200   4.153 -27.138  1.00  0.00     0.167 HD
HETATM   28  C17 UNL     1     -22.839   6.953 -26.563  1.00  0.00     0.032 A 
HETATM   29  C21 UNL     1     -23.275   6.769 -28.906  1.00  0.00     0.060 A 
HETATM   30  C18 UNL     1     -22.741   8.319 -26.716  1.00  0.00     0.002 A 
HETATM   31  C19 UNL     1     -22.906   8.929 -27.949  1.00  0.00     0.002 A 
HETATM   32  C20 UNL     1     -23.171   8.158 -29.038  1.00  0.00     0.032 A 
HETATM   33  N4  UNL     1     -23.524   5.796 -29.795  1.00  0.00    -0.344 N 
ATOM     34  H4  UNL     1     -23.692   5.931 -30.792  1.00  0.00     0.167 HD
ENDBRANCH  23  24
ENDBRANCH  22  23
ENDBRANCH  21  22
ENDBRANCH  20  21
ENDBRANCH  19  20
ENDBRANCH  18  19
ENDBRANCH   1  18
TORSDOF 13
ENDMDL
