MODEL 1
REMARK VINA RESULT: -7.929915921      0.000      0.000
REMARK  12 active torsions:
REMARK  status: ('A' for Active; 'I' for Inactive)
REMARK    1  A    between atoms: O1_2  and  C2_3 
REMARK    2  A    between atoms: C5_6  and  C6_7 
REMARK    3  A    between atoms: C6_7  and  C7_8 
REMARK    4  A    between atoms: C7_8  and  N1_9 
REMARK    5  A    between atoms: N1_9  and  C8_11 
REMARK    6  A    between atoms: C8_11  and  C9_12 
REMARK    7  A    between atoms: C9_12  and  O2_13 
REMARK    8  A    between atoms: C9_12  and  C10_15 
REMARK    9  A    between atoms: C10_15  and  O3_16 
REMARK   10  A    between atoms: O3_16  and  C11_17 
REMARK   11  A    between atoms: C15_21  and  C16_22 
REMARK   12  A    between atoms: C17_23  and  N2_24 
ROOT
HETATM    1  C9  UNL     1     -21.108   4.387 -29.167  1.00  0.00     0.159 C 
ENDROOT
BRANCH   1   2
HETATM    2  C8  UNL     1     -22.232   5.436 -29.291  1.00  0.00     0.147 C 
BRANCH   2   3
HETATM    3  N1  UNL     1     -21.920   6.418 -30.264  1.00  0.00    -0.418 N 
ATOM      4  H1  UNL     1     -22.502   6.539 -31.092  1.00  0.00     0.153 HD
BRANCH   3   5
HETATM    5  C7  UNL     1     -20.778   7.224 -30.052  1.00  0.00     0.118 C 
BRANCH   5   6
HETATM    6  C6  UNL     1     -20.069   7.717 -31.280  1.00  0.00     0.057 C 
BRANCH   6   7
HETATM    7  C5  UNL     1     -19.878   6.678 -32.321  1.00  0.00    -0.057 A 
HETATM    8  C4  UNL     1     -19.105   5.568 -32.022  1.00  0.00     0.010 A 
HETATM    9  C3  UNL     1     -18.895   4.562 -32.941  1.00  0.00     0.037 A 
HETATM   10  C2  UNL     1     -19.462   4.654 -34.190  1.00  0.00     0.068 A 
HETATM   11  C21 UNL     1     -20.229   5.754 -34.489  1.00  0.00     0.037 A 
HETATM   12  C20 UNL     1     -20.449   6.773 -33.573  1.00  0.00     0.010 A 
BRANCH  10  13
HETATM   13  O1  UNL     1     -19.276   3.655 -35.160  1.00  0.00    -0.356 OA
HETATM   14  C1  UNL     1     -18.084   2.914 -35.234  1.00  0.00     0.210 C 
ENDBRANCH  10  13
ENDBRANCH   6   7
ENDBRANCH   5   6
ENDBRANCH   3   5
ENDBRANCH   2   3
ENDBRANCH   1   2
BRANCH   1  15
HETATM   15  O2  UNL     1     -21.735   3.120 -29.353  1.00  0.00    -0.392 OA
ATOM     16  H2  UNL     1     -21.737   2.967 -30.290  1.00  0.00     0.210 HD
ENDBRANCH   1  15
BRANCH   1  17
HETATM   17  C10 UNL     1     -20.658   4.422 -27.732  1.00  0.00     0.209 C 
BRANCH  17  18
HETATM   18  O3  UNL     1     -19.358   4.112 -27.559  1.00  0.00    -0.349 OA
BRANCH  18  19
HETATM   19  C11 UNL     1     -18.240   4.883 -27.531  1.00  0.00     0.069 A 
HETATM   20  C12 UNL     1     -17.569   5.140 -26.364  1.00  0.00     0.037 A 
HETATM   21  C13 UNL     1     -16.422   5.941 -26.353  1.00  0.00     0.004 A 
HETATM   22  C14 UNL     1     -15.944   6.488 -27.536  1.00  0.00     0.011 A 
HETATM   23  C15 UNL     1     -16.578   6.261 -28.731  1.00  0.00    -0.032 A 
HETATM   24  C19 UNL     1     -17.728   5.451 -28.694  1.00  0.00     0.048 A 
BRANCH  23  25
HETATM   25  C16 UNL     1     -16.141   6.791 -29.991  1.00  0.00     0.028 C 
HETATM   26  C17 UNL     1     -14.976   6.969 -30.438  1.00  0.00     0.091 C 
BRANCH  26  27
HETATM   27  N2  UNL     1     -13.755   6.696 -29.817  1.00  0.00    -0.343 N 
HETATM   28  C18 UNL     1     -12.939   5.847 -30.324  1.00  0.00     0.200 C 
HETATM   29  N3  UNL     1     -11.683   5.561 -29.691  1.00  0.00    -0.067 NA
HETATM   30  N4  UNL     1     -13.278   5.183 -31.518  1.00  0.00    -0.067 NA
ATOM     31  H2  UNL     1     -13.510   7.177 -28.952  1.00  0.00     0.167 HD
ENDBRANCH  26  27
ENDBRANCH  23  25
ENDBRANCH  18  19
ENDBRANCH  17  18
ENDBRANCH   1  17
TORSDOF 12
ENDMDL
MODEL 2
REMARK VINA RESULT: -7.728973728      1.904      3.253
REMARK  12 active torsions:
REMARK  status: ('A' for Active; 'I' for Inactive)
REMARK    1  A    between atoms: O1_2  and  C2_3 
REMARK    2  A    between atoms: C5_6  and  C6_7 
REMARK    3  A    between atoms: C6_7  and  C7_8 
REMARK    4  A    between atoms: C7_8  and  N1_9 
REMARK    5  A    between atoms: N1_9  and  C8_11 
REMARK    6  A    between atoms: C8_11  and  C9_12 
REMARK    7  A    between atoms: C9_12  and  O2_13 
REMARK    8  A    between atoms: C9_12  and  C10_15 
REMARK    9  A    between atoms: C10_15  and  O3_16 
REMARK   10  A    between atoms: O3_16  and  C11_17 
REMARK   11  A    between atoms: C15_21  and  C16_22 
REMARK   12  A    between atoms: C17_23  and  N2_24 
ROOT
HETATM    1  C9  UNL     1     -18.657   5.904 -30.533  1.00  0.00     0.159 C 
ENDROOT
BRANCH   1   2
HETATM    2  C8  UNL     1     -19.131   6.957 -31.555  1.00  0.00     0.147 C 
BRANCH   2   3
HETATM    3  N1  UNL     1     -20.418   6.646 -32.060  1.00  0.00    -0.418 N 
ATOM      4  H1  UNL     1     -21.178   6.381 -31.433  1.00  0.00     0.153 HD
BRANCH   3   5
HETATM    5  C7  UNL     1     -20.618   6.715 -33.458  1.00  0.00     0.118 C 
BRANCH   5   6
HETATM    6  C6  UNL     1     -20.911   5.419 -34.158  1.00  0.00     0.057 C 
BRANCH   6   7
HETATM    7  C5  UNL     1     -19.760   4.874 -34.917  1.00  0.00    -0.057 A 
HETATM    8  C4  UNL     1     -19.037   3.826 -34.371  1.00  0.00     0.010 A 
HETATM    9  C3  UNL     1     -17.961   3.268 -35.028  1.00  0.00     0.037 A 
HETATM   10  C2  UNL     1     -17.587   3.757 -36.257  1.00  0.00     0.068 A 
HETATM   11  C21 UNL     1     -18.302   4.797 -36.800  1.00  0.00     0.037 A 
HETATM   12  C20 UNL     1     -19.387   5.367 -36.149  1.00  0.00     0.010 A 
BRANCH  10  13
HETATM   13  O1  UNL     1     -16.498   3.220 -36.964  1.00  0.00    -0.356 OA
HETATM   14  C1  UNL     1     -15.817   3.965 -37.942  1.00  0.00     0.210 C 
ENDBRANCH  10  13
ENDBRANCH   6   7
ENDBRANCH   5   6
ENDBRANCH   3   5
ENDBRANCH   2   3
ENDBRANCH   1   2
BRANCH   1  15
HETATM   15  O2  UNL     1     -17.582   5.208 -31.159  1.00  0.00    -0.392 OA
ATOM     16  H2  UNL     1     -17.984   4.631 -31.797  1.00  0.00     0.210 HD
ENDBRANCH   1  15
BRANCH   1  17
HETATM   17  C10 UNL     1     -19.778   4.909 -30.405  1.00  0.00     0.209 C 
BRANCH  17  18
HETATM   18  O3  UNL     1     -19.850   4.319 -29.196  1.00  0.00    -0.349 OA
BRANCH  18  19
HETATM   19  C11 UNL     1     -19.479   4.741 -27.960  1.00  0.00     0.069 A 
HETATM   20  C12 UNL     1     -20.402   5.024 -26.986  1.00  0.00     0.037 A 
HETATM   21  C13 UNL     1     -20.003   5.463 -25.718  1.00  0.00     0.004 A 
HETATM   22  C14 UNL     1     -18.654   5.618 -25.429  1.00  0.00     0.011 A 
HETATM   23  C15 UNL     1     -17.690   5.349 -26.367  1.00  0.00    -0.032 A 
HETATM   24  C19 UNL     1     -18.138   4.910 -27.627  1.00  0.00     0.048 A 
BRANCH  23  25
HETATM   25  C16 UNL     1     -16.280   5.484 -26.140  1.00  0.00     0.028 C 
HETATM   26  C17 UNL     1     -15.434   6.229 -26.703  1.00  0.00     0.091 C 
BRANCH  26  27
HETATM   27  N2  UNL     1     -15.636   7.152 -27.731  1.00  0.00    -0.343 N 
HETATM   28  C18 UNL     1     -15.451   6.819 -28.955  1.00  0.00     0.200 C 
HETATM   29  N3  UNL     1     -15.656   7.762 -30.017  1.00  0.00    -0.067 NA
HETATM   30  N4  UNL     1     -15.042   5.508 -29.264  1.00  0.00    -0.067 NA
ATOM     31  H2  UNL     1     -15.932   8.102 -27.506  1.00  0.00     0.167 HD
ENDBRANCH  26  27
ENDBRANCH  23  25
ENDBRANCH  18  19
ENDBRANCH  17  18
ENDBRANCH   1  17
TORSDOF 12
ENDMDL
MODEL 3
REMARK VINA RESULT: -7.572717858      2.616      7.272
REMARK  12 active torsions:
REMARK  status: ('A' for Active; 'I' for Inactive)
REMARK    1  A    between atoms: O1_2  and  C2_3 
REMARK    2  A    between atoms: C5_6  and  C6_7 
REMARK    3  A    between atoms: C6_7  and  C7_8 
REMARK    4  A    between atoms: C7_8  and  N1_9 
REMARK    5  A    between atoms: N1_9  and  C8_11 
REMARK    6  A    between atoms: C8_11  and  C9_12 
REMARK    7  A    between atoms: C9_12  and  O2_13 
REMARK    8  A    between atoms: C9_12  and  C10_15 
REMARK    9  A    between atoms: C10_15  and  O3_16 
REMARK   10  A    between atoms: O3_16  and  C11_17 
REMARK   11  A    between atoms: C15_21  and  C16_22 
REMARK   12  A    between atoms: C17_23  and  N2_24 
ROOT
HETATM    1  C9  UNL     1     -15.251   6.734 -29.370  1.00  0.00     0.159 C 
ENDROOT
BRANCH   1   2
HETATM    2  C8  UNL     1     -15.925   7.078 -28.026  1.00  0.00     0.147 C 
BRANCH   2   3
HETATM    3  N1  UNL     1     -15.311   6.394 -26.948  1.00  0.00    -0.418 N 
ATOM      4  H1  UNL     1     -14.296   6.369 -26.852  1.00  0.00     0.153 HD
BRANCH   3   5
HETATM    5  C7  UNL     1     -16.147   5.746 -26.010  1.00  0.00     0.118 C 
BRANCH   5   6
HETATM    6  C6  UNL     1     -16.868   4.520 -26.488  1.00  0.00     0.057 C 
BRANCH   6   7
HETATM    7  C5  UNL     1     -18.312   4.734 -26.744  1.00  0.00    -0.057 A 
HETATM    8  C4  UNL     1     -18.882   4.165 -27.871  1.00  0.00     0.010 A 
HETATM    9  C3  UNL     1     -20.221   4.318 -28.163  1.00  0.00     0.037 A 
HETATM   10  C2  UNL     1     -21.020   5.055 -27.321  1.00  0.00     0.068 A 
HETATM   11  C21 UNL     1     -20.457   5.621 -26.203  1.00  0.00     0.037 A 
HETATM   12  C20 UNL     1     -19.112   5.474 -25.897  1.00  0.00     0.010 A 
BRANCH  10  13
HETATM   13  O1  UNL     1     -22.389   5.239 -27.578  1.00  0.00    -0.356 OA
HETATM   14  C1  UNL     1     -23.082   4.426 -28.490  1.00  0.00     0.210 C 
ENDBRANCH  10  13
ENDBRANCH   6   7
ENDBRANCH   5   6
ENDBRANCH   3   5
ENDBRANCH   2   3
ENDBRANCH   1   2
BRANCH   1  15
HETATM   15  O2  UNL     1     -15.252   7.941 -30.128  1.00  0.00    -0.392 OA
ATOM     16  H2  UNL     1     -15.427   7.684 -31.025  1.00  0.00     0.210 HD
ENDBRANCH   1  15
BRANCH   1  17
HETATM   17  C10 UNL     1     -16.188   5.796 -30.081  1.00  0.00     0.209 C 
BRANCH  17  18
HETATM   18  O3  UNL     1     -17.109   6.417 -30.843  1.00  0.00    -0.349 OA
BRANCH  18  19
HETATM   19  C11 UNL     1     -18.435   6.189 -31.026  1.00  0.00     0.069 A 
HETATM   20  C12 UNL     1     -18.891   5.137 -31.777  1.00  0.00     0.037 A 
HETATM   21  C13 UNL     1     -20.261   4.919 -31.960  1.00  0.00     0.004 A 
HETATM   22  C14 UNL     1     -21.184   5.775 -31.375  1.00  0.00     0.011 A 
HETATM   23  C15 UNL     1     -20.782   6.843 -30.614  1.00  0.00    -0.032 A 
HETATM   24  C19 UNL     1     -19.394   7.023 -30.459  1.00  0.00     0.048 A 
BRANCH  23  25
HETATM   25  C16 UNL     1     -21.677   7.767 -29.979  1.00  0.00     0.028 C 
HETATM   26  C17 UNL     1     -22.213   8.817 -30.426  1.00  0.00     0.091 C 
BRANCH  26  27
HETATM   27  N2  UNL     1     -22.081   9.390 -31.692  1.00  0.00    -0.343 N 
HETATM   28  C18 UNL     1     -22.474  10.590 -31.911  1.00  0.00     0.200 C 
HETATM   29  N3  UNL     1     -22.342  11.186 -33.210  1.00  0.00    -0.067 NA
HETATM   30  N4  UNL     1     -23.045  11.337 -30.864  1.00  0.00    -0.067 NA
ATOM     31  H2  UNL     1     -21.667   8.848 -32.451  1.00  0.00     0.167 HD
ENDBRANCH  26  27
ENDBRANCH  23  25
ENDBRANCH  18  19
ENDBRANCH  17  18
ENDBRANCH   1  17
TORSDOF 12
ENDMDL
MODEL 4
REMARK VINA RESULT: -7.516890336      2.914      6.531
REMARK  12 active torsions:
REMARK  status: ('A' for Active; 'I' for Inactive)
REMARK    1  A    between atoms: O1_2  and  C2_3 
REMARK    2  A    between atoms: C5_6  and  C6_7 
REMARK    3  A    between atoms: C6_7  and  C7_8 
REMARK    4  A    between atoms: C7_8  and  N1_9 
REMARK    5  A    between atoms: N1_9  and  C8_11 
REMARK    6  A    between atoms: C8_11  and  C9_12 
REMARK    7  A    between atoms: C9_12  and  O2_13 
REMARK    8  A    between atoms: C9_12  and  C10_15 
REMARK    9  A    between atoms: C10_15  and  O3_16 
REMARK   10  A    between atoms: O3_16  and  C11_17 
REMARK   11  A    between atoms: C15_21  and  C16_22 
REMARK   12  A    between atoms: C17_23  and  N2_24 
ROOT
HETATM    1  C9  UNL     1     -14.943   6.784 -29.321  1.00  0.00     0.159 C 
ENDROOT
BRANCH   1   2
HETATM    2  C8  UNL     1     -15.675   6.958 -27.975  1.00  0.00     0.147 C 
BRANCH   2   3
HETATM    3  N1  UNL     1     -15.805   5.724 -27.293  1.00  0.00    -0.418 N 
ATOM      4  H1  UNL     1     -15.446   4.859 -27.698  1.00  0.00     0.153 HD
BRANCH   3   5
HETATM    5  C7  UNL     1     -16.447   5.725 -26.033  1.00  0.00     0.118 C 
BRANCH   5   6
HETATM    6  C6  UNL     1     -17.420   4.611 -25.776  1.00  0.00     0.057 C 
BRANCH   6   7
HETATM    7  C5  UNL     1     -18.719   4.776 -26.470  1.00  0.00    -0.057 A 
HETATM    8  C4  UNL     1     -19.702   5.548 -25.873  1.00  0.00     0.010 A 
HETATM    9  C3  UNL     1     -20.929   5.749 -26.468  1.00  0.00     0.037 A 
HETATM   10  C2  UNL     1     -21.194   5.173 -27.687  1.00  0.00     0.068 A 
HETATM   11  C21 UNL     1     -20.221   4.406 -28.282  1.00  0.00     0.037 A 
HETATM   12  C20 UNL     1     -18.983   4.196 -27.693  1.00  0.00     0.010 A 
BRANCH  10  13
HETATM   13  O1  UNL     1     -22.430   5.349 -28.333  1.00  0.00    -0.356 OA
HETATM   14  C1  UNL     1     -22.508   5.649 -29.703  1.00  0.00     0.210 C 
ENDBRANCH  10  13
ENDBRANCH   6   7
ENDBRANCH   5   6
ENDBRANCH   3   5
ENDBRANCH   2   3
ENDBRANCH   1   2
BRANCH   1  15
HETATM   15  O2  UNL     1     -15.243   7.951 -30.083  1.00  0.00    -0.392 OA
ATOM     16  H2  UNL     1     -14.970   7.759 -30.972  1.00  0.00     0.210 HD
ENDBRANCH   1  15
BRANCH   1  17
HETATM   17  C10 UNL     1     -15.624   5.642 -30.025  1.00  0.00     0.209 C 
BRANCH  17  18
HETATM   18  O3  UNL     1     -16.966   5.652 -29.909  1.00  0.00    -0.349 OA
BRANCH  18  19
HETATM   19  C11 UNL     1     -17.948   5.973 -30.791  1.00  0.00     0.069 A 
HETATM   20  C12 UNL     1     -18.476   7.237 -30.855  1.00  0.00     0.037 A 
HETATM   21  C13 UNL     1     -19.491   7.550 -31.766  1.00  0.00     0.004 A 
HETATM   22  C14 UNL     1     -19.979   6.575 -32.625  1.00  0.00     0.011 A 
HETATM   23  C15 UNL     1     -19.485   5.295 -32.602  1.00  0.00    -0.032 A 
HETATM   24  C19 UNL     1     -18.466   5.027 -31.670  1.00  0.00     0.048 A 
BRANCH  23  25
HETATM   25  C16 UNL     1     -19.939   4.238 -33.460  1.00  0.00     0.028 C 
HETATM   26  C17 UNL     1     -19.396   3.728 -34.477  1.00  0.00     0.091 C 
BRANCH  26  27
HETATM   27  N2  UNL     1     -18.175   4.057 -35.068  1.00  0.00    -0.343 N 
HETATM   28  C18 UNL     1     -17.782   3.461 -36.133  1.00  0.00     0.200 C 
HETATM   29  N3  UNL     1     -16.529   3.793 -36.747  1.00  0.00    -0.067 NA
HETATM   30  N4  UNL     1     -18.591   2.464 -36.711  1.00  0.00    -0.067 NA
ATOM     31  H2  UNL     1     -17.589   4.779 -34.650  1.00  0.00     0.167 HD
ENDBRANCH  26  27
ENDBRANCH  23  25
ENDBRANCH  18  19
ENDBRANCH  17  18
ENDBRANCH   1  17
TORSDOF 12
ENDMDL
MODEL 5
REMARK VINA RESULT: -7.511020776      2.512      7.248
REMARK  12 active torsions:
REMARK  status: ('A' for Active; 'I' for Inactive)
REMARK    1  A    between atoms: O1_2  and  C2_3 
REMARK    2  A    between atoms: C5_6  and  C6_7 
REMARK    3  A    between atoms: C6_7  and  C7_8 
REMARK    4  A    between atoms: C7_8  and  N1_9 
REMARK    5  A    between atoms: N1_9  and  C8_11 
REMARK    6  A    between atoms: C8_11  and  C9_12 
REMARK    7  A    between atoms: C9_12  and  O2_13 
REMARK    8  A    between atoms: C9_12  and  C10_15 
REMARK    9  A    between atoms: C10_15  and  O3_16 
REMARK   10  A    between atoms: O3_16  and  C11_17 
REMARK   11  A    between atoms: C15_21  and  C16_22 
REMARK   12  A    between atoms: C17_23  and  N2_24 
ROOT
HETATM    1  C9  UNL     1     -15.242   6.791 -29.364  1.00  0.00     0.159 C 
ENDROOT
BRANCH   1   2
HETATM    2  C8  UNL     1     -15.735   7.184 -27.957  1.00  0.00     0.147 C 
BRANCH   2   3
HETATM    3  N1  UNL     1     -15.243   6.295 -26.969  1.00  0.00    -0.418 N 
ATOM      4  H1  UNL     1     -14.268   5.993 -26.972  1.00  0.00     0.153 HD
BRANCH   3   5
HETATM    5  C7  UNL     1     -16.142   5.839 -25.978  1.00  0.00     0.118 C 
BRANCH   5   6
HETATM    6  C6  UNL     1     -16.880   4.567 -26.276  1.00  0.00     0.057 C 
BRANCH   6   7
HETATM    7  C5  UNL     1     -18.304   4.768 -26.632  1.00  0.00    -0.057 A 
HETATM    8  C4  UNL     1     -18.767   4.268 -27.838  1.00  0.00     0.010 A 
HETATM    9  C3  UNL     1     -20.082   4.414 -28.227  1.00  0.00     0.037 A 
HETATM   10  C2  UNL     1     -20.965   5.072 -27.404  1.00  0.00     0.068 A 
HETATM   11  C21 UNL     1     -20.508   5.569 -26.207  1.00  0.00     0.037 A 
HETATM   12  C20 UNL     1     -19.188   5.429 -25.805  1.00  0.00     0.010 A 
BRANCH  10  13
HETATM   13  O1  UNL     1     -22.313   5.246 -27.757  1.00  0.00    -0.356 OA
HETATM   14  C1  UNL     1     -22.912   4.481 -28.773  1.00  0.00     0.210 C 
ENDBRANCH  10  13
ENDBRANCH   6   7
ENDBRANCH   5   6
ENDBRANCH   3   5
ENDBRANCH   2   3
ENDBRANCH   1   2
BRANCH   1  15
HETATM   15  O2  UNL     1     -15.242   7.995 -30.128  1.00  0.00    -0.392 OA
ATOM     16  H2  UNL     1     -15.522   7.748 -31.001  1.00  0.00     0.210 HD
ENDBRANCH   1  15
BRANCH   1  17
HETATM   17  C10 UNL     1     -16.316   5.922 -29.958  1.00  0.00     0.209 C 
BRANCH  17  18
HETATM   18  O3  UNL     1     -17.173   6.583 -30.760  1.00  0.00    -0.349 OA
BRANCH  18  19
HETATM   19  C11 UNL     1     -18.468   6.345 -31.092  1.00  0.00     0.069 A 
HETATM   20  C12 UNL     1     -18.887   5.116 -31.532  1.00  0.00     0.037 A 
HETATM   21  C13 UNL     1     -20.225   4.889 -31.875  1.00  0.00     0.004 A 
HETATM   22  C14 UNL     1     -21.153   5.916 -31.772  1.00  0.00     0.011 A 
HETATM   23  C15 UNL     1     -20.786   7.165 -31.337  1.00  0.00    -0.032 A 
HETATM   24  C19 UNL     1     -19.431   7.346 -31.003  1.00  0.00     0.048 A 
BRANCH  23  25
HETATM   25  C16 UNL     1     -21.689   8.272 -31.203  1.00  0.00     0.028 C 
HETATM   26  C17 UNL     1     -22.341   8.672 -30.201  1.00  0.00     0.091 C 
BRANCH  26  27
HETATM   27  N2  UNL     1     -22.370   8.136 -28.912  1.00  0.00    -0.343 N 
HETATM   28  C18 UNL     1     -22.857   8.809 -27.935  1.00  0.00     0.200 C 
HETATM   29  N3  UNL     1     -22.891   8.266 -26.607  1.00  0.00    -0.067 NA
HETATM   30  N4  UNL     1     -23.367  10.100 -28.166  1.00  0.00    -0.067 NA
ATOM     31  H2  UNL     1     -22.000   7.201 -28.745  1.00  0.00     0.167 HD
ENDBRANCH  26  27
ENDBRANCH  23  25
ENDBRANCH  18  19
ENDBRANCH  17  18
ENDBRANCH   1  17
TORSDOF 12
ENDMDL
