MODEL 1
REMARK VINA RESULT: -6.520274203      0.000      0.000
REMARK  13 active torsions:
REMARK  status: ('A' for Active; 'I' for Inactive)
REMARK    1  A    between atoms: C1_4  and  C2_6 
REMARK    2  A    between atoms: C6_10  and  C7_11 
REMARK    3  A    between atoms: C7_11  and  N3_12 
REMARK    4  A    between atoms: N3_12  and  C8_15 
REMARK    5  A    between atoms: C8_15  and  C9_16 
REMARK    6  A    between atoms: C9_16  and  O1_17 
REMARK    7  A    between atoms: O1_17  and  C10_18 
REMARK    8  A    between atoms: C10_18  and  C11_19 
REMARK    9  A    between atoms: C11_19  and  O2_20 
REMARK   10  A    between atoms: O2_20  and  C12_21 
REMARK   11  A    between atoms: C12_21  and  C13_22 
REMARK   12  A    between atoms: C14_23  and  C15_24 
REMARK   13  A    between atoms: C19_28  and  C20_29 
ROOT
HETATM    1  C9  UNL     1     -15.681   7.197 -29.977  1.00  0.00     0.195 C 
ENDROOT
BRANCH   1   2
HETATM    2  C8  UNL     1     -15.711   5.694 -30.136  1.00  0.00     0.258 C 
BRANCH   2   3
HETATM    3  N3  UNL     1     -16.914   5.359 -30.877  1.00  0.00    -0.069 N 
ATOM      4  H32 UNL     1     -16.805   4.484 -31.391  1.00  0.00     0.277 HD
ATOM      5  H31 UNL     1     -17.053   5.990 -31.667  1.00  0.00     0.277 HD
BRANCH   3   6
HETATM    6  C7  UNL     1     -18.078   5.325 -30.013  1.00  0.00     0.270 C 
BRANCH   6   7
HETATM    7  C6  UNL     1     -19.224   6.006 -30.645  1.00  0.00    -0.032 A 
HETATM    8  C5  UNL     1     -19.734   7.167 -30.123  1.00  0.00     0.009 A 
HETATM    9  C4  UNL     1     -20.800   7.786 -30.727  1.00  0.00     0.002 A 
HETATM   10  C3  UNL     1     -21.363   7.244 -31.862  1.00  0.00     0.015 A 
HETATM   11  C2  UNL     1     -20.845   6.082 -32.377  1.00  0.00     0.005 A 
HETATM   12  C22 UNL     1     -19.780   5.460 -31.776  1.00  0.00     0.023 A 
BRANCH  11  13
HETATM   13  C1  UNL     1     -21.419   5.479 -33.582  1.00  0.00     0.120 C 
HETATM   14  N1  UNL     1     -22.695   5.366 -33.673  1.00  0.00    -0.387 N 
ATOM     15  H12 UNL     1     -23.094   4.946 -34.512  1.00  0.00     0.157 HD
ATOM     16  H11 UNL     1     -23.290   5.695 -32.913  1.00  0.00     0.157 HD
HETATM   17  N2  UNL     1     -20.592   5.023 -34.638  1.00  0.00    -0.082 NA
ENDBRANCH  11  13
ENDBRANCH   6   7
ENDBRANCH   3   6
ENDBRANCH   2   3
ENDBRANCH   1   2
BRANCH   1  18
HETATM   18  O1  UNL     1     -15.592   7.562 -28.660  1.00  0.00    -0.387 OA
BRANCH  18  19
HETATM   19  C10 UNL     1     -15.438   6.452 -27.854  1.00  0.00     0.193 C 
BRANCH  19  20
HETATM   20  C11 UNL     1     -16.354   6.433 -26.654  1.00  0.00     0.195 C 
BRANCH  20  21
HETATM   21  O2  UNL     1     -16.374   5.145 -26.144  1.00  0.00    -0.377 OA
BRANCH  21  22
HETATM   22  C12 UNL     1     -17.436   4.946 -25.263  1.00  0.00     0.261 C 
BRANCH  22  23
HETATM   23  C13 UNL     1     -18.694   5.037 -26.005  1.00  0.00    -0.075 C 
HETATM   24  C14 UNL     1     -19.727   5.115 -26.638  1.00  0.00    -0.065 C 
BRANCH  24  25
HETATM   25  C15 UNL     1     -20.940   5.219 -27.408  1.00  0.00     0.018 A 
HETATM   26  C16 UNL     1     -21.847   6.247 -27.173  1.00  0.00     0.020 A 
HETATM   27  C17 UNL     1     -23.008   6.340 -27.916  1.00  0.00     0.002 A 
HETATM   28  C18 UNL     1     -23.277   5.412 -28.897  1.00  0.00     0.017 A 
HETATM   29  C19 UNL     1     -22.404   4.377 -29.162  1.00  0.00     0.030 A 
HETATM   30  C21 UNL     1     -21.239   4.307 -28.398  1.00  0.00     0.037 A 
BRANCH  29  31
HETATM   31  C20 UNL     1     -22.697   3.408 -30.197  1.00  0.00     0.265 C 
HETATM   32  N4  UNL     1     -23.646   3.696 -31.194  1.00  0.00    -0.057 NA
HETATM   33  O3  UNL     1     -22.101   2.315 -30.201  1.00  0.00    -0.271 OA
ENDBRANCH  29  31
ENDBRANCH  24  25
ENDBRANCH  22  23
ENDBRANCH  21  22
ENDBRANCH  20  21
ENDBRANCH  19  20
ENDBRANCH  18  19
ENDBRANCH   1  18
TORSDOF 13
ENDMDL
MODEL 2
REMARK VINA RESULT: -6.374083501      3.193      6.655
REMARK  13 active torsions:
REMARK  status: ('A' for Active; 'I' for Inactive)
REMARK    1  A    between atoms: C1_4  and  C2_6 
REMARK    2  A    between atoms: C6_10  and  C7_11 
REMARK    3  A    between atoms: C7_11  and  N3_12 
REMARK    4  A    between atoms: N3_12  and  C8_15 
REMARK    5  A    between atoms: C8_15  and  C9_16 
REMARK    6  A    between atoms: C9_16  and  O1_17 
REMARK    7  A    between atoms: O1_17  and  C10_18 
REMARK    8  A    between atoms: C10_18  and  C11_19 
REMARK    9  A    between atoms: C11_19  and  O2_20 
REMARK   10  A    between atoms: O2_20  and  C12_21 
REMARK   11  A    between atoms: C12_21  and  C13_22 
REMARK   12  A    between atoms: C14_23  and  C15_24 
REMARK   13  A    between atoms: C19_28  and  C20_29 
ROOT
HETATM    1  C9  UNL     1     -18.934   5.378 -25.765  1.00  0.00     0.195 C 
ENDROOT
BRANCH   1   2
HETATM    2  C8  UNL     1     -17.661   4.769 -25.225  1.00  0.00     0.258 C 
BRANCH   2   3
HETATM    3  N3  UNL     1     -16.698   4.740 -26.311  1.00  0.00    -0.069 N 
ATOM      4  H32 UNL     1     -17.079   4.277 -27.136  1.00  0.00     0.277 HD
ATOM      5  H31 UNL     1     -15.929   4.099 -26.112  1.00  0.00     0.277 HD
BRANCH   3   6
HETATM    6  C7  UNL     1     -16.213   6.070 -26.625  1.00  0.00     0.270 C 
BRANCH   6   7
HETATM    7  C6  UNL     1     -16.002   6.225 -28.078  1.00  0.00    -0.032 A 
HETATM    8  C5  UNL     1     -17.041   6.538 -28.915  1.00  0.00     0.009 A 
HETATM    9  C4  UNL     1     -16.824   6.680 -30.263  1.00  0.00     0.002 A 
HETATM   10  C3  UNL     1     -15.558   6.508 -30.782  1.00  0.00     0.015 A 
HETATM   11  C2  UNL     1     -14.524   6.195 -29.936  1.00  0.00     0.005 A 
HETATM   12  C22 UNL     1     -14.738   6.052 -28.587  1.00  0.00     0.023 A 
BRANCH  11  13
HETATM   13  C1  UNL     1     -13.168   6.005 -30.453  1.00  0.00     0.120 C 
HETATM   14  N1  UNL     1     -12.224   6.758 -30.013  1.00  0.00    -0.387 N 
ATOM     15  H12 UNL     1     -11.280   6.626 -30.374  1.00  0.00     0.157 HD
ATOM     16  H11 UNL     1     -12.427   7.471 -29.313  1.00  0.00     0.157 HD
HETATM   17  N2  UNL     1     -12.886   5.014 -31.426  1.00  0.00    -0.082 NA
ENDBRANCH  11  13
ENDBRANCH   6   7
ENDBRANCH   3   6
ENDBRANCH   2   3
ENDBRANCH   1   2
BRANCH   1  18
HETATM   18  O1  UNL     1     -19.372   4.720 -26.884  1.00  0.00    -0.387 OA
BRANCH  18  19
HETATM   19  C10 UNL     1     -20.731   4.896 -27.055  1.00  0.00     0.193 C 
BRANCH  19  20
HETATM   20  C11 UNL     1     -21.089   5.986 -28.036  1.00  0.00     0.195 C 
BRANCH  20  21
HETATM   21  O2  UNL     1     -20.437   5.726 -29.230  1.00  0.00    -0.377 OA
BRANCH  21  22
HETATM   22  C12 UNL     1     -20.949   4.599 -29.873  1.00  0.00     0.261 C 
BRANCH  22  23
HETATM   23  C13 UNL     1     -20.522   4.614 -31.273  1.00  0.00    -0.075 C 
HETATM   24  C14 UNL     1     -20.156   4.610 -32.430  1.00  0.00    -0.065 C 
BRANCH  24  25
HETATM   25  C15 UNL     1     -19.701   4.592 -33.797  1.00  0.00     0.018 A 
HETATM   26  C16 UNL     1     -19.979   5.652 -34.653  1.00  0.00     0.020 A 
HETATM   27  C17 UNL     1     -19.539   5.627 -35.963  1.00  0.00     0.002 A 
HETATM   28  C18 UNL     1     -18.821   4.550 -36.431  1.00  0.00     0.017 A 
HETATM   29  C19 UNL     1     -18.524   3.478 -35.614  1.00  0.00     0.030 A 
HETATM   30  C21 UNL     1     -18.980   3.528 -34.297  1.00  0.00     0.037 A 
BRANCH  29  31
HETATM   31  C20 UNL     1     -17.767   2.351 -36.117  1.00  0.00     0.265 C 
HETATM   32  N4  UNL     1     -18.007   1.056 -35.623  1.00  0.00    -0.057 NA
HETATM   33  O3  UNL     1     -16.901   2.534 -36.992  1.00  0.00    -0.271 OA
ENDBRANCH  29  31
ENDBRANCH  24  25
ENDBRANCH  22  23
ENDBRANCH  21  22
ENDBRANCH  20  21
ENDBRANCH  19  20
ENDBRANCH  18  19
ENDBRANCH   1  18
TORSDOF 13
ENDMDL
MODEL 3
REMARK VINA RESULT: -6.177163712      1.735      2.350
REMARK  13 active torsions:
REMARK  status: ('A' for Active; 'I' for Inactive)
REMARK    1  A    between atoms: C1_4  and  C2_6 
REMARK    2  A    between atoms: C6_10  and  C7_11 
REMARK    3  A    between atoms: C7_11  and  N3_12 
REMARK    4  A    between atoms: N3_12  and  C8_15 
REMARK    5  A    between atoms: C8_15  and  C9_16 
REMARK    6  A    between atoms: C9_16  and  O1_17 
REMARK    7  A    between atoms: O1_17  and  C10_18 
REMARK    8  A    between atoms: C10_18  and  C11_19 
REMARK    9  A    between atoms: C11_19  and  O2_20 
REMARK   10  A    between atoms: O2_20  and  C12_21 
REMARK   11  A    between atoms: C12_21  and  C13_22 
REMARK   12  A    between atoms: C14_23  and  C15_24 
REMARK   13  A    between atoms: C19_28  and  C20_29 
ROOT
HETATM    1  C9  UNL     1     -16.339   6.155 -28.149  1.00  0.00     0.195 C 
ENDROOT
BRANCH   1   2
HETATM    2  C8  UNL     1     -15.447   5.972 -29.355  1.00  0.00     0.258 C 
BRANCH   2   3
HETATM    3  N3  UNL     1     -16.246   5.356 -30.398  1.00  0.00    -0.069 N 
ATOM      4  H32 UNL     1     -15.854   4.460 -30.689  1.00  0.00     0.277 HD
ATOM      5  H31 UNL     1     -16.162   5.860 -31.281  1.00  0.00     0.277 HD
BRANCH   3   6
HETATM    6  C7  UNL     1     -17.632   5.221 -29.994  1.00  0.00     0.270 C 
BRANCH   6   7
HETATM    7  C6  UNL     1     -18.528   5.907 -30.946  1.00  0.00    -0.032 A 
HETATM    8  C5  UNL     1     -18.917   7.206 -30.743  1.00  0.00     0.009 A 
HETATM    9  C4  UNL     1     -19.749   7.826 -31.641  1.00  0.00     0.002 A 
HETATM   10  C3  UNL     1     -20.199   7.146 -32.753  1.00  0.00     0.015 A 
HETATM   11  C2  UNL     1     -19.804   5.846 -32.947  1.00  0.00     0.005 A 
HETATM   12  C22 UNL     1     -18.972   5.222 -32.051  1.00  0.00     0.023 A 
BRANCH  11  13
HETATM   13  C1  UNL     1     -20.262   5.094 -34.117  1.00  0.00     0.120 C 
HETATM   14  N1  UNL     1     -19.475   4.228 -34.647  1.00  0.00    -0.387 N 
ATOM     15  H12 UNL     1     -19.795   3.705 -35.462  1.00  0.00     0.157 HD
ATOM     16  H11 UNL     1     -18.548   4.073 -34.250  1.00  0.00     0.157 HD
HETATM   17  N2  UNL     1     -21.549   5.310 -34.668  1.00  0.00    -0.082 NA
ENDBRANCH  11  13
ENDBRANCH   6   7
ENDBRANCH   3   6
ENDBRANCH   2   3
ENDBRANCH   1   2
BRANCH   1  18
HETATM   18  O1  UNL     1     -15.609   6.263 -26.994  1.00  0.00    -0.387 OA
BRANCH  18  19
HETATM   19  C10 UNL     1     -16.280   5.686 -25.935  1.00  0.00     0.193 C 
BRANCH  19  20
HETATM   20  C11 UNL     1     -17.139   4.506 -26.323  1.00  0.00     0.195 C 
BRANCH  20  21
HETATM   21  O2  UNL     1     -18.097   4.325 -25.339  1.00  0.00    -0.377 OA
BRANCH  21  22
HETATM   22  C12 UNL     1     -19.057   5.336 -25.350  1.00  0.00     0.261 C 
BRANCH  22  23
HETATM   23  C13 UNL     1     -19.842   5.235 -26.581  1.00  0.00    -0.075 C 
HETATM   24  C14 UNL     1     -20.500   5.133 -27.596  1.00  0.00    -0.065 C 
BRANCH  24  25
HETATM   25  C15 UNL     1     -21.284   4.988 -28.796  1.00  0.00     0.018 A 
HETATM   26  C16 UNL     1     -21.333   3.773 -29.471  1.00  0.00     0.020 A 
HETATM   27  C17 UNL     1     -22.087   3.641 -30.622  1.00  0.00     0.002 A 
HETATM   28  C18 UNL     1     -22.798   4.715 -31.109  1.00  0.00     0.017 A 
HETATM   29  C19 UNL     1     -22.776   5.937 -30.469  1.00  0.00     0.030 A 
HETATM   30  C21 UNL     1     -22.007   6.043 -29.310  1.00  0.00     0.037 A 
BRANCH  29  31
HETATM   31  C20 UNL     1     -23.528   7.059 -30.990  1.00  0.00     0.265 C 
HETATM   32  N4  UNL     1     -24.116   6.991 -32.266  1.00  0.00    -0.057 NA
HETATM   33  O3  UNL     1     -23.653   8.087 -30.300  1.00  0.00    -0.271 OA
ENDBRANCH  29  31
ENDBRANCH  24  25
ENDBRANCH  22  23
ENDBRANCH  21  22
ENDBRANCH  20  21
ENDBRANCH  19  20
ENDBRANCH  18  19
ENDBRANCH   1  18
TORSDOF 13
ENDMDL
MODEL 4
REMARK VINA RESULT: -6.136513800      2.656      4.525
REMARK  13 active torsions:
REMARK  status: ('A' for Active; 'I' for Inactive)
REMARK    1  A    between atoms: C1_4  and  C2_6 
REMARK    2  A    between atoms: C6_10  and  C7_11 
REMARK    3  A    between atoms: C7_11  and  N3_12 
REMARK    4  A    between atoms: N3_12  and  C8_15 
REMARK    5  A    between atoms: C8_15  and  C9_16 
REMARK    6  A    between atoms: C9_16  and  O1_17 
REMARK    7  A    between atoms: O1_17  and  C10_18 
REMARK    8  A    between atoms: C10_18  and  C11_19 
REMARK    9  A    between atoms: C11_19  and  O2_20 
REMARK   10  A    between atoms: O2_20  and  C12_21 
REMARK   11  A    between atoms: C12_21  and  C13_22 
REMARK   12  A    between atoms: C14_23  and  C15_24 
REMARK   13  A    between atoms: C19_28  and  C20_29 
ROOT
HETATM    1  C9  UNL     1     -16.727   5.967 -26.499  1.00  0.00     0.195 C 
ENDROOT
BRANCH   1   2
HETATM    2  C8  UNL     1     -16.890   4.490 -26.771  1.00  0.00     0.258 C 
BRANCH   2   3
HETATM    3  N3  UNL     1     -18.313   4.202 -26.770  1.00  0.00    -0.069 N 
ATOM      4  H32 UNL     1     -18.540   3.443 -26.127  1.00  0.00     0.277 HD
ATOM      5  H31 UNL     1     -18.606   3.762 -27.643  1.00  0.00     0.277 HD
BRANCH   3   6
HETATM    6  C7  UNL     1     -19.094   5.389 -26.486  1.00  0.00     0.270 C 
BRANCH   6   7
HETATM    7  C6  UNL     1     -20.422   5.313 -27.125  1.00  0.00    -0.032 A 
HETATM    8  C5  UNL     1     -21.446   6.136 -26.733  1.00  0.00     0.009 A 
HETATM    9  C4  UNL     1     -22.673   6.050 -27.342  1.00  0.00     0.002 A 
HETATM   10  C3  UNL     1     -22.883   5.134 -28.350  1.00  0.00     0.015 A 
HETATM   11  C2  UNL     1     -21.852   4.313 -28.735  1.00  0.00     0.005 A 
HETATM   12  C22 UNL     1     -20.624   4.397 -28.129  1.00  0.00     0.023 A 
BRANCH  11  13
HETATM   13  C1  UNL     1     -22.041   3.330 -29.803  1.00  0.00     0.120 C 
HETATM   14  N1  UNL     1     -22.911   2.399 -29.644  1.00  0.00    -0.387 N 
ATOM     15  H12 UNL     1     -23.042   1.714 -30.388  1.00  0.00     0.157 HD
ATOM     16  H11 UNL     1     -23.458   2.355 -28.784  1.00  0.00     0.157 HD
HETATM   17  N2  UNL     1     -21.282   3.391 -30.998  1.00  0.00    -0.082 NA
ENDBRANCH  11  13
ENDBRANCH   6   7
ENDBRANCH   3   6
ENDBRANCH   2   3
ENDBRANCH   1   2
BRANCH   1  18
HETATM   18  O1  UNL     1     -15.623   6.477 -27.131  1.00  0.00    -0.387 OA
BRANCH  18  19
HETATM   19  C10 UNL     1     -15.606   6.104 -28.460  1.00  0.00     0.193 C 
BRANCH  19  20
HETATM   20  C11 UNL     1     -15.237   7.222 -29.406  1.00  0.00     0.195 C 
BRANCH  20  21
HETATM   21  O2  UNL     1     -16.331   7.483 -30.215  1.00  0.00    -0.377 OA
BRANCH  21  22
HETATM   22  C12 UNL     1     -17.087   6.338 -30.459  1.00  0.00     0.261 C 
BRANCH  22  23
HETATM   23  C13 UNL     1     -18.504   6.702 -30.502  1.00  0.00    -0.075 C 
HETATM   24  C14 UNL     1     -19.677   7.009 -30.557  1.00  0.00    -0.065 C 
BRANCH  24  25
HETATM   25  C15 UNL     1     -21.066   7.383 -30.645  1.00  0.00     0.018 A 
HETATM   26  C16 UNL     1     -21.907   6.785 -31.577  1.00  0.00     0.020 A 
HETATM   27  C17 UNL     1     -23.238   7.149 -31.654  1.00  0.00     0.002 A 
HETATM   28  C18 UNL     1     -23.742   8.110 -30.807  1.00  0.00     0.017 A 
HETATM   29  C19 UNL     1     -22.942   8.727 -29.868  1.00  0.00     0.030 A 
HETATM   30  C21 UNL     1     -21.602   8.341 -29.811  1.00  0.00     0.037 A 
BRANCH  29  31
HETATM   31  C20 UNL     1     -23.483   9.736 -28.981  1.00  0.00     0.265 C 
HETATM   32  N4  UNL     1     -23.044   9.819 -27.648  1.00  0.00    -0.057 NA
HETATM   33  O3  UNL     1     -24.341  10.531 -29.407  1.00  0.00    -0.271 OA
ENDBRANCH  29  31
ENDBRANCH  24  25
ENDBRANCH  22  23
ENDBRANCH  21  22
ENDBRANCH  20  21
ENDBRANCH  19  20
ENDBRANCH  18  19
ENDBRANCH   1  18
TORSDOF 13
ENDMDL
MODEL 5
REMARK VINA RESULT: -6.086416099      1.972      3.929
REMARK  13 active torsions:
REMARK  status: ('A' for Active; 'I' for Inactive)
REMARK    1  A    between atoms: C1_4  and  C2_6 
REMARK    2  A    between atoms: C6_10  and  C7_11 
REMARK    3  A    between atoms: C7_11  and  N3_12 
REMARK    4  A    between atoms: N3_12  and  C8_15 
REMARK    5  A    between atoms: C8_15  and  C9_16 
REMARK    6  A    between atoms: C9_16  and  O1_17 
REMARK    7  A    between atoms: O1_17  and  C10_18 
REMARK    8  A    between atoms: C10_18  and  C11_19 
REMARK    9  A    between atoms: C11_19  and  O2_20 
REMARK   10  A    between atoms: O2_20  and  C12_21 
REMARK   11  A    between atoms: C12_21  and  C13_22 
REMARK   12  A    between atoms: C14_23  and  C15_24 
REMARK   13  A    between atoms: C19_28  and  C20_29 
ROOT
HETATM    1  C9  UNL     1     -16.535   5.721 -26.587  1.00  0.00     0.195 C 
ENDROOT
BRANCH   1   2
HETATM    2  C8  UNL     1     -16.751   4.487 -27.433  1.00  0.00     0.258 C 
BRANCH   2   3
HETATM    3  N3  UNL     1     -18.172   4.192 -27.418  1.00  0.00    -0.069 N 
ATOM      4  H32 UNL     1     -18.361   3.284 -26.992  1.00  0.00     0.277 HD
ATOM      5  H31 UNL     1     -18.524   4.001 -28.357  1.00  0.00     0.277 HD
BRANCH   3   6
HETATM    6  C7  UNL     1     -18.927   5.248 -26.773  1.00  0.00     0.270 C 
BRANCH   6   7
HETATM    7  C6  UNL     1     -20.331   5.247 -27.227  1.00  0.00    -0.032 A 
HETATM    8  C5  UNL     1     -21.233   6.159 -26.743  1.00  0.00     0.009 A 
HETATM    9  C4  UNL     1     -22.534   6.142 -27.180  1.00  0.00     0.002 A 
HETATM   10  C3  UNL     1     -22.941   5.207 -28.108  1.00  0.00     0.015 A 
HETATM   11  C2  UNL     1     -22.031   4.299 -28.586  1.00  0.00     0.005 A 
HETATM   12  C22 UNL     1     -20.729   4.313 -28.152  1.00  0.00     0.023 A 
BRANCH  11  13
HETATM   13  C1  UNL     1     -22.429   3.293 -29.573  1.00  0.00     0.120 C 
HETATM   14  N1  UNL     1     -23.532   2.658 -29.402  1.00  0.00    -0.387 N 
ATOM     15  H12 UNL     1     -23.809   1.958 -30.089  1.00  0.00     0.157 HD
ATOM     16  H11 UNL     1     -24.115   2.860 -28.590  1.00  0.00     0.157 HD
HETATM   17  N2  UNL     1     -21.619   3.013 -30.701  1.00  0.00    -0.082 NA
ENDBRANCH  11  13
ENDBRANCH   6   7
ENDBRANCH   3   6
ENDBRANCH   2   3
ENDBRANCH   1   2
BRANCH   1  18
HETATM   18  O1  UNL     1     -15.766   6.648 -27.238  1.00  0.00    -0.387 OA
BRANCH  18  19
HETATM   19  C10 UNL     1     -15.422   6.202 -28.498  1.00  0.00     0.193 C 
BRANCH  19  20
HETATM   20  C11 UNL     1     -15.124   7.308 -29.481  1.00  0.00     0.195 C 
BRANCH  20  21
HETATM   21  O2  UNL     1     -16.303   7.644 -30.126  1.00  0.00    -0.377 OA
BRANCH  21  22
HETATM   22  C12 UNL     1     -16.986   6.520 -30.587  1.00  0.00     0.261 C 
BRANCH  22  23
HETATM   23  C13 UNL     1     -18.421   6.807 -30.603  1.00  0.00    -0.075 C 
HETATM   24  C14 UNL     1     -19.615   7.027 -30.624  1.00  0.00    -0.065 C 
BRANCH  24  25
HETATM   25  C15 UNL     1     -21.035   7.270 -30.666  1.00  0.00     0.018 A 
HETATM   26  C16 UNL     1     -21.601   8.308 -29.932  1.00  0.00     0.020 A 
HETATM   27  C17 UNL     1     -22.963   8.535 -29.978  1.00  0.00     0.002 A 
HETATM   28  C18 UNL     1     -23.772   7.733 -30.752  1.00  0.00     0.017 A 
HETATM   29  C19 UNL     1     -23.250   6.694 -31.494  1.00  0.00     0.030 A 
HETATM   30  C21 UNL     1     -21.872   6.487 -31.431  1.00  0.00     0.037 A 
BRANCH  29  31
HETATM   31  C20 UNL     1     -24.110   5.858 -32.305  1.00  0.00     0.265 C 
HETATM   32  N4  UNL     1     -24.666   4.681 -31.773  1.00  0.00    -0.057 NA
HETATM   33  O3  UNL     1     -24.357   6.189 -33.480  1.00  0.00    -0.271 OA
ENDBRANCH  29  31
ENDBRANCH  24  25
ENDBRANCH  22  23
ENDBRANCH  21  22
ENDBRANCH  20  21
ENDBRANCH  19  20
ENDBRANCH  18  19
ENDBRANCH   1  18
TORSDOF 13
ENDMDL
