MODEL 1
REMARK VINA RESULT: -6.966089850      0.000      0.000
REMARK  11 active torsions:
REMARK  status: ('A' for Active; 'I' for Inactive)
REMARK    1  A    between atoms: N1_2  and  C2_3 
REMARK    2  A    between atoms: N1_2  and  S1_16 
REMARK    3  A    between atoms: C2_3  and  C3_4 
REMARK    4  A    between atoms: C3_4  and  O1_5 
REMARK    5  A    between atoms: O1_5  and  C4_6 
REMARK    6  A    between atoms: C4_6  and  C5_7 
REMARK    7  A    between atoms: C5_7  and  C6_8 
REMARK    8  A    between atoms: C6_8  and  C7_9 
REMARK    9  A    between atoms: S1_16  and  N4_19 
REMARK   10  A    between atoms: N4_19  and  C10_21 
REMARK   11  A    between atoms: C13_24  and  C14_25 
ROOT
HETATM    1  S1  UNL     1     -19.998   7.030 -31.172  1.00  0.00     0.303 S 
HETATM    2  O2  UNL     1     -18.558   7.441 -31.167  1.00  0.00    -0.188 OA
HETATM    3  O3  UNL     1     -20.753   8.205 -30.558  1.00  0.00    -0.188 OA
ENDROOT
BRANCH   1   4
HETATM    4  N1  UNL     1     -20.258   5.697 -30.119  1.00  0.00    -0.195 NA
HETATM    5  C1  UNL     1     -20.994   6.145 -28.967  1.00  0.00     0.131 C 
BRANCH   4   6
HETATM    6  C2  UNL     1     -19.071   5.019 -29.731  1.00  0.00     0.134 C 
BRANCH   6   7
HETATM    7  C3  UNL     1     -19.162   4.725 -28.244  1.00  0.00     0.183 C 
BRANCH   7   8
HETATM    8  O1  UNL     1     -18.143   3.861 -27.847  1.00  0.00    -0.390 OA
BRANCH   8   9
HETATM    9  C4  UNL     1     -17.543   4.260 -26.682  1.00  0.00     0.168 C 
BRANCH   9  10
HETATM   10  C5  UNL     1     -17.322   5.738 -26.558  1.00  0.00     0.032 C 
BRANCH  10  11
HETATM   11  C6  UNL     1     -15.908   6.089 -26.950  1.00  0.00     0.060 C 
BRANCH  11  12
HETATM   12  C7  UNL     1     -15.711   6.175 -28.411  1.00  0.00     0.025 A 
HETATM   13  C8  UNL     1     -15.591   7.322 -29.185  1.00  0.00     0.114 A 
HETATM   14  N2  UNL     1     -15.427   6.930 -30.454  1.00  0.00    -0.360 N 
HETATM   15  C9  UNL     1     -15.435   5.593 -30.528  1.00  0.00     0.180 A 
ATOM     16  H2  UNL     1     -15.312   7.559 -31.249  1.00  0.00     0.166 HD
HETATM   17  N3  UNL     1     -15.608   5.150 -29.287  1.00  0.00    -0.355 N 
ATOM     18  H3  UNL     1     -15.655   4.165 -29.029  1.00  0.00     0.166 HD
ENDBRANCH  11  12
ENDBRANCH  10  11
ENDBRANCH   9  10
ENDBRANCH   8   9
ENDBRANCH   7   8
ENDBRANCH   6   7
ENDBRANCH   4   6
ENDBRANCH   1   4
BRANCH   1  19
HETATM   19  N4  UNL     1     -20.606   6.672 -32.736  1.00  0.00    -0.272 N 
ATOM     20  H4  UNL     1     -21.473   7.128 -33.015  1.00  0.00     0.180 HD
BRANCH  19  21
HETATM   21  C10 UNL     1     -20.002   5.795 -33.672  1.00  0.00     0.043 A 
HETATM   22  C11 UNL     1     -20.000   6.061 -35.025  1.00  0.00     0.031 A 
HETATM   23  C12 UNL     1     -19.414   5.196 -35.923  1.00  0.00     0.017 A 
HETATM   24  C13 UNL     1     -18.786   4.005 -35.527  1.00  0.00     0.005 A 
HETATM   25  C15 UNL     1     -18.798   3.759 -34.177  1.00  0.00     0.017 A 
HETATM   26  C16 UNL     1     -19.385   4.622 -33.271  1.00  0.00     0.031 A 
BRANCH  24  27
HETATM   27  C14 UNL     1     -18.186   3.134 -36.508  1.00  0.00     0.120 C 
HETATM   28  N5  UNL     1     -16.972   2.782 -36.443  1.00  0.00    -0.387 N 
ATOM     29  H52 UNL     1     -16.408   3.131 -35.669  1.00  0.00     0.157 HD
ATOM     30  H51 UNL     1     -16.548   2.167 -37.137  1.00  0.00     0.157 HD
HETATM   31  N6  UNL     1     -18.973   2.647 -37.588  1.00  0.00    -0.082 NA
ENDBRANCH  24  27
ENDBRANCH  19  21
ENDBRANCH   1  19
TORSDOF 11
ENDMDL
MODEL 2
REMARK VINA RESULT: -6.874333843      0.972      1.540
REMARK  11 active torsions:
REMARK  status: ('A' for Active; 'I' for Inactive)
REMARK    1  A    between atoms: N1_2  and  C2_3 
REMARK    2  A    between atoms: N1_2  and  S1_16 
REMARK    3  A    between atoms: C2_3  and  C3_4 
REMARK    4  A    between atoms: C3_4  and  O1_5 
REMARK    5  A    between atoms: O1_5  and  C4_6 
REMARK    6  A    between atoms: C4_6  and  C5_7 
REMARK    7  A    between atoms: C5_7  and  C6_8 
REMARK    8  A    between atoms: C6_8  and  C7_9 
REMARK    9  A    between atoms: S1_16  and  N4_19 
REMARK   10  A    between atoms: N4_19  and  C10_21 
REMARK   11  A    between atoms: C13_24  and  C14_25 
ROOT
HETATM    1  S1  UNL     1     -20.017   6.955 -31.056  1.00  0.00     0.303 S 
HETATM    2  O2  UNL     1     -18.621   7.496 -31.011  1.00  0.00    -0.188 OA
HETATM    3  O3  UNL     1     -20.876   8.000 -30.351  1.00  0.00    -0.188 OA
ENDROOT
BRANCH   1   4
HETATM    4  N1  UNL     1     -20.150   5.521 -30.120  1.00  0.00    -0.195 NA
HETATM    5  C1  UNL     1     -21.497   5.025 -30.207  1.00  0.00     0.131 C 
BRANCH   4   6
HETATM    6  C2  UNL     1     -19.752   5.671 -28.764  1.00  0.00     0.134 C 
BRANCH   6   7
HETATM    7  C3  UNL     1     -20.246   4.460 -27.992  1.00  0.00     0.183 C 
BRANCH   7   8
HETATM    8  O1  UNL     1     -19.398   4.173 -26.923  1.00  0.00    -0.390 OA
BRANCH   8   9
HETATM    9  C4  UNL     1     -19.515   5.082 -25.904  1.00  0.00     0.168 C 
BRANCH   9  10
HETATM   10  C5  UNL     1     -18.225   5.458 -25.240  1.00  0.00     0.032 C 
BRANCH  10  11
HETATM   11  C6  UNL     1     -17.092   4.627 -25.791  1.00  0.00     0.060 C 
BRANCH  11  12
HETATM   12  C7  UNL     1     -16.446   5.232 -26.973  1.00  0.00     0.025 A 
HETATM   13  C8  UNL     1     -15.725   6.418 -27.032  1.00  0.00     0.114 A 
HETATM   14  N2  UNL     1     -15.323   6.576 -28.298  1.00  0.00    -0.360 N 
HETATM   15  C9  UNL     1     -15.750   5.552 -29.048  1.00  0.00     0.180 A 
ATOM     16  H2  UNL     1     -14.772   7.363 -28.642  1.00  0.00     0.166 HD
HETATM   17  N3  UNL     1     -16.425   4.748 -28.235  1.00  0.00    -0.355 N 
ATOM     18  H3  UNL     1     -16.872   3.878 -28.525  1.00  0.00     0.166 HD
ENDBRANCH  11  12
ENDBRANCH  10  11
ENDBRANCH   9  10
ENDBRANCH   8   9
ENDBRANCH   7   8
ENDBRANCH   6   7
ENDBRANCH   4   6
ENDBRANCH   1   4
BRANCH   1  19
HETATM   19  N4  UNL     1     -20.594   6.674 -32.648  1.00  0.00    -0.272 N 
ATOM     20  H4  UNL     1     -21.435   7.173 -32.934  1.00  0.00     0.180 HD
BRANCH  19  21
HETATM   21  C10 UNL     1     -19.998   5.806 -33.597  1.00  0.00     0.043 A 
HETATM   22  C11 UNL     1     -19.337   4.655 -33.220  1.00  0.00     0.031 A 
HETATM   23  C12 UNL     1     -18.758   3.825 -34.153  1.00  0.00     0.017 A 
HETATM   24  C13 UNL     1     -18.802   4.087 -35.531  1.00  0.00     0.005 A 
HETATM   25  C15 UNL     1     -19.464   5.235 -35.886  1.00  0.00     0.017 A 
HETATM   26  C16 UNL     1     -20.047   6.074 -34.954  1.00  0.00     0.031 A 
BRANCH  24  27
HETATM   27  C14 UNL     1     -18.180   3.183 -36.468  1.00  0.00     0.120 C 
HETATM   28  N5  UNL     1     -16.953   2.883 -36.400  1.00  0.00    -0.387 N 
ATOM     29  H52 UNL     1     -16.393   3.298 -35.655  1.00  0.00     0.157 HD
ATOM     30  H51 UNL     1     -16.513   2.245 -37.063  1.00  0.00     0.157 HD
HETATM   31  N6  UNL     1     -18.960   2.604 -37.507  1.00  0.00    -0.082 NA
ENDBRANCH  24  27
ENDBRANCH  19  21
ENDBRANCH   1  19
TORSDOF 11
ENDMDL
MODEL 3
REMARK VINA RESULT: -6.814272760      3.206      6.334
REMARK  11 active torsions:
REMARK  status: ('A' for Active; 'I' for Inactive)
REMARK    1  A    between atoms: N1_2  and  C2_3 
REMARK    2  A    between atoms: N1_2  and  S1_16 
REMARK    3  A    between atoms: C2_3  and  C3_4 
REMARK    4  A    between atoms: C3_4  and  O1_5 
REMARK    5  A    between atoms: O1_5  and  C4_6 
REMARK    6  A    between atoms: C4_6  and  C5_7 
REMARK    7  A    between atoms: C5_7  and  C6_8 
REMARK    8  A    between atoms: C6_8  and  C7_9 
REMARK    9  A    between atoms: S1_16  and  N4_19 
REMARK   10  A    between atoms: N4_19  and  C10_21 
REMARK   11  A    between atoms: C13_24  and  C14_25 
ROOT
HETATM    1  S1  UNL     1     -22.610   4.041 -29.703  1.00  0.00     0.303 S 
HETATM    2  O2  UNL     1     -22.014   2.687 -29.940  1.00  0.00    -0.188 OA
HETATM    3  O3  UNL     1     -24.117   3.847 -29.849  1.00  0.00    -0.188 OA
ENDROOT
BRANCH   1   4
HETATM    4  N1  UNL     1     -22.151   5.139 -30.942  1.00  0.00    -0.195 NA
HETATM    5  C1  UNL     1     -23.324   5.545 -31.669  1.00  0.00     0.131 C 
BRANCH   4   6
HETATM    6  C2  UNL     1     -21.155   4.640 -31.823  1.00  0.00     0.134 C 
BRANCH   6   7
HETATM    7  C3  UNL     1     -20.816   5.736 -32.819  1.00  0.00     0.183 C 
BRANCH   7   8
HETATM    8  O1  UNL     1     -19.503   6.173 -32.647  1.00  0.00    -0.390 OA
BRANCH   8   9
HETATM    9  C4  UNL     1     -19.412   7.222 -31.771  1.00  0.00     0.168 C 
BRANCH   9  10
HETATM   10  C5  UNL     1     -18.574   6.961 -30.556  1.00  0.00     0.032 C 
BRANCH  10  11
HETATM   11  C6  UNL     1     -17.656   5.788 -30.797  1.00  0.00     0.060 C 
BRANCH  11  12
HETATM   12  C7  UNL     1     -16.252   6.059 -30.427  1.00  0.00     0.025 A 
HETATM   13  C8  UNL     1     -15.709   7.256 -29.979  1.00  0.00     0.114 A 
HETATM   14  N2  UNL     1     -14.405   7.046 -29.763  1.00  0.00    -0.360 N 
HETATM   15  C9  UNL     1     -14.090   5.776 -30.050  1.00  0.00     0.180 A 
ATOM     16  H2  UNL     1     -13.747   7.750 -29.429  1.00  0.00     0.166 HD
HETATM   17  N3  UNL     1     -15.215   5.192 -30.449  1.00  0.00    -0.355 N 
ATOM     18  H3  UNL     1     -15.287   4.216 -30.735  1.00  0.00     0.166 HD
ENDBRANCH  11  12
ENDBRANCH  10  11
ENDBRANCH   9  10
ENDBRANCH   8   9
ENDBRANCH   7   8
ENDBRANCH   6   7
ENDBRANCH   4   6
ENDBRANCH   1   4
BRANCH   1  19
HETATM   19  N4  UNL     1     -22.233   4.699 -28.164  1.00  0.00    -0.272 N 
ATOM     20  H4  UNL     1     -23.006   5.069 -27.612  1.00  0.00     0.180 HD
BRANCH  19  21
HETATM   21  C10 UNL     1     -20.936   4.769 -27.596  1.00  0.00     0.043 A 
HETATM   22  C11 UNL     1     -20.698   5.407 -26.396  1.00  0.00     0.031 A 
HETATM   23  C12 UNL     1     -19.431   5.471 -25.860  1.00  0.00     0.017 A 
HETATM   24  C13 UNL     1     -18.313   4.902 -26.488  1.00  0.00     0.005 A 
HETATM   25  C15 UNL     1     -18.570   4.272 -27.680  1.00  0.00     0.017 A 
HETATM   26  C16 UNL     1     -19.839   4.203 -28.223  1.00  0.00     0.031 A 
BRANCH  24  27
HETATM   27  C14 UNL     1     -17.006   4.997 -25.883  1.00  0.00     0.120 C 
HETATM   28  N5  UNL     1     -16.690   4.331 -24.854  1.00  0.00    -0.387 N 
ATOM     29  H52 UNL     1     -17.388   3.709 -24.447  1.00  0.00     0.157 HD
ATOM     30  H51 UNL     1     -15.767   4.399 -24.427  1.00  0.00     0.157 HD
HETATM   31  N6  UNL     1     -16.033   5.864 -26.451  1.00  0.00    -0.082 NA
ENDBRANCH  24  27
ENDBRANCH  19  21
ENDBRANCH   1  19
TORSDOF 11
ENDMDL
MODEL 4
REMARK VINA RESULT: -6.774849154      1.396      1.727
REMARK  11 active torsions:
REMARK  status: ('A' for Active; 'I' for Inactive)
REMARK    1  A    between atoms: N1_2  and  C2_3 
REMARK    2  A    between atoms: N1_2  and  S1_16 
REMARK    3  A    between atoms: C2_3  and  C3_4 
REMARK    4  A    between atoms: C3_4  and  O1_5 
REMARK    5  A    between atoms: O1_5  and  C4_6 
REMARK    6  A    between atoms: C4_6  and  C5_7 
REMARK    7  A    between atoms: C5_7  and  C6_8 
REMARK    8  A    between atoms: C6_8  and  C7_9 
REMARK    9  A    between atoms: S1_16  and  N4_19 
REMARK   10  A    between atoms: N4_19  and  C10_21 
REMARK   11  A    between atoms: C13_24  and  C14_25 
ROOT
HETATM    1  S1  UNL     1     -19.477   5.207 -31.267  1.00  0.00     0.303 S 
HETATM    2  O2  UNL     1     -17.987   5.067 -31.349  1.00  0.00    -0.188 OA
HETATM    3  O3  UNL     1     -19.727   6.693 -31.031  1.00  0.00    -0.188 OA
ENDROOT
BRANCH   1   4
HETATM    4  N1  UNL     1     -20.093   4.396 -29.883  1.00  0.00    -0.195 NA
HETATM    5  C1  UNL     1     -21.429   3.943 -30.160  1.00  0.00     0.131 C 
BRANCH   4   6
HETATM    6  C2  UNL     1     -20.056   5.168 -28.690  1.00  0.00     0.134 C 
BRANCH   6   7
HETATM    7  C3  UNL     1     -19.346   4.352 -27.624  1.00  0.00     0.183 C 
BRANCH   7   8
HETATM    8  O1  UNL     1     -18.100   3.921 -28.078  1.00  0.00    -0.390 OA
BRANCH   8   9
HETATM    9  C4  UNL     1     -17.103   4.152 -27.167  1.00  0.00     0.168 C 
BRANCH   9  10
HETATM   10  C5  UNL     1     -17.053   5.549 -26.624  1.00  0.00     0.032 C 
BRANCH  10  11
HETATM   11  C6  UNL     1     -15.727   6.190 -26.955  1.00  0.00     0.060 C 
BRANCH  11  12
HETATM   12  C7  UNL     1     -15.575   6.509 -28.389  1.00  0.00     0.025 A 
HETATM   13  C8  UNL     1     -16.538   7.016 -29.252  1.00  0.00     0.114 A 
HETATM   14  N2  UNL     1     -15.964   7.151 -30.453  1.00  0.00    -0.360 N 
HETATM   15  C9  UNL     1     -14.685   6.756 -30.400  1.00  0.00     0.180 A 
ATOM     16  H2  UNL     1     -16.432   7.502 -31.288  1.00  0.00     0.166 HD
HETATM   17  N3  UNL     1     -14.464   6.372 -29.147  1.00  0.00    -0.355 N 
ATOM     18  H3  UNL     1     -13.572   6.018 -28.802  1.00  0.00     0.166 HD
ENDBRANCH  11  12
ENDBRANCH  10  11
ENDBRANCH   9  10
ENDBRANCH   8   9
ENDBRANCH   7   8
ENDBRANCH   6   7
ENDBRANCH   4   6
ENDBRANCH   1   4
BRANCH   1  19
HETATM   19  N4  UNL     1     -20.296   4.672 -32.676  1.00  0.00    -0.272 N 
ATOM     20  H4  UNL     1     -21.274   4.402 -32.573  1.00  0.00     0.180 HD
BRANCH  19  21
HETATM   21  C10 UNL     1     -19.727   4.575 -33.971  1.00  0.00     0.043 A 
HETATM   22  C11 UNL     1     -18.878   3.546 -34.320  1.00  0.00     0.031 A 
HETATM   23  C12 UNL     1     -18.329   3.468 -35.580  1.00  0.00     0.017 A 
HETATM   24  C13 UNL     1     -18.593   4.416 -36.581  1.00  0.00     0.005 A 
HETATM   25  C15 UNL     1     -19.440   5.432 -36.215  1.00  0.00     0.017 A 
HETATM   26  C16 UNL     1     -19.994   5.516 -34.951  1.00  0.00     0.031 A 
BRANCH  24  27
HETATM   27  C14 UNL     1     -17.992   4.288 -37.886  1.00  0.00     0.120 C 
HETATM   28  N5  UNL     1     -17.466   5.271 -38.485  1.00  0.00    -0.387 N 
ATOM     29  H52 UNL     1     -17.472   6.180 -38.021  1.00  0.00     0.157 HD
ATOM     30  H51 UNL     1     -17.042   5.180 -39.407  1.00  0.00     0.157 HD
HETATM   31  N6  UNL     1     -17.984   3.021 -38.533  1.00  0.00    -0.082 NA
ENDBRANCH  24  27
ENDBRANCH  19  21
ENDBRANCH   1  19
TORSDOF 11
ENDMDL
MODEL 5
REMARK VINA RESULT: -6.672073781      1.857      2.435
REMARK  11 active torsions:
REMARK  status: ('A' for Active; 'I' for Inactive)
REMARK    1  A    between atoms: N1_2  and  C2_3 
REMARK    2  A    between atoms: N1_2  and  S1_16 
REMARK    3  A    between atoms: C2_3  and  C3_4 
REMARK    4  A    between atoms: C3_4  and  O1_5 
REMARK    5  A    between atoms: O1_5  and  C4_6 
REMARK    6  A    between atoms: C4_6  and  C5_7 
REMARK    7  A    between atoms: C5_7  and  C6_8 
REMARK    8  A    between atoms: C6_8  and  C7_9 
REMARK    9  A    between atoms: S1_16  and  N4_19 
REMARK   10  A    between atoms: N4_19  and  C10_21 
REMARK   11  A    between atoms: C13_24  and  C14_25 
ROOT
HETATM    1  S1  UNL     1     -19.811   5.328 -29.824  1.00  0.00     0.303 S 
HETATM    2  O2  UNL     1     -18.477   5.947 -30.113  1.00  0.00    -0.188 OA
HETATM    3  O3  UNL     1     -20.704   6.486 -29.388  1.00  0.00    -0.188 OA
ENDROOT
BRANCH   1   4
HETATM    4  N1  UNL     1     -19.717   4.267 -28.476  1.00  0.00    -0.195 NA
HETATM    5  C1  UNL     1     -20.723   4.635 -27.518  1.00  0.00     0.131 C 
BRANCH   4   6
HETATM    6  C2  UNL     1     -18.434   4.210 -27.868  1.00  0.00     0.134 C 
BRANCH   6   7
HETATM    7  C3  UNL     1     -18.564   4.728 -26.446  1.00  0.00     0.183 C 
BRANCH   7   8
HETATM    8  O1  UNL     1     -17.577   5.674 -26.172  1.00  0.00    -0.390 OA
BRANCH   8   9
HETATM    9  C4  UNL     1     -16.426   5.449 -26.880  1.00  0.00     0.168 C 
BRANCH   9  10
HETATM   10  C5  UNL     1     -15.565   6.658 -27.091  1.00  0.00     0.032 C 
BRANCH  10  11
HETATM   11  C6  UNL     1     -15.694   7.149 -28.512  1.00  0.00     0.060 C 
BRANCH  11  12
HETATM   12  C7  UNL     1     -14.765   6.482 -29.447  1.00  0.00     0.025 A 
HETATM   13  C8  UNL     1     -15.017   5.377 -30.249  1.00  0.00     0.114 A 
HETATM   14  N2  UNL     1     -13.896   5.116 -30.931  1.00  0.00    -0.360 N 
HETATM   15  C9  UNL     1     -12.943   5.999 -30.605  1.00  0.00     0.180 A 
ATOM     16  H2  UNL     1     -13.783   4.355 -31.601  1.00  0.00     0.166 HD
HETATM   17  N3  UNL     1     -13.482   6.818 -29.709  1.00  0.00    -0.355 N 
ATOM     18  H3  UNL     1     -12.992   7.599 -29.274  1.00  0.00     0.166 HD
ENDBRANCH  11  12
ENDBRANCH  10  11
ENDBRANCH   9  10
ENDBRANCH   8   9
ENDBRANCH   7   8
ENDBRANCH   6   7
ENDBRANCH   4   6
ENDBRANCH   1   4
BRANCH   1  19
HETATM   19  N4  UNL     1     -20.495   4.512 -31.169  1.00  0.00    -0.272 N 
ATOM     20  H4  UNL     1     -21.071   3.693 -30.975  1.00  0.00     0.180 HD
BRANCH  19  21
HETATM   21  C10 UNL     1     -20.328   4.882 -32.528  1.00  0.00     0.043 A 
HETATM   22  C11 UNL     1     -19.500   4.180 -33.379  1.00  0.00     0.031 A 
HETATM   23  C12 UNL     1     -19.344   4.555 -34.695  1.00  0.00     0.017 A 
HETATM   24  C13 UNL     1     -20.006   5.660 -35.251  1.00  0.00     0.005 A 
HETATM   25  C15 UNL     1     -20.825   6.345 -34.389  1.00  0.00     0.017 A 
HETATM   26  C16 UNL     1     -20.986   5.974 -33.067  1.00  0.00     0.031 A 
BRANCH  24  27
HETATM   27  C14 UNL     1     -19.807   6.010 -36.637  1.00  0.00     0.120 C 
HETATM   28  N5  UNL     1     -19.289   7.110 -36.985  1.00  0.00    -0.387 N 
ATOM     29  H52 UNL     1     -19.006   7.765 -36.256  1.00  0.00     0.157 HD
ATOM     30  H51 UNL     1     -19.150   7.357 -37.965  1.00  0.00     0.157 HD
HETATM   31  N6  UNL     1     -20.202   5.097 -37.653  1.00  0.00    -0.082 NA
ENDBRANCH  24  27
ENDBRANCH  19  21
ENDBRANCH   1  19
TORSDOF 11
ENDMDL
