MODEL 1
REMARK VINA RESULT: -7.998571319      0.000      0.000
REMARK  12 active torsions:
REMARK  status: ('A' for Active; 'I' for Inactive)
REMARK    1  A    between atoms: C1_2  and  C2_4 
REMARK    2  A    between atoms: C4_7  and  C5_8 
REMARK    3  A    between atoms: C5_8  and  C6_9 
REMARK    4  A    between atoms: C6_9  and  C7_10 
REMARK    5  A    between atoms: C7_10  and  N2_11 
REMARK    6  A    between atoms: C7_10  and  C8_15 
REMARK    7  A    between atoms: C7_10  and  C17_24 
REMARK    8  A    between atoms: C8_15  and  C9_16 
REMARK    9  A    between atoms: C9_16  and  C10_17 
REMARK   10  A    between atoms: C10_17  and  C11_18 
REMARK   11  A    between atoms: C17_24  and  C18_25 
REMARK   12  A    between atoms: C18_25  and  N3_26 
ROOT
HETATM    1  C7  UNL     1     -19.715   5.880 -31.243  1.00  0.00     0.125 C 
ENDROOT
BRANCH   1   2
HETATM    2  C6  UNL     1     -20.526   5.131 -32.277  1.00  0.00     0.045 C 
BRANCH   2   3
HETATM    3  C5  UNL     1     -20.785   5.859 -33.543  1.00  0.00     0.067 C 
BRANCH   3   4
HETATM    4  C4  UNL     1     -19.979   5.259 -34.687  1.00  0.00     0.051 A 
HETATM    5  S1  UNL     1     -19.694   5.899 -36.245  1.00  0.00    -0.086 SA
HETATM    6  C3  UNL     1     -18.731   4.630 -36.865  1.00  0.00     0.086 A 
HETATM    7  C2  UNL     1     -18.685   3.759 -35.798  1.00  0.00     0.105 A 
HETATM    8  N6  UNL     1     -19.332   4.125 -34.726  1.00  0.00    -0.349 N 
ATOM      9  H6  UNL     1     -19.332   3.518 -33.907  1.00  0.00     0.166 HD
BRANCH   7  10
HETATM   10  C1  UNL     1     -17.935   2.480 -35.888  1.00  0.00     0.281 C 
HETATM   11  N1  UNL     1     -18.247   1.444 -34.989  1.00  0.00    -0.056 NA
HETATM   12  O1  UNL     1     -17.060   2.354 -36.746  1.00  0.00    -0.269 OA
ENDBRANCH   7  10
ENDBRANCH   3   4
ENDBRANCH   2   3
ENDBRANCH   1   2
BRANCH   1  13
HETATM   13  N2  UNL     1     -19.490   7.208 -31.774  1.00  0.00    -0.070 N 
ATOM     14  H23 UNL     1     -18.963   7.209 -32.646  1.00  0.00     0.275 HD
ATOM     15  H22 UNL     1     -20.337   7.646 -32.135  1.00  0.00     0.275 HD
ATOM     16  H21 UNL     1     -19.042   7.747 -31.033  1.00  0.00     0.275 HD
ENDBRANCH   1  13
BRANCH   1  17
HETATM   17  C8  UNL     1     -20.422   5.810 -29.949  1.00  0.00     0.039 C 
BRANCH  17  18
HETATM   18  C9  UNL     1     -20.429   4.532 -29.205  1.00  0.00     0.007 C 
BRANCH  18  19
HETATM   19  C10 UNL     1     -20.649   4.608 -27.723  1.00  0.00     0.038 C 
BRANCH  19  20
HETATM   20  C11 UNL     1     -19.302   4.683 -27.031  1.00  0.00    -0.058 A 
HETATM   21  C12 UNL     1     -18.175   4.118 -27.587  1.00  0.00     0.007 A 
HETATM   22  C13 UNL     1     -16.999   4.236 -26.888  1.00  0.00     0.001 A 
HETATM   23  C14 UNL     1     -16.954   4.894 -25.677  1.00  0.00     0.000 A 
HETATM   24  C15 UNL     1     -18.110   5.452 -25.145  1.00  0.00     0.001 A 
HETATM   25  C16 UNL     1     -19.289   5.348 -25.822  1.00  0.00     0.007 A 
ENDBRANCH  19  20
ENDBRANCH  18  19
ENDBRANCH  17  18
ENDBRANCH   1  17
BRANCH   1  26
HETATM   26  C17 UNL     1     -18.353   5.222 -31.162  1.00  0.00     0.058 C 
BRANCH  26  27
HETATM   27  C18 UNL     1     -17.328   6.056 -30.435  1.00  0.00     0.124 C 
BRANCH  27  28
HETATM   28  N3  UNL     1     -16.057   5.331 -30.594  1.00  0.00    -0.367 N 
HETATM   29  C19 UNL     1     -14.935   5.890 -30.265  1.00  0.00     0.196 C 
HETATM   30  N4  UNL     1     -14.903   7.214 -29.745  1.00  0.00    -0.067 NA
HETATM   31  N5  UNL     1     -13.761   5.113 -30.454  1.00  0.00    -0.067 NA
ATOM     32  H3  UNL     1     -16.059   4.382 -30.967  1.00  0.00     0.161 HD
ENDBRANCH  27  28
ENDBRANCH  26  27
ENDBRANCH   1  26
TORSDOF 12
ENDMDL
MODEL 2
REMARK VINA RESULT: -7.861841694      0.848      1.246
REMARK  12 active torsions:
REMARK  status: ('A' for Active; 'I' for Inactive)
REMARK    1  A    between atoms: C1_2  and  C2_4 
REMARK    2  A    between atoms: C4_7  and  C5_8 
REMARK    3  A    between atoms: C5_8  and  C6_9 
REMARK    4  A    between atoms: C6_9  and  C7_10 
REMARK    5  A    between atoms: C7_10  and  N2_11 
REMARK    6  A    between atoms: C7_10  and  C8_15 
REMARK    7  A    between atoms: C7_10  and  C17_24 
REMARK    8  A    between atoms: C8_15  and  C9_16 
REMARK    9  A    between atoms: C9_16  and  C10_17 
REMARK   10  A    between atoms: C10_17  and  C11_18 
REMARK   11  A    between atoms: C17_24  and  C18_25 
REMARK   12  A    between atoms: C18_25  and  N3_26 
ROOT
HETATM    1  C7  UNL     1     -19.247   6.000 -30.996  1.00  0.00     0.125 C 
ENDROOT
BRANCH   1   2
HETATM    2  C6  UNL     1     -20.200   4.996 -31.606  1.00  0.00     0.045 C 
BRANCH   2   3
HETATM    3  C5  UNL     1     -20.899   5.438 -32.836  1.00  0.00     0.067 C 
BRANCH   3   4
HETATM    4  C4  UNL     1     -20.117   5.034 -34.078  1.00  0.00     0.051 A 
HETATM    5  S1  UNL     1     -19.973   5.860 -35.567  1.00  0.00    -0.086 SA
HETATM    6  C3  UNL     1     -18.952   4.751 -36.372  1.00  0.00     0.086 A 
HETATM    7  C2  UNL     1     -18.777   3.776 -35.413  1.00  0.00     0.105 A 
HETATM    8  N6  UNL     1     -19.387   3.970 -34.276  1.00  0.00    -0.349 N 
ATOM      9  H6  UNL     1     -19.293   3.280 -33.531  1.00  0.00     0.166 HD
BRANCH   7  10
HETATM   10  C1  UNL     1     -17.936   2.582 -35.683  1.00  0.00     0.281 C 
HETATM   11  N1  UNL     1     -17.136   2.562 -36.839  1.00  0.00    -0.056 NA
HETATM   12  O1  UNL     1     -17.957   1.639 -34.891  1.00  0.00    -0.269 OA
ENDBRANCH   7  10
ENDBRANCH   3   4
ENDBRANCH   2   3
ENDBRANCH   1   2
BRANCH   1  13
HETATM   13  N2  UNL     1     -19.368   7.214 -31.774  1.00  0.00    -0.070 N 
ATOM     14  H23 UNL     1     -18.644   7.311 -32.485  1.00  0.00     0.275 HD
ATOM     15  H22 UNL     1     -20.169   7.209 -32.407  1.00  0.00     0.275 HD
ATOM     16  H21 UNL     1     -19.385   7.988 -31.110  1.00  0.00     0.275 HD
ENDBRANCH   1  13
BRANCH   1  17
HETATM   17  C8  UNL     1     -19.549   6.120 -29.555  1.00  0.00     0.039 C 
BRANCH  17  18
HETATM   18  C9  UNL     1     -20.696   5.370 -28.999  1.00  0.00     0.007 C 
BRANCH  18  19
HETATM   19  C10 UNL     1     -20.380   4.168 -28.158  1.00  0.00     0.038 C 
BRANCH  19  20
HETATM   20  C11 UNL     1     -19.330   4.549 -27.133  1.00  0.00    -0.058 A 
HETATM   21  C12 UNL     1     -19.641   5.331 -26.042  1.00  0.00     0.007 A 
HETATM   22  C13 UNL     1     -18.624   5.625 -25.166  1.00  0.00     0.001 A 
HETATM   23  C14 UNL     1     -17.346   5.154 -25.376  1.00  0.00     0.000 A 
HETATM   24  C15 UNL     1     -17.067   4.367 -26.487  1.00  0.00     0.001 A 
HETATM   25  C16 UNL     1     -18.061   4.063 -27.370  1.00  0.00     0.007 A 
ENDBRANCH  19  20
ENDBRANCH  18  19
ENDBRANCH  17  18
ENDBRANCH   1  17
BRANCH   1  26
HETATM   26  C17 UNL     1     -17.838   5.493 -31.222  1.00  0.00     0.058 C 
BRANCH  26  27
HETATM   27  C18 UNL     1     -16.904   5.791 -30.076  1.00  0.00     0.124 C 
BRANCH  27  28
HETATM   28  N3  UNL     1     -15.668   5.052 -30.382  1.00  0.00    -0.367 N 
HETATM   29  C19 UNL     1     -14.543   5.678 -30.517  1.00  0.00     0.196 C 
HETATM   30  N4  UNL     1     -14.471   7.092 -30.377  1.00  0.00    -0.067 NA
HETATM   31  N5  UNL     1     -13.405   4.880 -30.812  1.00  0.00    -0.067 NA
ATOM     32  H3  UNL     1     -15.699   4.038 -30.489  1.00  0.00     0.161 HD
ENDBRANCH  27  28
ENDBRANCH  26  27
ENDBRANCH   1  26
TORSDOF 12
ENDMDL
MODEL 3
REMARK VINA RESULT: -7.516601245      1.460      2.148
REMARK  12 active torsions:
REMARK  status: ('A' for Active; 'I' for Inactive)
REMARK    1  A    between atoms: C1_2  and  C2_4 
REMARK    2  A    between atoms: C4_7  and  C5_8 
REMARK    3  A    between atoms: C5_8  and  C6_9 
REMARK    4  A    between atoms: C6_9  and  C7_10 
REMARK    5  A    between atoms: C7_10  and  N2_11 
REMARK    6  A    between atoms: C7_10  and  C8_15 
REMARK    7  A    between atoms: C7_10  and  C17_24 
REMARK    8  A    between atoms: C8_15  and  C9_16 
REMARK    9  A    between atoms: C9_16  and  C10_17 
REMARK   10  A    between atoms: C10_17  and  C11_18 
REMARK   11  A    between atoms: C17_24  and  C18_25 
REMARK   12  A    between atoms: C18_25  and  N3_26 
ROOT
HETATM    1  C7  UNL     1     -19.506   6.153 -31.058  1.00  0.00     0.125 C 
ENDROOT
BRANCH   1   2
HETATM    2  C6  UNL     1     -20.156   5.790 -32.375  1.00  0.00     0.045 C 
BRANCH   2   3
HETATM    3  C5  UNL     1     -19.914   4.408 -32.852  1.00  0.00     0.067 C 
BRANCH   3   4
HETATM    4  C4  UNL     1     -19.425   4.411 -34.294  1.00  0.00     0.051 A 
HETATM    5  S1  UNL     1     -18.338   3.336 -35.058  1.00  0.00    -0.086 SA
HETATM    6  C3  UNL     1     -18.346   4.036 -36.616  1.00  0.00     0.086 A 
HETATM    7  C2  UNL     1     -19.215   5.093 -36.450  1.00  0.00     0.105 A 
HETATM    8  N6  UNL     1     -19.730   5.235 -35.260  1.00  0.00    -0.349 N 
ATOM      9  H6  UNL     1     -20.379   6.002 -35.081  1.00  0.00     0.166 HD
BRANCH   7  10
HETATM   10  C1  UNL     1     -19.533   6.005 -37.579  1.00  0.00     0.281 C 
HETATM   11  N1  UNL     1     -20.200   7.213 -37.310  1.00  0.00    -0.056 NA
HETATM   12  O1  UNL     1     -19.205   5.685 -38.723  1.00  0.00    -0.269 OA
ENDBRANCH   7  10
ENDBRANCH   3   4
ENDBRANCH   2   3
ENDBRANCH   1   2
BRANCH   1  13
HETATM   13  N2  UNL     1     -19.046   7.520 -31.184  1.00  0.00    -0.070 N 
ATOM     14  H23 UNL     1     -18.057   7.592 -31.420  1.00  0.00     0.275 HD
ATOM     15  H22 UNL     1     -19.410   7.992 -32.012  1.00  0.00     0.275 HD
ATOM     16  H21 UNL     1     -19.287   7.991 -30.312  1.00  0.00     0.275 HD
ENDBRANCH   1  13
BRANCH   1  17
HETATM   17  C8  UNL     1     -20.470   5.891 -29.970  1.00  0.00     0.039 C 
BRANCH  17  18
HETATM   18  C9  UNL     1     -20.338   4.647 -29.181  1.00  0.00     0.007 C 
BRANCH  18  19
HETATM   19  C10 UNL     1     -20.670   4.729 -27.720  1.00  0.00     0.038 C 
BRANCH  19  20
HETATM   20  C11 UNL     1     -19.380   4.804 -26.927  1.00  0.00    -0.058 A 
HETATM   21  C12 UNL     1     -19.323   5.437 -25.705  1.00  0.00     0.007 A 
HETATM   22  C13 UNL     1     -18.111   5.454 -25.059  1.00  0.00     0.001 A 
HETATM   23  C14 UNL     1     -16.999   4.860 -25.616  1.00  0.00     0.000 A 
HETATM   24  C15 UNL     1     -17.092   4.229 -26.851  1.00  0.00     0.001 A 
HETATM   25  C16 UNL     1     -18.285   4.200 -27.511  1.00  0.00     0.007 A 
ENDBRANCH  19  20
ENDBRANCH  18  19
ENDBRANCH  17  18
ENDBRANCH   1  17
BRANCH   1  26
HETATM   26  C17 UNL     1     -18.263   5.302 -30.908  1.00  0.00     0.058 C 
BRANCH  26  27
HETATM   27  C18 UNL     1     -17.081   6.060 -30.358  1.00  0.00     0.124 C 
BRANCH  27  28
HETATM   28  N3  UNL     1     -15.902   5.259 -30.726  1.00  0.00    -0.367 N 
HETATM   29  C19 UNL     1     -14.712   5.649 -30.395  1.00  0.00     0.196 C 
HETATM   30  N4  UNL     1     -14.514   6.858 -29.672  1.00  0.00    -0.067 NA
HETATM   31  N5  UNL     1     -13.637   4.811 -30.795  1.00  0.00    -0.067 NA
ATOM     32  H3  UNL     1     -16.023   4.390 -31.247  1.00  0.00     0.161 HD
ENDBRANCH  27  28
ENDBRANCH  26  27
ENDBRANCH   1  26
TORSDOF 12
ENDMDL
MODEL 4
REMARK VINA RESULT: -7.512605654      2.933      5.383
REMARK  12 active torsions:
REMARK  status: ('A' for Active; 'I' for Inactive)
REMARK    1  A    between atoms: C1_2  and  C2_4 
REMARK    2  A    between atoms: C4_7  and  C5_8 
REMARK    3  A    between atoms: C5_8  and  C6_9 
REMARK    4  A    between atoms: C6_9  and  C7_10 
REMARK    5  A    between atoms: C7_10  and  N2_11 
REMARK    6  A    between atoms: C7_10  and  C8_15 
REMARK    7  A    between atoms: C7_10  and  C17_24 
REMARK    8  A    between atoms: C8_15  and  C9_16 
REMARK    9  A    between atoms: C9_16  and  C10_17 
REMARK   10  A    between atoms: C10_17  and  C11_18 
REMARK   11  A    between atoms: C17_24  and  C18_25 
REMARK   12  A    between atoms: C18_25  and  N3_26 
ROOT
HETATM    1  C7  UNL     1     -20.382   6.072 -30.985  1.00  0.00     0.125 C 
ENDROOT
BRANCH   1   2
HETATM    2  C6  UNL     1     -18.981   6.491 -30.597  1.00  0.00     0.045 C 
BRANCH   2   3
HETATM    3  C5  UNL     1     -17.906   5.522 -30.920  1.00  0.00     0.067 C 
BRANCH   3   4
HETATM    4  C4  UNL     1     -16.573   5.983 -30.349  1.00  0.00     0.051 A 
HETATM    5  S1  UNL     1     -16.272   6.897 -28.936  1.00  0.00    -0.086 SA
HETATM    6  C3  UNL     1     -14.568   6.962 -29.037  1.00  0.00     0.086 A 
HETATM    7  C2  UNL     1     -14.323   6.251 -30.192  1.00  0.00     0.105 A 
HETATM    8  N6  UNL     1     -15.369   5.781 -30.813  1.00  0.00    -0.349 N 
ATOM      9  H6  UNL     1     -15.246   5.249 -31.675  1.00  0.00     0.166 HD
BRANCH   7  10
HETATM   10  C1  UNL     1     -12.935   6.046 -30.683  1.00  0.00     0.281 C 
HETATM   11  N1  UNL     1     -12.569   6.585 -31.929  1.00  0.00    -0.056 NA
HETATM   12  O1  UNL     1     -12.139   5.412 -29.990  1.00  0.00    -0.269 OA
ENDBRANCH   7  10
ENDBRANCH   3   4
ENDBRANCH   2   3
ENDBRANCH   1   2
BRANCH   1  13
HETATM   13  N2  UNL     1     -20.247   4.905 -31.831  1.00  0.00    -0.070 N 
ATOM     14  H23 UNL     1     -19.671   5.070 -32.656  1.00  0.00     0.275 HD
ATOM     15  H22 UNL     1     -19.670   4.172 -31.417  1.00  0.00     0.275 HD
ATOM     16  H21 UNL     1     -21.192   4.595 -32.056  1.00  0.00     0.275 HD
ENDBRANCH   1  13
BRANCH   1  17
HETATM   17  C8  UNL     1     -21.177   5.892 -29.754  1.00  0.00     0.039 C 
BRANCH  17  18
HETATM   18  C9  UNL     1     -20.861   4.759 -28.857  1.00  0.00     0.007 C 
BRANCH  18  19
HETATM   19  C10 UNL     1     -20.839   5.043 -27.384  1.00  0.00     0.038 C 
BRANCH  19  20
HETATM   20  C11 UNL     1     -19.425   4.858 -26.870  1.00  0.00    -0.058 A 
HETATM   21  C12 UNL     1     -18.489   4.141 -27.583  1.00  0.00     0.007 A 
HETATM   22  C13 UNL     1     -17.233   4.027 -27.039  1.00  0.00     0.001 A 
HETATM   23  C14 UNL     1     -16.927   4.608 -25.826  1.00  0.00     0.000 A 
HETATM   24  C15 UNL     1     -17.896   5.325 -25.134  1.00  0.00     0.001 A 
HETATM   25  C16 UNL     1     -19.149   5.451 -25.655  1.00  0.00     0.007 A 
ENDBRANCH  19  20
ENDBRANCH  18  19
ENDBRANCH  17  18
ENDBRANCH   1  17
BRANCH   1  26
HETATM   26  C17 UNL     1     -20.963   7.162 -31.860  1.00  0.00     0.058 C 
BRANCH  26  27
HETATM   27  C18 UNL     1     -21.663   6.636 -33.087  1.00  0.00     0.124 C 
BRANCH  27  28
HETATM   28  N3  UNL     1     -20.972   7.262 -34.226  1.00  0.00    -0.367 N 
HETATM   29  C19 UNL     1     -20.393   6.532 -35.126  1.00  0.00     0.196 C 
HETATM   30  N4  UNL     1     -20.408   5.113 -35.038  1.00  0.00    -0.067 NA
HETATM   31  N5  UNL     1     -19.751   7.226 -36.187  1.00  0.00    -0.067 NA
ATOM     32  H3  UNL     1     -20.948   8.279 -34.306  1.00  0.00     0.161 HD
ENDBRANCH  27  28
ENDBRANCH  26  27
ENDBRANCH   1  26
TORSDOF 12
ENDMDL
MODEL 5
REMARK VINA RESULT: -7.490244645      1.410      2.702
REMARK  12 active torsions:
REMARK  status: ('A' for Active; 'I' for Inactive)
REMARK    1  A    between atoms: C1_2  and  C2_4 
REMARK    2  A    between atoms: C4_7  and  C5_8 
REMARK    3  A    between atoms: C5_8  and  C6_9 
REMARK    4  A    between atoms: C6_9  and  C7_10 
REMARK    5  A    between atoms: C7_10  and  N2_11 
REMARK    6  A    between atoms: C7_10  and  C8_15 
REMARK    7  A    between atoms: C7_10  and  C17_24 
REMARK    8  A    between atoms: C8_15  and  C9_16 
REMARK    9  A    between atoms: C9_16  and  C10_17 
REMARK   10  A    between atoms: C10_17  and  C11_18 
REMARK   11  A    between atoms: C17_24  and  C18_25 
REMARK   12  A    between atoms: C18_25  and  N3_26 
ROOT
HETATM    1  C7  UNL     1     -18.122   6.257 -30.099  1.00  0.00     0.125 C 
ENDROOT
BRANCH   1   2
HETATM    2  C6  UNL     1     -18.359   5.079 -31.018  1.00  0.00     0.045 C 
BRANCH   2   3
HETATM    3  C5  UNL     1     -19.635   5.098 -31.772  1.00  0.00     0.067 C 
BRANCH   3   4
HETATM    4  C4  UNL     1     -19.393   4.834 -33.252  1.00  0.00     0.051 A 
HETATM    5  S1  UNL     1     -20.029   5.662 -34.605  1.00  0.00    -0.086 SA
HETATM    6  C3  UNL     1     -19.272   4.751 -35.836  1.00  0.00     0.086 A 
HETATM    7  C2  UNL     1     -18.548   3.831 -35.107  1.00  0.00     0.105 A 
HETATM    8  N6  UNL     1     -18.646   3.919 -33.809  1.00  0.00    -0.349 N 
ATOM      9  H6  UNL     1     -18.133   3.262 -33.221  1.00  0.00     0.166 HD
BRANCH   7  10
HETATM   10  C1  UNL     1     -17.712   2.808 -35.785  1.00  0.00     0.281 C 
HETATM   11  N1  UNL     1     -17.889   1.454 -35.447  1.00  0.00    -0.056 NA
HETATM   12  O1  UNL     1     -16.885   3.165 -36.624  1.00  0.00    -0.269 OA
ENDBRANCH   7  10
ENDBRANCH   3   4
ENDBRANCH   2   3
ENDBRANCH   1   2
BRANCH   1  13
HETATM   13  N2  UNL     1     -19.255   7.144 -30.259  1.00  0.00    -0.070 N 
ATOM     14  H23 UNL     1     -20.145   6.706 -30.023  1.00  0.00     0.275 HD
ATOM     15  H22 UNL     1     -19.288   7.886 -29.560  1.00  0.00     0.275 HD
ATOM     16  H21 UNL     1     -19.221   7.493 -31.217  1.00  0.00     0.275 HD
ENDBRANCH   1  13
BRANCH   1  17
HETATM   17  C8  UNL     1     -17.885   5.748 -28.733  1.00  0.00     0.039 C 
BRANCH  17  18
HETATM   18  C9  UNL     1     -18.397   4.409 -28.369  1.00  0.00     0.007 C 
BRANCH  18  19
HETATM   19  C10 UNL     1     -19.349   4.335 -27.212  1.00  0.00     0.038 C 
BRANCH  19  20
HETATM   20  C11 UNL     1     -20.713   4.816 -27.669  1.00  0.00    -0.058 A 
HETATM   21  C12 UNL     1     -21.367   4.223 -28.727  1.00  0.00     0.007 A 
HETATM   22  C13 UNL     1     -22.599   4.726 -29.069  1.00  0.00     0.001 A 
HETATM   23  C14 UNL     1     -23.153   5.782 -28.377  1.00  0.00     0.000 A 
HETATM   24  C15 UNL     1     -22.466   6.356 -27.315  1.00  0.00     0.001 A 
HETATM   25  C16 UNL     1     -21.241   5.874 -26.958  1.00  0.00     0.007 A 
ENDBRANCH  19  20
ENDBRANCH  18  19
ENDBRANCH  17  18
ENDBRANCH   1  17
BRANCH   1  26
HETATM   26  C17 UNL     1     -16.918   7.013 -30.620  1.00  0.00     0.058 C 
BRANCH  26  27
HETATM   27  C18 UNL     1     -15.733   6.967 -29.689  1.00  0.00     0.124 C 
BRANCH  27  28
HETATM   28  N3  UNL     1     -14.557   7.176 -30.549  1.00  0.00    -0.367 N 
HETATM   29  C19 UNL     1     -13.788   6.183 -30.865  1.00  0.00     0.196 C 
HETATM   30  N4  UNL     1     -14.057   4.869 -30.390  1.00  0.00    -0.067 NA
HETATM   31  N5  UNL     1     -12.677   6.482 -31.699  1.00  0.00    -0.067 NA
ATOM     32  H3  UNL     1     -14.346   8.111 -30.899  1.00  0.00     0.161 HD
ENDBRANCH  27  28
ENDBRANCH  26  27
ENDBRANCH   1  26
TORSDOF 12
ENDMDL
