MODEL 1
REMARK VINA RESULT: -10.402815617      0.000      0.000
REMARK  12 active torsions:
REMARK  status: ('A' for Active; 'I' for Inactive)
REMARK    1  A    between atoms: O1_2  and  C2_3 
REMARK    2  A    between atoms: C3_4  and  O2_5 
REMARK    3  A    between atoms: O2_5  and  C4_6 
REMARK    4  A    between atoms: C4_6  and  C5_7 
REMARK    5  A    between atoms: C4_6  and  C7_15 
REMARK    6  A    between atoms: C5_7  and  N1_8 
REMARK       I    between atoms: C7_15  and  N5_17 
REMARK    7  A    between atoms: N5_17  and  N6_19 
REMARK       I    between atoms: N6_19  and  C8_21 
REMARK       I    between atoms: C8_21  and  N7_23 
REMARK    8  A    between atoms: N7_23  and  N8_25 
REMARK       I    between atoms: N8_25  and  C9_27 
REMARK    9  A    between atoms: C9_27  and  C10_29 
REMARK   10  A    between atoms: C13_32  and  O6_33 
REMARK   11  A    between atoms: C18_39  and  C19_40 
REMARK   12  A    between atoms: C22_47  and  O7_48 
ROOT
HETATM    1  C4  UNL     1     -17.238 -25.620 -13.583  1.00  0.00     0.242 C 
ENDROOT
BRANCH   1   2
HETATM    2  O2  UNL     1     -16.791 -26.880 -13.779  1.00  0.00    -0.332 OA
BRANCH   2   3
HETATM    3  C3  UNL     1     -15.622 -27.540 -13.890  1.00  0.00     0.106 A 
HETATM    4  C2  UNL     1     -14.442 -27.219 -13.317  1.00  0.00     0.136 A 
HETATM    5  C22 UNL     1     -13.260 -27.959 -13.487  1.00  0.00     0.116 A 
HETATM    6  C18 UNL     1     -13.283 -29.072 -14.274  1.00  0.00     0.043 A 
HETATM    7  C17 UNL     1     -14.504 -29.415 -14.873  1.00  0.00     0.021 A 
HETATM    8  C16 UNL     1     -15.642 -28.692 -14.702  1.00  0.00     0.041 A 
BRANCH   4   9
HETATM    9  O1  UNL     1     -14.286 -26.106 -12.479  1.00  0.00    -0.351 OA
HETATM   10  C1  UNL     1     -14.081 -24.878 -13.203  1.00  0.00     0.210 C 
ENDBRANCH   4   9
BRANCH   5  11
HETATM   11  O7  UNL     1     -12.088 -27.576 -12.875  1.00  0.00    -0.357 OA
ATOM     12  H7  UNL     1     -11.251 -27.929 -13.155  1.00  0.00     0.217 HD
ENDBRANCH   5  11
BRANCH   6  13
HETATM   13  C19 UNL     1     -12.115 -29.885 -14.493  1.00  0.00     0.110 C 
HETATM   14  N9  UNL     1     -12.050 -31.119 -14.082  1.00  0.00    -0.374 N 
HETATM   15  C20 UNL     1     -10.790 -31.741 -14.407  1.00  0.00     0.141 C 
ATOM     16  H9  UNL     1     -12.804 -31.592 -13.586  1.00  0.00     0.161 HD
HETATM   17  C21 UNL     1     -10.289 -30.856 -15.525  1.00  0.00     0.141 C 
HETATM   18  N10 UNL     1     -10.913 -29.594 -15.143  1.00  0.00    -0.374 N 
ATOM     19  H10 UNL     1     -10.537 -28.662 -15.320  1.00  0.00     0.161 HD
ENDBRANCH   6  13
ENDBRANCH   2   3
ENDBRANCH   1   2
BRANCH   1  20
HETATM   20  C5  UNL     1     -18.460 -25.402 -14.489  1.00  0.00     0.190 C 
BRANCH  20  21
HETATM   21  N1  UNL     1     -18.600 -24.021 -14.878  1.00  0.00    -0.266 N 
HETATM   22  C6  UNL     1     -17.634 -23.093 -14.854  1.00  0.00     0.216 A 
HETATM   23  N2  UNL     1     -18.178 -21.949 -15.288  1.00  0.00    -0.282 N 
HETATM   24  N3  UNL     1     -19.448 -22.160 -15.574  1.00  0.00    -0.225 N 
ATOM     25  H2  UNL     1     -17.689 -21.059 -15.384  1.00  0.00     0.189 HD
HETATM   26  N4  UNL     1     -19.708 -23.433 -15.322  1.00  0.00    -0.003 NA
ATOM     27  H3  UNL     1     -20.110 -21.468 -15.925  1.00  0.00     0.205 HD
ENDBRANCH  20  21
ENDBRANCH   1  20
BRANCH   1  28
HETATM   28  C7  UNL     1     -17.728 -25.468 -12.173  1.00  0.00     0.267 C 
HETATM   29  O3  UNL     1     -17.257 -24.557 -11.446  1.00  0.00    -0.269 OA
HETATM   30  N5  UNL     1     -18.708 -26.329 -11.649  1.00  0.00    -0.264 N 
ATOM     31  H5  UNL     1     -19.082 -27.065 -12.247  1.00  0.00     0.190 HD
BRANCH  30  32
HETATM   32  N6  UNL     1     -19.186 -26.217 -10.356  1.00  0.00    -0.248 N 
HETATM   33  C8  UNL     1     -18.454 -26.548  -9.193  1.00  0.00     0.353 C 
HETATM   34  O4  UNL     1     -17.281 -26.977  -9.289  1.00  0.00    -0.244 OA
HETATM   35  N7  UNL     1     -19.045 -26.395  -7.927  1.00  0.00    -0.247 N 
ATOM     36  H7  UNL     1     -20.001 -26.043  -7.873  1.00  0.00     0.192 HD
ATOM     37  H6  UNL     1     -20.137 -25.869 -10.233  1.00  0.00     0.192 HD
BRANCH  35  38
HETATM   38  N8  UNL     1     -18.372 -26.707  -6.731  1.00  0.00    -0.262 N 
HETATM   39  C9  UNL     1     -18.015 -25.634  -5.897  1.00  0.00     0.270 C 
HETATM   40  O5  UNL     1     -18.281 -24.423  -6.193  1.00  0.00    -0.266 OA
ATOM     41  H8  UNL     1     -18.154 -27.671  -6.480  1.00  0.00     0.190 HD
BRANCH  39  42
HETATM   42  C10 UNL     1     -17.317 -25.895  -4.645  1.00  0.00     0.033 A 
HETATM   43  C11 UNL     1     -16.264 -26.804  -4.612  1.00  0.00     0.020 A 
HETATM   44  C12 UNL     1     -15.583 -27.083  -3.458  1.00  0.00     0.037 A 
HETATM   45  C13 UNL     1     -15.921 -26.468  -2.274  1.00  0.00     0.065 A 
HETATM   46  C14 UNL     1     -16.960 -25.567  -2.285  1.00  0.00     0.037 A 
HETATM   47  C15 UNL     1     -17.640 -25.292  -3.459  1.00  0.00     0.020 A 
BRANCH  45  48
HETATM   48  O6  UNL     1     -15.223 -26.755  -1.092  1.00  0.00    -0.361 OA
ATOM     49  H6  UNL     1     -15.566 -26.486  -0.248  1.00  0.00     0.217 HD
ENDBRANCH  45  48
ENDBRANCH  39  42
ENDBRANCH  35  38
ENDBRANCH  30  32
ENDBRANCH   1  28
TORSDOF 12
ENDMDL
MODEL 2
REMARK VINA RESULT: -10.162809940      3.637      6.328
REMARK  12 active torsions:
REMARK  status: ('A' for Active; 'I' for Inactive)
REMARK    1  A    between atoms: O1_2  and  C2_3 
REMARK    2  A    between atoms: C3_4  and  O2_5 
REMARK    3  A    between atoms: O2_5  and  C4_6 
REMARK    4  A    between atoms: C4_6  and  C5_7 
REMARK    5  A    between atoms: C4_6  and  C7_15 
REMARK    6  A    between atoms: C5_7  and  N1_8 
REMARK       I    between atoms: C7_15  and  N5_17 
REMARK    7  A    between atoms: N5_17  and  N6_19 
REMARK       I    between atoms: N6_19  and  C8_21 
REMARK       I    between atoms: C8_21  and  N7_23 
REMARK    8  A    between atoms: N7_23  and  N8_25 
REMARK       I    between atoms: N8_25  and  C9_27 
REMARK    9  A    between atoms: C9_27  and  C10_29 
REMARK   10  A    between atoms: C13_32  and  O6_33 
REMARK   11  A    between atoms: C18_39  and  C19_40 
REMARK   12  A    between atoms: C22_47  and  O7_48 
ROOT
HETATM    1  C4  UNL     1     -18.819 -26.165 -14.744  1.00  0.00     0.242 C 
ENDROOT
BRANCH   1   2
HETATM    2  O2  UNL     1     -18.989 -24.914 -15.227  1.00  0.00    -0.332 OA
BRANCH   2   3
HETATM    3  C3  UNL     1     -19.021 -24.276 -16.413  1.00  0.00     0.106 A 
HETATM    4  C2  UNL     1     -18.649 -23.003 -16.670  1.00  0.00     0.136 A 
HETATM    5  C22 UNL     1     -18.719 -22.406 -17.939  1.00  0.00     0.116 A 
HETATM    6  C18 UNL     1     -19.185 -23.137 -18.991  1.00  0.00     0.043 A 
HETATM    7  C17 UNL     1     -19.572 -24.462 -18.735  1.00  0.00     0.021 A 
HETATM    8  C16 UNL     1     -19.501 -25.030 -17.503  1.00  0.00     0.041 A 
BRANCH   4   9
HETATM    9  O1  UNL     1     -18.145 -22.149 -15.679  1.00  0.00    -0.351 OA
HETATM   10  C1  UNL     1     -19.174 -21.570 -14.855  1.00  0.00     0.210 C 
ENDBRANCH   4   9
BRANCH   5  11
HETATM   11  O7  UNL     1     -18.326 -21.101 -18.132  1.00  0.00    -0.357 OA
ATOM     12  H7  UNL     1     -17.666 -20.701 -17.578  1.00  0.00     0.217 HD
ENDBRANCH   5  11
BRANCH   6  13
HETATM   13  C19 UNL     1     -19.282 -22.598 -20.322  1.00  0.00     0.110 C 
HETATM   14  N9  UNL     1     -18.227 -22.236 -20.995  1.00  0.00    -0.374 N 
HETATM   15  C20 UNL     1     -18.558 -21.724 -22.301  1.00  0.00     0.141 C 
ATOM     16  H9  UNL     1     -17.275 -22.306 -20.637  1.00  0.00     0.161 HD
HETATM   17  C21 UNL     1     -19.938 -22.300 -22.518  1.00  0.00     0.141 C 
HETATM   18  N10 UNL     1     -20.396 -22.377 -21.135  1.00  0.00    -0.374 N 
ATOM     19  H10 UNL     1     -21.361 -22.285 -20.817  1.00  0.00     0.161 HD
ENDBRANCH   6  13
ENDBRANCH   2   3
ENDBRANCH   1   2
BRANCH   1  20
HETATM   20  C5  UNL     1     -17.318 -26.377 -14.488  1.00  0.00     0.190 C 
BRANCH  20  21
HETATM   21  N1  UNL     1     -16.614 -25.128 -14.356  1.00  0.00    -0.266 N 
HETATM   22  C6  UNL     1     -15.665 -24.665 -15.182  1.00  0.00     0.216 A 
HETATM   23  N2  UNL     1     -15.272 -23.479 -14.704  1.00  0.00    -0.282 N 
HETATM   24  N3  UNL     1     -15.956 -23.210 -13.609  1.00  0.00    -0.225 N 
ATOM     25  H2  UNL     1     -14.558 -22.879 -15.119  1.00  0.00     0.189 HD
HETATM   26  N4  UNL     1     -16.781 -24.222 -13.396  1.00  0.00    -0.003 NA
ATOM     27  H3  UNL     1     -15.866 -22.374 -13.031  1.00  0.00     0.205 HD
ENDBRANCH  20  21
ENDBRANCH   1  20
BRANCH   1  28
HETATM   28  C7  UNL     1     -19.495 -26.290 -13.411  1.00  0.00     0.267 C 
HETATM   29  O3  UNL     1     -20.750 -26.316 -13.350  1.00  0.00    -0.269 OA
HETATM   30  N5  UNL     1     -18.747 -26.383 -12.225  1.00  0.00    -0.264 N 
ATOM     31  H5  UNL     1     -17.729 -26.360 -12.285  1.00  0.00     0.190 HD
BRANCH  30  32
HETATM   32  N6  UNL     1     -19.335 -26.504 -10.979  1.00  0.00    -0.248 N 
HETATM   33  C8  UNL     1     -18.628 -26.630  -9.761  1.00  0.00     0.353 C 
HETATM   34  O4  UNL     1     -17.376 -26.635  -9.759  1.00  0.00    -0.244 OA
HETATM   35  N7  UNL     1     -19.334 -26.749  -8.551  1.00  0.00    -0.247 N 
ATOM     36  H7  UNL     1     -20.354 -26.741  -8.577  1.00  0.00     0.192 HD
ATOM     37  H6  UNL     1     -20.354 -26.502 -10.935  1.00  0.00     0.192 HD
BRANCH  35  38
HETATM   38  N8  UNL     1     -18.691 -26.878  -7.306  1.00  0.00    -0.262 N 
HETATM   39  C9  UNL     1     -18.453 -25.697  -6.582  1.00  0.00     0.270 C 
HETATM   40  O5  UNL     1     -18.798 -24.550  -7.016  1.00  0.00    -0.266 OA
ATOM     41  H8  UNL     1     -18.411 -27.790  -6.944  1.00  0.00     0.190 HD
BRANCH  39  42
HETATM   42  C10 UNL     1     -17.792 -25.768  -5.285  1.00  0.00     0.033 A 
HETATM   43  C11 UNL     1     -16.690 -26.599  -5.110  1.00  0.00     0.020 A 
HETATM   44  C12 UNL     1     -16.041 -26.699  -3.909  1.00  0.00     0.037 A 
HETATM   45  C13 UNL     1     -16.462 -25.974  -2.819  1.00  0.00     0.065 A 
HETATM   46  C14 UNL     1     -17.550 -25.148  -2.969  1.00  0.00     0.037 A 
HETATM   47  C15 UNL     1     -18.197 -25.053  -4.189  1.00  0.00     0.020 A 
BRANCH  45  48
HETATM   48  O6  UNL     1     -15.796 -26.079  -1.588  1.00  0.00    -0.361 OA
ATOM     49  H6  UNL     1     -16.235 -25.849  -0.778  1.00  0.00     0.217 HD
ENDBRANCH  45  48
ENDBRANCH  39  42
ENDBRANCH  35  38
ENDBRANCH  30  32
ENDBRANCH   1  28
TORSDOF 12
ENDMDL
MODEL 3
REMARK VINA RESULT: -10.122474413      3.172      6.097
REMARK  12 active torsions:
REMARK  status: ('A' for Active; 'I' for Inactive)
REMARK    1  A    between atoms: O1_2  and  C2_3 
REMARK    2  A    between atoms: C3_4  and  O2_5 
REMARK    3  A    between atoms: O2_5  and  C4_6 
REMARK    4  A    between atoms: C4_6  and  C5_7 
REMARK    5  A    between atoms: C4_6  and  C7_15 
REMARK    6  A    between atoms: C5_7  and  N1_8 
REMARK       I    between atoms: C7_15  and  N5_17 
REMARK    7  A    between atoms: N5_17  and  N6_19 
REMARK       I    between atoms: N6_19  and  C8_21 
REMARK       I    between atoms: C8_21  and  N7_23 
REMARK    8  A    between atoms: N7_23  and  N8_25 
REMARK       I    between atoms: N8_25  and  C9_27 
REMARK    9  A    between atoms: C9_27  and  C10_29 
REMARK   10  A    between atoms: C13_32  and  O6_33 
REMARK   11  A    between atoms: C18_39  and  C19_40 
REMARK   12  A    between atoms: C22_47  and  O7_48 
ROOT
HETATM    1  C4  UNL     1     -17.484 -25.698 -13.507  1.00  0.00     0.242 C 
ENDROOT
BRANCH   1   2
HETATM    2  O2  UNL     1     -18.406 -25.114 -14.302  1.00  0.00    -0.332 OA
BRANCH   2   3
HETATM    3  C3  UNL     1     -18.554 -24.746 -15.589  1.00  0.00     0.106 A 
HETATM    4  C2  UNL     1     -19.277 -23.710 -16.068  1.00  0.00     0.136 A 
HETATM    5  C22 UNL     1     -19.387 -23.393 -17.432  1.00  0.00     0.116 A 
HETATM    6  C18 UNL     1     -18.731 -24.164 -18.345  1.00  0.00     0.043 A 
HETATM    7  C17 UNL     1     -17.976 -25.241 -17.859  1.00  0.00     0.021 A 
HETATM    8  C16 UNL     1     -17.877 -25.540 -16.537  1.00  0.00     0.041 A 
BRANCH   4   9
HETATM    9  O1  UNL     1     -19.989 -22.836 -15.234  1.00  0.00    -0.351 OA
HETATM   10  C1  UNL     1     -19.249 -21.646 -14.899  1.00  0.00     0.210 C 
ENDBRANCH   4   9
BRANCH   5  11
HETATM   11  O7  UNL     1     -20.142 -22.323 -17.854  1.00  0.00    -0.357 OA
ATOM     12  H7  UNL     1     -20.228 -22.117 -18.777  1.00  0.00     0.217 HD
ENDBRANCH   5  11
BRANCH   6  13
HETATM   13  C19 UNL     1     -18.790 -23.901 -19.760  1.00  0.00     0.110 C 
HETATM   14  N9  UNL     1     -19.075 -24.834 -20.621  1.00  0.00    -0.374 N 
HETATM   15  C20 UNL     1     -19.077 -24.348 -21.979  1.00  0.00     0.141 C 
ATOM     16  H9  UNL     1     -19.275 -25.801 -20.364  1.00  0.00     0.161 HD
HETATM   17  C21 UNL     1     -19.244 -22.861 -21.774  1.00  0.00     0.141 C 
HETATM   18  N10 UNL     1     -18.600 -22.714 -20.473  1.00  0.00    -0.374 N 
ATOM     19  H10 UNL     1     -18.098 -21.890 -20.142  1.00  0.00     0.161 HD
ENDBRANCH   6  13
ENDBRANCH   2   3
ENDBRANCH   1   2
BRANCH   1  20
HETATM   20  C5  UNL     1     -16.141 -24.984 -13.729  1.00  0.00     0.190 C 
BRANCH  20  21
HETATM   21  N1  UNL     1     -15.036 -25.908 -13.736  1.00  0.00    -0.266 N 
HETATM   22  C6  UNL     1     -14.843 -26.901 -14.616  1.00  0.00     0.216 A 
HETATM   23  N2  UNL     1     -13.707 -27.517 -14.269  1.00  0.00    -0.282 N 
HETATM   24  N3  UNL     1     -13.207 -26.926 -13.201  1.00  0.00    -0.225 N 
ATOM     25  H2  UNL     1     -13.295 -28.316 -14.752  1.00  0.00     0.189 HD
HETATM   26  N4  UNL     1     -14.022 -25.937 -12.875  1.00  0.00    -0.003 NA
ATOM     27  H3  UNL     1     -12.347 -27.184 -12.716  1.00  0.00     0.205 HD
ENDBRANCH  20  21
ENDBRANCH   1  20
BRANCH   1  28
HETATM   28  C7  UNL     1     -17.843 -25.480 -12.067  1.00  0.00     0.267 C 
HETATM   29  O3  UNL     1     -17.270 -24.571 -11.413  1.00  0.00    -0.269 OA
HETATM   30  N5  UNL     1     -18.814 -26.274 -11.433  1.00  0.00    -0.264 N 
ATOM     31  H5  UNL     1     -19.271 -27.010 -11.971  1.00  0.00     0.190 HD
BRANCH  30  32
HETATM   32  N6  UNL     1     -19.174 -26.099 -10.109  1.00  0.00    -0.248 N 
HETATM   33  C8  UNL     1     -18.409 -26.531  -9.001  1.00  0.00     0.353 C 
HETATM   34  O4  UNL     1     -17.317 -27.117  -9.180  1.00  0.00    -0.244 OA
HETATM   35  N7  UNL     1     -18.877 -26.299  -7.695  1.00  0.00    -0.247 N 
ATOM     36  H7  UNL     1     -19.768 -25.819  -7.573  1.00  0.00     0.192 HD
ATOM     37  H6  UNL     1     -20.056 -25.624  -9.918  1.00  0.00     0.192 HD
BRANCH  35  38
HETATM   38  N8  UNL     1     -18.166 -26.704  -6.550  1.00  0.00    -0.262 N 
HETATM   39  C9  UNL     1     -17.810 -25.703  -5.630  1.00  0.00     0.270 C 
HETATM   40  O5  UNL     1     -18.109 -24.477  -5.807  1.00  0.00    -0.266 OA
ATOM     41  H8  UNL     1     -17.920 -27.681  -6.394  1.00  0.00     0.190 HD
BRANCH  39  42
HETATM   42  C10 UNL     1     -17.073 -26.061  -4.424  1.00  0.00     0.033 A 
HETATM   43  C11 UNL     1     -17.302 -25.371  -3.238  1.00  0.00     0.020 A 
HETATM   44  C12 UNL     1     -16.631 -25.671  -2.084  1.00  0.00     0.037 A 
HETATM   45  C13 UNL     1     -15.692 -26.676  -2.056  1.00  0.00     0.065 A 
HETATM   46  C14 UNL     1     -15.449 -27.370  -3.218  1.00  0.00     0.037 A 
HETATM   47  C15 UNL     1     -16.136 -27.058  -4.379  1.00  0.00     0.020 A 
BRANCH  45  48
HETATM   48  O6  UNL     1     -15.004 -26.982  -0.873  1.00  0.00    -0.361 OA
ATOM     49  H6  UNL     1     -14.999 -27.868  -0.529  1.00  0.00     0.217 HD
ENDBRANCH  45  48
ENDBRANCH  39  42
ENDBRANCH  35  38
ENDBRANCH  30  32
ENDBRANCH   1  28
TORSDOF 12
ENDMDL
MODEL 4
REMARK VINA RESULT: -10.015781135      3.240      6.081
REMARK  12 active torsions:
REMARK  status: ('A' for Active; 'I' for Inactive)
REMARK    1  A    between atoms: O1_2  and  C2_3 
REMARK    2  A    between atoms: C3_4  and  O2_5 
REMARK    3  A    between atoms: O2_5  and  C4_6 
REMARK    4  A    between atoms: C4_6  and  C5_7 
REMARK    5  A    between atoms: C4_6  and  C7_15 
REMARK    6  A    between atoms: C5_7  and  N1_8 
REMARK       I    between atoms: C7_15  and  N5_17 
REMARK    7  A    between atoms: N5_17  and  N6_19 
REMARK       I    between atoms: N6_19  and  C8_21 
REMARK       I    between atoms: C8_21  and  N7_23 
REMARK    8  A    between atoms: N7_23  and  N8_25 
REMARK       I    between atoms: N8_25  and  C9_27 
REMARK    9  A    between atoms: C9_27  and  C10_29 
REMARK   10  A    between atoms: C13_32  and  O6_33 
REMARK   11  A    between atoms: C18_39  and  C19_40 
REMARK   12  A    between atoms: C22_47  and  O7_48 
ROOT
HETATM    1  C4  UNL     1     -17.180 -25.438 -13.562  1.00  0.00     0.242 C 
ENDROOT
BRANCH   1   2
HETATM    2  O2  UNL     1     -17.874 -24.595 -14.356  1.00  0.00    -0.332 OA
BRANCH   2   3
HETATM    3  C3  UNL     1     -18.274 -24.501 -15.639  1.00  0.00     0.106 A 
HETATM    4  C2  UNL     1     -19.218 -23.679 -16.146  1.00  0.00     0.136 A 
HETATM    5  C22 UNL     1     -19.583 -23.645 -17.502  1.00  0.00     0.116 A 
HETATM    6  C18 UNL     1     -18.960 -24.484 -18.377  1.00  0.00     0.043 A 
HETATM    7  C17 UNL     1     -17.976 -25.341 -17.861  1.00  0.00     0.021 A 
HETATM    8  C16 UNL     1     -17.630 -25.366 -16.547  1.00  0.00     0.041 A 
BRANCH   4   9
HETATM    9  O1  UNL     1     -19.926 -22.762 -15.356  1.00  0.00    -0.351 OA
HETATM   10  C1  UNL     1     -19.249 -21.500 -15.211  1.00  0.00     0.210 C 
ENDBRANCH   4   9
BRANCH   5  11
HETATM   11  O7  UNL     1     -20.557 -22.783 -17.954  1.00  0.00    -0.357 OA
ATOM     12  H7  UNL     1     -21.351 -23.110 -18.361  1.00  0.00     0.217 HD
ENDBRANCH   5  11
BRANCH   6  13
HETATM   13  C19 UNL     1     -19.275 -24.506 -19.782  1.00  0.00     0.110 C 
HETATM   14  N9  UNL     1     -18.388 -24.213 -20.689  1.00  0.00    -0.374 N 
HETATM   15  C20 UNL     1     -18.922 -24.297 -22.026  1.00  0.00     0.141 C 
ATOM     16  H9  UNL     1     -17.425 -23.954 -20.478  1.00  0.00     0.161 HD
HETATM   17  C21 UNL     1     -20.134 -25.176 -21.820  1.00  0.00     0.141 C 
HETATM   18  N10 UNL     1     -20.463 -24.828 -20.443  1.00  0.00    -0.374 N 
ATOM     19  H10 UNL     1     -21.398 -24.820 -20.033  1.00  0.00     0.161 HD
ENDBRANCH   6  13
ENDBRANCH   2   3
ENDBRANCH   1   2
BRANCH   1  20
HETATM   20  C5  UNL     1     -15.718 -24.962 -13.522  1.00  0.00     0.190 C 
BRANCH  20  21
HETATM   21  N1  UNL     1     -14.793 -26.055 -13.678  1.00  0.00    -0.266 N 
HETATM   22  C6  UNL     1     -14.784 -26.944 -14.681  1.00  0.00     0.216 A 
HETATM   23  N2  UNL     1     -13.772 -27.788 -14.447  1.00  0.00    -0.282 N 
HETATM   24  N3  UNL     1     -13.168 -27.435 -13.329  1.00  0.00    -0.225 N 
ATOM     25  H2  UNL     1     -13.510 -28.577 -15.039  1.00  0.00     0.189 HD
HETATM   26  N4  UNL     1     -13.795 -26.370 -12.857  1.00  0.00    -0.003 NA
ATOM     27  H3  UNL     1     -12.364 -27.898 -12.906  1.00  0.00     0.205 HD
ENDBRANCH  20  21
ENDBRANCH   1  20
BRANCH   1  28
HETATM   28  C7  UNL     1     -17.690 -25.346 -12.154  1.00  0.00     0.267 C 
HETATM   29  O3  UNL     1     -17.253 -24.447 -11.391  1.00  0.00    -0.269 OA
HETATM   30  N5  UNL     1     -18.653 -26.248 -11.672  1.00  0.00    -0.264 N 
ATOM     31  H5  UNL     1     -19.000 -26.975 -12.298  1.00  0.00     0.190 HD
BRANCH  30  32
HETATM   32  N6  UNL     1     -19.150 -26.192 -10.382  1.00  0.00    -0.248 N 
HETATM   33  C8  UNL     1     -18.417 -26.523  -9.219  1.00  0.00     0.353 C 
HETATM   34  O4  UNL     1     -17.225 -26.897  -9.312  1.00  0.00    -0.244 OA
HETATM   35  N7  UNL     1     -19.028 -26.429  -7.957  1.00  0.00    -0.247 N 
ATOM     36  H7  UNL     1     -19.999 -26.120  -7.905  1.00  0.00     0.192 HD
ATOM     37  H6  UNL     1     -20.117 -25.889 -10.261  1.00  0.00     0.192 HD
BRANCH  35  38
HETATM   38  N8  UNL     1     -18.355 -26.744  -6.761  1.00  0.00    -0.262 N 
HETATM   39  C9  UNL     1     -17.994 -25.671  -5.927  1.00  0.00     0.270 C 
HETATM   40  O5  UNL     1     -18.258 -24.460  -6.222  1.00  0.00    -0.266 OA
ATOM     41  H8  UNL     1     -18.138 -27.708  -6.511  1.00  0.00     0.190 HD
BRANCH  39  42
HETATM   42  C10 UNL     1     -17.296 -25.935  -4.675  1.00  0.00     0.033 A 
HETATM   43  C11 UNL     1     -16.289 -26.894  -4.629  1.00  0.00     0.020 A 
HETATM   44  C12 UNL     1     -15.611 -27.177  -3.475  1.00  0.00     0.037 A 
HETATM   45  C13 UNL     1     -15.904 -26.516  -2.305  1.00  0.00     0.065 A 
HETATM   46  C14 UNL     1     -16.897 -25.565  -2.328  1.00  0.00     0.037 A 
HETATM   47  C15 UNL     1     -17.576 -25.286  -3.502  1.00  0.00     0.020 A 
BRANCH  45  48
HETATM   48  O6  UNL     1     -15.208 -26.808  -1.122  1.00  0.00    -0.361 OA
ATOM     49  H6  UNL     1     -15.644 -27.236  -0.395  1.00  0.00     0.217 HD
ENDBRANCH  45  48
ENDBRANCH  39  42
ENDBRANCH  35  38
ENDBRANCH  30  32
ENDBRANCH   1  28
TORSDOF 12
ENDMDL
MODEL 5
REMARK VINA RESULT: -9.668312384      1.044      1.895
REMARK  12 active torsions:
REMARK  status: ('A' for Active; 'I' for Inactive)
REMARK    1  A    between atoms: O1_2  and  C2_3 
REMARK    2  A    between atoms: C3_4  and  O2_5 
REMARK    3  A    between atoms: O2_5  and  C4_6 
REMARK    4  A    between atoms: C4_6  and  C5_7 
REMARK    5  A    between atoms: C4_6  and  C7_15 
REMARK    6  A    between atoms: C5_7  and  N1_8 
REMARK       I    between atoms: C7_15  and  N5_17 
REMARK    7  A    between atoms: N5_17  and  N6_19 
REMARK       I    between atoms: N6_19  and  C8_21 
REMARK       I    between atoms: C8_21  and  N7_23 
REMARK    8  A    between atoms: N7_23  and  N8_25 
REMARK       I    between atoms: N8_25  and  C9_27 
REMARK    9  A    between atoms: C9_27  and  C10_29 
REMARK   10  A    between atoms: C13_32  and  O6_33 
REMARK   11  A    between atoms: C18_39  and  C19_40 
REMARK   12  A    between atoms: C22_47  and  O7_48 
ROOT
HETATM    1  C4  UNL     1     -17.309 -25.710 -13.575  1.00  0.00     0.242 C 
ENDROOT
BRANCH   1   2
HETATM    2  O2  UNL     1     -16.962 -27.003 -13.758  1.00  0.00    -0.332 OA
BRANCH   2   3
HETATM    3  C3  UNL     1     -15.864 -27.734 -14.031  1.00  0.00     0.106 A 
HETATM    4  C2  UNL     1     -15.757 -28.757 -14.906  1.00  0.00     0.136 A 
HETATM    5  C22 UNL     1     -14.572 -29.476 -15.132  1.00  0.00     0.116 A 
HETATM    6  C18 UNL     1     -13.449 -29.138 -14.437  1.00  0.00     0.043 A 
HETATM    7  C17 UNL     1     -13.549 -28.075 -13.527  1.00  0.00     0.021 A 
HETATM    8  C16 UNL     1     -14.701 -27.386 -13.316  1.00  0.00     0.041 A 
BRANCH   4   9
HETATM    9  O1  UNL     1     -16.833 -29.198 -15.690  1.00  0.00    -0.351 OA
HETATM   10  C1  UNL     1     -17.744 -30.050 -14.969  1.00  0.00     0.210 C 
ENDBRANCH   4   9
BRANCH   5  11
HETATM   11  O7  UNL     1     -14.531 -30.512 -16.038  1.00  0.00    -0.357 OA
ATOM     12  H7  UNL     1     -13.713 -30.779 -16.440  1.00  0.00     0.217 HD
ENDBRANCH   5  11
BRANCH   6  13
HETATM   13  C19 UNL     1     -12.196 -29.823 -14.615  1.00  0.00     0.110 C 
HETATM   14  N9  UNL     1     -12.003 -31.030 -14.167  1.00  0.00    -0.374 N 
HETATM   15  C20 UNL     1     -10.677 -31.519 -14.455  1.00  0.00     0.141 C 
ATOM     16  H9  UNL     1     -12.710 -31.570 -13.667  1.00  0.00     0.161 HD
HETATM   17  C21 UNL     1     -10.256 -30.616 -15.592  1.00  0.00     0.141 C 
HETATM   18  N10 UNL     1     -11.022 -29.420 -15.256  1.00  0.00    -0.374 N 
ATOM     19  H10 UNL     1     -10.747 -28.458 -15.455  1.00  0.00     0.161 HD
ENDBRANCH   6  13
ENDBRANCH   2   3
ENDBRANCH   1   2
BRANCH   1  20
HETATM   20  C5  UNL     1     -18.538 -25.418 -14.451  1.00  0.00     0.190 C 
BRANCH  20  21
HETATM   21  N1  UNL     1     -18.589 -24.038 -14.861  1.00  0.00    -0.266 N 
HETATM   22  C6  UNL     1     -17.543 -23.208 -14.972  1.00  0.00     0.216 A 
HETATM   23  N2  UNL     1     -18.020 -22.025 -15.376  1.00  0.00    -0.282 N 
HETATM   24  N3  UNL     1     -19.329 -22.115 -15.512  1.00  0.00    -0.225 N 
ATOM     25  H2  UNL     1     -17.462 -21.189 -15.551  1.00  0.00     0.189 HD
HETATM   26  N4  UNL     1     -19.678 -23.352 -15.196  1.00  0.00    -0.003 NA
ATOM     27  H3  UNL     1     -19.957 -21.368 -15.807  1.00  0.00     0.205 HD
ENDBRANCH  20  21
ENDBRANCH   1  20
BRANCH   1  28
HETATM   28  C7  UNL     1     -17.744 -25.497 -12.155  1.00  0.00     0.267 C 
HETATM   29  O3  UNL     1     -17.247 -24.555 -11.487  1.00  0.00    -0.269 OA
HETATM   30  N5  UNL     1     -18.702 -26.334 -11.557  1.00  0.00    -0.264 N 
ATOM     31  H5  UNL     1     -19.097 -27.096 -12.107  1.00  0.00     0.190 HD
BRANCH  30  32
HETATM   32  N6  UNL     1     -19.130 -26.165 -10.252  1.00  0.00    -0.248 N 
HETATM   33  C8  UNL     1     -18.410 -26.576  -9.107  1.00  0.00     0.353 C 
HETATM   34  O4  UNL     1     -17.297 -27.136  -9.231  1.00  0.00    -0.244 OA
HETATM   35  N7  UNL     1     -18.947 -26.354  -7.827  1.00  0.00    -0.247 N 
ATOM     36  H7  UNL     1     -19.854 -25.895  -7.750  1.00  0.00     0.192 HD
ATOM     37  H6  UNL     1     -20.032 -25.711 -10.106  1.00  0.00     0.192 HD
BRANCH  35  38
HETATM   38  N8  UNL     1     -18.283 -26.739  -6.647  1.00  0.00    -0.262 N 
HETATM   39  C9  UNL     1     -17.798 -25.711  -5.820  1.00  0.00     0.270 C 
HETATM   40  O5  UNL     1     -17.946 -24.478  -6.107  1.00  0.00    -0.266 OA
ATOM     41  H8  UNL     1     -18.158 -27.721  -6.403  1.00  0.00     0.190 HD
BRANCH  39  42
HETATM   42  C10 UNL     1     -17.103 -26.047  -4.584  1.00  0.00     0.033 A 
HETATM   43  C11 UNL     1     -17.413 -25.376  -3.406  1.00  0.00     0.020 A 
HETATM   44  C12 UNL     1     -16.782 -25.656  -2.224  1.00  0.00     0.037 A 
HETATM   45  C13 UNL     1     -15.806 -26.624  -2.159  1.00  0.00     0.065 A 
HETATM   46  C14 UNL     1     -15.483 -27.299  -3.313  1.00  0.00     0.037 A 
HETATM   47  C15 UNL     1     -16.129 -27.007  -4.502  1.00  0.00     0.020 A 
BRANCH  45  48
HETATM   48  O6  UNL     1     -15.160 -26.910  -0.947  1.00  0.00    -0.361 OA
ATOM     49  H6  UNL     1     -14.310 -26.534  -0.750  1.00  0.00     0.217 HD
ENDBRANCH  45  48
ENDBRANCH  39  42
ENDBRANCH  35  38
ENDBRANCH  30  32
ENDBRANCH   1  28
TORSDOF 12
ENDMDL
