MODEL 1
REMARK VINA RESULT: -8.458337271      0.000      0.000
REMARK  16 active torsions:
REMARK  status: ('A' for Active; 'I' for Inactive)
REMARK    1  A    between atoms: C2_2  and  O2_7 
REMARK    2  A    between atoms: N1_3  and  O1_5 
REMARK    3  A    between atoms: O2_7  and  C3_8 
REMARK    4  A    between atoms: C3_8  and  C5_10 
REMARK    5  A    between atoms: C6_12  and  C7_13 
REMARK    6  A    between atoms: C10_16  and  O4_17 
REMARK    7  A    between atoms: C10_16  and  C11_19 
REMARK    8  A    between atoms: C14_25  and  C15_26 
REMARK    9  A    between atoms: C16_27  and  C17_28 
REMARK   10  A    between atoms: C17_28  and  O8_29 
REMARK   11  A    between atoms: C17_28  and  C18_31 
REMARK   12  A    between atoms: C18_31  and  O9_33 
REMARK   13  A    between atoms: C18_31  and  C20_35 
REMARK   14  A    between atoms: C20_35  and  O10_36 
REMARK   15  A    between atoms: C22_40  and  O12_41 
REMARK   16  A    between atoms: C23_44  and  O14_45 
ROOT
HETATM    1  C7  UNL     1     -17.563 -26.035 -13.008  1.00  0.00     0.060 C 
HETATM    2  C8  UNL     1     -16.256 -26.786 -12.843  1.00  0.00     0.014 C 
HETATM    3  C9  UNL     1     -15.134 -25.826 -13.005  1.00  0.00     0.053 C 
HETATM    4  C10 UNL     1     -15.686 -24.836 -13.995  1.00  0.00     0.179 C 
HETATM    5  C12 UNL     1     -17.205 -24.919 -13.863  1.00  0.00     0.129 C 
HETATM    6  C13 UNL     1     -17.828 -25.079 -15.266  1.00  0.00     0.211 C 
HETATM    7  O7  UNL     1     -19.148 -24.615 -15.267  1.00  0.00    -0.377 OA
HETATM    8  C14 UNL     1     -19.097 -23.226 -15.309  1.00  0.00     0.168 C 
HETATM    9  C21 UNL     1     -17.855 -22.805 -14.565  1.00  0.00     0.205 C 
HETATM   10  O11 UNL     1     -17.630 -23.659 -13.488  1.00  0.00    -0.371 OA
ENDROOT
BRANCH   1  11
HETATM   11  C6  UNL     1     -18.291 -25.841 -11.737  1.00  0.00     0.184 C 
HETATM   12  O3  UNL     1     -19.248 -26.853 -11.706  1.00  0.00    -0.368 OA
HETATM   13  C5  UNL     1     -19.893 -27.045 -10.532  1.00  0.00     0.206 C 
HETATM   14  C23 UNL     1     -19.622 -26.110  -9.421  1.00  0.00     0.291 C 
HETATM   15  O13 UNL     1     -18.497 -25.351  -9.490  1.00  0.00    -0.327 OA
HETATM   16  C22 UNL     1     -17.575 -25.828 -10.464  1.00  0.00     0.289 C 
BRANCH  13  17
HETATM   17  C3  UNL     1     -21.393 -27.170 -10.799  1.00  0.00     0.160 C 
HETATM   18  C4  UNL     1     -22.129 -26.026 -10.165  1.00  0.00     0.043 C 
BRANCH  17  19
HETATM   19  O2  UNL     1     -21.699 -27.378 -12.145  1.00  0.00    -0.330 OA
BRANCH  19  20
HETATM   20  C2  UNL     1     -21.765 -28.614 -12.771  1.00  0.00     0.133 C 
HETATM   21  C1  UNL     1     -22.966 -29.490 -12.585  1.00  0.00     0.099 C 
HETATM   22  N1  UNL     1     -20.778 -28.969 -13.500  1.00  0.00    -0.251 N 
ATOM     23  H1  UNL     1     -19.972 -28.355 -13.609  1.00  0.00     0.196 HD
BRANCH  22  24
HETATM   24  O1  UNL     1     -20.811 -30.193 -14.138  1.00  0.00    -0.288 OA
ATOM     25  H1  UNL     1     -20.340 -30.929 -13.764  1.00  0.00     0.244 HD
ENDBRANCH  22  24
ENDBRANCH  19  20
ENDBRANCH  17  19
ENDBRANCH  13  17
BRANCH  14  26
HETATM   26  O14 UNL     1     -19.599 -26.763  -8.165  1.00  0.00    -0.368 OA
ATOM     27  H14 UNL     1     -18.716 -26.972  -7.884  1.00  0.00     0.212 HD
ENDBRANCH  14  26
BRANCH  16  28
HETATM   28  O12 UNL     1     -17.161 -27.061  -9.984  1.00  0.00    -0.368 OA
ATOM     29  H12 UNL     1     -16.854 -27.079  -9.084  1.00  0.00     0.212 HD
ENDBRANCH  16  28
ENDBRANCH   1  11
BRANCH   4  30
HETATM   30  O4  UNL     1     -15.211 -23.547 -13.721  1.00  0.00    -0.376 OA
ATOM     31  H4  UNL     1     -15.550 -22.925 -14.353  1.00  0.00     0.211 HD
ENDBRANCH   4  30
BRANCH   4  32
HETATM   32  C11 UNL     1     -15.191 -25.206 -15.324  1.00  0.00     0.212 C 
HETATM   33  O5  UNL     1     -14.753 -24.368 -16.160  1.00  0.00    -0.646 OA
HETATM   34  O6  UNL     1     -15.187 -26.533 -15.717  1.00  0.00    -0.646 OA
ENDBRANCH   4  32
BRANCH   8  35
HETATM   35  C15 UNL     1     -19.020 -22.694 -16.702  1.00  0.00     0.005 C 
HETATM   36  C16 UNL     1     -19.926 -22.987 -17.618  1.00  0.00     0.006 C 
BRANCH  36  37
HETATM   37  C17 UNL     1     -19.795 -22.431 -18.981  1.00  0.00     0.176 C 
BRANCH  37  38
HETATM   38  O8  UNL     1     -19.229 -21.158 -18.860  1.00  0.00    -0.389 OA
ATOM     39  H8  UNL     1     -19.666 -20.592 -19.484  1.00  0.00     0.210 HD
ENDBRANCH  37  38
BRANCH  37  40
HETATM   40  C18 UNL     1     -21.135 -22.368 -19.685  1.00  0.00     0.104 C 
HETATM   41  C19 UNL     1     -20.919 -22.255 -21.159  1.00  0.00     0.051 C 
BRANCH  40  42
HETATM   42  O9  UNL     1     -21.882 -21.350 -19.138  1.00  0.00    -0.385 OA
ATOM     43  H9  UNL     1     -21.436 -20.525 -19.284  1.00  0.00     0.210 HD
ENDBRANCH  40  42
BRANCH  40  44
HETATM   44  C20 UNL     1     -21.824 -23.693 -19.421  1.00  0.00     0.204 C 
BRANCH  44  45
HETATM   45  O10 UNL     1     -23.174 -23.465 -19.171  1.00  0.00    -0.398 OA
ATOM     46  H10 UNL     1     -23.413 -23.879 -18.350  1.00  0.00     0.209 HD
ENDBRANCH  44  45
ENDBRANCH  40  44
ENDBRANCH  37  40
ENDBRANCH  36  37
ENDBRANCH   8  35
TORSDOF 16
ENDMDL
MODEL 2
REMARK VINA RESULT: -8.347038278      1.413      1.825
REMARK  16 active torsions:
REMARK  status: ('A' for Active; 'I' for Inactive)
REMARK    1  A    between atoms: C2_2  and  O2_7 
REMARK    2  A    between atoms: N1_3  and  O1_5 
REMARK    3  A    between atoms: O2_7  and  C3_8 
REMARK    4  A    between atoms: C3_8  and  C5_10 
REMARK    5  A    between atoms: C6_12  and  C7_13 
REMARK    6  A    between atoms: C10_16  and  O4_17 
REMARK    7  A    between atoms: C10_16  and  C11_19 
REMARK    8  A    between atoms: C14_25  and  C15_26 
REMARK    9  A    between atoms: C16_27  and  C17_28 
REMARK   10  A    between atoms: C17_28  and  O8_29 
REMARK   11  A    between atoms: C17_28  and  C18_31 
REMARK   12  A    between atoms: C18_31  and  O9_33 
REMARK   13  A    between atoms: C18_31  and  C20_35 
REMARK   14  A    between atoms: C20_35  and  O10_36 
REMARK   15  A    between atoms: C22_40  and  O12_41 
REMARK   16  A    between atoms: C23_44  and  O14_45 
ROOT
HETATM    1  C7  UNL     1     -17.949 -25.900 -14.287  1.00  0.00     0.060 C 
HETATM    2  C8  UNL     1     -17.017 -27.035 -14.668  1.00  0.00     0.014 C 
HETATM    3  C9  UNL     1     -15.776 -26.455 -15.244  1.00  0.00     0.053 C 
HETATM    4  C10 UNL     1     -16.276 -25.204 -15.915  1.00  0.00     0.179 C 
HETATM    5  C12 UNL     1     -17.568 -24.833 -15.193  1.00  0.00     0.129 C 
HETATM    6  C13 UNL     1     -18.677 -24.577 -16.236  1.00  0.00     0.211 C 
HETATM    7  O7  UNL     1     -19.658 -23.732 -15.706  1.00  0.00    -0.377 OA
HETATM    8  C14 UNL     1     -19.150 -22.438 -15.739  1.00  0.00     0.168 C 
HETATM    9  C21 UNL     1     -17.659 -22.540 -15.541  1.00  0.00     0.205 C 
HETATM   10  O11 UNL     1     -17.365 -23.576 -14.658  1.00  0.00    -0.371 OA
ENDROOT
BRANCH   1  11
HETATM   11  C6  UNL     1     -18.045 -25.686 -12.828  1.00  0.00     0.184 C 
HETATM   12  O3  UNL     1     -18.851 -26.721 -12.360  1.00  0.00    -0.368 OA
HETATM   13  C5  UNL     1     -18.902 -26.894 -11.018  1.00  0.00     0.206 C 
HETATM   14  C23 UNL     1     -18.201 -25.919 -10.158  1.00  0.00     0.291 C 
HETATM   15  O13 UNL     1     -17.252 -25.134 -10.731  1.00  0.00    -0.327 OA
HETATM   16  C22 UNL     1     -16.840 -25.616 -12.006  1.00  0.00     0.289 C 
BRANCH  13  17
HETATM   17  C3  UNL     1     -20.359 -27.065 -10.590  1.00  0.00     0.160 C 
HETATM   18  C4  UNL     1     -20.718 -26.042  -9.553  1.00  0.00     0.043 C 
BRANCH  17  19
HETATM   19  O2  UNL     1     -21.247 -27.133 -11.665  1.00  0.00    -0.330 OA
BRANCH  19  20
HETATM   20  C2  UNL     1     -21.705 -28.301 -12.256  1.00  0.00     0.133 C 
HETATM   21  C1  UNL     1     -22.925 -28.988 -11.722  1.00  0.00     0.099 C 
HETATM   22  N1  UNL     1     -21.057 -28.761 -13.256  1.00  0.00    -0.251 N 
ATOM     23  H1  UNL     1     -20.229 -28.275 -13.599  1.00  0.00     0.196 HD
BRANCH  22  24
HETATM   24  O1  UNL     1     -21.486 -29.922 -13.868  1.00  0.00    -0.288 OA
ATOM     25  H1  UNL     1     -21.565 -30.719 -13.357  1.00  0.00     0.244 HD
ENDBRANCH  22  24
ENDBRANCH  19  20
ENDBRANCH  17  19
ENDBRANCH  13  17
BRANCH  14  26
HETATM   26  O14 UNL     1     -17.600 -26.533  -9.032  1.00  0.00    -0.368 OA
ATOM     27  H14 UNL     1     -17.262 -25.897  -8.414  1.00  0.00     0.212 HD
ENDBRANCH  14  26
BRANCH  16  28
HETATM   28  O12 UNL     1     -16.211 -26.823 -11.739  1.00  0.00    -0.368 OA
ATOM     29  H12 UNL     1     -15.382 -26.770 -11.278  1.00  0.00     0.212 HD
ENDBRANCH  16  28
ENDBRANCH   1  11
BRANCH   4  30
HETATM   30  O4  UNL     1     -15.320 -24.184 -15.829  1.00  0.00    -0.376 OA
ATOM     31  H4  UNL     1     -15.311 -23.809 -14.956  1.00  0.00     0.211 HD
ENDBRANCH   4  30
BRANCH   4  32
HETATM   32  C11 UNL     1     -16.463 -25.502 -17.339  1.00  0.00     0.212 C 
HETATM   33  O5  UNL     1     -16.410 -24.625 -18.244  1.00  0.00    -0.646 OA
HETATM   34  O6  UNL     1     -16.709 -26.802 -17.747  1.00  0.00    -0.646 OA
ENDBRANCH   4  32
BRANCH   8  35
HETATM   35  C15 UNL     1     -19.412 -21.750 -17.038  1.00  0.00     0.005 C 
HETATM   36  C16 UNL     1     -20.025 -22.352 -18.042  1.00  0.00     0.006 C 
BRANCH  36  37
HETATM   37  C17 UNL     1     -20.254 -21.618 -19.304  1.00  0.00     0.176 C 
BRANCH  37  38
HETATM   38  O8  UNL     1     -21.636 -21.574 -19.517  1.00  0.00    -0.389 OA
ATOM     39  H8  UNL     1     -21.780 -21.612 -20.455  1.00  0.00     0.210 HD
ENDBRANCH  37  38
BRANCH  37  40
HETATM   40  C18 UNL     1     -19.543 -22.279 -20.468  1.00  0.00     0.104 C 
HETATM   41  C19 UNL     1     -19.256 -23.706 -20.131  1.00  0.00     0.051 C 
BRANCH  40  42
HETATM   42  O9  UNL     1     -18.434 -21.535 -20.796  1.00  0.00    -0.385 OA
ATOM     43  H9  UNL     1     -18.621 -21.029 -21.578  1.00  0.00     0.210 HD
ENDBRANCH  40  42
BRANCH  40  44
HETATM   44  C20 UNL     1     -20.517 -22.268 -21.631  1.00  0.00     0.204 C 
BRANCH  44  45
HETATM   45  O10 UNL     1     -21.235 -23.459 -21.638  1.00  0.00    -0.398 OA
ATOM     46  H10 UNL     1     -20.841 -24.058 -22.261  1.00  0.00     0.209 HD
ENDBRANCH  44  45
ENDBRANCH  40  44
ENDBRANCH  37  40
ENDBRANCH  36  37
ENDBRANCH   8  35
TORSDOF 16
ENDMDL
MODEL 3
REMARK VINA RESULT: -7.986916772      2.629      8.228
REMARK  16 active torsions:
REMARK  status: ('A' for Active; 'I' for Inactive)
REMARK    1  A    between atoms: C2_2  and  O2_7 
REMARK    2  A    between atoms: N1_3  and  O1_5 
REMARK    3  A    between atoms: O2_7  and  C3_8 
REMARK    4  A    between atoms: C3_8  and  C5_10 
REMARK    5  A    between atoms: C6_12  and  C7_13 
REMARK    6  A    between atoms: C10_16  and  O4_17 
REMARK    7  A    between atoms: C10_16  and  C11_19 
REMARK    8  A    between atoms: C14_25  and  C15_26 
REMARK    9  A    between atoms: C16_27  and  C17_28 
REMARK   10  A    between atoms: C17_28  and  O8_29 
REMARK   11  A    between atoms: C17_28  and  C18_31 
REMARK   12  A    between atoms: C18_31  and  O9_33 
REMARK   13  A    between atoms: C18_31  and  C20_35 
REMARK   14  A    between atoms: C20_35  and  O10_36 
REMARK   15  A    between atoms: C22_40  and  O12_41 
REMARK   16  A    between atoms: C23_44  and  O14_45 
ROOT
HETATM    1  C7  UNL     1     -17.105 -25.183 -15.411  1.00  0.00     0.060 C 
HETATM    2  C8  UNL     1     -15.807 -24.409 -15.285  1.00  0.00     0.014 C 
HETATM    3  C9  UNL     1     -14.954 -25.076 -14.269  1.00  0.00     0.053 C 
HETATM    4  C10 UNL     1     -15.965 -25.642 -13.308  1.00  0.00     0.179 C 
HETATM    5  C12 UNL     1     -17.254 -25.806 -14.110  1.00  0.00     0.129 C 
HETATM    6  C13 UNL     1     -18.423 -25.171 -13.327  1.00  0.00     0.211 C 
HETATM    7  O7  UNL     1     -19.637 -25.754 -13.708  1.00  0.00    -0.377 OA
HETATM    8  C14 UNL     1     -19.717 -26.990 -13.077  1.00  0.00     0.168 C 
HETATM    9  C21 UNL     1     -18.311 -27.519 -12.955  1.00  0.00     0.205 C 
HETATM   10  O11 UNL     1     -17.564 -27.152 -14.071  1.00  0.00    -0.371 OA
ENDROOT
BRANCH   1  11
HETATM   11  C6  UNL     1     -17.203 -25.963 -16.664  1.00  0.00     0.184 C 
HETATM   12  O3  UNL     1     -17.778 -25.095 -17.589  1.00  0.00    -0.368 OA
HETATM   13  C5  UNL     1     -17.758 -25.487 -18.885  1.00  0.00     0.206 C 
HETATM   14  C23 UNL     1     -17.239 -26.832 -19.203  1.00  0.00     0.291 C 
HETATM   15  O13 UNL     1     -16.478 -27.457 -18.267  1.00  0.00    -0.327 OA
HETATM   16  C22 UNL     1     -16.014 -26.567 -17.257  1.00  0.00     0.289 C 
BRANCH  13  17
HETATM   17  C3  UNL     1     -19.141 -25.266 -19.496  1.00  0.00     0.160 C 
HETATM   18  C4  UNL     1     -19.969 -26.510 -19.367  1.00  0.00     0.043 C 
BRANCH  17  19
HETATM   19  O2  UNL     1     -19.768 -24.106 -19.039  1.00  0.00    -0.330 OA
BRANCH  19  20
HETATM   20  C2  UNL     1     -19.325 -22.811 -19.264  1.00  0.00     0.133 C 
HETATM   21  C1  UNL     1     -19.493 -22.182 -20.614  1.00  0.00     0.099 C 
HETATM   22  N1  UNL     1     -18.778 -22.188 -18.294  1.00  0.00    -0.251 N 
ATOM     23  H1  UNL     1     -18.675 -22.640 -17.385  1.00  0.00     0.196 HD
BRANCH  22  24
HETATM   24  O1  UNL     1     -18.325 -20.897 -18.484  1.00  0.00    -0.288 OA
ATOM     25  H1  UNL     1     -17.654 -20.727 -19.134  1.00  0.00     0.244 HD
ENDBRANCH  22  24
ENDBRANCH  19  20
ENDBRANCH  17  19
ENDBRANCH  13  17
BRANCH  14  26
HETATM   26  O14 UNL     1     -16.499 -26.850 -20.410  1.00  0.00    -0.368 OA
ATOM     27  H14 UNL     1     -16.502 -27.706 -20.821  1.00  0.00     0.212 HD
ENDBRANCH  14  26
BRANCH  16  28
HETATM   28  O12 UNL     1     -15.153 -25.703 -17.918  1.00  0.00    -0.368 OA
ATOM     29  H12 UNL     1     -14.929 -25.937 -18.811  1.00  0.00     0.212 HD
ENDBRANCH  16  28
ENDBRANCH   1  11
BRANCH   4  30
HETATM   30  O4  UNL     1     -15.519 -26.862 -12.785  1.00  0.00    -0.376 OA
ATOM     31  H4  UNL     1     -14.573 -26.927 -12.850  1.00  0.00     0.211 HD
ENDBRANCH   4  30
BRANCH   4  32
HETATM   32  C11 UNL     1     -16.088 -24.709 -12.184  1.00  0.00     0.212 C 
HETATM   33  O5  UNL     1     -16.716 -24.978 -11.123  1.00  0.00    -0.646 OA
HETATM   34  O6  UNL     1     -15.495 -23.459 -12.253  1.00  0.00    -0.646 OA
ENDBRANCH   4  32
BRANCH   8  35
HETATM   35  C15 UNL     1     -20.312 -26.900 -11.710  1.00  0.00     0.005 C 
HETATM   36  C16 UNL     1     -19.569 -26.894 -10.618  1.00  0.00     0.006 C 
BRANCH  36  37
HETATM   37  C17 UNL     1     -20.216 -26.803  -9.292  1.00  0.00     0.176 C 
BRANCH  37  38
HETATM   38  O8  UNL     1     -21.114 -25.733  -9.338  1.00  0.00    -0.389 OA
ATOM     39  H8  UNL     1     -20.822 -25.146 -10.025  1.00  0.00     0.210 HD
ENDBRANCH  37  38
BRANCH  37  40
HETATM   40  C18 UNL     1     -19.196 -26.615  -8.188  1.00  0.00     0.104 C 
HETATM   41  C19 UNL     1     -17.902 -27.245  -8.591  1.00  0.00     0.051 C 
BRANCH  40  42
HETATM   42  O9  UNL     1     -19.720 -27.089  -7.008  1.00  0.00    -0.385 OA
ATOM     43  H9  UNL     1     -19.062 -27.018  -6.326  1.00  0.00     0.210 HD
ENDBRANCH  40  42
BRANCH  40  44
HETATM   44  C20 UNL     1     -18.962 -25.121  -8.067  1.00  0.00     0.204 C 
BRANCH  44  45
HETATM   45  O10 UNL     1     -19.577 -24.653  -6.910  1.00  0.00    -0.398 OA
ATOM     46  H10 UNL     1     -19.121 -25.000  -6.152  1.00  0.00     0.209 HD
ENDBRANCH  44  45
ENDBRANCH  40  44
ENDBRANCH  37  40
ENDBRANCH  36  37
ENDBRANCH   8  35
TORSDOF 16
ENDMDL
MODEL 4
REMARK VINA RESULT: -7.933178669      1.375      1.644
REMARK  16 active torsions:
REMARK  status: ('A' for Active; 'I' for Inactive)
REMARK    1  A    between atoms: C2_2  and  O2_7 
REMARK    2  A    between atoms: N1_3  and  O1_5 
REMARK    3  A    between atoms: O2_7  and  C3_8 
REMARK    4  A    between atoms: C3_8  and  C5_10 
REMARK    5  A    between atoms: C6_12  and  C7_13 
REMARK    6  A    between atoms: C10_16  and  O4_17 
REMARK    7  A    between atoms: C10_16  and  C11_19 
REMARK    8  A    between atoms: C14_25  and  C15_26 
REMARK    9  A    between atoms: C16_27  and  C17_28 
REMARK   10  A    between atoms: C17_28  and  O8_29 
REMARK   11  A    between atoms: C17_28  and  C18_31 
REMARK   12  A    between atoms: C18_31  and  O9_33 
REMARK   13  A    between atoms: C18_31  and  C20_35 
REMARK   14  A    between atoms: C20_35  and  O10_36 
REMARK   15  A    between atoms: C22_40  and  O12_41 
REMARK   16  A    between atoms: C23_44  and  O14_45 
ROOT
HETATM    1  C7  UNL     1     -17.205 -26.100 -12.635  1.00  0.00     0.060 C 
HETATM    2  C8  UNL     1     -15.762 -26.165 -12.174  1.00  0.00     0.014 C 
HETATM    3  C9  UNL     1     -15.089 -24.894 -12.546  1.00  0.00     0.053 C 
HETATM    4  C10 UNL     1     -15.793 -24.506 -13.818  1.00  0.00     0.179 C 
HETATM    5  C12 UNL     1     -17.159 -25.186 -13.760  1.00  0.00     0.129 C 
HETATM    6  C13 UNL     1     -17.410 -25.933 -15.087  1.00  0.00     0.211 C 
HETATM    7  O7  UNL     1     -18.784 -26.083 -15.308  1.00  0.00    -0.377 OA
HETATM    8  C14 UNL     1     -19.266 -24.860 -15.758  1.00  0.00     0.168 C 
HETATM    9  C21 UNL     1     -18.437 -23.786 -15.099  1.00  0.00     0.205 C 
HETATM   10  O11 UNL     1     -18.097 -24.172 -13.805  1.00  0.00    -0.371 OA
ENDROOT
BRANCH   1  11
HETATM   11  C6  UNL     1     -18.167 -25.924 -11.526  1.00  0.00     0.184 C 
HETATM   12  O3  UNL     1     -19.060 -26.985 -11.646  1.00  0.00    -0.368 OA
HETATM   13  C5  UNL     1     -19.903 -27.192 -10.607  1.00  0.00     0.206 C 
HETATM   14  C23 UNL     1     -19.891 -26.225  -9.491  1.00  0.00     0.291 C 
HETATM   15  O13 UNL     1     -18.813 -25.407  -9.371  1.00  0.00    -0.327 OA
HETATM   16  C22 UNL     1     -17.703 -25.850 -10.144  1.00  0.00     0.289 C 
BRANCH  13  17
HETATM   17  C3  UNL     1     -21.318 -27.403 -11.145  1.00  0.00     0.160 C 
HETATM   18  C4  UNL     1     -22.233 -26.332 -10.627  1.00  0.00     0.043 C 
BRANCH  17  19
HETATM   19  O2  UNL     1     -21.363 -27.582 -12.528  1.00  0.00    -0.330 OA
BRANCH  19  20
HETATM   20  C2  UNL     1     -21.017 -28.745 -13.199  1.00  0.00     0.133 C 
HETATM   21  C1  UNL     1     -21.858 -29.977 -13.053  1.00  0.00     0.099 C 
HETATM   22  N1  UNL     1     -19.973 -28.726 -13.932  1.00  0.00    -0.251 N 
ATOM     23  H1  UNL     1     -19.418 -27.874 -14.014  1.00  0.00     0.196 HD
BRANCH  22  24
HETATM   24  O1  UNL     1     -19.599 -29.867 -14.615  1.00  0.00    -0.288 OA
ATOM     25  H1  UNL     1     -19.360 -29.806 -15.532  1.00  0.00     0.244 HD
ENDBRANCH  22  24
ENDBRANCH  19  20
ENDBRANCH  17  19
ENDBRANCH  13  17
BRANCH  14  26
HETATM   26  O14 UNL     1     -20.070 -26.854  -8.235  1.00  0.00    -0.368 OA
ATOM     27  H14 UNL     1     -20.006 -26.240  -7.513  1.00  0.00     0.212 HD
ENDBRANCH  14  26
BRANCH  16  28
HETATM   28  O12 UNL     1     -17.323 -27.050  -9.562  1.00  0.00    -0.368 OA
ATOM     29  H12 UNL     1     -16.389 -27.190  -9.463  1.00  0.00     0.212 HD
ENDBRANCH  16  28
ENDBRANCH   1  11
BRANCH   4  30
HETATM   30  O4  UNL     1     -15.909 -23.114 -13.912  1.00  0.00    -0.376 OA
ATOM     31  H4  UNL     1     -15.897 -22.719 -13.048  1.00  0.00     0.211 HD
ENDBRANCH   4  30
BRANCH   4  32
HETATM   32  C11 UNL     1     -14.964 -24.948 -14.944  1.00  0.00     0.212 C 
HETATM   33  O5  UNL     1     -14.708 -24.223 -15.944  1.00  0.00    -0.646 OA
HETATM   34  O6  UNL     1     -14.416 -26.220 -14.943  1.00  0.00    -0.646 OA
ENDBRANCH   4  32
BRANCH   8  35
HETATM   35  C15 UNL     1     -19.152 -24.707 -17.239  1.00  0.00     0.005 C 
HETATM   36  C16 UNL     1     -18.563 -23.664 -17.796  1.00  0.00     0.006 C 
BRANCH  36  37
HETATM   37  C17 UNL     1     -18.483 -23.568 -19.269  1.00  0.00     0.176 C 
BRANCH  37  38
HETATM   38  O8  UNL     1     -17.129 -23.499 -19.610  1.00  0.00    -0.389 OA
ATOM     39  H8  UNL     1     -16.888 -24.337 -19.989  1.00  0.00     0.210 HD
ENDBRANCH  37  38
BRANCH  37  40
HETATM   40  C18 UNL     1     -19.240 -22.363 -19.789  1.00  0.00     0.104 C 
HETATM   41  C19 UNL     1     -20.581 -22.793 -20.287  1.00  0.00     0.051 C 
BRANCH  40  42
HETATM   42  O9  UNL     1     -18.464 -21.715 -20.723  1.00  0.00    -0.385 OA
ATOM     43  H9  UNL     1     -18.953 -20.982 -21.077  1.00  0.00     0.210 HD
ENDBRANCH  40  42
BRANCH  40  44
HETATM   44  C20 UNL     1     -19.462 -21.447 -18.600  1.00  0.00     0.204 C 
BRANCH  44  45
HETATM   45  O10 UNL     1     -18.278 -20.775 -18.313  1.00  0.00    -0.398 OA
ATOM     46  H10 UNL     1     -18.135 -20.783 -17.374  1.00  0.00     0.209 HD
ENDBRANCH  44  45
ENDBRANCH  40  44
ENDBRANCH  37  40
ENDBRANCH  36  37
ENDBRANCH   8  35
TORSDOF 16
ENDMDL
MODEL 5
REMARK VINA RESULT: -7.726003290      2.840      8.083
REMARK  16 active torsions:
REMARK  status: ('A' for Active; 'I' for Inactive)
REMARK    1  A    between atoms: C2_2  and  O2_7 
REMARK    2  A    between atoms: N1_3  and  O1_5 
REMARK    3  A    between atoms: O2_7  and  C3_8 
REMARK    4  A    between atoms: C3_8  and  C5_10 
REMARK    5  A    between atoms: C6_12  and  C7_13 
REMARK    6  A    between atoms: C10_16  and  O4_17 
REMARK    7  A    between atoms: C10_16  and  C11_19 
REMARK    8  A    between atoms: C14_25  and  C15_26 
REMARK    9  A    between atoms: C16_27  and  C17_28 
REMARK   10  A    between atoms: C17_28  and  O8_29 
REMARK   11  A    between atoms: C17_28  and  C18_31 
REMARK   12  A    between atoms: C18_31  and  O9_33 
REMARK   13  A    between atoms: C18_31  and  C20_35 
REMARK   14  A    between atoms: C20_35  and  O10_36 
REMARK   15  A    between atoms: C22_40  and  O12_41 
REMARK   16  A    between atoms: C23_44  and  O14_45 
ROOT
HETATM    1  C7  UNL     1     -16.357 -24.706 -16.009  1.00  0.00     0.060 C 
HETATM    2  C8  UNL     1     -15.859 -25.644 -17.091  1.00  0.00     0.014 C 
HETATM    3  C9  UNL     1     -16.697 -26.871 -17.077  1.00  0.00     0.053 C 
HETATM    4  C10 UNL     1     -17.062 -27.005 -15.623  1.00  0.00     0.179 C 
HETATM    5  C12 UNL     1     -16.955 -25.600 -15.036  1.00  0.00     0.129 C 
HETATM    6  C13 UNL     1     -16.110 -25.652 -13.745  1.00  0.00     0.211 C 
HETATM    7  O7  UNL     1     -16.434 -24.579 -12.908  1.00  0.00    -0.377 OA
HETATM    8  C14 UNL     1     -17.638 -24.890 -12.285  1.00  0.00     0.168 C 
HETATM    9  C21 UNL     1     -18.438 -25.721 -13.255  1.00  0.00     0.205 C 
HETATM   10  O11 UNL     1     -18.213 -25.284 -14.558  1.00  0.00    -0.371 OA
ENDROOT
BRANCH   1  11
HETATM   11  C6  UNL     1     -17.085 -23.533 -16.540  1.00  0.00     0.184 C 
HETATM   12  O3  UNL     1     -18.341 -24.015 -16.898  1.00  0.00    -0.368 OA
HETATM   13  C5  UNL     1     -19.286 -23.091 -17.192  1.00  0.00     0.206 C 
HETATM   14  C23 UNL     1     -18.891 -21.668 -17.220  1.00  0.00     0.291 C 
HETATM   15  O13 UNL     1     -17.732 -21.318 -16.603  1.00  0.00    -0.327 OA
HETATM   16  C22 UNL     1     -17.252 -22.332 -15.727  1.00  0.00     0.289 C 
BRANCH  13  17
HETATM   17  C3  UNL     1     -19.999 -23.496 -18.482  1.00  0.00     0.160 C 
HETATM   18  C4  UNL     1     -19.958 -24.986 -18.649  1.00  0.00     0.043 C 
BRANCH  17  19
HETATM   19  O2  UNL     1     -21.270 -22.936 -18.610  1.00  0.00    -0.330 OA
BRANCH  19  20
HETATM   20  C2  UNL     1     -22.111 -23.095 -19.702  1.00  0.00     0.133 C 
HETATM   21  C1  UNL     1     -23.290 -24.016 -19.617  1.00  0.00     0.099 C 
HETATM   22  N1  UNL     1     -21.846 -22.438 -20.763  1.00  0.00    -0.251 N 
ATOM     23  H1  UNL     1     -21.037 -21.818 -20.796  1.00  0.00     0.196 HD
BRANCH  22  24
HETATM   24  O1  UNL     1     -22.662 -22.572 -21.869  1.00  0.00    -0.288 OA
ATOM     25  H1  UNL     1     -23.388 -23.185 -21.843  1.00  0.00     0.244 HD
ENDBRANCH  22  24
ENDBRANCH  19  20
ENDBRANCH  17  19
ENDBRANCH  13  17
BRANCH  14  26
HETATM   26  O14 UNL     1     -19.902 -20.821 -16.704  1.00  0.00    -0.368 OA
ATOM     27  H14 UNL     1     -20.448 -21.262 -16.064  1.00  0.00     0.212 HD
ENDBRANCH  14  26
BRANCH  16  28
HETATM   28  O12 UNL     1     -18.201 -22.404 -14.718  1.00  0.00    -0.368 OA
ATOM     29  H12 UNL     1     -17.874 -22.611 -13.850  1.00  0.00     0.212 HD
ENDBRANCH  16  28
ENDBRANCH   1  11
BRANCH   4  30
HETATM   30  O4  UNL     1     -18.354 -27.529 -15.486  1.00  0.00    -0.376 OA
ATOM     31  H4  UNL     1     -18.334 -28.338 -14.988  1.00  0.00     0.211 HD
ENDBRANCH   4  30
BRANCH   4  32
HETATM   32  C11 UNL     1     -16.139 -27.968 -15.015  1.00  0.00     0.212 C 
HETATM   33  O5  UNL     1     -16.444 -28.696 -14.031  1.00  0.00    -0.646 OA
HETATM   34  O6  UNL     1     -14.858 -28.113 -15.521  1.00  0.00    -0.646 OA
ENDBRANCH   4  32
BRANCH   8  35
HETATM   35  C15 UNL     1     -17.449 -25.674 -11.029  1.00  0.00     0.005 C 
HETATM   36  C16 UNL     1     -17.982 -25.300  -9.879  1.00  0.00     0.006 C 
BRANCH  36  37
HETATM   37  C17 UNL     1     -17.759 -26.119  -8.669  1.00  0.00     0.176 C 
BRANCH  37  38
HETATM   38  O8  UNL     1     -17.544 -27.435  -9.088  1.00  0.00    -0.389 OA
ATOM     39  H8  UNL     1     -17.698 -28.000  -8.341  1.00  0.00     0.210 HD
ENDBRANCH  37  38
BRANCH  37  40
HETATM   40  C18 UNL     1     -18.934 -26.033  -7.716  1.00  0.00     0.104 C 
HETATM   41  C19 UNL     1     -18.936 -27.227  -6.818  1.00  0.00     0.051 C 
BRANCH  40  42
HETATM   42  O9  UNL     1     -20.089 -25.863  -8.444  1.00  0.00    -0.385 OA
ATOM     43  H9  UNL     1     -20.691 -25.321  -7.948  1.00  0.00     0.210 HD
ENDBRANCH  40  42
BRANCH  40  44
HETATM   44  C20 UNL     1     -18.702 -24.808  -6.853  1.00  0.00     0.204 C 
BRANCH  44  45
HETATM   45  O10 UNL     1     -19.929 -24.245  -6.517  1.00  0.00    -0.398 OA
ATOM     46  H10 UNL     1     -19.806 -23.633  -5.801  1.00  0.00     0.209 HD
ENDBRANCH  44  45
ENDBRANCH  40  44
ENDBRANCH  37  40
ENDBRANCH  36  37
ENDBRANCH   8  35
TORSDOF 16
ENDMDL
