MODEL 1
REMARK VINA RESULT: -8.518040932      0.000      0.000
REMARK  16 active torsions:
REMARK  status: ('A' for Active; 'I' for Inactive)
REMARK    1  A    between atoms: C2_2  and  O1_3 
REMARK    2  A    between atoms: C2_2  and  C3_5 
REMARK       I    between atoms: C3_5  and  N1_7 
REMARK    3  A    between atoms: N1_7  and  C4_9 
REMARK    4  A    between atoms: C4_9  and  C5_10 
REMARK    5  A    between atoms: C4_9  and  C16_29 
REMARK       I    between atoms: C5_10  and  N2_12 
REMARK    6  A    between atoms: N2_12  and  O4_14 
REMARK    7  A    between atoms: O4_14  and  C6_15 
REMARK    8  A    between atoms: C6_15  and  C7_17 
REMARK       I    between atoms: N3_21  and  C11_22 
REMARK    9  A    between atoms: C11_22  and  O7_24 
REMARK   10  A    between atoms: O7_24  and  C12_25 
REMARK   11  A    between atoms: C16_29  and  C17_31 
REMARK   12  A    between atoms: C17_31  and  O9_32 
REMARK   13  A    between atoms: C17_31  and  C18_34 
REMARK   14  A    between atoms: C19_36  and  O11_37 
REMARK   15  A    between atoms: C20_39  and  O12_40 
REMARK   16  A    between atoms: C21_42  and  O13_43 
ROOT
HETATM    1  C4  UNL     1     -19.475 -25.908  -9.178  1.00  0.00     0.252 C 
ENDROOT
BRANCH   1   2
HETATM    2  N1  UNL     1     -20.251 -27.067  -9.606  1.00  0.00    -0.339 N 
HETATM    3  C3  UNL     1     -21.583 -26.944 -10.059  1.00  0.00     0.247 C 
HETATM    4  O2  UNL     1     -22.105 -25.804 -10.089  1.00  0.00    -0.271 OA
ATOM      5  H1  UNL     1     -19.820 -27.991  -9.578  1.00  0.00     0.163 HD
BRANCH   3   6
HETATM    6  C2  UNL     1     -22.385 -28.102 -10.495  1.00  0.00     0.206 C 
HETATM    7  C1  UNL     1     -21.749 -28.884 -11.593  1.00  0.00     0.049 C 
BRANCH   6   8
HETATM    8  O1  UNL     1     -22.590 -28.941  -9.394  1.00  0.00    -0.387 OA
ATOM      9  H1  UNL     1     -22.625 -28.415  -8.604  1.00  0.00     0.210 HD
ENDBRANCH   6   8
ENDBRANCH   3   6
ENDBRANCH   1   2
BRANCH   1  10
HETATM   10  C5  UNL     1     -18.192 -25.906  -9.899  1.00  0.00     0.272 C 
HETATM   11  O3  UNL     1     -17.525 -27.001  -9.975  1.00  0.00    -0.269 OA
HETATM   12  N2  UNL     1     -17.633 -24.772 -10.519  1.00  0.00    -0.224 N 
ATOM     13  H2  UNL     1     -18.141 -23.888 -10.481  1.00  0.00     0.198 HD
BRANCH  12  14
HETATM   14  O4  UNL     1     -16.433 -24.815 -11.172  1.00  0.00    -0.195 OA
BRANCH  14  15
HETATM   15  C6  UNL     1     -16.142 -24.179 -12.355  1.00  0.00     0.304 C 
HETATM   16  O5  UNL     1     -15.382 -23.177 -12.330  1.00  0.00    -0.261 OA
BRANCH  15  17
HETATM   17  C7  UNL     1     -16.704 -24.647 -13.660  1.00  0.00     0.191 C 
HETATM   18  C8  UNL     1     -15.805 -24.146 -14.781  1.00  0.00     0.037 C 
HETATM   19  C9  UNL     1     -14.912 -25.306 -15.141  1.00  0.00     0.022 C 
HETATM   20  C10 UNL     1     -15.291 -26.413 -14.150  1.00  0.00     0.129 C 
HETATM   21  N3  UNL     1     -16.635 -26.084 -13.746  1.00  0.00    -0.314 N 
HETATM   22  C11 UNL     1     -17.692 -26.983 -13.485  1.00  0.00     0.364 C 
HETATM   23  O6  UNL     1     -18.841 -26.626 -13.138  1.00  0.00    -0.238 OA
BRANCH  22  24
HETATM   24  O7  UNL     1     -17.487 -28.357 -13.608  1.00  0.00    -0.294 OA
BRANCH  24  25
HETATM   25  C12 UNL     1     -17.897 -29.089 -14.736  1.00  0.00     0.061 C 
HETATM   26  C13 UNL     1     -19.174 -29.843 -14.530  1.00  0.00     0.046 C 
HETATM   27  C14 UNL     1     -18.067 -28.210 -15.960  1.00  0.00     0.046 C 
HETATM   28  C15 UNL     1     -16.800 -30.095 -15.035  1.00  0.00     0.046 C 
ENDBRANCH  24  25
ENDBRANCH  22  24
ENDBRANCH  15  17
ENDBRANCH  14  15
ENDBRANCH  12  14
ENDBRANCH   1  10
BRANCH   1  29
HETATM   29  C16 UNL     1     -19.145 -26.062  -7.721  1.00  0.00     0.193 C 
HETATM   30  O8  UNL     1     -19.162 -27.196  -7.279  1.00  0.00    -0.292 OA
BRANCH  29  31
HETATM   31  C17 UNL     1     -18.819 -24.882  -6.886  1.00  0.00     0.250 C 
BRANCH  31  32
HETATM   32  O9  UNL     1     -19.953 -24.214  -6.447  1.00  0.00    -0.381 OA
ATOM     33  H9  UNL     1     -19.747 -23.498  -5.857  1.00  0.00     0.211 HD
ENDBRANCH  31  32
BRANCH  31  34
HETATM   34  C18 UNL     1     -18.028 -25.266  -5.693  1.00  0.00     0.128 A 
HETATM   35  O10 UNL     1     -17.116 -26.235  -5.689  1.00  0.00    -0.284 OA
HETATM   36  C19 UNL     1     -16.583 -26.339  -4.481  1.00  0.00     0.220 A 
HETATM   37  C20 UNL     1     -17.157 -25.409  -3.641  1.00  0.00     0.160 A 
HETATM   38  C21 UNL     1     -18.069 -24.737  -4.419  1.00  0.00     0.137 A 
BRANCH  36  39
HETATM   39  O11 UNL     1     -15.591 -27.230  -4.057  1.00  0.00    -0.339 OA
ATOM     40  H11 UNL     1     -15.610 -27.802  -3.299  1.00  0.00     0.220 HD
ENDBRANCH  36  39
BRANCH  37  41
HETATM   41  O12 UNL     1     -16.877 -25.193  -2.297  1.00  0.00    -0.354 OA
ATOM     42  H12 UNL     1     -16.379 -24.480  -1.916  1.00  0.00     0.218 HD
ENDBRANCH  37  41
BRANCH  38  43
HETATM   43  O13 UNL     1     -18.903 -23.700  -4.026  1.00  0.00    -0.356 OA
ATOM     44  H13 UNL     1     -19.321 -23.639  -3.175  1.00  0.00     0.218 HD
ENDBRANCH  38  43
ENDBRANCH  31  34
ENDBRANCH  29  31
ENDBRANCH   1  29
TORSDOF 16
ENDMDL
MODEL 2
REMARK VINA RESULT: -8.460963163      3.641      6.597
REMARK  16 active torsions:
REMARK  status: ('A' for Active; 'I' for Inactive)
REMARK    1  A    between atoms: C2_2  and  O1_3 
REMARK    2  A    between atoms: C2_2  and  C3_5 
REMARK       I    between atoms: C3_5  and  N1_7 
REMARK    3  A    between atoms: N1_7  and  C4_9 
REMARK    4  A    between atoms: C4_9  and  C5_10 
REMARK    5  A    between atoms: C4_9  and  C16_29 
REMARK       I    between atoms: C5_10  and  N2_12 
REMARK    6  A    between atoms: N2_12  and  O4_14 
REMARK    7  A    between atoms: O4_14  and  C6_15 
REMARK    8  A    between atoms: C6_15  and  C7_17 
REMARK       I    between atoms: N3_21  and  C11_22 
REMARK    9  A    between atoms: C11_22  and  O7_24 
REMARK   10  A    between atoms: O7_24  and  C12_25 
REMARK   11  A    between atoms: C16_29  and  C17_31 
REMARK   12  A    between atoms: C17_31  and  O9_32 
REMARK   13  A    between atoms: C17_31  and  C18_34 
REMARK   14  A    between atoms: C19_36  and  O11_37 
REMARK   15  A    between atoms: C20_39  and  O12_40 
REMARK   16  A    between atoms: C21_42  and  O13_43 
ROOT
HETATM    1  C4  UNL     1     -17.589 -26.272 -11.580  1.00  0.00     0.252 C 
ENDROOT
BRANCH   1   2
HETATM    2  N1  UNL     1     -18.272 -25.846 -10.363  1.00  0.00    -0.339 N 
HETATM    3  C3  UNL     1     -18.116 -26.537  -9.141  1.00  0.00     0.247 C 
HETATM    4  O2  UNL     1     -17.369 -27.544  -9.111  1.00  0.00    -0.271 OA
ATOM      5  H1  UNL     1     -18.879 -25.027 -10.395  1.00  0.00     0.163 HD
BRANCH   3   6
HETATM    6  C2  UNL     1     -18.798 -26.124  -7.901  1.00  0.00     0.206 C 
HETATM    7  C1  UNL     1     -18.867 -27.203  -6.876  1.00  0.00     0.049 C 
BRANCH   6   8
HETATM    8  O1  UNL     1     -18.118 -25.024  -7.364  1.00  0.00    -0.387 OA
ATOM      9  H1  UNL     1     -17.245 -24.986  -7.736  1.00  0.00     0.210 HD
ENDBRANCH   6   8
ENDBRANCH   3   6
ENDBRANCH   1   2
BRANCH   1  10
HETATM   10  C5  UNL     1     -17.141 -25.077 -12.313  1.00  0.00     0.272 C 
HETATM   11  O3  UNL     1     -16.430 -24.204 -11.695  1.00  0.00    -0.269 OA
HETATM   12  N2  UNL     1     -17.443 -24.816 -13.664  1.00  0.00    -0.224 N 
ATOM     13  H2  UNL     1     -18.003 -25.492 -14.183  1.00  0.00     0.198 HD
BRANCH  12  14
HETATM   14  O4  UNL     1     -17.012 -23.687 -14.302  1.00  0.00    -0.195 OA
BRANCH  14  15
HETATM   15  C6  UNL     1     -17.746 -22.943 -15.194  1.00  0.00     0.304 C 
HETATM   16  O5  UNL     1     -18.519 -22.056 -14.750  1.00  0.00    -0.261 OA
BRANCH  15  17
HETATM   17  C7  UNL     1     -17.646 -23.163 -16.671  1.00  0.00     0.191 C 
HETATM   18  C8  UNL     1     -16.896 -24.464 -16.917  1.00  0.00     0.037 C 
HETATM   19  C9  UNL     1     -17.956 -25.505 -17.179  1.00  0.00     0.022 C 
HETATM   20  C10 UNL     1     -19.286 -24.763 -16.999  1.00  0.00     0.129 C 
HETATM   21  N3  UNL     1     -18.955 -23.379 -17.233  1.00  0.00    -0.314 N 
HETATM   22  C11 UNL     1     -19.748 -22.411 -17.887  1.00  0.00     0.364 C 
HETATM   23  O6  UNL     1     -19.396 -21.221 -18.058  1.00  0.00    -0.238 OA
BRANCH  22  24
HETATM   24  O7  UNL     1     -21.003 -22.758 -18.387  1.00  0.00    -0.294 OA
BRANCH  24  25
HETATM   25  C12 UNL     1     -21.210 -23.149 -19.721  1.00  0.00     0.061 C 
HETATM   26  C13 UNL     1     -21.357 -21.999 -20.668  1.00  0.00     0.046 C 
HETATM   27  C14 UNL     1     -20.094 -24.038 -20.237  1.00  0.00     0.046 C 
HETATM   28  C15 UNL     1     -22.497 -23.953 -19.754  1.00  0.00     0.046 C 
ENDBRANCH  24  25
ENDBRANCH  22  24
ENDBRANCH  15  17
ENDBRANCH  14  15
ENDBRANCH  12  14
ENDBRANCH   1  10
BRANCH   1  29
HETATM   29  C16 UNL     1     -18.577 -26.972 -12.467  1.00  0.00     0.193 C 
HETATM   30  O8  UNL     1     -18.167 -27.947 -13.071  1.00  0.00    -0.292 OA
BRANCH  29  31
HETATM   31  C17 UNL     1     -19.971 -26.484 -12.588  1.00  0.00     0.250 C 
BRANCH  31  32
HETATM   32  O9  UNL     1     -20.306 -26.153 -13.892  1.00  0.00    -0.381 OA
ATOM     33  H9  UNL     1     -21.197 -25.831 -13.968  1.00  0.00     0.211 HD
ENDBRANCH  31  32
BRANCH  31  34
HETATM   34  C18 UNL     1     -20.942 -27.498 -12.113  1.00  0.00     0.128 A 
HETATM   35  O10 UNL     1     -21.306 -28.564 -12.823  1.00  0.00    -0.284 OA
HETATM   36  C19 UNL     1     -22.183 -29.278 -12.133  1.00  0.00     0.220 A 
HETATM   37  C20 UNL     1     -22.418 -28.673 -10.917  1.00  0.00     0.160 A 
HETATM   38  C21 UNL     1     -21.627 -27.548 -10.917  1.00  0.00     0.137 A 
BRANCH  36  39
HETATM   39  O11 UNL     1     -22.810 -30.468 -12.518  1.00  0.00    -0.339 OA
ATOM     40  H11 UNL     1     -23.315 -31.061 -11.975  1.00  0.00     0.220 HD
ENDBRANCH  36  39
BRANCH  37  41
HETATM   41  O12 UNL     1     -23.269 -29.102  -9.906  1.00  0.00    -0.354 OA
ATOM     42  H12 UNL     1     -23.267 -29.943  -9.465  1.00  0.00     0.218 HD
ENDBRANCH  37  41
BRANCH  38  43
HETATM   43  O13 UNL     1     -21.512 -26.605  -9.906  1.00  0.00    -0.356 OA
ATOM     44  H13 UNL     1     -20.993 -26.720  -9.119  1.00  0.00     0.218 HD
ENDBRANCH  38  43
ENDBRANCH  31  34
ENDBRANCH  29  31
ENDBRANCH   1  29
TORSDOF 16
ENDMDL
MODEL 3
REMARK VINA RESULT: -8.400176825      2.121      6.222
REMARK  16 active torsions:
REMARK  status: ('A' for Active; 'I' for Inactive)
REMARK    1  A    between atoms: C2_2  and  O1_3 
REMARK    2  A    between atoms: C2_2  and  C3_5 
REMARK       I    between atoms: C3_5  and  N1_7 
REMARK    3  A    between atoms: N1_7  and  C4_9 
REMARK    4  A    between atoms: C4_9  and  C5_10 
REMARK    5  A    between atoms: C4_9  and  C16_29 
REMARK       I    between atoms: C5_10  and  N2_12 
REMARK    6  A    between atoms: N2_12  and  O4_14 
REMARK    7  A    between atoms: O4_14  and  C6_15 
REMARK    8  A    between atoms: C6_15  and  C7_17 
REMARK       I    between atoms: N3_21  and  C11_22 
REMARK    9  A    between atoms: C11_22  and  O7_24 
REMARK   10  A    between atoms: O7_24  and  C12_25 
REMARK   11  A    between atoms: C16_29  and  C17_31 
REMARK   12  A    between atoms: C17_31  and  O9_32 
REMARK   13  A    between atoms: C17_31  and  C18_34 
REMARK   14  A    between atoms: C19_36  and  O11_37 
REMARK   15  A    between atoms: C20_39  and  O12_40 
REMARK   16  A    between atoms: C21_42  and  O13_43 
ROOT
HETATM    1  C4  UNL     1     -18.763 -26.685  -9.810  1.00  0.00     0.252 C 
ENDROOT
BRANCH   1   2
HETATM    2  N1  UNL     1     -19.030 -25.784  -8.693  1.00  0.00    -0.339 N 
HETATM    3  C3  UNL     1     -18.770 -26.159  -7.357  1.00  0.00     0.247 C 
HETATM    4  O2  UNL     1     -18.298 -27.300  -7.134  1.00  0.00    -0.271 OA
ATOM      5  H1  UNL     1     -19.415 -24.859  -8.883  1.00  0.00     0.163 HD
BRANCH   3   6
HETATM    6  C2  UNL     1     -19.033 -25.265  -6.215  1.00  0.00     0.206 C 
HETATM    7  C1  UNL     1     -17.794 -24.727  -5.586  1.00  0.00     0.049 C 
BRANCH   6   8
HETATM    8  O1  UNL     1     -19.824 -24.198  -6.657  1.00  0.00    -0.387 OA
ATOM      9  H1  UNL     1     -20.183 -24.410  -7.511  1.00  0.00     0.210 HD
ENDBRANCH   6   8
ENDBRANCH   3   6
ENDBRANCH   1   2
BRANCH   1  10
HETATM   10  C5  UNL     1     -17.697 -26.104 -10.642  1.00  0.00     0.272 C 
HETATM   11  O3  UNL     1     -17.293 -24.912 -10.383  1.00  0.00    -0.269 OA
HETATM   12  N2  UNL     1     -17.081 -26.768 -11.720  1.00  0.00    -0.224 N 
ATOM     13  H2  UNL     1     -17.377 -27.717 -11.948  1.00  0.00     0.198 HD
BRANCH  12  14
HETATM   14  O4  UNL     1     -16.100 -26.184 -12.471  1.00  0.00    -0.195 OA
BRANCH  14  15
HETATM   15  C6  UNL     1     -15.004 -26.828 -12.996  1.00  0.00     0.304 C 
HETATM   16  O5  UNL     1     -14.291 -27.526 -12.231  1.00  0.00    -0.261 OA
BRANCH  15  17
HETATM   17  C7  UNL     1     -14.645 -26.717 -14.444  1.00  0.00     0.191 C 
HETATM   18  C8  UNL     1     -14.622 -28.115 -15.045  1.00  0.00     0.037 C 
HETATM   19  C9  UNL     1     -15.949 -28.284 -15.740  1.00  0.00     0.022 C 
HETATM   20  C10 UNL     1     -16.715 -26.989 -15.443  1.00  0.00     0.129 C 
HETATM   21  N3  UNL     1     -15.682 -26.022 -15.164  1.00  0.00    -0.314 N 
HETATM   22  C11 UNL     1     -15.673 -24.657 -15.521  1.00  0.00     0.364 C 
HETATM   23  O6  UNL     1     -14.737 -23.870 -15.247  1.00  0.00    -0.238 OA
BRANCH  22  24
HETATM   24  O7  UNL     1     -16.748 -24.110 -16.223  1.00  0.00    -0.294 OA
BRANCH  24  25
HETATM   25  C12 UNL     1     -17.808 -23.440 -15.590  1.00  0.00     0.061 C 
HETATM   26  C13 UNL     1     -17.681 -23.388 -14.099  1.00  0.00     0.046 C 
HETATM   27  C14 UNL     1     -17.971 -22.019 -16.094  1.00  0.00     0.046 C 
HETATM   28  C15 UNL     1     -19.078 -24.201 -15.927  1.00  0.00     0.046 C 
ENDBRANCH  24  25
ENDBRANCH  22  24
ENDBRANCH  15  17
ENDBRANCH  14  15
ENDBRANCH  12  14
ENDBRANCH   1  10
BRANCH   1  29
HETATM   29  C16 UNL     1     -19.988 -26.755 -10.675  1.00  0.00     0.193 C 
HETATM   30  O8  UNL     1     -19.856 -26.397 -11.831  1.00  0.00    -0.292 OA
BRANCH  29  31
HETATM   31  C17 UNL     1     -21.279 -27.237 -10.130  1.00  0.00     0.250 C 
BRANCH  31  32
HETATM   32  O9  UNL     1     -22.185 -26.207  -9.923  1.00  0.00    -0.381 OA
ATOM     33  H9  UNL     1     -22.569 -26.231  -9.055  1.00  0.00     0.211 HD
ENDBRANCH  31  32
BRANCH  31  34
HETATM   34  C18 UNL     1     -21.914 -28.224 -11.035  1.00  0.00     0.128 A 
HETATM   35  O10 UNL     1     -21.470 -28.500 -12.259  1.00  0.00    -0.284 OA
HETATM   36  C19 UNL     1     -22.244 -29.419 -12.816  1.00  0.00     0.220 A 
HETATM   37  C20 UNL     1     -23.245 -29.775 -11.937  1.00  0.00     0.160 A 
HETATM   38  C21 UNL     1     -23.025 -29.012 -10.815  1.00  0.00     0.137 A 
BRANCH  36  39
HETATM   39  O11 UNL     1     -22.121 -29.983 -14.091  1.00  0.00    -0.339 OA
ATOM     40  H11 UNL     1     -22.703 -29.872 -14.833  1.00  0.00     0.220 HD
ENDBRANCH  36  39
BRANCH  37  41
HETATM   41  O12 UNL     1     -24.259 -30.703 -12.137  1.00  0.00    -0.354 OA
ATOM     42  H12 UNL     1     -25.136 -30.692 -11.773  1.00  0.00     0.218 HD
ENDBRANCH  37  41
BRANCH  38  43
HETATM   43  O13 UNL     1     -23.770 -29.009  -9.645  1.00  0.00    -0.356 OA
ATOM     44  H13 UNL     1     -24.629 -29.403  -9.553  1.00  0.00     0.218 HD
ENDBRANCH  38  43
ENDBRANCH  31  34
ENDBRANCH  29  31
ENDBRANCH   1  29
TORSDOF 16
ENDMDL
MODEL 4
REMARK VINA RESULT: -8.316007489      1.722      3.058
REMARK  16 active torsions:
REMARK  status: ('A' for Active; 'I' for Inactive)
REMARK    1  A    between atoms: C2_2  and  O1_3 
REMARK    2  A    between atoms: C2_2  and  C3_5 
REMARK       I    between atoms: C3_5  and  N1_7 
REMARK    3  A    between atoms: N1_7  and  C4_9 
REMARK    4  A    between atoms: C4_9  and  C5_10 
REMARK    5  A    between atoms: C4_9  and  C16_29 
REMARK       I    between atoms: C5_10  and  N2_12 
REMARK    6  A    between atoms: N2_12  and  O4_14 
REMARK    7  A    between atoms: O4_14  and  C6_15 
REMARK    8  A    between atoms: C6_15  and  C7_17 
REMARK       I    between atoms: N3_21  and  C11_22 
REMARK    9  A    between atoms: C11_22  and  O7_24 
REMARK   10  A    between atoms: O7_24  and  C12_25 
REMARK   11  A    between atoms: C16_29  and  C17_31 
REMARK   12  A    between atoms: C17_31  and  O9_32 
REMARK   13  A    between atoms: C17_31  and  C18_34 
REMARK   14  A    between atoms: C19_36  and  O11_37 
REMARK   15  A    between atoms: C20_39  and  O12_40 
REMARK   16  A    between atoms: C21_42  and  O13_43 
ROOT
HETATM    1  C4  UNL     1     -19.364 -25.800  -9.748  1.00  0.00     0.252 C 
ENDROOT
BRANCH   1   2
HETATM    2  N1  UNL     1     -20.161 -26.926 -10.223  1.00  0.00    -0.339 N 
HETATM    3  C3  UNL     1     -21.568 -26.851 -10.324  1.00  0.00     0.247 C 
HETATM    4  O2  UNL     1     -22.139 -25.784  -9.993  1.00  0.00    -0.271 OA
ATOM      5  H1  UNL     1     -19.690 -27.790 -10.489  1.00  0.00     0.163 HD
BRANCH   3   6
HETATM    6  C2  UNL     1     -22.392 -27.977 -10.800  1.00  0.00     0.206 C 
HETATM    7  C1  UNL     1     -21.694 -28.845 -11.791  1.00  0.00     0.049 C 
BRANCH   6   8
HETATM    8  O1  UNL     1     -22.768 -28.751  -9.696  1.00  0.00    -0.387 OA
ATOM      9  H1  UNL     1     -21.990 -29.118  -9.294  1.00  0.00     0.210 HD
ENDBRANCH   6   8
ENDBRANCH   3   6
ENDBRANCH   1   2
BRANCH   1  10
HETATM   10  C5  UNL     1     -18.047 -25.844 -10.402  1.00  0.00     0.272 C 
HETATM   11  O3  UNL     1     -17.177 -24.948 -10.102  1.00  0.00    -0.269 OA
HETATM   12  N2  UNL     1     -17.665 -26.812 -11.352  1.00  0.00    -0.224 N 
ATOM     13  H2  UNL     1     -18.332 -27.540 -11.609  1.00  0.00     0.198 HD
BRANCH  12  14
HETATM   14  O4  UNL     1     -16.431 -26.809 -11.941  1.00  0.00    -0.195 OA
BRANCH  14  15
HETATM   15  C6  UNL     1     -16.174 -27.093 -13.260  1.00  0.00     0.304 C 
HETATM   16  O5  UNL     1     -16.150 -28.296 -13.626  1.00  0.00    -0.261 OA
BRANCH  15  17
HETATM   17  C7  UNL     1     -15.923 -26.012 -14.264  1.00  0.00     0.191 C 
HETATM   18  C8  UNL     1     -15.497 -26.658 -15.575  1.00  0.00     0.037 C 
HETATM   19  C9  UNL     1     -16.735 -26.696 -16.434  1.00  0.00     0.022 C 
HETATM   20  C10 UNL     1     -17.848 -26.131 -15.543  1.00  0.00     0.129 C 
HETATM   21  N3  UNL     1     -17.151 -25.323 -14.573  1.00  0.00    -0.314 N 
HETATM   22  C11 UNL     1     -17.574 -24.094 -14.025  1.00  0.00     0.364 C 
HETATM   23  O6  UNL     1     -16.913 -23.441 -13.183  1.00  0.00    -0.238 OA
BRANCH  22  24
HETATM   24  O7  UNL     1     -18.791 -23.536 -14.415  1.00  0.00    -0.294 OA
BRANCH  24  25
HETATM   25  C12 UNL     1     -18.889 -22.534 -15.397  1.00  0.00     0.061 C 
HETATM   26  C13 UNL     1     -19.579 -21.294 -14.921  1.00  0.00     0.046 C 
HETATM   27  C14 UNL     1     -17.533 -22.133 -15.945  1.00  0.00     0.046 C 
HETATM   28  C15 UNL     1     -19.700 -23.113 -16.542  1.00  0.00     0.046 C 
ENDBRANCH  24  25
ENDBRANCH  22  24
ENDBRANCH  15  17
ENDBRANCH  14  15
ENDBRANCH  12  14
ENDBRANCH   1  10
BRANCH   1  29
HETATM   29  C16 UNL     1     -19.116 -25.971  -8.277  1.00  0.00     0.193 C 
HETATM   30  O8  UNL     1     -19.094 -27.116  -7.862  1.00  0.00    -0.292 OA
BRANCH  29  31
HETATM   31  C17 UNL     1     -18.913 -24.797  -7.397  1.00  0.00     0.250 C 
BRANCH  31  32
HETATM   32  O9  UNL     1     -20.106 -24.176  -7.058  1.00  0.00    -0.381 OA
ATOM     33  H9  UNL     1     -20.266 -24.184  -6.122  1.00  0.00     0.211 HD
ENDBRANCH  31  32
BRANCH  31  34
HETATM   34  C18 UNL     1     -18.226 -25.177  -6.140  1.00  0.00     0.128 A 
HETATM   35  O10 UNL     1     -17.405 -26.219  -6.029  1.00  0.00    -0.284 OA
HETATM   36  C19 UNL     1     -16.950 -26.296  -4.788  1.00  0.00     0.220 A 
HETATM   37  C20 UNL     1     -17.484 -25.271  -4.035  1.00  0.00     0.160 A 
HETATM   38  C21 UNL     1     -18.288 -24.571  -4.902  1.00  0.00     0.137 A 
BRANCH  36  39
HETATM   39  O11 UNL     1     -16.067 -27.243  -4.257  1.00  0.00    -0.339 OA
ATOM     40  H11 UNL     1     -15.794 -27.340  -3.353  1.00  0.00     0.220 HD
ENDBRANCH  36  39
BRANCH  37  41
HETATM   41  O12 UNL     1     -17.259 -25.001  -2.691  1.00  0.00    -0.354 OA
ATOM     42  H12 UNL     1     -17.545 -24.242  -2.197  1.00  0.00     0.218 HD
ENDBRANCH  37  41
BRANCH  38  43
HETATM   43  O13 UNL     1     -19.046 -23.445  -4.616  1.00  0.00    -0.356 OA
ATOM     44  H13 UNL     1     -19.882 -23.459  -4.165  1.00  0.00     0.218 HD
ENDBRANCH  38  43
ENDBRANCH  31  34
ENDBRANCH  29  31
ENDBRANCH   1  29
TORSDOF 16
ENDMDL
MODEL 5
REMARK VINA RESULT: -8.291676846      1.651      5.687
REMARK  16 active torsions:
REMARK  status: ('A' for Active; 'I' for Inactive)
REMARK    1  A    between atoms: C2_2  and  O1_3 
REMARK    2  A    between atoms: C2_2  and  C3_5 
REMARK       I    between atoms: C3_5  and  N1_7 
REMARK    3  A    between atoms: N1_7  and  C4_9 
REMARK    4  A    between atoms: C4_9  and  C5_10 
REMARK    5  A    between atoms: C4_9  and  C16_29 
REMARK       I    between atoms: C5_10  and  N2_12 
REMARK    6  A    between atoms: N2_12  and  O4_14 
REMARK    7  A    between atoms: O4_14  and  C6_15 
REMARK    8  A    between atoms: C6_15  and  C7_17 
REMARK       I    between atoms: N3_21  and  C11_22 
REMARK    9  A    between atoms: C11_22  and  O7_24 
REMARK   10  A    between atoms: O7_24  and  C12_25 
REMARK   11  A    between atoms: C16_29  and  C17_31 
REMARK   12  A    between atoms: C17_31  and  O9_32 
REMARK   13  A    between atoms: C17_31  and  C18_34 
REMARK   14  A    between atoms: C19_36  and  O11_37 
REMARK   15  A    between atoms: C20_39  and  O12_40 
REMARK   16  A    between atoms: C21_42  and  O13_43 
ROOT
HETATM    1  C4  UNL     1     -19.361 -26.593  -8.954  1.00  0.00     0.252 C 
ENDROOT
BRANCH   1   2
HETATM    2  N1  UNL     1     -19.396 -25.680  -7.816  1.00  0.00    -0.339 N 
HETATM    3  C3  UNL     1     -18.773 -25.997  -6.589  1.00  0.00     0.247 C 
HETATM    4  O2  UNL     1     -18.177 -27.096  -6.484  1.00  0.00    -0.271 OA
ATOM      5  H1  UNL     1     -19.884 -24.790  -7.909  1.00  0.00     0.163 HD
BRANCH   3   6
HETATM    6  C2  UNL     1     -18.798 -25.091  -5.427  1.00  0.00     0.206 C 
HETATM    7  C1  UNL     1     -17.494 -25.009  -4.711  1.00  0.00     0.049 C 
BRANCH   6   8
HETATM    8  O1  UNL     1     -19.161 -23.812  -5.867  1.00  0.00    -0.387 OA
ATOM      9  H1  UNL     1     -19.464 -23.866  -6.765  1.00  0.00     0.210 HD
ENDBRANCH   6   8
ENDBRANCH   3   6
ENDBRANCH   1   2
BRANCH   1  10
HETATM   10  C5  UNL     1     -18.119 -26.359  -9.708  1.00  0.00     0.272 C 
HETATM   11  O3  UNL     1     -17.248 -27.301  -9.771  1.00  0.00    -0.269 OA
HETATM   12  N2  UNL     1     -17.809 -25.157 -10.374  1.00  0.00    -0.224 N 
ATOM     13  H2  UNL     1     -18.482 -24.391 -10.347  1.00  0.00     0.198 HD
BRANCH  12  14
HETATM   14  O4  UNL     1     -16.637 -24.982 -11.056  1.00  0.00    -0.195 OA
BRANCH  14  15
HETATM   15  C6  UNL     1     -16.486 -24.257 -12.213  1.00  0.00     0.304 C 
HETATM   16  O5  UNL     1     -16.228 -23.029 -12.127  1.00  0.00    -0.261 OA
BRANCH  15  17
HETATM   17  C7  UNL     1     -16.620 -24.890 -13.563  1.00  0.00     0.191 C 
HETATM   18  C8  UNL     1     -16.112 -23.910 -14.610  1.00  0.00     0.037 C 
HETATM   19  C9  UNL     1     -14.702 -24.341 -14.926  1.00  0.00     0.022 C 
HETATM   20  C10 UNL     1     -14.433 -25.521 -13.983  1.00  0.00     0.129 C 
HETATM   21  N3  UNL     1     -15.745 -26.030 -13.668  1.00  0.00    -0.314 N 
HETATM   22  C11 UNL     1     -16.117 -27.381 -13.496  1.00  0.00     0.364 C 
HETATM   23  O6  UNL     1     -17.281 -27.755 -13.225  1.00  0.00    -0.238 OA
BRANCH  22  24
HETATM   24  O7  UNL     1     -15.163 -28.391 -13.629  1.00  0.00    -0.294 OA
BRANCH  24  25
HETATM   25  C12 UNL     1     -15.023 -29.156 -14.799  1.00  0.00     0.061 C 
HETATM   26  C13 UNL     1     -15.676 -30.501 -14.718  1.00  0.00     0.046 C 
HETATM   27  C14 UNL     1     -15.572 -28.444 -16.020  1.00  0.00     0.046 C 
HETATM   28  C15 UNL     1     -13.536 -29.368 -15.015  1.00  0.00     0.046 C 
ENDBRANCH  24  25
ENDBRANCH  22  24
ENDBRANCH  15  17
ENDBRANCH  14  15
ENDBRANCH  12  14
ENDBRANCH   1  10
BRANCH   1  29
HETATM   29  C16 UNL     1     -20.492 -26.252  -9.880  1.00  0.00     0.193 C 
HETATM   30  O8  UNL     1     -21.284 -25.416  -9.483  1.00  0.00    -0.292 OA
BRANCH  29  31
HETATM   31  C17 UNL     1     -20.620 -26.910 -11.202  1.00  0.00     0.250 C 
BRANCH  31  32
HETATM   32  O9  UNL     1     -19.452 -27.548 -11.591  1.00  0.00    -0.381 OA
ATOM     33  H9  UNL     1     -18.684 -27.200 -11.153  1.00  0.00     0.211 HD
ENDBRANCH  31  32
BRANCH  31  34
HETATM   34  C18 UNL     1     -21.709 -27.915 -11.202  1.00  0.00     0.128 A 
HETATM   35  O10 UNL     1     -22.584 -28.060 -10.210  1.00  0.00    -0.284 OA
HETATM   36  C19 UNL     1     -23.429 -29.036 -10.503  1.00  0.00     0.220 A 
HETATM   37  C20 UNL     1     -23.113 -29.568 -11.735  1.00  0.00     0.160 A 
HETATM   38  C21 UNL     1     -22.024 -28.850 -12.167  1.00  0.00     0.137 A 
BRANCH  36  39
HETATM   39  O11 UNL     1     -24.497 -29.504  -9.729  1.00  0.00    -0.339 OA
ATOM     40  H11 UNL     1     -25.408 -29.587  -9.986  1.00  0.00     0.220 HD
ENDBRANCH  36  39
BRANCH  37  41
HETATM   41  O12 UNL     1     -23.755 -30.604 -12.401  1.00  0.00    -0.354 OA
ATOM     42  H12 UNL     1     -23.853 -30.718 -13.339  1.00  0.00     0.218 HD
ENDBRANCH  37  41
BRANCH  38  43
HETATM   43  O13 UNL     1     -21.334 -29.010 -13.360  1.00  0.00    -0.356 OA
ATOM     44  H13 UNL     1     -20.400 -29.168 -13.424  1.00  0.00     0.218 HD
ENDBRANCH  38  43
ENDBRANCH  31  34
ENDBRANCH  29  31
ENDBRANCH   1  29
TORSDOF 16
ENDMDL
