MODEL 1
REMARK VINA RESULT: -9.756700040      0.000      0.000
REMARK  6 active torsions:
REMARK  status: ('A' for Active; 'I' for Inactive)
REMARK    1  A    between atoms: C5_5  and  O1_6 
REMARK    2  A    between atoms: C5_5  and  C6_8 
REMARK    3  A    between atoms: C9_11  and  N1_12 
REMARK    4  A    between atoms: N1_12  and  C10_14 
REMARK    5  A    between atoms: N2_16  and  C12_17 
REMARK    6  A    between atoms: C15_20  and  N3_21 
ROOT
HETATM    1  N1  UNL     1      -4.599   5.442  11.178  1.00  0.00    -0.401 N 
ATOM      2  H1  UNL     1      -5.031   4.589  10.824  1.00  0.00     0.154 HD
ENDROOT
BRANCH   1   3
HETATM    3  C9  UNL     1      -3.545   5.332  12.084  1.00  0.00     0.111 C 
HETATM    4  C8  UNL     1      -3.096   3.848  12.063  1.00  0.00     0.028 C 
HETATM    5  C7  UNL     1      -4.020   2.995  12.925  1.00  0.00     0.010 C 
HETATM    6  C6  UNL     1      -4.277   3.582  14.268  1.00  0.00     0.023 C 
HETATM    7  C23 UNL     1      -3.314   4.696  14.489  1.00  0.00     0.046 C 
HETATM    8  C22 UNL     1      -3.706   5.803  13.481  1.00  0.00     0.192 C 
HETATM    9  F2  UNL     1      -2.885   6.890  13.778  1.00  0.00    -0.247 F 
BRANCH   6  10
HETATM   10  C5  UNL     1      -4.436   2.614  15.388  1.00  0.00     0.066 C 
HETATM   11  C4  UNL     1      -5.567   2.864  16.331  1.00  0.00     0.075 C 
HETATM   12  C2  UNL     1      -5.959   1.644  17.131  1.00  0.00     0.056 C 
HETATM   13  C1  UNL     1      -6.011   2.106  18.599  1.00  0.00     0.045 C 
HETATM   14  C3  UNL     1      -7.376   1.207  16.820  1.00  0.00     0.045 C 
HETATM   15  O3  UNL     1      -5.059   0.616  17.117  1.00  0.00    -0.381 OA
HETATM   16  C25 UNL     1      -4.496   0.257  15.938  1.00  0.00     0.171 C 
HETATM   17  C24 UNL     1      -4.703   1.213  14.813  1.00  0.00     0.064 C 
BRANCH  10  18
HETATM   18  O1  UNL     1      -3.271   2.496  16.142  1.00  0.00    -0.389 OA
ATOM     19  H1  UNL     1      -3.463   1.937  16.886  1.00  0.00     0.210 HD
ENDBRANCH  10  18
ENDBRANCH   6  10
ENDBRANCH   1   3
BRANCH   1  20
HETATM   20  C10 UNL     1      -5.088   6.681  10.735  1.00  0.00     0.189 C 
HETATM   21  C11 UNL     1      -5.468   6.697   9.277  1.00  0.00     0.166 C 
HETATM   22  N2  UNL     1      -6.635   7.467   9.686  1.00  0.00    -0.311 N 
HETATM   23  C21 UNL     1      -6.481   7.053  11.034  1.00  0.00     0.248 C 
HETATM   24  O2  UNL     1      -7.231   7.032  12.019  1.00  0.00    -0.271 OA
BRANCH  22  25
HETATM   25  C12 UNL     1      -7.518   8.292   8.918  1.00  0.00     0.076 A 
HETATM   26  C13 UNL     1      -8.706   7.812   8.413  1.00  0.00     0.035 A 
HETATM   27  C14 UNL     1      -9.570   8.611   7.657  1.00  0.00     0.032 A 
HETATM   28  C15 UNL     1      -9.242   9.917   7.396  1.00  0.00     0.033 A 
HETATM   29  C19 UNL     1      -8.052  10.405   7.900  1.00  0.00     0.073 A 
HETATM   30  C20 UNL     1      -7.205   9.607   8.647  1.00  0.00     0.145 A 
HETATM   31  F1  UNL     1      -6.024  10.112   9.146  1.00  0.00    -0.204 F 
BRANCH  28  32
HETATM   32  N3  UNL     1     -10.134  10.733   6.605  1.00  0.00    -0.381 N 
HETATM   33  C16 UNL     1     -10.801  10.465   5.328  1.00  0.00     0.124 C 
HETATM   34  C17 UNL     1     -11.128  11.899   5.182  1.00  0.00     0.040 C 
HETATM   35  C18 UNL     1     -10.744  12.030   6.625  1.00  0.00     0.124 C 
ENDBRANCH  28  32
ENDBRANCH  22  25
ENDBRANCH   1  20
TORSDOF 6
ENDMDL
MODEL 2
REMARK VINA RESULT: -9.532600632      1.555      1.879
REMARK  6 active torsions:
REMARK  status: ('A' for Active; 'I' for Inactive)
REMARK    1  A    between atoms: C5_5  and  O1_6 
REMARK    2  A    between atoms: C5_5  and  C6_8 
REMARK    3  A    between atoms: C9_11  and  N1_12 
REMARK    4  A    between atoms: N1_12  and  C10_14 
REMARK    5  A    between atoms: N2_16  and  C12_17 
REMARK    6  A    between atoms: C15_20  and  N3_21 
ROOT
HETATM    1  N1  UNL     1      -3.768   5.769  11.411  1.00  0.00    -0.401 N 
ATOM      2  H1  UNL     1      -3.025   5.072  11.437  1.00  0.00     0.154 HD
ENDROOT
BRANCH   1   3
HETATM    3  C9  UNL     1      -4.426   6.093  12.597  1.00  0.00     0.111 C 
HETATM    4  C8  UNL     1      -3.385   5.937  13.736  1.00  0.00     0.028 C 
HETATM    5  C7  UNL     1      -3.238   4.472  14.133  1.00  0.00     0.010 C 
HETATM    6  C6  UNL     1      -4.544   3.787  14.340  1.00  0.00     0.023 C 
HETATM    7  C23 UNL     1      -5.617   4.819  14.385  1.00  0.00     0.046 C 
HETATM    8  C22 UNL     1      -5.693   5.415  12.959  1.00  0.00     0.192 C 
HETATM    9  F2  UNL     1      -6.782   6.287  12.974  1.00  0.00    -0.247 F 
BRANCH   6  10
HETATM   10  C5  UNL     1      -4.579   2.750  15.407  1.00  0.00     0.066 C 
HETATM   11  C4  UNL     1      -5.666   2.874  16.423  1.00  0.00     0.075 C 
HETATM   12  C2  UNL     1      -5.936   1.589  17.169  1.00  0.00     0.056 C 
HETATM   13  C1  UNL     1      -5.932   1.964  18.663  1.00  0.00     0.045 C 
HETATM   14  C3  UNL     1      -7.339   1.079  16.909  1.00  0.00     0.045 C 
HETATM   15  O3  UNL     1      -4.978   0.623  17.045  1.00  0.00    -0.381 OA
HETATM   16  C25 UNL     1      -4.462   0.366  15.818  1.00  0.00     0.171 C 
HETATM   17  C24 UNL     1      -4.792   1.368  14.765  1.00  0.00     0.064 C 
BRANCH  10  18
HETATM   18  O1  UNL     1      -3.367   2.665  16.089  1.00  0.00    -0.389 OA
ATOM     19  H1  UNL     1      -2.674   2.595  15.442  1.00  0.00     0.210 HD
ENDBRANCH  10  18
ENDBRANCH   6  10
ENDBRANCH   1   3
BRANCH   1  20
HETATM   20  C10 UNL     1      -4.090   6.367  10.182  1.00  0.00     0.189 C 
HETATM   21  C11 UNL     1      -5.459   6.000   9.669  1.00  0.00     0.166 C 
HETATM   22  N2  UNL     1      -5.592   7.400   9.292  1.00  0.00    -0.311 N 
HETATM   23  C21 UNL     1      -4.533   7.771  10.160  1.00  0.00     0.248 C 
HETATM   24  O2  UNL     1      -4.167   8.842  10.663  1.00  0.00    -0.271 OA
BRANCH  22  25
HETATM   25  C12 UNL     1      -6.492   8.033   8.375  1.00  0.00     0.076 A 
HETATM   26  C13 UNL     1      -6.079   8.471   7.137  1.00  0.00     0.035 A 
HETATM   27  C14 UNL     1      -6.951   9.095   6.239  1.00  0.00     0.032 A 
HETATM   28  C15 UNL     1      -8.264   9.290   6.585  1.00  0.00     0.033 A 
HETATM   29  C19 UNL     1      -8.685   8.853   7.826  1.00  0.00     0.073 A 
HETATM   30  C20 UNL     1      -7.815   8.236   8.705  1.00  0.00     0.145 A 
HETATM   31  F1  UNL     1      -8.253   7.801   9.937  1.00  0.00    -0.204 F 
BRANCH  28  32
HETATM   32  N3  UNL     1      -9.157   9.946   5.657  1.00  0.00    -0.381 N 
HETATM   33  C16 UNL     1     -10.539  10.406   5.818  1.00  0.00     0.124 C 
HETATM   34  C17 UNL     1     -10.674  10.556   4.353  1.00  0.00     0.040 C 
HETATM   35  C18 UNL     1      -9.182  10.415   4.303  1.00  0.00     0.124 C 
ENDBRANCH  28  32
ENDBRANCH  22  25
ENDBRANCH   1  20
TORSDOF 6
ENDMDL
MODEL 3
REMARK VINA RESULT: -9.512590004      0.886      1.275
REMARK  6 active torsions:
REMARK  status: ('A' for Active; 'I' for Inactive)
REMARK    1  A    between atoms: C5_5  and  O1_6 
REMARK    2  A    between atoms: C5_5  and  C6_8 
REMARK    3  A    between atoms: C9_11  and  N1_12 
REMARK    4  A    between atoms: N1_12  and  C10_14 
REMARK    5  A    between atoms: N2_16  and  C12_17 
REMARK    6  A    between atoms: C15_20  and  N3_21 
ROOT
HETATM    1  N1  UNL     1      -4.755   5.599  11.214  1.00  0.00    -0.401 N 
ATOM      2  H1  UNL     1      -5.323   4.801  10.931  1.00  0.00     0.154 HD
ENDROOT
BRANCH   1   3
HETATM    3  C9  UNL     1      -3.631   5.374  12.007  1.00  0.00     0.111 C 
HETATM    4  C8  UNL     1      -3.328   3.855  11.923  1.00  0.00     0.028 C 
HETATM    5  C7  UNL     1      -4.237   3.073  12.864  1.00  0.00     0.010 C 
HETATM    6  C6  UNL     1      -4.302   3.653  14.233  1.00  0.00     0.023 C 
HETATM    7  C23 UNL     1      -3.222   4.669  14.368  1.00  0.00     0.046 C 
HETATM    8  C22 UNL     1      -3.607   5.827  13.417  1.00  0.00     0.192 C 
HETATM    9  F2  UNL     1      -2.662   6.828  13.643  1.00  0.00    -0.247 F 
BRANCH   6  10
HETATM   10  C5  UNL     1      -4.439   2.680  15.351  1.00  0.00     0.066 C 
HETATM   11  C4  UNL     1      -5.560   2.917  16.309  1.00  0.00     0.075 C 
HETATM   12  C2  UNL     1      -5.931   1.691  17.110  1.00  0.00     0.056 C 
HETATM   13  C1  UNL     1      -5.971   2.148  18.580  1.00  0.00     0.045 C 
HETATM   14  C3  UNL     1      -7.348   1.241  16.814  1.00  0.00     0.045 C 
HETATM   15  O3  UNL     1      -5.022   0.671  17.081  1.00  0.00    -0.381 OA
HETATM   16  C25 UNL     1      -4.470   0.321  15.895  1.00  0.00     0.171 C 
HETATM   17  C24 UNL     1      -4.700   1.278  14.775  1.00  0.00     0.064 C 
BRANCH  10  18
HETATM   18  O1  UNL     1      -3.264   2.571  16.091  1.00  0.00    -0.389 OA
ATOM     19  H1  UNL     1      -3.441   2.895  16.967  1.00  0.00     0.210 HD
ENDBRANCH  10  18
ENDBRANCH   6  10
ENDBRANCH   1   3
BRANCH   1  20
HETATM   20  C10 UNL     1      -5.135   6.883  10.790  1.00  0.00     0.189 C 
HETATM   21  C11 UNL     1      -5.398   6.980   9.309  1.00  0.00     0.166 C 
HETATM   22  N2  UNL     1      -6.546   7.803   9.661  1.00  0.00    -0.311 N 
HETATM   23  C21 UNL     1      -6.524   7.327  10.997  1.00  0.00     0.248 C 
HETATM   24  O2  UNL     1      -7.349   7.312  11.920  1.00  0.00    -0.271 OA
BRANCH  22  25
HETATM   25  C12 UNL     1      -7.317   8.710   8.865  1.00  0.00     0.076 A 
HETATM   26  C13 UNL     1      -6.999  10.047   8.773  1.00  0.00     0.035 A 
HETATM   27  C14 UNL     1      -7.750  10.940   8.003  1.00  0.00     0.032 A 
HETATM   28  C15 UNL     1      -8.845  10.490   7.308  1.00  0.00     0.033 A 
HETATM   29  C19 UNL     1      -9.169   9.150   7.395  1.00  0.00     0.073 A 
HETATM   30  C20 UNL     1      -8.419   8.276   8.159  1.00  0.00     0.145 A 
HETATM   31  F1  UNL     1      -8.753   6.941   8.230  1.00  0.00    -0.204 F 
BRANCH  28  32
HETATM   32  N3  UNL     1      -9.623  11.420   6.522  1.00  0.00    -0.381 N 
HETATM   33  C16 UNL     1     -10.702  12.333   6.908  1.00  0.00     0.124 C 
HETATM   34  C17 UNL     1     -11.064  12.528   5.487  1.00  0.00     0.040 C 
HETATM   35  C18 UNL     1      -9.752  11.875   5.169  1.00  0.00     0.124 C 
ENDBRANCH  28  32
ENDBRANCH  22  25
ENDBRANCH   1  20
TORSDOF 6
ENDMDL
MODEL 4
REMARK VINA RESULT: -8.659263351      5.060      8.230
REMARK  6 active torsions:
REMARK  status: ('A' for Active; 'I' for Inactive)
REMARK    1  A    between atoms: C5_5  and  O1_6 
REMARK    2  A    between atoms: C5_5  and  C6_8 
REMARK    3  A    between atoms: C9_11  and  N1_12 
REMARK    4  A    between atoms: N1_12  and  C10_14 
REMARK    5  A    between atoms: N2_16  and  C12_17 
REMARK    6  A    between atoms: C15_20  and  N3_21 
ROOT
HETATM    1  N1  UNL     1      -3.735   5.502  11.275  1.00  0.00    -0.401 N 
ATOM      2  H1  UNL     1      -4.322   5.307  10.464  1.00  0.00     0.154 HD
ENDROOT
BRANCH   1   3
HETATM    3  C9  UNL     1      -4.345   5.914  12.459  1.00  0.00     0.111 C 
HETATM    4  C8  UNL     1      -3.286   5.754  13.581  1.00  0.00     0.028 C 
HETATM    5  C7  UNL     1      -3.207   4.303  14.042  1.00  0.00     0.010 C 
HETATM    6  C6  UNL     1      -4.541   3.699  14.310  1.00  0.00     0.023 C 
HETATM    7  C23 UNL     1      -5.557   4.787  14.331  1.00  0.00     0.046 C 
HETATM    8  C22 UNL     1      -5.637   5.322  12.881  1.00  0.00     0.192 C 
HETATM    9  F2  UNL     1      -6.678   6.250  12.880  1.00  0.00    -0.247 F 
BRANCH   6  10
HETATM   10  C5  UNL     1      -4.603   2.715  15.424  1.00  0.00     0.066 C 
HETATM   11  C4  UNL     1      -5.730   2.872  16.392  1.00  0.00     0.075 C 
HETATM   12  C2  UNL     1      -6.012   1.622  17.190  1.00  0.00     0.056 C 
HETATM   13  C1  UNL     1      -6.069   2.069  18.663  1.00  0.00     0.045 C 
HETATM   14  C3  UNL     1      -7.398   1.080  16.904  1.00  0.00     0.045 C 
HETATM   15  O3  UNL     1      -5.038   0.664  17.149  1.00  0.00    -0.381 OA
HETATM   16  C25 UNL     1      -4.474   0.356  15.956  1.00  0.00     0.171 C 
HETATM   17  C24 UNL     1      -4.776   1.300  14.844  1.00  0.00     0.064 C 
BRANCH  10  18
HETATM   18  O1  UNL     1      -3.417   2.679  16.154  1.00  0.00    -0.389 OA
ATOM     19  H1  UNL     1      -2.955   3.494  15.995  1.00  0.00     0.210 HD
ENDBRANCH  10  18
ENDBRANCH   6  10
ENDBRANCH   1   3
BRANCH   1  20
HETATM   20  C10 UNL     1      -2.345   5.346  11.156  1.00  0.00     0.189 C 
HETATM   21  C11 UNL     1      -1.934   4.063  10.481  1.00  0.00     0.166 C 
HETATM   22  N2  UNL     1      -0.938   4.860   9.779  1.00  0.00    -0.311 N 
HETATM   23  C21 UNL     1      -1.630   6.060  10.085  1.00  0.00     0.248 C 
HETATM   24  O2  UNL     1      -1.610   7.208   9.621  1.00  0.00    -0.271 OA
BRANCH  22  25
HETATM   25  C12 UNL     1       0.248   4.461   9.084  1.00  0.00     0.076 A 
HETATM   26  C13 UNL     1       0.255   4.241   7.724  1.00  0.00     0.035 A 
HETATM   27  C14 UNL     1       1.409   3.845   7.040  1.00  0.00     0.032 A 
HETATM   28  C15 UNL     1       2.583   3.662   7.727  1.00  0.00     0.033 A 
HETATM   29  C19 UNL     1       2.583   3.881   9.091  1.00  0.00     0.073 A 
HETATM   30  C20 UNL     1       1.437   4.273   9.757  1.00  0.00     0.145 A 
HETATM   31  F1  UNL     1       1.456   4.493  11.117  1.00  0.00    -0.204 F 
BRANCH  28  32
HETATM   32  N3  UNL     1       3.768   3.242   7.016  1.00  0.00    -0.381 N 
HETATM   33  C16 UNL     1       3.975   2.922   5.601  1.00  0.00     0.124 C 
HETATM   34  C17 UNL     1       5.274   2.291   5.919  1.00  0.00     0.040 C 
HETATM   35  C18 UNL     1       5.149   2.949   7.261  1.00  0.00     0.124 C 
ENDBRANCH  28  32
ENDBRANCH  22  25
ENDBRANCH   1  20
TORSDOF 6
ENDMDL
MODEL 5
REMARK VINA RESULT: -8.641866982      5.059      8.213
REMARK  6 active torsions:
REMARK  status: ('A' for Active; 'I' for Inactive)
REMARK    1  A    between atoms: C5_5  and  O1_6 
REMARK    2  A    between atoms: C5_5  and  C6_8 
REMARK    3  A    between atoms: C9_11  and  N1_12 
REMARK    4  A    between atoms: N1_12  and  C10_14 
REMARK    5  A    between atoms: N2_16  and  C12_17 
REMARK    6  A    between atoms: C15_20  and  N3_21 
ROOT
HETATM    1  N1  UNL     1      -3.730   5.500  11.270  1.00  0.00    -0.401 N 
ATOM      2  H1  UNL     1      -4.318   5.271  10.469  1.00  0.00     0.154 HD
ENDROOT
BRANCH   1   3
HETATM    3  C9  UNL     1      -4.340   5.913  12.454  1.00  0.00     0.111 C 
HETATM    4  C8  UNL     1      -3.281   5.754  13.576  1.00  0.00     0.028 C 
HETATM    5  C7  UNL     1      -3.203   4.303  14.039  1.00  0.00     0.010 C 
HETATM    6  C6  UNL     1      -4.538   3.700  14.307  1.00  0.00     0.023 C 
HETATM    7  C23 UNL     1      -5.553   4.789  14.326  1.00  0.00     0.046 C 
HETATM    8  C22 UNL     1      -5.632   5.323  12.876  1.00  0.00     0.192 C 
HETATM    9  F2  UNL     1      -6.673   6.251  12.873  1.00  0.00    -0.247 F 
BRANCH   6  10
HETATM   10  C5  UNL     1      -4.601   2.717  15.422  1.00  0.00     0.066 C 
HETATM   11  C4  UNL     1      -5.727   2.877  16.390  1.00  0.00     0.075 C 
HETATM   12  C2  UNL     1      -6.011   1.628  17.190  1.00  0.00     0.056 C 
HETATM   13  C1  UNL     1      -6.067   2.076  18.662  1.00  0.00     0.045 C 
HETATM   14  C3  UNL     1      -7.398   1.088  16.904  1.00  0.00     0.045 C 
HETATM   15  O3  UNL     1      -5.039   0.669  17.149  1.00  0.00    -0.381 OA
HETATM   16  C25 UNL     1      -4.475   0.358  15.957  1.00  0.00     0.171 C 
HETATM   17  C24 UNL     1      -4.777   1.302  14.843  1.00  0.00     0.064 C 
BRANCH  10  18
HETATM   18  O1  UNL     1      -3.415   2.681  16.152  1.00  0.00    -0.389 OA
ATOM     19  H1  UNL     1      -3.058   1.803  16.081  1.00  0.00     0.210 HD
ENDBRANCH  10  18
ENDBRANCH   6  10
ENDBRANCH   1   3
BRANCH   1  20
HETATM   20  C10 UNL     1      -2.337   5.386  11.139  1.00  0.00     0.189 C 
HETATM   21  C11 UNL     1      -1.888   4.073  10.551  1.00  0.00     0.166 C 
HETATM   22  N2  UNL     1      -0.933   4.853   9.776  1.00  0.00    -0.311 N 
HETATM   23  C21 UNL     1      -1.665   6.046  10.007  1.00  0.00     0.248 C 
HETATM   24  O2  UNL     1      -1.695   7.157   9.461  1.00  0.00    -0.271 OA
BRANCH  22  25
HETATM   25  C12 UNL     1       0.257   4.447   9.091  1.00  0.00     0.076 A 
HETATM   26  C13 UNL     1       1.476   4.384   9.728  1.00  0.00     0.035 A 
HETATM   27  C14 UNL     1       2.644   3.995   9.063  1.00  0.00     0.032 A 
HETATM   28  C15 UNL     1       2.595   3.662   7.733  1.00  0.00     0.033 A 
HETATM   29  C19 UNL     1       1.375   3.723   7.088  1.00  0.00     0.073 A 
HETATM   30  C20 UNL     1       0.227   4.108   7.755  1.00  0.00     0.145 A 
HETATM   31  F1  UNL     1      -0.983   4.158   7.097  1.00  0.00    -0.204 F 
BRANCH  28  32
HETATM   32  N3  UNL     1       3.808   3.271   7.050  1.00  0.00    -0.381 N 
HETATM   33  C16 UNL     1       4.042   2.890   5.656  1.00  0.00     0.124 C 
HETATM   34  C17 UNL     1       5.371   2.348   6.013  1.00  0.00     0.040 C 
HETATM   35  C18 UNL     1       5.200   3.067   7.318  1.00  0.00     0.124 C 
ENDBRANCH  28  32
ENDBRANCH  22  25
ENDBRANCH   1  20
TORSDOF 6
ENDMDL
