MODEL 1
REMARK VINA RESULT: -6.884326693      0.000      0.000
REMARK  7 active torsions:
REMARK  status: ('A' for Active; 'I' for Inactive)
REMARK    1  A    between atoms: C2_2  and  O1_3 
REMARK    2  A    between atoms: O1_3  and  C3_4 
REMARK    3  A    between atoms: C5_7  and  O2_8 
REMARK    4  A    between atoms: C7_12  and  O3_13 
REMARK    5  A    between atoms: C8_15  and  C9_16 
REMARK    6  A    between atoms: C9_16  and  N1_17 
REMARK    7  A    between atoms: N2_20  and  C12_21 
ROOT
HETATM    1  C3  UNL     1      -4.371   2.989  13.834  1.00  0.00     0.103 A 
HETATM    2  C4  UNL     1      -4.446   1.624  14.224  1.00  0.00     0.079 A 
HETATM    3 BR1  UNL     1      -4.589   1.155  16.070  1.00  0.00    -0.045 Br
HETATM    4  C5  UNL     1      -4.457   0.706  13.255  1.00  0.00     0.106 A 
HETATM    5  C6  UNL     1      -4.413   1.026  11.921  1.00  0.00     0.079 A 
HETATM    6 BR2  UNL     1      -4.381  -0.317  10.594  1.00  0.00    -0.045 Br
HETATM    7  C7  UNL     1      -4.361   2.376  11.529  1.00  0.00     0.100 A 
HETATM    8  C8  UNL     1      -4.322   3.330  12.478  1.00  0.00     0.049 A 
ENDROOT
BRANCH   8   9
HETATM    9  C9  UNL     1      -4.218   4.766  12.134  1.00  0.00     0.107 C 
BRANCH   9  10
HETATM   10  N1  UNL     1      -3.059   5.400  11.778  1.00  0.00    -0.366 N 
HETATM   11  C10 UNL     1      -1.973   5.080  12.700  1.00  0.00     0.157 C 
HETATM   12  C11 UNL     1      -1.918   6.186  13.746  1.00  0.00     0.293 C 
HETATM   13  N2  UNL     1      -1.385   7.364  13.031  1.00  0.00     0.098 N 
HETATM   14  C15 UNL     1      -2.484   7.727  12.110  1.00  0.00     0.317 C 
HETATM   15  C16 UNL     1      -2.798   6.590  11.169  1.00  0.00     0.093 C 
BRANCH  13  16
HETATM   16  C12 UNL     1      -1.278   8.474  13.978  1.00  0.00     0.215 C 
HETATM   17  C13 UNL     1       0.024   9.177  13.898  1.00  0.00     0.042 C 
HETATM   18  C14 UNL     1      -1.776   8.287  15.327  1.00  0.00     0.042 C 
ENDBRANCH  13  16
ENDBRANCH   9  10
ENDBRANCH   8   9
BRANCH   1  19
HETATM   19  O1  UNL     1      -4.356   3.801  14.899  1.00  0.00    -0.349 OA
BRANCH  19  20
HETATM   20  C2  UNL     1      -5.043   4.891  15.369  1.00  0.00     0.171 C 
HETATM   21  C1  UNL     1      -6.284   4.441  16.183  1.00  0.00     0.034 C 
ENDBRANCH  19  20
ENDBRANCH   1  19
BRANCH   7  22
HETATM   22  O3  UNL     1      -4.395   2.589  10.143  1.00  0.00    -0.358 OA
ATOM     23  H3  UNL     1      -4.222   3.483   9.871  1.00  0.00     0.217 HD
ENDBRANCH   7  22
BRANCH   4  24
HETATM   24  O2  UNL     1      -4.526  -0.684  13.645  1.00  0.00    -0.358 OA
ATOM     25  H2  UNL     1      -4.698  -1.325  12.967  1.00  0.00     0.217 HD
ENDBRANCH   4  24
TORSDOF 7
ENDMDL
MODEL 2
REMARK VINA RESULT: -6.794965854      2.240      3.407
REMARK  7 active torsions:
REMARK  status: ('A' for Active; 'I' for Inactive)
REMARK    1  A    between atoms: C2_2  and  O1_3 
REMARK    2  A    between atoms: O1_3  and  C3_4 
REMARK    3  A    between atoms: C5_7  and  O2_8 
REMARK    4  A    between atoms: C7_12  and  O3_13 
REMARK    5  A    between atoms: C8_15  and  C9_16 
REMARK    6  A    between atoms: C9_16  and  N1_17 
REMARK    7  A    between atoms: N2_20  and  C12_21 
ROOT
HETATM    1  C3  UNL     1      -4.180   3.155  14.003  1.00  0.00     0.103 A 
HETATM    2  C4  UNL     1      -4.462   1.906  14.622  1.00  0.00     0.079 A 
HETATM    3 BR1  UNL     1      -4.933   1.835  16.472  1.00  0.00    -0.045 Br
HETATM    4  C5  UNL     1      -4.427   0.816  13.856  1.00  0.00     0.106 A 
HETATM    5  C6  UNL     1      -4.146   0.853  12.513  1.00  0.00     0.079 A 
HETATM    6 BR2  UNL     1      -4.061  -0.729  11.486  1.00  0.00    -0.045 Br
HETATM    7  C7  UNL     1      -3.887   2.088  11.889  1.00  0.00     0.100 A 
HETATM    8  C8  UNL     1      -3.889   3.209  12.635  1.00  0.00     0.049 A 
ENDROOT
BRANCH   8   9
HETATM    9  C9  UNL     1      -3.576   4.532  12.051  1.00  0.00     0.107 C 
BRANCH   9  10
HETATM   10  N1  UNL     1      -2.316   5.047  11.915  1.00  0.00    -0.366 N 
HETATM   11  C10 UNL     1      -2.165   5.758  10.649  1.00  0.00     0.157 C 
HETATM   12  C11 UNL     1      -1.563   4.784   9.644  1.00  0.00     0.293 C 
HETATM   13  N2  UNL     1      -0.161   4.609  10.073  1.00  0.00     0.098 N 
HETATM   14  C15 UNL     1      -0.286   3.860  11.342  1.00  0.00     0.317 C 
HETATM   15  C16 UNL     1      -1.092   4.640  12.353  1.00  0.00     0.093 C 
BRANCH  13  16
HETATM   16  C12 UNL     1       0.500   3.697   9.138  1.00  0.00     0.215 C 
HETATM   17  C13 UNL     1       1.974   3.687   9.288  1.00  0.00     0.042 C 
HETATM   18  C14 UNL     1       0.037   3.652   7.765  1.00  0.00     0.042 C 
ENDBRANCH  13  16
ENDBRANCH   9  10
ENDBRANCH   8   9
BRANCH   1  19
HETATM   19  O1  UNL     1      -4.236   4.162  14.883  1.00  0.00    -0.349 OA
BRANCH  19  20
HETATM   20  C2  UNL     1      -5.105   5.159  15.248  1.00  0.00     0.171 C 
HETATM   21  C1  UNL     1      -6.395   5.097  14.390  1.00  0.00     0.034 C 
ENDBRANCH  19  20
ENDBRANCH   1  19
BRANCH   7  22
HETATM   22  O3  UNL     1      -3.688   2.017  10.502  1.00  0.00    -0.358 OA
ATOM     23  H3  UNL     1      -4.423   2.312   9.977  1.00  0.00     0.217 HD
ENDBRANCH   7  22
BRANCH   4  24
HETATM   24  O2  UNL     1      -4.706  -0.457  14.482  1.00  0.00    -0.358 OA
ATOM     25  H2  UNL     1      -4.929  -0.455  15.405  1.00  0.00     0.217 HD
ENDBRANCH   4  24
TORSDOF 7
ENDMDL
MODEL 3
REMARK VINA RESULT: -6.778283230      1.603      2.817
REMARK  7 active torsions:
REMARK  status: ('A' for Active; 'I' for Inactive)
REMARK    1  A    between atoms: C2_2  and  O1_3 
REMARK    2  A    between atoms: O1_3  and  C3_4 
REMARK    3  A    between atoms: C5_7  and  O2_8 
REMARK    4  A    between atoms: C7_12  and  O3_13 
REMARK    5  A    between atoms: C8_15  and  C9_16 
REMARK    6  A    between atoms: C9_16  and  N1_17 
REMARK    7  A    between atoms: N2_20  and  C12_21 
ROOT
HETATM    1  C3  UNL     1      -4.422   3.100  13.839  1.00  0.00     0.103 A 
HETATM    2  C4  UNL     1      -4.466   1.744  14.267  1.00  0.00     0.079 A 
HETATM    3 BR1  UNL     1      -4.585   1.324  16.126  1.00  0.00    -0.045 Br
HETATM    4  C5  UNL     1      -4.466   0.800  13.324  1.00  0.00     0.106 A 
HETATM    5  C6  UNL     1      -4.438   1.083  11.981  1.00  0.00     0.079 A 
HETATM    6 BR2  UNL     1      -4.389  -0.295  10.692  1.00  0.00    -0.045 Br
HETATM    7  C7  UNL     1      -4.417   2.423  11.551  1.00  0.00     0.100 A 
HETATM    8  C8  UNL     1      -4.391   3.403  12.474  1.00  0.00     0.049 A 
ENDROOT
BRANCH   8   9
HETATM    9  C9  UNL     1      -4.319   4.830  12.089  1.00  0.00     0.107 C 
BRANCH   9  10
HETATM   10  N1  UNL     1      -3.168   5.570  12.050  1.00  0.00    -0.366 N 
HETATM   11  C10 UNL     1      -2.858   5.998  10.689  1.00  0.00     0.157 C 
HETATM   12  C11 UNL     1      -1.884   4.985  10.100  1.00  0.00     0.293 C 
HETATM   13  N2  UNL     1      -0.607   5.226  10.803  1.00  0.00     0.098 N 
HETATM   14  C15 UNL     1      -0.888   4.769  12.182  1.00  0.00     0.317 C 
HETATM   15  C16 UNL     1      -2.025   5.554  12.790  1.00  0.00     0.093 C 
BRANCH  13  16
HETATM   16  C12 UNL     1       0.395   4.301  10.275  1.00  0.00     0.215 C 
HETATM   17  C13 UNL     1      -0.169   2.974   9.932  1.00  0.00     0.042 C 
HETATM   18  C14 UNL     1       1.699   4.252  10.908  1.00  0.00     0.042 C 
ENDBRANCH  13  16
ENDBRANCH   9  10
ENDBRANCH   8   9
BRANCH   1  19
HETATM   19  O1  UNL     1      -4.415   3.940  14.880  1.00  0.00    -0.349 OA
BRANCH  19  20
HETATM   20  C2  UNL     1      -5.133   5.017  15.336  1.00  0.00     0.171 C 
HETATM   21  C1  UNL     1      -6.336   4.544  16.193  1.00  0.00     0.034 C 
ENDBRANCH  19  20
ENDBRANCH   1  19
BRANCH   7  22
HETATM   22  O3  UNL     1      -4.466   2.596  10.160  1.00  0.00    -0.358 OA
ATOM     23  H3  UNL     1      -5.267   2.292   9.748  1.00  0.00     0.217 HD
ENDBRANCH   7  22
BRANCH   4  24
HETATM   24  O2  UNL     1      -4.503  -0.580  13.753  1.00  0.00    -0.358 OA
ATOM     25  H2  UNL     1      -4.247  -1.245  13.126  1.00  0.00     0.217 HD
ENDBRANCH   4  24
TORSDOF 7
ENDMDL
MODEL 4
REMARK VINA RESULT: -6.713243519      2.594      5.079
REMARK  7 active torsions:
REMARK  status: ('A' for Active; 'I' for Inactive)
REMARK    1  A    between atoms: C2_2  and  O1_3 
REMARK    2  A    between atoms: O1_3  and  C3_4 
REMARK    3  A    between atoms: C5_7  and  O2_8 
REMARK    4  A    between atoms: C7_12  and  O3_13 
REMARK    5  A    between atoms: C8_15  and  C9_16 
REMARK    6  A    between atoms: C9_16  and  N1_17 
REMARK    7  A    between atoms: N2_20  and  C12_21 
ROOT
HETATM    1  C3  UNL     1      -2.554   4.214  11.873  1.00  0.00     0.103 A 
HETATM    2  C4  UNL     1      -1.747   3.231  11.237  1.00  0.00     0.079 A 
HETATM    3 BR1  UNL     1       0.085   3.597  10.842  1.00  0.00    -0.045 Br
HETATM    4  C5  UNL     1      -2.308   2.049  10.976  1.00  0.00     0.106 A 
HETATM    5  C6  UNL     1      -3.606   1.747  11.303  1.00  0.00     0.079 A 
HETATM    6 BR2  UNL     1      -4.362   0.074  10.864  1.00  0.00    -0.045 Br
HETATM    7  C7  UNL     1      -4.403   2.708  11.953  1.00  0.00     0.100 A 
HETATM    8  C8  UNL     1      -3.880   3.922  12.210  1.00  0.00     0.049 A 
ENDROOT
BRANCH   8   9
HETATM    9  C9  UNL     1      -4.679   4.993  12.846  1.00  0.00     0.107 C 
BRANCH   9  10
HETATM   10  N1  UNL     1      -5.038   5.019  14.166  1.00  0.00    -0.366 N 
HETATM   11  C10 UNL     1      -3.911   4.681  15.030  1.00  0.00     0.157 C 
HETATM   12  C11 UNL     1      -3.997   3.190  15.334  1.00  0.00     0.293 C 
HETATM   13  N2  UNL     1      -5.147   3.051  16.251  1.00  0.00     0.098 N 
HETATM   14  C15 UNL     1      -6.308   3.359  15.387  1.00  0.00     0.317 C 
HETATM   15  C16 UNL     1      -6.203   4.754  14.819  1.00  0.00     0.093 C 
BRANCH  13  16
HETATM   16  C12 UNL     1      -5.285   1.640  16.612  1.00  0.00     0.215 C 
HETATM   17  C13 UNL     1      -4.513   0.739  15.723  1.00  0.00     0.042 C 
HETATM   18  C14 UNL     1      -6.596   1.140  16.979  1.00  0.00     0.042 C 
ENDBRANCH  13  16
ENDBRANCH   9  10
ENDBRANCH   8   9
BRANCH   1  19
HETATM   19  O1  UNL     1      -1.877   5.352  12.065  1.00  0.00    -0.349 OA
BRANCH  19  20
HETATM   20  C2  UNL     1      -1.249   6.014  13.091  1.00  0.00     0.171 C 
HETATM   21  C1  UNL     1      -1.910   7.396  13.330  1.00  0.00     0.034 C 
ENDBRANCH  19  20
ENDBRANCH   1  19
BRANCH   7  22
HETATM   22  O3  UNL     1      -5.686   2.267  12.307  1.00  0.00    -0.358 OA
ATOM     23  H3  UNL     1      -6.340   2.351  11.622  1.00  0.00     0.217 HD
ENDBRANCH   7  22
BRANCH   4  24
HETATM   24  O2  UNL     1      -1.494   1.048  10.323  1.00  0.00    -0.358 OA
ATOM     25  H2  UNL     1      -1.421   0.198  10.740  1.00  0.00     0.217 HD
ENDBRANCH   4  24
TORSDOF 7
ENDMDL
MODEL 5
REMARK VINA RESULT: -6.514882409      1.883      3.252
REMARK  7 active torsions:
REMARK  status: ('A' for Active; 'I' for Inactive)
REMARK    1  A    between atoms: C2_2  and  O1_3 
REMARK    2  A    between atoms: O1_3  and  C3_4 
REMARK    3  A    between atoms: C5_7  and  O2_8 
REMARK    4  A    between atoms: C7_12  and  O3_13 
REMARK    5  A    between atoms: C8_15  and  C9_16 
REMARK    6  A    between atoms: C9_16  and  N1_17 
REMARK    7  A    between atoms: N2_20  and  C12_21 
ROOT
HETATM    1  C3  UNL     1      -4.398   3.008  13.796  1.00  0.00     0.103 A 
HETATM    2  C4  UNL     1      -4.466   1.652  14.219  1.00  0.00     0.079 A 
HETATM    3 BR1  UNL     1      -4.622   1.229  16.075  1.00  0.00    -0.045 Br
HETATM    4  C5  UNL     1      -4.462   0.711  13.274  1.00  0.00     0.106 A 
HETATM    5  C6  UNL     1      -4.407   0.996  11.933  1.00  0.00     0.079 A 
HETATM    6 BR2  UNL     1      -4.353  -0.379  10.641  1.00  0.00    -0.045 Br
HETATM    7  C7  UNL     1      -4.362   2.337  11.507  1.00  0.00     0.100 A 
HETATM    8  C8  UNL     1      -4.339   3.315  12.433  1.00  0.00     0.049 A 
ENDROOT
BRANCH   8   9
HETATM    9  C9  UNL     1      -4.243   4.742  12.053  1.00  0.00     0.107 C 
BRANCH   9  10
HETATM   10  N1  UNL     1      -3.072   5.402  11.792  1.00  0.00    -0.366 N 
HETATM   11  C10 UNL     1      -3.236   6.366  10.709  1.00  0.00     0.157 C 
HETATM   12  C11 UNL     1      -2.803   5.684   9.417  1.00  0.00     0.293 C 
HETATM   13  N2  UNL     1      -1.333   5.572   9.517  1.00  0.00     0.098 N 
HETATM   14  C15 UNL     1      -1.142   4.573  10.591  1.00  0.00     0.317 C 
HETATM   15  C16 UNL     1      -1.762   5.045  11.884  1.00  0.00     0.093 C 
BRANCH  13  16
HETATM   16  C12 UNL     1      -0.831   4.943   8.295  1.00  0.00     0.215 C 
HETATM   17  C13 UNL     1      -1.772   5.064   7.156  1.00  0.00     0.042 C 
HETATM   18  C14 UNL     1      -0.175   3.654   8.396  1.00  0.00     0.042 C 
ENDBRANCH  13  16
ENDBRANCH   9  10
ENDBRANCH   8   9
BRANCH   1  19
HETATM   19  O1  UNL     1      -4.398   3.846  14.840  1.00  0.00    -0.349 OA
BRANCH  19  20
HETATM   20  C2  UNL     1      -5.094   4.946  15.274  1.00  0.00     0.171 C 
HETATM   21  C1  UNL     1      -6.287   4.517  16.167  1.00  0.00     0.034 C 
ENDBRANCH  19  20
ENDBRANCH   1  19
BRANCH   7  22
HETATM   22  O3  UNL     1      -4.385   2.514  10.116  1.00  0.00    -0.358 OA
ATOM     23  H3  UNL     1      -5.175   2.205   9.687  1.00  0.00     0.217 HD
ENDBRANCH   7  22
BRANCH   4  24
HETATM   24  O2  UNL     1      -4.524  -0.670  13.699  1.00  0.00    -0.358 OA
ATOM     25  H2  UNL     1      -3.870  -1.268  13.356  1.00  0.00     0.217 HD
ENDBRANCH   4  24
TORSDOF 7
ENDMDL
