MODEL 1
REMARK VINA RESULT: -8.832173488      0.000      0.000
REMARK  5 active torsions:
REMARK  status: ('A' for Active; 'I' for Inactive)
REMARK       I    between atoms: C1_2  and  N1_3 
REMARK       I    between atoms: C1_2  and  N5_29 
REMARK    1  A    between atoms: N1_3  and  C2_5 
REMARK    2  A    between atoms: C5_8  and  N2_9 
REMARK    3  A    between atoms: C11_16  and  N3_17 
REMARK    4  A    between atoms: N4_20  and  C14_21 
REMARK    5  A    between atoms: N5_29  and  C20_31 
ROOT
HETATM    1  C2  UNL     1      -2.290   5.806  13.784  1.00  0.00     0.063 A 
HETATM    2  C3  UNL     1      -2.099   7.005  14.420  1.00  0.00     0.034 A 
HETATM    3  C4  UNL     1      -1.792   8.197  13.757  1.00  0.00     0.031 A 
HETATM    4  C5  UNL     1      -1.674   8.175  12.394  1.00  0.00     0.032 A 
HETATM    5  C10 UNL     1      -1.864   6.990  11.763  1.00  0.00     0.061 A 
HETATM    6  C11 UNL     1      -2.169   5.785  12.398  1.00  0.00     0.059 A 
ENDROOT
BRANCH   6   7
HETATM    7  N3  UNL     1      -2.357   4.600  11.652  1.00  0.00    -0.376 N 
HETATM    8  C12 UNL     1      -1.219   3.722  11.435  1.00  0.00     0.153 C 
HETATM    9  C13 UNL     1      -1.555   2.476  10.695  1.00  0.00     0.292 C 
HETATM   10  N4  UNL     1      -2.819   1.878  10.923  1.00  0.00     0.096 N 
HETATM   11  C18 UNL     1      -3.856   2.729  11.432  1.00  0.00     0.292 C 
HETATM   12  C19 UNL     1      -3.612   4.193  11.098  1.00  0.00     0.153 C 
BRANCH  10  13
HETATM   13  C14 UNL     1      -2.801   0.699  11.770  1.00  0.00     0.234 C 
HETATM   14  C15 UNL     1      -2.743  -0.628  11.054  1.00  0.00     0.115 C 
HETATM   15  C16 UNL     1      -4.259  -0.540  10.898  1.00  0.00     0.247 C 
HETATM   16  F1  UNL     1      -4.840  -1.768  11.139  1.00  0.00    -0.206 F 
HETATM   17  F2  UNL     1      -4.639   0.084   9.727  1.00  0.00    -0.206 F 
HETATM   18  C17 UNL     1      -4.255   0.368  12.124  1.00  0.00     0.115 C 
ENDBRANCH  10  13
ENDBRANCH   6   7
BRANCH   1  19
HETATM   19  N1  UNL     1      -2.623   4.615  14.481  1.00  0.00    -0.307 N 
HETATM   20  C1  UNL     1      -3.876   4.059  14.716  1.00  0.00     0.321 C 
HETATM   21  O1  UNL     1      -4.939   4.573  14.335  1.00  0.00    -0.247 OA
HETATM   22  N5  UNL     1      -4.008   2.828  15.439  1.00  0.00    -0.338 N 
ATOM     23  H5  UNL     1      -3.160   2.364  15.765  1.00  0.00     0.164 HD
ATOM     24  H1  UNL     1      -1.833   4.094  14.862  1.00  0.00     0.170 HD
BRANCH  22  25
HETATM   25  C20 UNL     1      -5.274   2.215  15.725  1.00  0.00     0.086 C 
HETATM   26  C21 UNL     1      -5.997   2.874  16.875  1.00  0.00     0.025 C 
HETATM   27  C22 UNL     1      -5.870   1.886  18.035  1.00  0.00     0.002 C 
HETATM   28  C23 UNL     1      -5.894   0.532  17.340  1.00  0.00     0.002 C 
HETATM   29  C24 UNL     1      -5.119   0.769  16.087  1.00  0.00     0.025 C 
ENDBRANCH  22  25
ENDBRANCH   1  19
BRANCH   4  30
HETATM   30  N2  UNL     1      -1.364   9.337  11.664  1.00  0.00    -0.377 N 
HETATM   31  C6  UNL     1      -2.316  10.096  10.865  1.00  0.00     0.149 C 
HETATM   32  C7  UNL     1      -2.365  11.494  11.453  1.00  0.00     0.187 C 
HETATM   33  O2  UNL     1      -1.108  12.043  11.634  1.00  0.00    -0.388 OA
HETATM   34  C8  UNL     1      -0.109  11.280  11.032  1.00  0.00     0.187 C 
HETATM   35  C9  UNL     1       0.000   9.891  11.637  1.00  0.00     0.149 C 
ENDBRANCH   4  30
TORSDOF 5
ENDMDL
MODEL 2
REMARK VINA RESULT: -8.821639831      3.748      8.053
REMARK  5 active torsions:
REMARK  status: ('A' for Active; 'I' for Inactive)
REMARK       I    between atoms: C1_2  and  N1_3 
REMARK       I    between atoms: C1_2  and  N5_29 
REMARK    1  A    between atoms: N1_3  and  C2_5 
REMARK    2  A    between atoms: C5_8  and  N2_9 
REMARK    3  A    between atoms: C11_16  and  N3_17 
REMARK    4  A    between atoms: N4_20  and  C14_21 
REMARK    5  A    between atoms: N5_29  and  C20_31 
ROOT
HETATM    1  C2  UNL     1      -4.624   5.055  12.895  1.00  0.00     0.063 A 
HETATM    2  C3  UNL     1      -5.762   5.191  13.646  1.00  0.00     0.034 A 
HETATM    3  C4  UNL     1      -6.114   4.329  14.689  1.00  0.00     0.031 A 
HETATM    4  C5  UNL     1      -5.279   3.285  14.984  1.00  0.00     0.032 A 
HETATM    5  C10 UNL     1      -4.152   3.150  14.242  1.00  0.00     0.061 A 
HETATM    6  C11 UNL     1      -3.776   3.994  13.196  1.00  0.00     0.059 A 
ENDROOT
BRANCH   6   7
HETATM    7  N3  UNL     1      -2.575   3.776  12.485  1.00  0.00    -0.376 N 
HETATM    8  C12 UNL     1      -2.571   2.813  11.396  1.00  0.00     0.153 C 
HETATM    9  C13 UNL     1      -1.270   2.720  10.682  1.00  0.00     0.292 C 
HETATM   10  N4  UNL     1      -0.502   3.901  10.524  1.00  0.00     0.096 N 
HETATM   11  C18 UNL     1      -0.753   4.965  11.454  1.00  0.00     0.292 C 
HETATM   12  C19 UNL     1      -1.347   4.458  12.760  1.00  0.00     0.153 C 
BRANCH  10  13
HETATM   13  C14 UNL     1      -0.544   4.493   9.200  1.00  0.00     0.234 C 
HETATM   14  C15 UNL     1      -0.041   3.627   8.071  1.00  0.00     0.115 C 
HETATM   15  C16 UNL     1       1.370   4.087   8.431  1.00  0.00     0.247 C 
HETATM   16  F1  UNL     1       2.095   4.354   7.288  1.00  0.00    -0.206 F 
HETATM   17  F2  UNL     1       1.982   3.259   9.351  1.00  0.00    -0.206 F 
HETATM   18  C17 UNL     1       0.727   5.332   9.033  1.00  0.00     0.115 C 
ENDBRANCH  10  13
ENDBRANCH   6   7
BRANCH   1  19
HETATM   19  N1  UNL     1      -4.280   5.960  11.857  1.00  0.00    -0.307 N 
HETATM   20  C1  UNL     1      -4.568   5.887  10.499  1.00  0.00     0.321 C 
HETATM   21  O1  UNL     1      -5.196   4.951   9.979  1.00  0.00    -0.247 OA
HETATM   22  N5  UNL     1      -4.140   6.919   9.600  1.00  0.00    -0.338 N 
ATOM     23  H5  UNL     1      -3.628   7.714   9.984  1.00  0.00     0.164 HD
ATOM     24  H1  UNL     1      -3.746   6.779  12.149  1.00  0.00     0.170 HD
BRANCH  22  25
HETATM   25  C20 UNL     1      -4.395   6.891   8.189  1.00  0.00     0.086 C 
HETATM   26  C21 UNL     1      -3.412   6.030   7.433  1.00  0.00     0.025 C 
HETATM   27  C22 UNL     1      -2.508   7.020   6.699  1.00  0.00     0.002 C 
HETATM   28  C23 UNL     1      -3.448   8.173   6.378  1.00  0.00     0.002 C 
HETATM   29  C24 UNL     1      -4.320   8.261   7.585  1.00  0.00     0.025 C 
ENDBRANCH  22  25
ENDBRANCH   1  19
BRANCH   4  30
HETATM   30  N2  UNL     1      -5.573   2.378  16.018  1.00  0.00    -0.377 N 
HETATM   31  C6  UNL     1      -6.678   2.515  16.956  1.00  0.00     0.149 C 
HETATM   32  C7  UNL     1      -7.561   1.294  16.774  1.00  0.00     0.187 C 
HETATM   33  O2  UNL     1      -6.848   0.109  16.803  1.00  0.00    -0.388 OA
HETATM   34  C8  UNL     1      -5.529   0.299  17.211  1.00  0.00     0.187 C 
HETATM   35  C9  UNL     1      -4.749   1.180  16.252  1.00  0.00     0.149 C 
ENDBRANCH   4  30
TORSDOF 5
ENDMDL
MODEL 3
REMARK VINA RESULT: -8.406113508      2.951      5.147
REMARK  5 active torsions:
REMARK  status: ('A' for Active; 'I' for Inactive)
REMARK       I    between atoms: C1_2  and  N1_3 
REMARK       I    between atoms: C1_2  and  N5_29 
REMARK    1  A    between atoms: N1_3  and  C2_5 
REMARK    2  A    between atoms: C5_8  and  N2_9 
REMARK    3  A    between atoms: C11_16  and  N3_17 
REMARK    4  A    between atoms: N4_20  and  C14_21 
REMARK    5  A    between atoms: N5_29  and  C20_31 
ROOT
HETATM    1  C2  UNL     1      -3.386   5.390  11.146  1.00  0.00     0.063 A 
HETATM    2  C3  UNL     1      -3.049   6.022   9.978  1.00  0.00     0.034 A 
HETATM    3  C4  UNL     1      -3.395   7.344   9.680  1.00  0.00     0.031 A 
HETATM    4  C5  UNL     1      -4.113   8.055  10.603  1.00  0.00     0.032 A 
HETATM    5  C10 UNL     1      -4.446   7.431  11.760  1.00  0.00     0.061 A 
HETATM    6  C11 UNL     1      -4.115   6.115  12.083  1.00  0.00     0.059 A 
ENDROOT
BRANCH   6   7
HETATM    7  N3  UNL     1      -4.502   5.553  13.321  1.00  0.00    -0.376 N 
HETATM    8  C12 UNL     1      -5.877   5.113  13.491  1.00  0.00     0.153 C 
HETATM    9  C13 UNL     1      -6.146   4.480  14.810  1.00  0.00     0.292 C 
HETATM   10  N4  UNL     1      -5.123   3.699  15.402  1.00  0.00     0.096 N 
HETATM   11  C18 UNL     1      -3.778   3.963  14.977  1.00  0.00     0.292 C 
HETATM   12  C19 UNL     1      -3.616   5.373  14.430  1.00  0.00     0.153 C 
BRANCH  10  13
HETATM   13  C14 UNL     1      -5.309   2.263  15.308  1.00  0.00     0.234 C 
HETATM   14  C15 UNL     1      -6.463   1.692  16.098  1.00  0.00     0.115 C 
HETATM   15  C16 UNL     1      -5.540   1.676  17.314  1.00  0.00     0.247 C 
HETATM   16  F1  UNL     1      -5.707   0.508  18.030  1.00  0.00    -0.206 F 
HETATM   17  F2  UNL     1      -5.604   2.844  18.048  1.00  0.00    -0.206 F 
HETATM   18  C17 UNL     1      -4.374   1.611  16.333  1.00  0.00     0.115 C 
ENDBRANCH  10  13
ENDBRANCH   6   7
BRANCH   1  19
HETATM   19  N1  UNL     1      -3.000   4.054  11.432  1.00  0.00    -0.307 N 
HETATM   20  C1  UNL     1      -3.393   2.876  10.807  1.00  0.00     0.321 C 
HETATM   21  O1  UNL     1      -4.198   2.833   9.863  1.00  0.00    -0.247 OA
HETATM   22  N5  UNL     1      -2.877   1.609  11.238  1.00  0.00    -0.338 N 
ATOM     23  H5  UNL     1      -2.205   1.596  12.006  1.00  0.00     0.164 HD
ATOM     24  H1  UNL     1      -2.342   3.944  12.203  1.00  0.00     0.170 HD
BRANCH  22  25
HETATM   25  C20 UNL     1      -3.257   0.360  10.642  1.00  0.00     0.086 C 
HETATM   26  C21 UNL     1      -4.550  -0.185  11.199  1.00  0.00     0.025 C 
HETATM   27  C22 UNL     1      -4.131  -1.357  12.085  1.00  0.00     0.002 C 
HETATM   28  C23 UNL     1      -2.910  -1.915  11.367  1.00  0.00     0.002 C 
HETATM   29  C24 UNL     1      -2.216  -0.696  10.859  1.00  0.00     0.025 C 
ENDBRANCH  22  25
ENDBRANCH   1  19
BRANCH   4  30
HETATM   30  N2  UNL     1      -4.498   9.388  10.368  1.00  0.00    -0.377 N 
HETATM   31  C6  UNL     1      -3.577  10.506  10.223  1.00  0.00     0.149 C 
HETATM   32  C7  UNL     1      -3.802  11.081   8.836  1.00  0.00     0.187 C 
HETATM   33  O2  UNL     1      -5.138  11.320   8.567  1.00  0.00    -0.388 OA
HETATM   34  C8  UNL     1      -5.936  11.186   9.701  1.00  0.00     0.187 C 
HETATM   35  C9  UNL     1      -5.915   9.774  10.259  1.00  0.00     0.149 C 
ENDBRANCH   4  30
TORSDOF 5
ENDMDL
MODEL 4
REMARK VINA RESULT: -8.263643001      2.603      4.719
REMARK  5 active torsions:
REMARK  status: ('A' for Active; 'I' for Inactive)
REMARK       I    between atoms: C1_2  and  N1_3 
REMARK       I    between atoms: C1_2  and  N5_29 
REMARK    1  A    between atoms: N1_3  and  C2_5 
REMARK    2  A    between atoms: C5_8  and  N2_9 
REMARK    3  A    between atoms: C11_16  and  N3_17 
REMARK    4  A    between atoms: N4_20  and  C14_21 
REMARK    5  A    between atoms: N5_29  and  C20_31 
ROOT
HETATM    1  C2  UNL     1      -2.510   5.682  11.082  1.00  0.00     0.063 A 
HETATM    2  C3  UNL     1      -1.908   6.289  10.011  1.00  0.00     0.034 A 
HETATM    3  C4  UNL     1      -2.028   7.652   9.720  1.00  0.00     0.031 A 
HETATM    4  C5  UNL     1      -2.789   8.432  10.547  1.00  0.00     0.032 A 
HETATM    5  C10 UNL     1      -3.384   7.833  11.608  1.00  0.00     0.061 A 
HETATM    6  C11 UNL     1      -3.283   6.477  11.922  1.00  0.00     0.059 A 
ENDROOT
BRANCH   6   7
HETATM    7  N3  UNL     1      -3.936   5.944  13.057  1.00  0.00    -0.376 N 
HETATM    8  C12 UNL     1      -5.290   5.438  12.912  1.00  0.00     0.153 C 
HETATM    9  C13 UNL     1      -5.846   4.844  14.158  1.00  0.00     0.292 C 
HETATM   10  N4  UNL     1      -4.965   4.144  15.019  1.00  0.00     0.096 N 
HETATM   11  C18 UNL     1      -3.570   4.464  14.919  1.00  0.00     0.292 C 
HETATM   12  C19 UNL     1      -3.340   5.858  14.355  1.00  0.00     0.153 C 
BRANCH  10  13
HETATM   13  C14 UNL     1      -5.062   2.697  14.957  1.00  0.00     0.234 C 
HETATM   14  C15 UNL     1      -6.283   2.087  15.601  1.00  0.00     0.115 C 
HETATM   15  C16 UNL     1      -5.541   2.162  16.934  1.00  0.00     0.247 C 
HETATM   16  F1  UNL     1      -5.746   1.011  17.665  1.00  0.00    -0.206 F 
HETATM   17  F2  UNL     1      -5.769   3.347  17.604  1.00  0.00    -0.206 F 
HETATM   18  C17 UNL     1      -4.247   2.133  16.127  1.00  0.00     0.115 C 
ENDBRANCH  10  13
ENDBRANCH   6   7
BRANCH   1  19
HETATM   19  N1  UNL     1      -2.351   4.300  11.366  1.00  0.00    -0.307 N 
HETATM   20  C1  UNL     1      -3.024   3.211  10.825  1.00  0.00     0.321 C 
HETATM   21  O1  UNL     1      -3.921   3.311   9.973  1.00  0.00    -0.247 OA
HETATM   22  N5  UNL     1      -2.708   1.874  11.237  1.00  0.00    -0.338 N 
ATOM     23  H5  UNL     1      -1.971   1.742  11.929  1.00  0.00     0.164 HD
ATOM     24  H1  UNL     1      -1.644   4.076  12.067  1.00  0.00     0.170 HD
BRANCH  22  25
HETATM   25  C20 UNL     1      -3.378   0.714  10.725  1.00  0.00     0.086 C 
HETATM   26  C21 UNL     1      -4.559   0.298  11.568  1.00  0.00     0.025 C 
HETATM   27  C22 UNL     1      -4.095  -0.961  12.299  1.00  0.00     0.002 C 
HETATM   28  C23 UNL     1      -3.165  -1.622  11.292  1.00  0.00     0.002 C 
HETATM   29  C24 UNL     1      -2.461  -0.470  10.657  1.00  0.00     0.025 C 
ENDBRANCH  22  25
ENDBRANCH   1  19
BRANCH   4  30
HETATM   30  N2  UNL     1      -2.956   9.809  10.312  1.00  0.00    -0.377 N 
HETATM   31  C6  UNL     1      -3.693  10.379   9.194  1.00  0.00     0.149 C 
HETATM   32  C7  UNL     1      -4.823  11.200   9.787  1.00  0.00     0.187 C 
HETATM   33  O2  UNL     1      -4.391  12.071  10.771  1.00  0.00    -0.388 OA
HETATM   34  C8  UNL     1      -3.001  12.149  10.831  1.00  0.00     0.187 C 
HETATM   35  C9  UNL     1      -2.363  10.822  11.202  1.00  0.00     0.149 C 
ENDBRANCH   4  30
TORSDOF 5
ENDMDL
MODEL 5
REMARK VINA RESULT: -8.212479482      4.239      6.673
REMARK  5 active torsions:
REMARK  status: ('A' for Active; 'I' for Inactive)
REMARK       I    between atoms: C1_2  and  N1_3 
REMARK       I    between atoms: C1_2  and  N5_29 
REMARK    1  A    between atoms: N1_3  and  C2_5 
REMARK    2  A    between atoms: C5_8  and  N2_9 
REMARK    3  A    between atoms: C11_16  and  N3_17 
REMARK    4  A    between atoms: N4_20  and  C14_21 
REMARK    5  A    between atoms: N5_29  and  C20_31 
ROOT
HETATM    1  C2  UNL     1      -2.353   3.260  11.178  1.00  0.00     0.063 A 
HETATM    2  C3  UNL     1      -1.360   2.341  10.962  1.00  0.00     0.034 A 
HETATM    3  C4  UNL     1      -0.308   2.531  10.061  1.00  0.00     0.031 A 
HETATM    4  C5  UNL     1      -0.258   3.699   9.350  1.00  0.00     0.032 A 
HETATM    5  C10 UNL     1      -1.240   4.610   9.565  1.00  0.00     0.061 A 
HETATM    6  C11 UNL     1      -2.302   4.448  10.455  1.00  0.00     0.059 A 
ENDROOT
BRANCH   6   7
HETATM    7  N3  UNL     1      -3.275   5.459  10.616  1.00  0.00    -0.376 N 
HETATM    8  C12 UNL     1      -2.944   6.628  11.415  1.00  0.00     0.153 C 
HETATM    9  C13 UNL     1      -4.022   7.651  11.457  1.00  0.00     0.292 C 
HETATM   10  N4  UNL     1      -4.812   7.844  10.295  1.00  0.00     0.096 N 
HETATM   11  C18 UNL     1      -4.873   6.754   9.365  1.00  0.00     0.292 C 
HETATM   12  C19 UNL     1      -4.579   5.417  10.028  1.00  0.00     0.153 C 
BRANCH  10  13
HETATM   13  C14 UNL     1      -4.492   9.029   9.521  1.00  0.00     0.234 C 
HETATM   14  C15 UNL     1      -4.535  10.340  10.268  1.00  0.00     0.115 C 
HETATM   15  C16 UNL     1      -6.041  10.361  10.017  1.00  0.00     0.247 C 
HETATM   16  F1  UNL     1      -6.455  11.631   9.671  1.00  0.00    -0.206 F 
HETATM   17  F2  UNL     1      -6.758   9.751  11.027  1.00  0.00    -0.206 F 
HETATM   18  C17 UNL     1      -5.775   9.470   8.808  1.00  0.00     0.115 C 
ENDBRANCH  10  13
ENDBRANCH   6   7
BRANCH   1  19
HETATM   19  N1  UNL     1      -3.398   3.051  12.117  1.00  0.00    -0.307 N 
HETATM   20  C1  UNL     1      -3.468   3.438  13.451  1.00  0.00     0.321 C 
HETATM   21  O1  UNL     1      -2.560   4.046  14.039  1.00  0.00    -0.247 OA
HETATM   22  N5  UNL     1      -4.627   3.141  14.241  1.00  0.00    -0.338 N 
ATOM     23  H5  UNL     1      -5.403   2.649  13.798  1.00  0.00     0.164 HD
ATOM     24  H1  UNL     1      -4.210   2.546  11.763  1.00  0.00     0.170 HD
BRANCH  22  25
HETATM   25  C20 UNL     1      -4.750   3.501  15.624  1.00  0.00     0.086 C 
HETATM   26  C21 UNL     1      -4.892   2.303  16.532  1.00  0.00     0.025 C 
HETATM   27  C22 UNL     1      -6.359   2.309  16.961  1.00  0.00     0.002 C 
HETATM   28  C23 UNL     1      -6.695   3.793  17.022  1.00  0.00     0.002 C 
HETATM   29  C24 UNL     1      -5.948   4.368  15.866  1.00  0.00     0.025 C 
ENDBRANCH  22  25
ENDBRANCH   1  19
BRANCH   4  30
HETATM   30  N2  UNL     1       0.771   3.954   8.425  1.00  0.00    -0.377 N 
HETATM   31  C6  UNL     1       2.013   4.648   8.732  1.00  0.00     0.149 C 
HETATM   32  C7  UNL     1       3.141   3.675   8.444  1.00  0.00     0.187 C 
HETATM   33  O2  UNL     1       3.035   3.088   7.196  1.00  0.00    -0.388 OA
HETATM   34  C8  UNL     1       2.049   3.688   6.414  1.00  0.00     0.187 C 
HETATM   35  C9  UNL     1       0.663   3.537   7.017  1.00  0.00     0.149 C 
ENDBRANCH   4  30
TORSDOF 5
ENDMDL
