MODEL 1
REMARK VINA RESULT: -3.473522556      0.000      0.000
REMARK  1 active torsions:
REMARK  status: ('A' for Active; 'I' for Inactive)
REMARK    1  A    between atoms: N1_1  and  N2_4 
REMARK       I    between atoms: N2_4  and  C1_6 
REMARK       I    between atoms: C1_6  and  N3_8 
ROOT
HETATM    1  N2  UNL     1      63.310 -50.480  22.588  1.00  0.00    -0.257 N 
ATOM      2  H2  UNL     1      62.766 -50.361  23.442  1.00  0.00     0.191 HD
HETATM    3  C1  UNL     1      62.959 -49.804  21.405  1.00  0.00     0.349 C 
HETATM    4  O1  UNL     1      63.600 -49.930  20.358  1.00  0.00    -0.244 OA
HETATM    5  N3  UNL     1      61.809 -48.939  21.438  1.00  0.00    -0.208 N 
HETATM    6  C2  UNL     1      61.006 -48.690  22.480  1.00  0.00     0.214 A 
HETATM    7  N4  UNL     1      60.050 -47.821  22.074  1.00  0.00    -0.291 N 
ATOM      8  H4  UNL     1      59.301 -47.453  22.660  1.00  0.00     0.188 HD
HETATM    9  N5  UNL     1      60.236 -47.522  20.797  1.00  0.00    -0.250 N 
ATOM     10  H5  UNL     1      59.674 -46.895  20.222  1.00  0.00     0.192 HD
HETATM   11  C3  UNL     1      61.313 -48.211  20.420  1.00  0.00     0.350 A 
HETATM   12  O2  UNL     1      61.800 -48.182  19.260  1.00  0.00    -0.244 OA
ENDROOT
BRANCH   1  13
HETATM   13  N1  UNL     1      64.428 -51.321  22.559  1.00  0.00    -0.341 N 
ATOM     14  H12 UNL     1      64.518 -52.025  21.827  1.00  0.00     0.177 HD
ATOM     15  H11 UNL     1      65.135 -51.205  23.285  1.00  0.00     0.177 HD
ENDBRANCH   1  13
TORSDOF 1
ENDMDL
MODEL 2
REMARK VINA RESULT: -2.597305323      1.533      3.529
REMARK  1 active torsions:
REMARK  status: ('A' for Active; 'I' for Inactive)
REMARK    1  A    between atoms: N1_1  and  N2_4 
REMARK       I    between atoms: N2_4  and  C1_6 
REMARK       I    between atoms: C1_6  and  N3_8 
ROOT
HETATM    1  N2  UNL     1      59.963 -48.733  22.762  1.00  0.00    -0.257 N 
ATOM      2  H2  UNL     1      60.454 -49.360  23.399  1.00  0.00     0.191 HD
HETATM    3  C1  UNL     1      60.504 -48.409  21.504  1.00  0.00     0.349 C 
HETATM    4  O1  UNL     1      59.931 -47.654  20.714  1.00  0.00    -0.244 OA
HETATM    5  N3  UNL     1      61.772 -48.990  21.145  1.00  0.00    -0.208 N 
HETATM    6  C2  UNL     1      62.524 -49.822  21.876  1.00  0.00     0.214 A 
HETATM    7  N4  UNL     1      63.633 -50.123  21.160  1.00  0.00    -0.291 N 
ATOM      8  H4  UNL     1      64.385 -50.738  21.470  1.00  0.00     0.188 HD
HETATM    9  N5  UNL     1      63.592 -49.495  19.995  1.00  0.00    -0.250 N 
ATOM     10  H5  UNL     1      64.288 -49.530  19.251  1.00  0.00     0.192 HD
HETATM   11  C3  UNL     1      62.451 -48.806  19.998  1.00  0.00     0.350 A 
HETATM   12  O2  UNL     1      62.062 -48.078  19.047  1.00  0.00    -0.244 OA
ENDROOT
BRANCH   1  13
HETATM   13  N1  UNL     1      58.731 -48.171  23.114  1.00  0.00    -0.341 N 
ATOM     14  H12 UNL     1      57.903 -48.361  22.549  1.00  0.00     0.177 HD
ATOM     15  H11 UNL     1      58.694 -47.574  23.941  1.00  0.00     0.177 HD
ENDBRANCH   1  13
TORSDOF 1
ENDMDL
MODEL 3
REMARK VINA RESULT: -2.262087134      1.826      2.124
REMARK  1 active torsions:
REMARK  status: ('A' for Active; 'I' for Inactive)
REMARK    1  A    between atoms: N1_1  and  N2_4 
REMARK       I    between atoms: N2_4  and  C1_6 
REMARK       I    between atoms: C1_6  and  N3_8 
ROOT
HETATM    1  N2  UNL     1      63.557 -50.158  21.746  1.00  0.00    -0.257 N 
ATOM      2  H2  UNL     1      64.135 -49.870  20.956  1.00  0.00     0.191 HD
HETATM    3  C1  UNL     1      62.276 -49.611  21.943  1.00  0.00     0.349 C 
HETATM    4  O1  UNL     1      61.557 -49.940  22.890  1.00  0.00    -0.244 OA
HETATM    5  N3  UNL     1      61.806 -48.633  20.996  1.00  0.00    -0.208 N 
HETATM    6  C2  UNL     1      62.452 -48.164  19.920  1.00  0.00     0.214 A 
HETATM    7  N4  UNL     1      61.647 -47.262  19.310  1.00  0.00    -0.291 N 
ATOM      8  H4  UNL     1      61.881 -46.744  18.463  1.00  0.00     0.188 HD
HETATM    9  N5  UNL     1      60.511 -47.155  19.982  1.00  0.00    -0.250 N 
ATOM     10  H5  UNL     1      59.718 -46.554  19.760  1.00  0.00     0.192 HD
HETATM   11  C3  UNL     1      60.621 -47.997  21.010  1.00  0.00     0.350 A 
HETATM   12  O2  UNL     1      59.727 -48.172  21.878  1.00  0.00    -0.244 OA
ENDROOT
BRANCH   1  13
HETATM   13  N1  UNL     1      64.017 -51.108  22.664  1.00  0.00    -0.341 N 
ATOM     14  H12 UNL     1      64.631 -50.824  23.427  1.00  0.00     0.177 HD
ATOM     15  H11 UNL     1      63.719 -52.076  22.543  1.00  0.00     0.177 HD
ENDBRANCH   1  13
TORSDOF 1
ENDMDL
MODEL 4
REMARK VINA RESULT: -2.042092044      1.989      2.169
REMARK  1 active torsions:
REMARK  status: ('A' for Active; 'I' for Inactive)
REMARK    1  A    between atoms: N1_1  and  N2_4 
REMARK       I    between atoms: N2_4  and  C1_6 
REMARK       I    between atoms: C1_6  and  N3_8 
ROOT
HETATM    1  N2  UNL     1      63.801 -48.997  20.117  1.00  0.00    -0.257 N 
ATOM      2  H2  UNL     1      64.164 -48.077  20.365  1.00  0.00     0.191 HD
HETATM    3  C1  UNL     1      62.497 -49.383  20.477  1.00  0.00     0.349 C 
HETATM    4  O1  UNL     1      62.033 -50.490  20.189  1.00  0.00    -0.244 OA
HETATM    5  N3  UNL     1      61.691 -48.438  21.205  1.00  0.00    -0.208 N 
HETATM    6  C2  UNL     1      62.034 -47.204  21.596  1.00  0.00     0.214 A 
HETATM    7  N4  UNL     1      60.979 -46.664  22.252  1.00  0.00    -0.291 N 
ATOM      8  H4  UNL     1      60.956 -45.730  22.661  1.00  0.00     0.188 HD
HETATM    9  N5  UNL     1      59.982 -47.535  22.280  1.00  0.00    -0.250 N 
ATOM     10  H5  UNL     1      59.064 -47.408  22.705  1.00  0.00     0.192 HD
HETATM   11  C3  UNL     1      60.429 -48.615  21.638  1.00  0.00     0.350 A 
HETATM   12  O2  UNL     1      59.754 -49.662  21.463  1.00  0.00    -0.244 OA
ENDROOT
BRANCH   1  13
HETATM   13  N1  UNL     1      64.587 -49.912  19.408  1.00  0.00    -0.341 N 
ATOM     14  H12 UNL     1      64.175 -50.778  19.062  1.00  0.00     0.177 HD
ATOM     15  H11 UNL     1      65.570 -49.684  19.255  1.00  0.00     0.177 HD
ENDBRANCH   1  13
TORSDOF 1
ENDMDL
MODEL 5
REMARK VINA RESULT: -2.037302867      2.328      3.926
REMARK  1 active torsions:
REMARK  status: ('A' for Active; 'I' for Inactive)
REMARK    1  A    between atoms: N1_1  and  N2_4 
REMARK       I    between atoms: N2_4  and  C1_6 
REMARK       I    between atoms: C1_6  and  N3_8 
ROOT
HETATM    1  N2  UNL     1      61.946 -46.094  21.799  1.00  0.00    -0.257 N 
ATOM      2  H2  UNL     1      62.902 -45.973  21.465  1.00  0.00     0.191 HD
HETATM    3  C1  UNL     1      61.271 -47.318  21.635  1.00  0.00     0.349 C 
HETATM    4  O1  UNL     1      60.115 -47.491  22.029  1.00  0.00    -0.244 OA
HETATM    5  N3  UNL     1      61.972 -48.393  20.983  1.00  0.00    -0.208 N 
HETATM    6  C2  UNL     1      63.220 -48.376  20.497  1.00  0.00     0.214 A 
HETATM    7  N4  UNL     1      63.479 -49.596  19.967  1.00  0.00    -0.291 N 
ATOM      8  H4  UNL     1      64.356 -49.871  19.526  1.00  0.00     0.188 HD
HETATM    9  N5  UNL     1      62.419 -50.376  20.111  1.00  0.00    -0.250 N 
ATOM     10  H5  UNL     1      62.321 -51.345  19.809  1.00  0.00     0.192 HD
HETATM   11  C3  UNL     1      61.505 -49.630  20.732  1.00  0.00     0.350 A 
HETATM   12  O2  UNL     1      60.354 -50.034  21.041  1.00  0.00    -0.244 OA
ENDROOT
BRANCH   1  13
HETATM   13  N1  UNL     1      61.268 -45.048  22.433  1.00  0.00    -0.341 N 
ATOM     14  H12 UNL     1      60.664 -44.429  21.892  1.00  0.00     0.177 HD
ATOM     15  H11 UNL     1      61.399 -44.929  23.438  1.00  0.00     0.177 HD
ENDBRANCH   1  13
TORSDOF 1
ENDMDL
