MODEL 1
REMARK VINA RESULT: -2.197313745      0.000      0.000
REMARK  3 active torsions:
REMARK  status: ('A' for Active; 'I' for Inactive)
REMARK    1  A    between atoms: C2_5  and  N3_6 
REMARK    2  A    between atoms: C4_13  and  N5_14 
REMARK    3  A    between atoms: N5_14  and  N6_16 
ROOT
HETATM    1  C1  UNL     1      63.197 -50.738  22.257  1.00  0.00     0.180 C 
HETATM    2  N1  UNL     1      62.259 -49.737  21.737  1.00  0.00    -0.261 N 
HETATM    3  N2  UNL     1      61.173 -49.493  22.468  1.00  0.00    -0.129 N 
ATOM      4  H2  UNL     1      61.053 -50.008  23.340  1.00  0.00     0.206 HD
HETATM    5  C2  UNL     1      60.222 -48.603  22.121  1.00  0.00     0.693 A 
HETATM    6  N4  UNL     1      60.411 -47.941  20.968  1.00  0.00    -0.152 N 
ATOM      7  H4  UNL     1      59.719 -47.257  20.663  1.00  0.00     0.188 HD
HETATM    8  C3  UNL     1      61.500 -48.168  20.209  1.00  0.00     0.306 A 
HETATM    9  O1  UNL     1      61.688 -47.554  19.126  1.00  0.00    -0.263 OA
HETATM   10  C4  UNL     1      62.449 -49.088  20.600  1.00  0.00     0.206 A 
ENDROOT
BRANCH  10  11
HETATM   11  N5  UNL     1      63.496 -49.324  19.897  1.00  0.00    -0.286 N 
ATOM     12  H5  UNL     1      63.512 -50.096  19.230  1.00  0.00     0.188 HD
BRANCH  11  13
HETATM   13  N6  UNL     1      64.601 -48.511  20.059  1.00  0.00    -0.343 N 
ATOM     14  H62 UNL     1      64.481 -47.500  20.117  1.00  0.00     0.176 HD
ATOM     15  H61 UNL     1      65.523 -48.944  20.119  1.00  0.00     0.176 HD
ENDBRANCH  11  13
ENDBRANCH  10  11
BRANCH   5  16
HETATM   16  N3  UNL     1      59.176 -48.394  22.864  1.00  0.00    -0.233 N 
ATOM     17  H32 UNL     1      58.284 -48.848  22.669  1.00  0.00     0.174 HD
ATOM     18  H31 UNL     1      59.205 -47.768  23.669  1.00  0.00     0.174 HD
ENDBRANCH   5  16
TORSDOF 3
ENDMDL
MODEL 2
REMARK VINA RESULT: -2.145880552      1.584      2.522
REMARK  3 active torsions:
REMARK  status: ('A' for Active; 'I' for Inactive)
REMARK    1  A    between atoms: C2_5  and  N3_6 
REMARK    2  A    between atoms: C4_13  and  N5_14 
REMARK    3  A    between atoms: N5_14  and  N6_16 
ROOT
HETATM    1  C1  UNL     1      61.725 -46.950  19.299  1.00  0.00     0.180 C 
HETATM    2  N1  UNL     1      61.628 -47.846  20.457  1.00  0.00    -0.261 N 
HETATM    3  N2  UNL     1      60.499 -47.798  21.162  1.00  0.00    -0.129 N 
ATOM      4  H2  UNL     1      59.771 -47.150  20.862  1.00  0.00     0.206 HD
HETATM    5  C2  UNL     1      60.264 -48.556  22.250  1.00  0.00     0.693 A 
HETATM    6  N4  UNL     1      61.243 -49.400  22.618  1.00  0.00    -0.152 N 
ATOM      7  H4  UNL     1      61.112 -49.995  23.435  1.00  0.00     0.188 HD
HETATM    8  C3  UNL     1      62.395 -49.469  21.923  1.00  0.00     0.306 A 
HETATM    9  O1  UNL     1      63.319 -50.255  22.258  1.00  0.00    -0.263 OA
HETATM   10  C4  UNL     1      62.596 -48.673  20.815  1.00  0.00     0.206 A 
ENDROOT
BRANCH  10  11
HETATM   11  N5  UNL     1      63.683 -48.720  20.135  1.00  0.00    -0.286 N 
ATOM     12  H5  UNL     1      64.305 -47.912  20.094  1.00  0.00     0.188 HD
BRANCH  11  13
HETATM   13  N6  UNL     1      63.995 -49.884  19.461  1.00  0.00    -0.343 N 
ATOM     14  H62 UNL     1      63.373 -50.689  19.529  1.00  0.00     0.176 HD
ATOM     15  H61 UNL     1      64.848 -49.914  18.903  1.00  0.00     0.176 HD
ENDBRANCH  11  13
ENDBRANCH  10  11
BRANCH   5  16
HETATM   16  N3  UNL     1      59.147 -48.479  22.910  1.00  0.00    -0.233 N 
ATOM     17  H32 UNL     1      58.773 -47.584  23.222  1.00  0.00     0.174 HD
ATOM     18  H31 UNL     1      58.603 -49.309  23.144  1.00  0.00     0.174 HD
ENDBRANCH   5  16
TORSDOF 3
ENDMDL
MODEL 3
REMARK VINA RESULT: -1.463529295      1.898      4.185
REMARK  3 active torsions:
REMARK  status: ('A' for Active; 'I' for Inactive)
REMARK    1  A    between atoms: C2_5  and  N3_6 
REMARK    2  A    between atoms: C4_13  and  N5_14 
REMARK    3  A    between atoms: N5_14  and  N6_16 
ROOT
HETATM    1  C1  UNL     1      60.657 -46.803  19.633  1.00  0.00     0.180 C 
HETATM    2  N1  UNL     1      61.422 -47.850  20.320  1.00  0.00    -0.261 N 
HETATM    3  N2  UNL     1      62.396 -48.437  19.627  1.00  0.00    -0.129 N 
ATOM      4  H2  UNL     1      62.557 -48.129  18.668  1.00  0.00     0.206 HD
HETATM    5  C2  UNL     1      63.181 -49.413  20.121  1.00  0.00     0.693 A 
HETATM    6  N4  UNL     1      62.944 -49.794  21.386  1.00  0.00    -0.152 N 
ATOM      7  H4  UNL     1      63.512 -50.529  21.805  1.00  0.00     0.188 HD
HETATM    8  C3  UNL     1      61.964 -49.218  22.110  1.00  0.00     0.306 A 
HETATM    9  O1  UNL     1      61.731 -49.567  23.297  1.00  0.00    -0.263 OA
HETATM   10  C4  UNL     1      61.181 -48.222  21.567  1.00  0.00     0.206 A 
ENDROOT
BRANCH  10  11
HETATM   11  N5  UNL     1      60.243 -47.657  22.234  1.00  0.00    -0.286 N 
ATOM     12  H5  UNL     1      60.243 -46.647  22.378  1.00  0.00     0.188 HD
BRANCH  11  13
HETATM   13  N6  UNL     1      59.231 -48.442  22.752  1.00  0.00    -0.343 N 
ATOM     14  H62 UNL     1      58.601 -48.056  23.454  1.00  0.00     0.176 HD
ATOM     15  H61 UNL     1      59.136 -49.401  22.418  1.00  0.00     0.176 HD
ENDBRANCH  11  13
ENDBRANCH  10  11
BRANCH   5  16
HETATM   16  N3  UNL     1      64.123 -49.959  19.411  1.00  0.00    -0.233 N 
ATOM     17  H32 UNL     1      64.877 -50.493  19.843  1.00  0.00     0.174 HD
ATOM     18  H31 UNL     1      64.147 -49.876  18.394  1.00  0.00     0.174 HD
ENDBRANCH   5  16
TORSDOF 3
ENDMDL
MODEL 4
REMARK VINA RESULT: -1.329940678      1.804      3.953
REMARK  3 active torsions:
REMARK  status: ('A' for Active; 'I' for Inactive)
REMARK    1  A    between atoms: C2_5  and  N3_6 
REMARK    2  A    between atoms: C4_13  and  N5_14 
REMARK    3  A    between atoms: N5_14  and  N6_16 
ROOT
HETATM    1  C1  UNL     1      62.213 -46.097  21.933  1.00  0.00     0.180 C 
HETATM    2  N1  UNL     1      62.052 -47.464  21.423  1.00  0.00    -0.261 N 
HETATM    3  N2  UNL     1      63.095 -47.997  20.791  1.00  0.00    -0.129 N 
ATOM      4  H2  UNL     1      63.941 -47.434  20.696  1.00  0.00     0.206 HD
HETATM    5  C2  UNL     1      63.098 -49.239  20.268  1.00  0.00     0.693 A 
HETATM    6  N4  UNL     1      61.970 -49.954  20.411  1.00  0.00    -0.152 N 
ATOM      7  H4  UNL     1      61.924 -50.899  20.032  1.00  0.00     0.188 HD
HETATM    8  C3  UNL     1      60.900 -49.439  21.046  1.00  0.00     0.306 A 
HETATM    9  O1  UNL     1      59.837 -50.099  21.186  1.00  0.00    -0.263 OA
HETATM   10  C4  UNL     1      60.938 -48.163  21.566  1.00  0.00     0.206 A 
ENDROOT
BRANCH  10  11
HETATM   11  N5  UNL     1      59.933 -47.649  22.176  1.00  0.00    -0.286 N 
ATOM     12  H5  UNL     1      59.688 -46.668  22.039  1.00  0.00     0.188 HD
BRANCH  11  13
HETATM   13  N6  UNL     1      59.190 -48.449  23.022  1.00  0.00    -0.343 N 
ATOM     14  H62 UNL     1      59.239 -48.301  24.030  1.00  0.00     0.176 HD
ATOM     15  H61 UNL     1      58.602 -49.177  22.617  1.00  0.00     0.176 HD
ENDBRANCH  11  13
ENDBRANCH  10  11
BRANCH   5  16
HETATM   16  N3  UNL     1      64.139 -49.722  19.658  1.00  0.00    -0.233 N 
ATOM     17  H32 UNL     1      64.065 -50.155  18.737  1.00  0.00     0.174 HD
ATOM     18  H31 UNL     1      65.069 -49.691  20.074  1.00  0.00     0.174 HD
ENDBRANCH   5  16
TORSDOF 3
ENDMDL
MODEL 5
REMARK VINA RESULT: -0.788699654      7.036      8.437
REMARK  3 active torsions:
REMARK  status: ('A' for Active; 'I' for Inactive)
REMARK    1  A    between atoms: C2_5  and  N3_6 
REMARK    2  A    between atoms: C4_13  and  N5_14 
REMARK    3  A    between atoms: N5_14  and  N6_16 
ROOT
HETATM    1  C1  UNL     1      61.482 -44.640  17.454  1.00  0.00     0.180 C 
HETATM    2  N1  UNL     1      61.453 -44.548  15.989  1.00  0.00    -0.261 N 
HETATM    3  N2  UNL     1      61.874 -45.613  15.310  1.00  0.00    -0.129 N 
ATOM      4  H2  UNL     1      62.189 -46.427  15.838  1.00  0.00     0.206 HD
HETATM    5  C2  UNL     1      61.908 -45.677  13.966  1.00  0.00     0.693 A 
HETATM    6  N4  UNL     1      61.485 -44.589  13.301  1.00  0.00    -0.152 N 
ATOM      7  H4  UNL     1      61.492 -44.589  12.281  1.00  0.00     0.188 HD
HETATM    8  C3  UNL     1      61.054 -43.497  13.962  1.00  0.00     0.306 A 
HETATM    9  O1  UNL     1      60.657 -42.471  13.351  1.00  0.00    -0.263 OA
HETATM   10  C4  UNL     1      61.037 -43.472  15.340  1.00  0.00     0.206 A 
ENDROOT
BRANCH  10  11
HETATM   11  N5  UNL     1      60.631 -42.446  15.995  1.00  0.00    -0.286 N 
ATOM     12  H5  UNL     1      61.279 -41.907  16.570  1.00  0.00     0.188 HD
BRANCH  11  13
HETATM   13  N6  UNL     1      59.300 -42.086  15.906  1.00  0.00    -0.343 N 
ATOM     14  H62 UNL     1      58.872 -41.958  14.990  1.00  0.00     0.176 HD
ATOM     15  H61 UNL     1      58.770 -41.953  16.767  1.00  0.00     0.176 HD
ENDBRANCH  11  13
ENDBRANCH  10  11
BRANCH   5  16
HETATM   16  N3  UNL     1      62.326 -46.737  13.340  1.00  0.00    -0.233 N 
ATOM     17  H32 UNL     1      63.315 -46.981  13.306  1.00  0.00     0.174 HD
ATOM     18  H31 UNL     1      61.683 -47.366  12.859  1.00  0.00     0.174 HD
ENDBRANCH   5  16
TORSDOF 3
ENDMDL
