MODEL 1
REMARK VINA RESULT: -4.685937663      0.000      0.000
REMARK  2 active torsions:
REMARK  status: ('A' for Active; 'I' for Inactive)
REMARK    1  A    between atoms: N1_1  and  C1_4 
REMARK    2  A    between atoms: N3_9  and  N4_10 
ROOT
HETATM    1  C1  UNL     1      60.399 -48.634  22.089  1.00  0.00     0.684 A 
HETATM    2  N2  UNL     1      60.581 -47.984  20.926  1.00  0.00    -0.140 N 
ATOM      3  H2  UNL     1      59.863 -47.335  20.605  1.00  0.00     0.189 HD
HETATM    4  C2  UNL     1      61.680 -48.162  20.172  1.00  0.00     0.363 A 
HETATM    5  O1  UNL     1      61.823 -47.541  19.088  1.00  0.00    -0.244 OA
HETATM    6  N3  UNL     1      62.656 -49.020  20.573  1.00  0.00    -0.159 N 
HETATM    7  C3  UNL     1      62.485 -49.676  21.736  1.00  0.00     0.363 A 
HETATM    8  O2  UNL     1      63.402 -50.466  22.088  1.00  0.00    -0.244 OA
HETATM    9  N5  UNL     1      61.375 -49.479  22.471  1.00  0.00    -0.140 N 
ATOM     10  H5  UNL     1      61.269 -49.989  23.348  1.00  0.00     0.189 HD
ENDROOT
BRANCH   1  11
HETATM   11  N1  UNL     1      59.331 -48.459  22.818  1.00  0.00    -0.234 N 
ATOM     12  H12 UNL     1      58.553 -49.118  22.785  1.00  0.00     0.174 HD
ATOM     13  H11 UNL     1      59.232 -47.662  23.447  1.00  0.00     0.174 HD
ENDBRANCH   1  11
BRANCH   6  14
HETATM   14  N4  UNL     1      63.802 -49.227  19.819  1.00  0.00    -0.330 N 
ATOM     15  H42 UNL     1      64.010 -48.621  19.025  1.00  0.00     0.177 HD
ATOM     16  H41 UNL     1      64.459 -49.978  20.034  1.00  0.00     0.177 HD
ENDBRANCH   6  14
TORSDOF 2
ENDMDL
MODEL 2
REMARK VINA RESULT: -4.618794914      0.040      2.477
REMARK  2 active torsions:
REMARK  status: ('A' for Active; 'I' for Inactive)
REMARK    1  A    between atoms: N1_1  and  C1_4 
REMARK    2  A    between atoms: N3_9  and  N4_10 
ROOT
HETATM    1  C1  UNL     1      60.410 -48.647  22.099  1.00  0.00     0.684 A 
HETATM    2  N2  UNL     1      61.386 -49.484  22.493  1.00  0.00    -0.140 N 
ATOM      3  H2  UNL     1      61.283 -49.982  23.377  1.00  0.00     0.189 HD
HETATM    4  C2  UNL     1      62.494 -49.685  21.759  1.00  0.00     0.363 A 
HETATM    5  O1  UNL     1      63.392 -50.474  22.153  1.00  0.00    -0.244 OA
HETATM    6  N3  UNL     1      62.661 -49.037  20.575  1.00  0.00    -0.159 N 
HETATM    7  C3  UNL     1      61.690 -48.197  20.170  1.00  0.00     0.363 A 
HETATM    8  O2  UNL     1      61.866 -47.607  19.070  1.00  0.00    -0.244 OA
HETATM    9  N5  UNL     1      60.591 -48.014  20.924  1.00  0.00    -0.140 N 
ATOM     10  H5  UNL     1      59.870 -47.372  20.596  1.00  0.00     0.189 HD
ENDROOT
BRANCH   1  11
HETATM   11  N1  UNL     1      59.336 -48.454  22.814  1.00  0.00    -0.234 N 
ATOM     12  H12 UNL     1      58.411 -48.687  22.453  1.00  0.00     0.174 HD
ATOM     13  H11 UNL     1      59.377 -48.066  23.756  1.00  0.00     0.174 HD
ENDBRANCH   1  11
BRANCH   6  14
HETATM   14  N4  UNL     1      63.793 -49.222  19.793  1.00  0.00    -0.330 N 
ATOM     15  H42 UNL     1      64.713 -48.980  20.159  1.00  0.00     0.177 HD
ATOM     16  H41 UNL     1      63.736 -49.600  18.847  1.00  0.00     0.177 HD
ENDBRANCH   6  14
TORSDOF 2
ENDMDL
MODEL 3
REMARK VINA RESULT: -3.587283197      2.100      2.511
REMARK  2 active torsions:
REMARK  status: ('A' for Active; 'I' for Inactive)
REMARK    1  A    between atoms: N1_1  and  C1_4 
REMARK    2  A    between atoms: N3_9  and  N4_10 
ROOT
HETATM    1  C1  UNL     1      61.704 -46.918  21.837  1.00  0.00     0.684 A 
HETATM    2  N2  UNL     1      60.688 -47.791  21.952  1.00  0.00    -0.140 N 
ATOM      3  H2  UNL     1      59.871 -47.528  22.501  1.00  0.00     0.189 HD
HETATM    4  C2  UNL     1      60.716 -49.000  21.365  1.00  0.00     0.363 A 
HETATM    5  O1  UNL     1      59.752 -49.798  21.490  1.00  0.00    -0.244 OA
HETATM    6  N3  UNL     1      61.791 -49.380  20.624  1.00  0.00    -0.159 N 
HETATM    7  C3  UNL     1      62.814 -48.513  20.502  1.00  0.00     0.363 A 
HETATM    8  O2  UNL     1      63.801 -48.886  19.811  1.00  0.00    -0.244 OA
HETATM    9  N5  UNL     1      62.761 -47.309  21.100  1.00  0.00    -0.140 N 
ATOM     10  H5  UNL     1      63.549 -46.670  20.992  1.00  0.00     0.189 HD
ENDROOT
BRANCH   1  11
HETATM   11  N1  UNL     1      61.674 -45.744  22.408  1.00  0.00    -0.234 N 
ATOM     12  H12 UNL     1      60.868 -45.443  22.955  1.00  0.00     0.174 HD
ATOM     13  H11 UNL     1      62.449 -45.087  22.331  1.00  0.00     0.174 HD
ENDBRANCH   1  11
BRANCH   6  14
HETATM   14  N4  UNL     1      61.852 -50.621  20.006  1.00  0.00    -0.330 N 
ATOM     15  H42 UNL     1      61.673 -51.470  20.542  1.00  0.00     0.177 HD
ATOM     16  H41 UNL     1      62.073 -50.717  19.014  1.00  0.00     0.177 HD
ENDBRANCH   6  14
TORSDOF 2
ENDMDL
MODEL 4
REMARK VINA RESULT: -3.476806750      1.637      3.866
REMARK  2 active torsions:
REMARK  status: ('A' for Active; 'I' for Inactive)
REMARK    1  A    between atoms: N1_1  and  C1_4 
REMARK    2  A    between atoms: N3_9  and  N4_10 
ROOT
HETATM    1  C1  UNL     1      63.115 -49.178  20.257  1.00  0.00     0.684 A 
HETATM    2  N2  UNL     1      63.159 -49.024  21.593  1.00  0.00    -0.140 N 
ATOM      3  H2  UNL     1      63.931 -49.440  22.112  1.00  0.00     0.189 HD
HETATM    4  C2  UNL     1      62.216 -48.340  22.264  1.00  0.00     0.363 A 
HETATM    5  O1  UNL     1      62.282 -48.213  23.514  1.00  0.00    -0.244 OA
HETATM    6  N3  UNL     1      61.174 -47.773  21.600  1.00  0.00    -0.159 N 
HETATM    7  C3  UNL     1      61.121 -47.920  20.262  1.00  0.00     0.363 A 
HETATM    8  O2  UNL     1      60.146 -47.387  19.667  1.00  0.00    -0.244 OA
HETATM    9  N5  UNL     1      62.077 -48.610  19.615  1.00  0.00    -0.140 N 
ATOM     10  H5  UNL     1      62.013 -48.708  18.601  1.00  0.00     0.189 HD
ENDROOT
BRANCH   1  11
HETATM   11  N1  UNL     1      64.032 -49.843  19.608  1.00  0.00    -0.234 N 
ATOM     12  H12 UNL     1      64.153 -49.732  18.602  1.00  0.00     0.174 HD
ATOM     13  H11 UNL     1      64.660 -50.494  20.078  1.00  0.00     0.174 HD
ENDBRANCH   1  11
BRANCH   6  14
HETATM   14  N4  UNL     1      60.185 -47.061  22.263  1.00  0.00    -0.330 N 
ATOM     15  H42 UNL     1      59.361 -47.542  22.622  1.00  0.00     0.177 HD
ATOM     16  H41 UNL     1      60.253 -46.054  22.407  1.00  0.00     0.177 HD
ENDBRANCH   6  14
TORSDOF 2
ENDMDL
MODEL 5
REMARK VINA RESULT: -3.432148971      2.100      2.427
REMARK  2 active torsions:
REMARK  status: ('A' for Active; 'I' for Inactive)
REMARK    1  A    between atoms: N1_1  and  C1_4 
REMARK    2  A    between atoms: N3_9  and  N4_10 
ROOT
HETATM    1  C1  UNL     1      61.689 -46.893  21.837  1.00  0.00     0.684 A 
HETATM    2  N2  UNL     1      62.749 -47.280  21.104  1.00  0.00    -0.140 N 
ATOM      3  H2  UNL     1      63.534 -46.639  20.996  1.00  0.00     0.189 HD
HETATM    4  C2  UNL     1      62.805 -48.484  20.510  1.00  0.00     0.363 A 
HETATM    5  O1  UNL     1      63.809 -48.819  19.830  1.00  0.00    -0.244 OA
HETATM    6  N3  UNL     1      61.775 -49.362  20.637  1.00  0.00    -0.159 N 
HETATM    7  C3  UNL     1      60.708 -48.986  21.369  1.00  0.00     0.363 A 
HETATM    8  O2  UNL     1      59.764 -49.815  21.472  1.00  0.00    -0.244 OA
HETATM    9  N5  UNL     1      60.677 -47.774  21.952  1.00  0.00    -0.140 N 
ATOM     10  H5  UNL     1      59.858 -47.513  22.501  1.00  0.00     0.189 HD
ENDROOT
BRANCH   1  11
HETATM   11  N1  UNL     1      61.637 -45.723  22.412  1.00  0.00    -0.234 N 
ATOM     12  H12 UNL     1      60.898 -45.492  23.076  1.00  0.00     0.174 HD
ATOM     13  H11 UNL     1      62.328 -44.998  22.223  1.00  0.00     0.174 HD
ENDBRANCH   1  11
BRANCH   6  14
HETATM   14  N4  UNL     1      61.801 -50.613  20.037  1.00  0.00    -0.330 N 
ATOM     15  H42 UNL     1      61.308 -51.397  20.464  1.00  0.00     0.177 HD
ATOM     16  H41 UNL     1      62.306 -50.781  19.166  1.00  0.00     0.177 HD
ENDBRANCH   6  14
TORSDOF 2
ENDMDL
