MODEL 1
REMARK VINA RESULT: -2.238101618      0.000      0.000
REMARK  1 active torsions:
REMARK  status: ('A' for Active; 'I' for Inactive)
REMARK    1  A    between atoms: N5_10  and  N6_11 
ROOT
HETATM    1  N1  UNL     1      59.495 -48.672  21.623  1.00  0.00    -0.060 NA
HETATM    2  C1  UNL     1      60.858 -48.858  21.312  1.00  0.00     0.230 C 
HETATM    3  N2  UNL     1      61.559 -49.684  22.014  1.00  0.00    -0.304 N 
ATOM      4  H2  UNL     1      61.145 -50.203  22.788  1.00  0.00     0.171 HD
HETATM    5  C2  UNL     1      62.931 -49.844  21.669  1.00  0.00     0.191 C 
HETATM    6  S1  UNL     1      63.852 -50.893  22.546  1.00  0.00    -0.039 SA
HETATM    7  N3  UNL     1      63.515 -49.122  20.592  1.00  0.00    -0.258 N 
ATOM      8  H3  UNL     1      64.527 -49.027  20.507  1.00  0.00     0.186 HD
HETATM    9  N4  UNL     1      62.651 -48.546  19.654  1.00  0.00     0.005 NA
HETATM   10  N5  UNL     1      61.443 -48.128  20.228  1.00  0.00    -0.155 N 
ENDROOT
BRANCH  10  11
HETATM   11  N6  UNL     1      60.772 -47.011  19.777  1.00  0.00    -0.323 N 
ATOM     12  H62 UNL     1      59.970 -47.081  19.150  1.00  0.00     0.178 HD
ATOM     13  H61 UNL     1      61.105 -46.101  20.094  1.00  0.00     0.178 HD
ENDBRANCH  10  11
TORSDOF 1
ENDMDL
MODEL 2
REMARK VINA RESULT: -2.149707079      2.382      3.868
REMARK  1 active torsions:
REMARK  status: ('A' for Active; 'I' for Inactive)
REMARK    1  A    between atoms: N5_10  and  N6_11 
ROOT
HETATM    1  N1  UNL     1      63.735 -49.775  19.617  1.00  0.00    -0.060 NA
HETATM    2  C1  UNL     1      62.732 -49.267  20.468  1.00  0.00     0.230 C 
HETATM    3  N2  UNL     1      61.919 -48.370  20.020  1.00  0.00    -0.304 N 
ATOM      4  H2  UNL     1      61.990 -48.023  19.064  1.00  0.00     0.171 HD
HETATM    5  C2  UNL     1      60.920 -47.882  20.909  1.00  0.00     0.191 C 
HETATM    6  S1  UNL     1      59.867 -46.736  20.366  1.00  0.00    -0.039 SA
HETATM    7  N3  UNL     1      60.817 -48.361  22.244  1.00  0.00    -0.258 N 
ATOM      8  H3  UNL     1      60.295 -47.843  22.951  1.00  0.00     0.186 HD
HETATM    9  N4  UNL     1      61.456 -49.566  22.552  1.00  0.00     0.005 NA
HETATM   10  N5  UNL     1      62.631 -49.751  21.812  1.00  0.00    -0.155 N 
ENDROOT
BRANCH  10  11
HETATM   11  N6  UNL     1      63.728 -50.400  22.339  1.00  0.00    -0.323 N 
ATOM     12  H62 UNL     1      63.736 -51.409  22.487  1.00  0.00     0.178 HD
ATOM     13  H61 UNL     1      64.541 -49.833  22.578  1.00  0.00     0.178 HD
ENDBRANCH  10  11
TORSDOF 1
ENDMDL
MODEL 3
REMARK VINA RESULT: -2.120231138      1.971      3.152
REMARK  1 active torsions:
REMARK  status: ('A' for Active; 'I' for Inactive)
REMARK    1  A    between atoms: N5_10  and  N6_11 
ROOT
HETATM    1  N1  UNL     1      63.724 -50.555  22.199  1.00  0.00    -0.060 NA
HETATM    2  C1  UNL     1      62.745 -49.733  21.605  1.00  0.00     0.230 C 
HETATM    3  N2  UNL     1      61.600 -49.594  22.186  1.00  0.00    -0.304 N 
ATOM      4  H2  UNL     1      61.393 -50.068  23.065  1.00  0.00     0.171 HD
HETATM    5  C2  UNL     1      60.637 -48.756  21.556  1.00  0.00     0.191 C 
HETATM    6  S1  UNL     1      59.167 -48.558  22.274  1.00  0.00    -0.039 SA
HETATM    7  N3  UNL     1      60.919 -48.094  20.330  1.00  0.00    -0.258 N 
ATOM      8  H3  UNL     1      60.170 -47.718  19.748  1.00  0.00     0.186 HD
HETATM    9  N4  UNL     1      62.260 -47.976  19.949  1.00  0.00     0.005 NA
HETATM   10  N5  UNL     1      63.031 -49.068  20.370  1.00  0.00    -0.155 N 
ENDROOT
BRANCH  10  11
HETATM   11  N6  UNL     1      64.088 -49.543  19.621  1.00  0.00    -0.323 N 
ATOM     12  H62 UNL     1      64.345 -49.125  18.727  1.00  0.00     0.178 HD
ATOM     13  H61 UNL     1      64.611 -50.334  19.995  1.00  0.00     0.178 HD
ENDBRANCH  10  11
TORSDOF 1
ENDMDL
MODEL 4
REMARK VINA RESULT: -2.081374138      2.466      3.830
REMARK  1 active torsions:
REMARK  status: ('A' for Active; 'I' for Inactive)
REMARK    1  A    between atoms: N5_10  and  N6_11 
ROOT
HETATM    1  N1  UNL     1      63.773 -49.531  19.605  1.00  0.00    -0.060 NA
HETATM    2  C1  UNL     1      63.029 -49.016  20.687  1.00  0.00     0.230 C 
HETATM    3  N2  UNL     1      62.627 -47.789  20.650  1.00  0.00    -0.304 N 
ATOM      4  H2  UNL     1      62.838 -47.188  19.853  1.00  0.00     0.171 HD
HETATM    5  C2  UNL     1      61.879 -47.307  21.760  1.00  0.00     0.191 C 
HETATM    6  S1  UNL     1      61.351 -45.745  21.742  1.00  0.00    -0.039 SA
HETATM    7  N3  UNL     1      61.583 -48.140  22.874  1.00  0.00    -0.258 N 
ATOM      8  H3  UNL     1      61.290 -47.743  23.767  1.00  0.00     0.186 HD
HETATM    9  N4  UNL     1      61.709 -49.522  22.702  1.00  0.00     0.005 NA
HETATM   10  N5  UNL     1      62.734 -49.857  21.807  1.00  0.00    -0.155 N 
ENDROOT
BRANCH  10  11
HETATM   11  N6  UNL     1      63.492 -50.998  21.964  1.00  0.00    -0.323 N 
ATOM     12  H62 UNL     1      63.833 -51.296  22.878  1.00  0.00     0.178 HD
ATOM     13  H61 UNL     1      63.703 -51.542  21.127  1.00  0.00     0.178 HD
ENDBRANCH  10  11
TORSDOF 1
ENDMDL
MODEL 5
REMARK VINA RESULT: -1.861671334      2.332      3.200
REMARK  1 active torsions:
REMARK  status: ('A' for Active; 'I' for Inactive)
REMARK    1  A    between atoms: N5_10  and  N6_11 
ROOT
HETATM    1  N1  UNL     1      63.454 -50.514  22.175  1.00  0.00    -0.060 NA
HETATM    2  C1  UNL     1      62.797 -49.457  21.511  1.00  0.00     0.230 C 
HETATM    3  N2  UNL     1      62.582 -48.352  22.142  1.00  0.00    -0.304 N 
ATOM      4  H2  UNL     1      62.877 -48.230  23.110  1.00  0.00     0.171 HD
HETATM    5  C2  UNL     1      61.916 -47.309  21.438  1.00  0.00     0.191 C 
HETATM    6  S1  UNL     1      61.627 -45.885  22.217  1.00  0.00    -0.039 SA
HETATM    7  N3  UNL     1      61.500 -47.473  20.088  1.00  0.00    -0.258 N 
ATOM      8  H3  UNL     1      60.806 -46.852  19.670  1.00  0.00     0.186 HD
HETATM    9  N4  UNL     1      62.076 -48.515  19.354  1.00  0.00     0.005 NA
HETATM   10  N5  UNL     1      62.378 -49.626  20.152  1.00  0.00    -0.155 N 
ENDROOT
BRANCH  10  11
HETATM   11  N6  UNL     1      62.289 -50.914  19.669  1.00  0.00    -0.323 N 
ATOM     12  H62 UNL     1      61.432 -51.461  19.751  1.00  0.00     0.178 HD
ATOM     13  H61 UNL     1      63.116 -51.308  19.220  1.00  0.00     0.178 HD
ENDBRANCH  10  11
TORSDOF 1
ENDMDL
