MODEL 1
REMARK VINA RESULT: -3.760874339      0.000      0.000
REMARK  2 active torsions:
REMARK  status: ('A' for Active; 'I' for Inactive)
REMARK    1  A    between atoms: N1_1  and  C1_4 
REMARK    2  A    between atoms: N3_7  and  O1_8 
ROOT
HETATM    1  C1  UNL     1      61.351 -47.157  21.932  1.00  0.00     0.729 A 
HETATM    2  N2  UNL     1      60.165 -47.731  22.145  1.00  0.00    -0.088 N 
ATOM      3  H2  UNL     1      59.399 -47.299  22.661  1.00  0.00     0.209 HD
HETATM    4  N3  UNL     1      60.115 -48.932  21.600  1.00  0.00     0.033 N 
HETATM    5  C2  UNL     1      61.307 -49.158  21.006  1.00  0.00     0.765 A 
HETATM    6  N4  UNL     1      62.058 -50.022  20.294  1.00  0.00    -0.134 N 
ATOM      7  H4  UNL     1      61.754 -50.944  19.983  1.00  0.00     0.189 HD
HETATM    8  C3  UNL     1      63.268 -49.486  20.054  1.00  0.00     0.354 A 
HETATM    9  O2  UNL     1      64.241 -50.009  19.410  1.00  0.00    -0.245 OA
HETATM   10  N5  UNL     1      63.241 -48.274  20.635  1.00  0.00    -0.214 N 
ATOM     11  H5  UNL     1      64.017 -47.613  20.630  1.00  0.00     0.193 HD
HETATM   12  N6  UNL     1      62.071 -48.056  21.215  1.00  0.00     0.099 N 
ENDROOT
BRANCH   1  13
HETATM   13  N1  UNL     1      61.767 -45.996  22.310  1.00  0.00    -0.231 N 
ATOM     14  H12 UNL     1      61.180 -45.249  22.681  1.00  0.00     0.174 HD
ATOM     15  H11 UNL     1      62.717 -45.625  22.306  1.00  0.00     0.174 HD
ENDBRANCH   1  13
BRANCH   4  16
HETATM   16  O1  UNL     1      59.049 -49.819  21.616  1.00  0.00    -0.254 OA
ATOM     17  H1  UNL     1      58.980 -50.646  21.153  1.00  0.00     0.247 HD
ENDBRANCH   4  16
TORSDOF 2
ENDMDL
MODEL 2
REMARK VINA RESULT: -3.191528104      1.706      2.476
REMARK  2 active torsions:
REMARK  status: ('A' for Active; 'I' for Inactive)
REMARK    1  A    between atoms: N1_1  and  C1_4 
REMARK    2  A    between atoms: N3_7  and  O1_8 
ROOT
HETATM    1  C1  UNL     1      60.110 -48.893  21.616  1.00  0.00     0.729 A 
HETATM    2  N2  UNL     1      60.161 -47.675  22.159  1.00  0.00    -0.088 N 
ATOM      3  H2  UNL     1      59.395 -47.240  22.674  1.00  0.00     0.209 HD
HETATM    4  N3  UNL     1      61.333 -47.107  21.943  1.00  0.00     0.033 N 
HETATM    5  C2  UNL     1      62.081 -47.980  21.233  1.00  0.00     0.765 A 
HETATM    6  N4  UNL     1      63.268 -48.213  20.640  1.00  0.00    -0.134 N 
ATOM      7  H4  UNL     1      64.052 -47.561  20.621  1.00  0.00     0.189 HD
HETATM    8  C3  UNL     1      63.266 -49.434  20.075  1.00  0.00     0.354 A 
HETATM    9  O2  UNL     1      64.212 -49.998  19.427  1.00  0.00    -0.245 OA
HETATM   10  N5  UNL     1      62.050 -49.944  20.337  1.00  0.00    -0.214 N 
ATOM     11  H5  UNL     1      61.732 -50.866  20.039  1.00  0.00     0.193 HD
HETATM   12  N6  UNL     1      61.320 -49.086  21.032  1.00  0.00     0.099 N 
ENDROOT
BRANCH   1  13
HETATM   13  N1  UNL     1      59.138 -49.740  21.621  1.00  0.00    -0.231 N 
ATOM     14  H12 UNL     1      58.388 -49.777  22.311  1.00  0.00     0.174 HD
ATOM     15  H11 UNL     1      58.947 -50.498  20.965  1.00  0.00     0.174 HD
ENDBRANCH   1  13
BRANCH   4  16
HETATM   16  O1  UNL     1      61.748 -45.850  22.356  1.00  0.00    -0.254 OA
ATOM     17  H1  UNL     1      62.464 -45.644  22.945  1.00  0.00     0.247 HD
ENDBRANCH   4  16
TORSDOF 2
ENDMDL
MODEL 3
REMARK VINA RESULT: -3.183716903      2.209      2.547
REMARK  2 active torsions:
REMARK  status: ('A' for Active; 'I' for Inactive)
REMARK    1  A    between atoms: N1_1  and  C1_4 
REMARK    2  A    between atoms: N3_7  and  O1_8 
ROOT
HETATM    1  C1  UNL     1      60.191 -48.373  21.912  1.00  0.00     0.729 A 
HETATM    2  N2  UNL     1      60.250 -47.652  20.790  1.00  0.00    -0.088 N 
ATOM      3  H2  UNL     1      59.518 -47.015  20.475  1.00  0.00     0.209 HD
HETATM    4  N3  UNL     1      61.379 -47.872  20.142  1.00  0.00     0.033 N 
HETATM    5  C2  UNL     1      62.090 -48.769  20.861  1.00  0.00     0.765 A 
HETATM    6  N4  UNL     1      63.227 -49.487  20.946  1.00  0.00    -0.134 N 
ATOM      7  H4  UNL     1      63.984 -49.467  20.263  1.00  0.00     0.189 HD
HETATM    8  C3  UNL     1      63.215 -50.233  22.064  1.00  0.00     0.354 A 
HETATM    9  O2  UNL     1      64.119 -51.036  22.478  1.00  0.00    -0.245 OA
HETATM   10  N5  UNL     1      62.044 -49.955  22.664  1.00  0.00    -0.214 N 
ATOM     11  H5  UNL     1      61.733 -50.366  23.544  1.00  0.00     0.193 HD
HETATM   12  N6  UNL     1      61.351 -49.076  21.957  1.00  0.00     0.099 N 
ENDROOT
BRANCH   1  13
HETATM   13  N1  UNL     1      59.252 -48.421  22.794  1.00  0.00    -0.231 N 
ATOM     14  H12 UNL     1      58.322 -48.016  22.691  1.00  0.00     0.174 HD
ATOM     15  H11 UNL     1      59.264 -48.853  23.718  1.00  0.00     0.174 HD
ENDBRANCH   1  13
BRANCH   4  16
HETATM   16  O1  UNL     1      61.787 -47.304  18.945  1.00  0.00    -0.254 OA
ATOM     17  H1  UNL     1      62.315 -46.523  18.828  1.00  0.00     0.247 HD
ENDBRANCH   4  16
TORSDOF 2
ENDMDL
MODEL 4
REMARK VINA RESULT: -2.740214341      1.829      1.999
REMARK  2 active torsions:
REMARK  status: ('A' for Active; 'I' for Inactive)
REMARK    1  A    between atoms: N1_1  and  C1_4 
REMARK    2  A    between atoms: N3_7  and  O1_8 
ROOT
HETATM    1  C1  UNL     1      61.396 -47.797  20.263  1.00  0.00     0.729 A 
HETATM    2  N2  UNL     1      60.232 -47.627  20.894  1.00  0.00    -0.088 N 
ATOM      3  H2  UNL     1      59.500 -46.984  20.591  1.00  0.00     0.209 HD
HETATM    4  N3  UNL     1      60.152 -48.401  21.960  1.00  0.00     0.033 N 
HETATM    5  C2  UNL     1      61.303 -49.106  22.035  1.00  0.00     0.765 A 
HETATM    6  N4  UNL     1      62.008 -50.028  22.720  1.00  0.00    -0.134 N 
ATOM      7  H4  UNL     1      61.690 -50.499  23.567  1.00  0.00     0.189 HD
HETATM    8  C3  UNL     1      63.194 -50.234  22.121  1.00  0.00     0.354 A 
HETATM    9  O2  UNL     1      64.124 -51.033  22.482  1.00  0.00    -0.245 OA
HETATM   10  N5  UNL     1      63.199 -49.417  21.053  1.00  0.00    -0.214 N 
ATOM     11  H5  UNL     1      63.968 -49.339  20.388  1.00  0.00     0.193 HD
HETATM   12  N6  UNL     1      62.071 -48.729  20.982  1.00  0.00     0.099 N 
ENDROOT
BRANCH   1  13
HETATM   13  N1  UNL     1      61.828 -47.219  19.194  1.00  0.00    -0.231 N 
ATOM     14  H12 UNL     1      61.938 -46.213  19.068  1.00  0.00     0.174 HD
ATOM     15  H11 UNL     1      62.126 -47.642  18.315  1.00  0.00     0.174 HD
ENDBRANCH   1  13
BRANCH   4  16
HETATM   16  O1  UNL     1      59.097 -48.495  22.855  1.00  0.00    -0.254 OA
ATOM     17  H1  UNL     1      59.138 -48.441  23.802  1.00  0.00     0.247 HD
ENDBRANCH   4  16
TORSDOF 2
ENDMDL
MODEL 5
REMARK VINA RESULT: -1.756662309      0.924      3.251
REMARK  2 active torsions:
REMARK  status: ('A' for Active; 'I' for Inactive)
REMARK    1  A    between atoms: N1_1  and  C1_4 
REMARK    2  A    between atoms: N3_7  and  O1_8 
ROOT
HETATM    1  C1  UNL     1      62.364 -46.997  21.719  1.00  0.00     0.729 A 
HETATM    2  N2  UNL     1      63.389 -47.517  21.039  1.00  0.00    -0.088 N 
ATOM      3  H2  UNL     1      64.283 -47.048  20.895  1.00  0.00     0.209 HD
HETATM    4  N3  UNL     1      63.092 -48.717  20.576  1.00  0.00     0.033 N 
HETATM    5  C2  UNL     1      61.829 -48.999  20.964  1.00  0.00     0.765 A 
HETATM    6  N4  UNL     1      60.825 -49.899  20.943  1.00  0.00    -0.134 N 
ATOM      7  H4  UNL     1      60.863 -50.808  20.482  1.00  0.00     0.189 HD
HETATM    8  C3  UNL     1      59.766 -49.419  21.617  1.00  0.00     0.354 A 
HETATM    9  O2  UNL     1      58.638 -49.988  21.809  1.00  0.00    -0.245 OA
HETATM   10  N5  UNL     1      60.143 -48.204  22.054  1.00  0.00    -0.214 N 
ATOM     11  H5  UNL     1      59.555 -47.579  22.604  1.00  0.00     0.193 HD
HETATM   12  N6  UNL     1      61.381 -47.931  21.672  1.00  0.00     0.099 N 
ENDROOT
BRANCH   1  13
HETATM   13  N1  UNL     1      62.283 -45.855  22.310  1.00  0.00    -0.231 N 
ATOM     14  H12 UNL     1      61.697 -45.074  22.013  1.00  0.00     0.174 HD
ATOM     15  H11 UNL     1      62.769 -45.532  23.147  1.00  0.00     0.174 HD
ENDBRANCH   1  13
BRANCH   4  16
HETATM   16  O1  UNL     1      63.905 -49.556  19.829  1.00  0.00    -0.254 OA
ATOM     17  H1  UNL     1      63.725 -49.918  18.969  1.00  0.00     0.247 HD
ENDBRANCH   4  16
TORSDOF 2
ENDMDL
