MODEL 1
REMARK VINA RESULT: -4.160485597      0.000      0.000
REMARK  2 active torsions:
REMARK  status: ('A' for Active; 'I' for Inactive)
REMARK    1  A    between atoms: O1_1  and  C1_3 
REMARK    2  A    between atoms: C7_10  and  O3_11 
ROOT
HETATM    1  C1  UNL     1      15.939  15.843  22.132  1.00  0.00     0.149 C 
HETATM    2  C2  UNL     1      16.844  16.178  21.011  1.00  0.00     0.034 C 
HETATM    3  C3  UNL     1      16.334  17.225  20.064  1.00  0.00     0.005 C 
HETATM    4  C4  UNL     1      16.392  18.624  20.649  1.00  0.00     0.035 C 
HETATM    5  C5  UNL     1      15.721  18.605  21.964  1.00  0.00     0.153 A 
HETATM    6  O2  UNL     1      16.163  19.211  23.091  1.00  0.00    -0.373 OA
HETATM    7  C6  UNL     1      16.734  17.993  22.948  1.00  0.00     0.182 A 
HETATM    8  C7  UNL     1      16.156  16.707  23.375  1.00  0.00     0.178 C 
ENDROOT
BRANCH   1   9
HETATM    9  O1  UNL     1      14.599  15.790  21.772  1.00  0.00    -0.393 OA
ATOM     10  H1  UNL     1      14.398  15.102  21.147  1.00  0.00     0.210 HD
ENDBRANCH   1   9
BRANCH   8  11
HETATM   11  O3  UNL     1      17.083  16.089  24.246  1.00  0.00    -0.390 OA
ATOM     12  H3  UNL     1      17.875  15.857  23.774  1.00  0.00     0.210 HD
ENDBRANCH   8  11
TORSDOF 2
ENDMDL
MODEL 2
REMARK VINA RESULT: -3.871020782      1.344      2.319
REMARK  2 active torsions:
REMARK  status: ('A' for Active; 'I' for Inactive)
REMARK    1  A    between atoms: O1_1  and  C1_3 
REMARK    2  A    between atoms: C7_10  and  O3_11 
ROOT
HETATM    1  C1  UNL     1      15.267  16.422  22.515  1.00  0.00     0.149 C 
HETATM    2  C2  UNL     1      16.542  15.674  22.539  1.00  0.00     0.034 C 
HETATM    3  C3  UNL     1      16.901  14.975  21.259  1.00  0.00     0.005 C 
HETATM    4  C4  UNL     1      17.376  15.930  20.181  1.00  0.00     0.035 C 
HETATM    5  C5  UNL     1      16.371  17.002  20.035  1.00  0.00     0.153 A 
HETATM    6  O2  UNL     1      16.631  18.323  19.899  1.00  0.00    -0.373 OA
HETATM    7  C6  UNL     1      16.611  17.971  21.205  1.00  0.00     0.182 A 
HETATM    8  C7  UNL     1      15.416  17.876  22.062  1.00  0.00     0.178 C 
ENDROOT
BRANCH   1   9
HETATM    9  O1  UNL     1      14.250  15.773  21.827  1.00  0.00    -0.393 OA
ATOM     10  H1  UNL     1      13.383  15.950  22.172  1.00  0.00     0.210 HD
ENDBRANCH   1   9
BRANCH   8  11
HETATM   11  O3  UNL     1      15.621  18.719  23.178  1.00  0.00    -0.390 OA
ATOM     12  H3  UNL     1      16.090  18.254  23.861  1.00  0.00     0.210 HD
ENDBRANCH   8  11
TORSDOF 2
ENDMDL
MODEL 3
REMARK VINA RESULT: -3.699404026      5.867      7.265
REMARK  2 active torsions:
REMARK  status: ('A' for Active; 'I' for Inactive)
REMARK    1  A    between atoms: O1_1  and  C1_3 
REMARK    2  A    between atoms: C7_10  and  O3_11 
ROOT
HETATM    1  C1  UNL     1      13.401  13.125  28.329  1.00  0.00     0.149 C 
HETATM    2  C2  UNL     1      12.304  12.817  27.385  1.00  0.00     0.034 C 
HETATM    3  C3  UNL     1      12.181  13.751  26.216  1.00  0.00     0.005 C 
HETATM    4  C4  UNL     1      13.262  13.533  25.174  1.00  0.00     0.035 C 
HETATM    5  C5  UNL     1      14.573  13.565  25.852  1.00  0.00     0.153 A 
HETATM    6  O2  UNL     1      15.605  12.718  25.629  1.00  0.00    -0.373 OA
HETATM    7  C6  UNL     1      14.738  12.191  26.523  1.00  0.00     0.182 A 
HETATM    8  C7  UNL     1      14.724  12.445  27.974  1.00  0.00     0.178 C 
ENDROOT
BRANCH   1   9
HETATM    9  O1  UNL     1      13.569  14.482  28.566  1.00  0.00    -0.393 OA
ATOM     10  H1  UNL     1      14.352  14.845  28.171  1.00  0.00     0.210 HD
ENDBRANCH   1   9
BRANCH   8  11
HETATM   11  O3  UNL     1      14.826  11.196  28.629  1.00  0.00    -0.390 OA
ATOM     12  H3  UNL     1      15.500  11.229  29.298  1.00  0.00     0.210 HD
ENDBRANCH   8  11
TORSDOF 2
ENDMDL
MODEL 4
REMARK VINA RESULT: -3.662268417      4.343      5.348
REMARK  2 active torsions:
REMARK  status: ('A' for Active; 'I' for Inactive)
REMARK    1  A    between atoms: O1_1  and  C1_3 
REMARK    2  A    between atoms: C7_10  and  O3_11 
ROOT
HETATM    1  C1  UNL     1      13.748  12.899  25.422  1.00  0.00     0.149 C 
HETATM    2  C2  UNL     1      14.128  11.913  24.387  1.00  0.00     0.034 C 
HETATM    3  C3  UNL     1      14.589  12.496  23.083  1.00  0.00     0.005 C 
HETATM    4  C4  UNL     1      15.984  13.086  23.163  1.00  0.00     0.035 C 
HETATM    5  C5  UNL     1      16.026  14.022  24.304  1.00  0.00     0.153 A 
HETATM    6  O2  UNL     1      17.027  14.129  25.209  1.00  0.00    -0.373 OA
HETATM    7  C6  UNL     1      16.164  13.150  25.564  1.00  0.00     0.182 A 
HETATM    8  C7  UNL     1      14.910  13.328  26.318  1.00  0.00     0.178 C 
ENDROOT
BRANCH   1   9
HETATM    9  O1  UNL     1      13.054  13.993  24.922  1.00  0.00    -0.393 OA
ATOM     10  H1  UNL     1      12.198  13.776  24.572  1.00  0.00     0.210 HD
ENDBRANCH   1   9
BRANCH   8  11
HETATM   11  O3  UNL     1      14.978  12.502  27.463  1.00  0.00    -0.390 OA
ATOM     12  H3  UNL     1      15.737  12.728  27.988  1.00  0.00     0.210 HD
ENDBRANCH   8  11
TORSDOF 2
ENDMDL
MODEL 5
REMARK VINA RESULT: -3.660854803      1.315      2.975
REMARK  2 active torsions:
REMARK  status: ('A' for Active; 'I' for Inactive)
REMARK    1  A    between atoms: O1_1  and  C1_3 
REMARK    2  A    between atoms: C7_10  and  O3_11 
ROOT
HETATM    1  C1  UNL     1      16.603  18.489  21.159  1.00  0.00     0.149 C 
HETATM    2  C2  UNL     1      16.297  17.705  19.942  1.00  0.00     0.034 C 
HETATM    3  C3  UNL     1      17.206  16.538  19.685  1.00  0.00     0.005 C 
HETATM    4  C4  UNL     1      16.939  15.370  20.615  1.00  0.00     0.035 C 
HETATM    5  C5  UNL     1      16.958  15.869  22.004  1.00  0.00     0.153 A 
HETATM    6  O2  UNL     1      16.083  15.536  22.982  1.00  0.00    -0.373 OA
HETATM    7  C6  UNL     1      15.597  16.549  22.230  1.00  0.00     0.182 A 
HETATM    8  C7  UNL     1      15.886  17.983  22.412  1.00  0.00     0.178 C 
ENDROOT
BRANCH   1   9
HETATM    9  O1  UNL     1      17.962  18.666  21.383  1.00  0.00    -0.393 OA
ATOM     10  H1  UNL     1      18.157  19.215  22.134  1.00  0.00     0.210 HD
ENDBRANCH   1   9
BRANCH   8  11
HETATM   11  O3  UNL     1      14.651  18.652  22.574  1.00  0.00    -0.390 OA
ATOM     12  H3  UNL     1      14.328  18.955  21.734  1.00  0.00     0.210 HD
ENDBRANCH   8  11
TORSDOF 2
ENDMDL
