MODEL 1
REMARK VINA RESULT: -3.626185989      0.000      0.000
REMARK  2 active torsions:
REMARK  status: ('A' for Active; 'I' for Inactive)
REMARK    1  A    between atoms: O1_1  and  C1_3 
REMARK    2  A    between atoms: C7_10  and  O3_11 
ROOT
HETATM    1  C1  UNL     1      13.916  13.144  23.822  1.00  0.00     0.153 C 
HETATM    2  C2  UNL     1      14.868  12.117  24.388  1.00  0.00     0.021 C 
HETATM    3  C3  UNL     1      15.552  12.648  25.656  1.00  0.00     0.033 C 
HETATM    4  C4  UNL     1      16.499  13.755  25.361  1.00  0.00     0.168 C 
HETATM    5  O2  UNL     1      16.421  14.323  24.140  1.00  0.00    -0.383 OA
HETATM    6  C5  UNL     1      16.097  13.566  23.078  1.00  0.00     0.153 C 
HETATM    7  C6  UNL     1      16.006  12.076  23.354  1.00  0.00     0.042 C 
HETATM    8  C7  UNL     1      14.633  13.857  22.713  1.00  0.00     0.176 C 
ENDROOT
BRANCH   1   9
HETATM    9  O1  UNL     1      13.461  14.005  24.809  1.00  0.00    -0.393 OA
ATOM     10  H1  UNL     1      12.939  14.708  24.439  1.00  0.00     0.210 HD
ENDBRANCH   1   9
BRANCH   8  11
HETATM   11  O3  UNL     1      14.380  15.207  22.654  1.00  0.00    -0.390 OA
ATOM     12  H3  UNL     1      13.457  15.431  22.670  1.00  0.00     0.210 HD
ENDBRANCH   8  11
TORSDOF 2
ENDMDL
MODEL 2
REMARK VINA RESULT: -3.574894178      1.644      2.563
REMARK  2 active torsions:
REMARK  status: ('A' for Active; 'I' for Inactive)
REMARK    1  A    between atoms: O1_1  and  C1_3 
REMARK    2  A    between atoms: C7_10  and  O3_11 
ROOT
HETATM    1  C1  UNL     1      15.041  13.299  25.233  1.00  0.00     0.153 C 
HETATM    2  C2  UNL     1      14.233  12.997  23.992  1.00  0.00     0.021 C 
HETATM    3  C3  UNL     1      14.663  11.659  23.374  1.00  0.00     0.033 C 
HETATM    4  C4  UNL     1      16.029  11.723  22.793  1.00  0.00     0.168 C 
HETATM    5  O2  UNL     1      16.791  12.785  23.126  1.00  0.00    -0.383 OA
HETATM    6  C5  UNL     1      16.210  13.981  23.321  1.00  0.00     0.153 C 
HETATM    7  C6  UNL     1      14.732  14.041  22.979  1.00  0.00     0.042 C 
HETATM    8  C7  UNL     1      16.141  14.238  24.834  1.00  0.00     0.176 C 
ENDROOT
BRANCH   1   9
HETATM    9  O1  UNL     1      15.513  12.135  25.819  1.00  0.00    -0.393 OA
ATOM     10  H1  UNL     1      14.800  11.544  26.035  1.00  0.00     0.210 HD
ENDBRANCH   1   9
BRANCH   8  11
HETATM   11  O3  UNL     1      17.345  13.989  25.449  1.00  0.00    -0.390 OA
ATOM     12  H3  UNL     1      17.290  13.907  26.394  1.00  0.00     0.210 HD
ENDBRANCH   8  11
TORSDOF 2
ENDMDL
MODEL 3
REMARK VINA RESULT: -3.547423602      3.811      4.702
REMARK  2 active torsions:
REMARK  status: ('A' for Active; 'I' for Inactive)
REMARK    1  A    between atoms: O1_1  and  C1_3 
REMARK    2  A    between atoms: C7_10  and  O3_11 
ROOT
HETATM    1  C1  UNL     1      13.451  11.618  27.703  1.00  0.00     0.153 C 
HETATM    2  C2  UNL     1      14.779  12.328  27.571  1.00  0.00     0.021 C 
HETATM    3  C3  UNL     1      15.134  13.065  28.871  1.00  0.00     0.033 C 
HETATM    4  C4  UNL     1      14.236  14.223  29.122  1.00  0.00     0.168 C 
HETATM    5  O2  UNL     1      13.107  14.298  28.388  1.00  0.00    -0.383 OA
HETATM    6  C5  UNL     1      13.114  13.861  27.116  1.00  0.00     0.153 C 
HETATM    7  C6  UNL     1      14.479  13.465  26.580  1.00  0.00     0.042 C 
HETATM    8  C7  UNL     1      12.409  12.496  27.076  1.00  0.00     0.176 C 
ENDROOT
BRANCH   1   9
HETATM    9  O1  UNL     1      13.174  11.315  29.027  1.00  0.00    -0.393 OA
ATOM     10  H1  UNL     1      13.354  10.401  29.216  1.00  0.00     0.210 HD
ENDBRANCH   1   9
BRANCH   8  11
HETATM   11  O3  UNL     1      11.212  12.521  27.751  1.00  0.00    -0.390 OA
ATOM     12  H3  UNL     1      10.451  12.382  27.200  1.00  0.00     0.210 HD
ENDBRANCH   8  11
TORSDOF 2
ENDMDL
MODEL 4
REMARK VINA RESULT: -3.488067781      3.340      4.754
REMARK  2 active torsions:
REMARK  status: ('A' for Active; 'I' for Inactive)
REMARK    1  A    between atoms: O1_1  and  C1_3 
REMARK    2  A    between atoms: C7_10  and  O3_11 
ROOT
HETATM    1  C1  UNL     1      12.910  11.787  28.002  1.00  0.00     0.153 C 
HETATM    2  C2  UNL     1      12.648  13.259  27.785  1.00  0.00     0.021 C 
HETATM    3  C3  UNL     1      12.840  13.635  26.308  1.00  0.00     0.033 C 
HETATM    4  C4  UNL     1      14.263  13.554  25.889  1.00  0.00     0.168 C 
HETATM    5  O2  UNL     1      15.113  12.911  26.716  1.00  0.00    -0.383 OA
HETATM    6  C5  UNL     1      14.925  12.982  28.045  1.00  0.00     0.153 C 
HETATM    7  C6  UNL     1      13.833  13.941  28.489  1.00  0.00     0.042 C 
HETATM    8  C7  UNL     1      14.314  11.653  28.514  1.00  0.00     0.176 C 
ENDROOT
BRANCH   1   9
HETATM    9  O1  UNL     1      12.689  11.062  26.841  1.00  0.00    -0.393 OA
ATOM     10  H1  UNL     1      12.813  10.131  26.988  1.00  0.00     0.210 HD
ENDBRANCH   1   9
BRANCH   8  11
HETATM   11  O3  UNL     1      14.997  10.572  28.009  1.00  0.00    -0.390 OA
ATOM     12  H3  UNL     1      15.693  10.799  27.403  1.00  0.00     0.210 HD
ENDBRANCH   8  11
TORSDOF 2
ENDMDL
MODEL 5
REMARK VINA RESULT: -3.464693078      5.680      6.770
REMARK  2 active torsions:
REMARK  status: ('A' for Active; 'I' for Inactive)
REMARK    1  A    between atoms: O1_1  and  C1_3 
REMARK    2  A    between atoms: C7_10  and  O3_11 
ROOT
HETATM    1  C1  UNL     1      18.757   9.115  20.651  1.00  0.00     0.153 C 
HETATM    2  C2  UNL     1      18.825  10.241  21.656  1.00  0.00     0.021 C 
HETATM    3  C3  UNL     1      18.106  11.490  21.126  1.00  0.00     0.033 C 
HETATM    4  C4  UNL     1      18.826  12.109  19.982  1.00  0.00     0.168 C 
HETATM    5  O2  UNL     1      19.794  11.376  19.395  1.00  0.00    -0.383 OA
HETATM    6  C5  UNL     1      20.541  10.545  20.142  1.00  0.00     0.153 C 
HETATM    7  C6  UNL     1      20.309  10.644  21.640  1.00  0.00     0.042 C 
HETATM    8  C7  UNL     1      20.052   9.110  19.894  1.00  0.00     0.176 C 
ENDROOT
BRANCH   1   9
HETATM    9  O1  UNL     1      17.651   9.247  19.824  1.00  0.00    -0.393 OA
ATOM     10  H1  UNL     1      17.714   8.671  19.071  1.00  0.00     0.210 HD
ENDBRANCH   1   9
BRANCH   8  11
HETATM   11  O3  UNL     1      19.920   8.840  18.552  1.00  0.00    -0.390 OA
ATOM     12  H3  UNL     1      20.004   7.920  18.330  1.00  0.00     0.210 HD
ENDBRANCH   8  11
TORSDOF 2
ENDMDL
