MODEL 1
REMARK VINA RESULT: -4.143913961      0.000      0.000
REMARK  2 active torsions:
REMARK  status: ('A' for Active; 'I' for Inactive)
REMARK    1  A    between atoms: O1_1  and  C1_3 
REMARK    2  A    between atoms: C6_9  and  O2_10 
ROOT
HETATM    1  C1  UNL     1      15.710  18.906  22.184  1.00  0.00     0.182 C 
HETATM    2  C2  UNL     1      15.775  18.627  20.699  1.00  0.00     0.307 C 
HETATM    3  N1  UNL     1      17.068  18.039  20.433  1.00  0.00     0.094 N 
HETATM    4  C3  UNL     1      16.965  16.637  20.044  1.00  0.00     0.272 C 
HETATM    5  C4  UNL     1      16.653  15.750  21.216  1.00  0.00     0.033 C 
HETATM    6  C5  UNL     1      15.965  16.493  22.346  1.00  0.00     0.044 C 
HETATM    7  C6  UNL     1      16.634  17.779  22.672  1.00  0.00     0.112 C 
HETATM    8  C7  UNL     1      17.794  18.039  21.701  1.00  0.00     0.312 C 
ENDROOT
BRANCH   1   9
HETATM    9  O1  UNL     1      14.457  18.825  22.714  1.00  0.00    -0.391 OA
ATOM     10  H1  UNL     1      14.337  18.107  23.324  1.00  0.00     0.210 HD
ENDBRANCH   1   9
BRANCH   7  11
HETATM   11  O2  UNL     1      17.001  17.938  23.981  1.00  0.00    -0.385 OA
ATOM     12  H2  UNL     1      16.777  17.184  24.512  1.00  0.00     0.210 HD
ENDBRANCH   7  11
TORSDOF 2
ENDMDL
MODEL 2
REMARK VINA RESULT: -4.014532399      2.090      2.972
REMARK  2 active torsions:
REMARK  status: ('A' for Active; 'I' for Inactive)
REMARK    1  A    between atoms: O1_1  and  C1_3 
REMARK    2  A    between atoms: C6_9  and  O2_10 
ROOT
HETATM    1  C1  UNL     1      16.457  18.030  21.446  1.00  0.00     0.182 C 
HETATM    2  C2  UNL     1      16.519  17.094  22.633  1.00  0.00     0.307 C 
HETATM    3  N1  UNL     1      15.726  15.932  22.300  1.00  0.00     0.094 N 
HETATM    4  C3  UNL     1      16.547  14.739  22.127  1.00  0.00     0.272 C 
HETATM    5  C4  UNL     1      17.304  14.761  20.829  1.00  0.00     0.033 C 
HETATM    6  C5  UNL     1      17.518  16.167  20.299  1.00  0.00     0.044 C 
HETATM    7  C6  UNL     1      16.278  16.984  20.335  1.00  0.00     0.112 C 
HETATM    8  C7  UNL     1      15.136  16.193  20.989  1.00  0.00     0.312 C 
ENDROOT
BRANCH   1   9
HETATM    9  O1  UNL     1      17.574  18.792  21.276  1.00  0.00    -0.391 OA
ATOM     10  H1  UNL     1      17.703  19.102  20.388  1.00  0.00     0.210 HD
ENDBRANCH   1   9
BRANCH   7  11
HETATM   11  O2  UNL     1      15.908  17.548  19.145  1.00  0.00    -0.385 OA
ATOM     12  H2  UNL     1      15.198  17.077  18.727  1.00  0.00     0.210 HD
ENDBRANCH   7  11
TORSDOF 2
ENDMDL
MODEL 3
REMARK VINA RESULT: -3.801333882      7.219      8.582
REMARK  2 active torsions:
REMARK  status: ('A' for Active; 'I' for Inactive)
REMARK    1  A    between atoms: O1_1  and  C1_3 
REMARK    2  A    between atoms: C6_9  and  O2_10 
ROOT
HETATM    1  C1  UNL     1      19.960   9.245  19.746  1.00  0.00     0.182 C 
HETATM    2  C2  UNL     1      18.648   9.182  20.495  1.00  0.00     0.307 C 
HETATM    3  N1  UNL     1      18.746  10.104  21.604  1.00  0.00     0.094 N 
HETATM    4  C3  UNL     1      17.864  11.255  21.441  1.00  0.00     0.272 C 
HETATM    5  C4  UNL     1      18.385  12.222  20.416  1.00  0.00     0.033 C 
HETATM    6  C5  UNL     1      19.315  11.566  19.412  1.00  0.00     0.044 C 
HETATM    7  C6  UNL     1      20.335  10.702  20.060  1.00  0.00     0.112 C 
HETATM    8  C7  UNL     1      20.102  10.645  21.576  1.00  0.00     0.312 C 
ENDROOT
BRANCH   1   9
HETATM    9  O1  UNL     1      19.852   9.006  18.409  1.00  0.00    -0.391 OA
ATOM     10  H1  UNL     1      18.971   8.799  18.120  1.00  0.00     0.210 HD
ENDBRANCH   1   9
BRANCH   7  11
HETATM   11  O2  UNL     1      21.636  10.984  19.740  1.00  0.00    -0.385 OA
ATOM     12  H2  UNL     1      21.716  11.403  18.892  1.00  0.00     0.210 HD
ENDBRANCH   7  11
TORSDOF 2
ENDMDL
MODEL 4
REMARK VINA RESULT: -3.654105135      7.398      8.500
REMARK  2 active torsions:
REMARK  status: ('A' for Active; 'I' for Inactive)
REMARK    1  A    between atoms: O1_1  and  C1_3 
REMARK    2  A    between atoms: C6_9  and  O2_10 
ROOT
HETATM    1  C1  UNL     1      13.974  11.768  28.823  1.00  0.00     0.182 C 
HETATM    2  C2  UNL     1      12.760  11.843  27.925  1.00  0.00     0.307 C 
HETATM    3  N1  UNL     1      12.544  13.239  27.618  1.00  0.00     0.094 N 
HETATM    4  C3  UNL     1      12.808  13.540  26.215  1.00  0.00     0.272 C 
HETATM    5  C4  UNL     1      14.280  13.563  25.913  1.00  0.00     0.033 C 
HETATM    6  C5  UNL     1      15.093  12.739  26.894  1.00  0.00     0.044 C 
HETATM    7  C6  UNL     1      14.721  13.008  28.308  1.00  0.00     0.112 C 
HETATM    8  C7  UNL     1      13.544  13.991  28.373  1.00  0.00     0.312 C 
ENDROOT
BRANCH   1   9
HETATM    9  O1  UNL     1      14.700  10.622  28.687  1.00  0.00    -0.391 OA
ATOM     10  H1  UNL     1      14.880  10.175  29.506  1.00  0.00     0.210 HD
ENDBRANCH   1   9
BRANCH   7  11
HETATM   11  O2  UNL     1      15.753  13.372  29.130  1.00  0.00    -0.385 OA
ATOM     12  H2  UNL     1      15.462  13.556  30.015  1.00  0.00     0.210 HD
ENDBRANCH   7  11
TORSDOF 2
ENDMDL
MODEL 5
REMARK VINA RESULT: -3.563579757      4.805      5.735
REMARK  2 active torsions:
REMARK  status: ('A' for Active; 'I' for Inactive)
REMARK    1  A    between atoms: O1_1  and  C1_3 
REMARK    2  A    between atoms: C6_9  and  O2_10 
ROOT
HETATM    1  C1  UNL     1      14.438  13.658  23.059  1.00  0.00     0.182 C 
HETATM    2  C2  UNL     1      13.830  13.362  24.411  1.00  0.00     0.307 C 
HETATM    3  N1  UNL     1      14.664  12.366  25.044  1.00  0.00     0.094 N 
HETATM    4  C3  UNL     1      15.382  12.903  26.196  1.00  0.00     0.272 C 
HETATM    5  C4  UNL     1      16.521  13.791  25.785  1.00  0.00     0.033 C 
HETATM    6  C5  UNL     1      16.331  14.386  24.402  1.00  0.00     0.044 C 
HETATM    7  C6  UNL     1      15.909  13.373  23.400  1.00  0.00     0.112 C 
HETATM    8  C7  UNL     1      15.696  12.010  24.074  1.00  0.00     0.312 C 
ENDROOT
BRANCH   1   9
HETATM    9  O1  UNL     1      14.237  14.934  22.623  1.00  0.00    -0.391 OA
ATOM     10  H1  UNL     1      14.524  15.090  21.731  1.00  0.00     0.210 HD
ENDBRANCH   1   9
BRANCH   7  11
HETATM   11  O2  UNL     1      16.694  13.286  22.282  1.00  0.00    -0.385 OA
ATOM     12  H2  UNL     1      16.501  12.514  21.764  1.00  0.00     0.210 HD
ENDBRANCH   7  11
TORSDOF 2
ENDMDL
