MODEL 1
REMARK VINA RESULT: -5.502560912      0.000      0.000
REMARK  2 active torsions:
REMARK  status: ('A' for Active; 'I' for Inactive)
REMARK    1  A    between atoms: O1_1  and  C1_3 
REMARK    2  A    between atoms: C6_9  and  O3_10 
ROOT
HETATM    1  C1  UNL     1      16.321  18.283  22.594  1.00  0.00     0.286 C 
HETATM    2  O2  UNL     1      16.707  17.106  23.157  1.00  0.00    -0.353 OA
HETATM    3  C2  UNL     1      16.245  15.965  22.568  1.00  0.00     0.134 A 
HETATM    4  C3  UNL     1      16.909  15.345  21.402  1.00  0.00     0.022 A 
HETATM    5  C4  UNL     1      17.357  16.117  20.214  1.00  0.00     0.015 C 
HETATM    6  C5  UNL     1      16.211  17.106  20.381  1.00  0.00     0.027 C 
HETATM    7  C6  UNL     1      16.668  18.336  21.108  1.00  0.00     0.177 C 
HETATM    8  C7  UNL     1      15.566  16.107  21.275  1.00  0.00     0.028 A 
ENDROOT
BRANCH   1   9
HETATM    9  O1  UNL     1      15.021  18.664  22.844  1.00  0.00    -0.369 OA
ATOM     10  H1  UNL     1      14.407  18.518  22.133  1.00  0.00     0.212 HD
ENDBRANCH   1   9
BRANCH   7  11
HETATM   11  O3  UNL     1      16.181  19.504  20.551  1.00  0.00    -0.390 OA
ATOM     12  H3  UNL     1      16.417  20.247  21.095  1.00  0.00     0.210 HD
ENDBRANCH   7  11
TORSDOF 2
ENDMDL
MODEL 2
REMARK VINA RESULT: -4.170663010      1.279      2.092
REMARK  2 active torsions:
REMARK  status: ('A' for Active; 'I' for Inactive)
REMARK    1  A    between atoms: O1_1  and  C1_3 
REMARK    2  A    between atoms: C6_9  and  O3_10 
ROOT
HETATM    1  C1  UNL     1      15.442  16.376  22.452  1.00  0.00     0.286 C 
HETATM    2  O2  UNL     1      16.428  15.574  21.967  1.00  0.00    -0.353 OA
HETATM    3  C2  UNL     1      16.818  15.795  20.677  1.00  0.00     0.134 A 
HETATM    4  C3  UNL     1      17.811  16.827  20.312  1.00  0.00     0.022 A 
HETATM    5  C4  UNL     1      17.776  18.215  20.840  1.00  0.00     0.015 C 
HETATM    6  C5  UNL     1      16.256  18.185  20.916  1.00  0.00     0.027 C 
HETATM    7  C6  UNL     1      15.796  17.854  22.304  1.00  0.00     0.177 C 
HETATM    8  C7  UNL     1      16.300  16.999  20.019  1.00  0.00     0.028 A 
ENDROOT
BRANCH   1   9
HETATM    9  O1  UNL     1      14.170  16.093  22.004  1.00  0.00    -0.369 OA
ATOM     10  H1  UNL     1      14.113  15.755  21.117  1.00  0.00     0.212 HD
ENDBRANCH   1   9
BRANCH   7  11
HETATM   11  O3  UNL     1      14.736  18.638  22.723  1.00  0.00    -0.390 OA
ATOM     12  H3  UNL     1      14.250  18.189  23.406  1.00  0.00     0.210 HD
ENDBRANCH   7  11
TORSDOF 2
ENDMDL
MODEL 3
REMARK VINA RESULT: -4.145313066      1.189      2.781
REMARK  2 active torsions:
REMARK  status: ('A' for Active; 'I' for Inactive)
REMARK    1  A    between atoms: O1_1  and  C1_3 
REMARK    2  A    between atoms: C6_9  and  O3_10 
ROOT
HETATM    1  C1  UNL     1      15.745  16.682  22.729  1.00  0.00     0.286 C 
HETATM    2  O2  UNL     1      15.309  17.914  22.352  1.00  0.00    -0.353 OA
HETATM    3  C2  UNL     1      16.136  18.636  21.541  1.00  0.00     0.134 A 
HETATM    4  C3  UNL     1      16.163  18.463  20.074  1.00  0.00     0.022 A 
HETATM    5  C4  UNL     1      16.203  17.134  19.410  1.00  0.00     0.015 C 
HETATM    6  C5  UNL     1      17.004  16.544  20.563  1.00  0.00     0.027 C 
HETATM    7  C6  UNL     1      16.107  15.820  21.522  1.00  0.00     0.177 C 
HETATM    8  C7  UNL     1      17.301  17.940  20.985  1.00  0.00     0.028 A 
ENDROOT
BRANCH   1   9
HETATM    9  O1  UNL     1      16.727  16.670  23.697  1.00  0.00    -0.369 OA
ATOM     10  H1  UNL     1      17.524  17.138  23.478  1.00  0.00     0.212 HD
ENDBRANCH   1   9
BRANCH   7  11
HETATM   11  O3  UNL     1      16.632  14.612  21.945  1.00  0.00    -0.390 OA
ATOM     12  H3  UNL     1      15.928  13.999  22.128  1.00  0.00     0.210 HD
ENDBRANCH   7  11
TORSDOF 2
ENDMDL
MODEL 4
REMARK VINA RESULT: -3.963758277      1.633      2.889
REMARK  2 active torsions:
REMARK  status: ('A' for Active; 'I' for Inactive)
REMARK    1  A    between atoms: O1_1  and  C1_3 
REMARK    2  A    between atoms: C6_9  and  O3_10 
ROOT
HETATM    1  C1  UNL     1      16.435  16.032  20.929  1.00  0.00     0.286 C 
HETATM    2  O2  UNL     1      16.361  16.118  22.284  1.00  0.00    -0.353 OA
HETATM    3  C2  UNL     1      16.912  17.227  22.859  1.00  0.00     0.134 A 
HETATM    4  C3  UNL     1      16.182  18.506  22.981  1.00  0.00     0.022 A 
HETATM    5  C4  UNL     1      15.414  19.116  21.865  1.00  0.00     0.015 C 
HETATM    6  C5  UNL     1      16.380  18.539  20.839  1.00  0.00     0.027 C 
HETATM    7  C6  UNL     1      15.842  17.267  20.254  1.00  0.00     0.177 C 
HETATM    8  C7  UNL     1      17.330  18.308  21.960  1.00  0.00     0.028 A 
ENDROOT
BRANCH   1   9
HETATM    9  O1  UNL     1      17.672  15.699  20.420  1.00  0.00    -0.369 OA
ATOM     10  H1  UNL     1      18.336  16.377  20.480  1.00  0.00     0.212 HD
ENDBRANCH   1   9
BRANCH   7  11
HETATM   11  O3  UNL     1      16.016  17.187  18.884  1.00  0.00    -0.390 OA
ATOM     12  H3  UNL     1      15.513  17.868  18.452  1.00  0.00     0.210 HD
ENDBRANCH   7  11
TORSDOF 2
ENDMDL
MODEL 5
REMARK VINA RESULT: -3.911322127      3.720      5.015
REMARK  2 active torsions:
REMARK  status: ('A' for Active; 'I' for Inactive)
REMARK    1  A    between atoms: O1_1  and  C1_3 
REMARK    2  A    between atoms: C6_9  and  O3_10 
ROOT
HETATM    1  C1  UNL     1      15.753  14.253  22.950  1.00  0.00     0.286 C 
HETATM    2  O2  UNL     1      16.463  13.225  23.489  1.00  0.00    -0.353 OA
HETATM    3  C2  UNL     1      16.149  12.866  24.768  1.00  0.00     0.134 A 
HETATM    4  C3  UNL     1      15.037  11.946  25.087  1.00  0.00     0.022 A 
HETATM    5  C4  UNL     1      13.684  12.061  24.483  1.00  0.00     0.015 C 
HETATM    6  C5  UNL     1      13.816  13.576  24.394  1.00  0.00     0.027 C 
HETATM    7  C6  UNL     1      14.250  13.996  23.021  1.00  0.00     0.177 C 
HETATM    8  C7  UNL     1      14.947  13.469  25.355  1.00  0.00     0.028 A 
ENDROOT
BRANCH   1   9
HETATM    9  O1  UNL     1      16.092  15.510  23.401  1.00  0.00    -0.369 OA
ATOM     10  H1  UNL     1      15.428  16.180  23.288  1.00  0.00     0.212 HD
ENDBRANCH   1   9
BRANCH   7  11
HETATM   11  O3  UNL     1      13.559  15.097  22.550  1.00  0.00    -0.390 OA
ATOM     12  H3  UNL     1      14.168  15.735  22.194  1.00  0.00     0.210 HD
ENDBRANCH   7  11
TORSDOF 2
ENDMDL
