MODEL 1
REMARK VINA RESULT: -4.592445484      0.000      0.000
REMARK  2 active torsions:
REMARK  status: ('A' for Active; 'I' for Inactive)
REMARK    1  A    between atoms: C3_3  and  C4_4 
REMARK    2  A    between atoms: C4_4  and  N1_5 
ROOT
HETATM    1  C1  UNL     1      22.682 -19.468 -12.188  1.00  0.00     0.096 C 
HETATM    2  C2  UNL     1      22.953 -18.289 -12.370  1.00  0.00    -0.186 C 
HETATM    3  C3  UNL     1      23.249 -16.885 -12.600  1.00  0.00     0.109 C 
ENDROOT
BRANCH   3   4
HETATM    4  C4  UNL     1      24.328 -16.735 -13.662  1.00  0.00     0.285 C 
BRANCH   4   5
HETATM    5  N1  UNL     1      24.608 -15.374 -13.960  1.00  0.00     0.116 N 
HETATM    6  C5  UNL     1      23.754 -14.507 -13.190  1.00  0.00     0.302 C 
HETATM    7  C6  UNL     1      24.664 -13.480 -12.555  1.00  0.00     0.264 C 
HETATM    8  N2  UNL     1      25.963 -13.687 -13.162  1.00  0.00    -0.047 N 
HETATM    9  C7  UNL     1      25.973 -15.041 -13.677  1.00  0.00     0.502 C 
ATOM     10  H22 UNL     1      26.194 -12.987 -13.866  1.00  0.00     0.279 HD
ATOM     11  H21 UNL     1      26.739 -13.492 -12.528  1.00  0.00     0.279 HD
ENDBRANCH   4   5
ENDBRANCH   3   4
TORSDOF 2
ENDMDL
MODEL 2
REMARK VINA RESULT: -4.521552331      1.025      1.889
REMARK  2 active torsions:
REMARK  status: ('A' for Active; 'I' for Inactive)
REMARK    1  A    between atoms: C3_3  and  C4_4 
REMARK    2  A    between atoms: C4_4  and  N1_5 
ROOT
HETATM    1  C1  UNL     1      22.336 -18.074 -11.836  1.00  0.00     0.096 C 
HETATM    2  C2  UNL     1      23.088 -17.377 -12.503  1.00  0.00    -0.186 C 
HETATM    3  C3  UNL     1      24.006 -16.562 -13.280  1.00  0.00     0.109 C 
ENDROOT
BRANCH   3   4
HETATM    4  C4  UNL     1      23.980 -15.120 -12.796  1.00  0.00     0.285 C 
BRANCH   4   5
HETATM    5  N1  UNL     1      25.284 -14.593 -12.598  1.00  0.00     0.116 N 
HETATM    6  C5  UNL     1      26.266 -15.433 -13.234  1.00  0.00     0.302 C 
HETATM    7  C6  UNL     1      27.138 -14.509 -14.055  1.00  0.00     0.264 C 
HETATM    8  N2  UNL     1      26.740 -13.167 -13.680  1.00  0.00    -0.047 N 
HETATM    9  C7  UNL     1      25.404 -13.266 -13.129  1.00  0.00     0.502 C 
ATOM     10  H22 UNL     1      27.402 -12.713 -13.051  1.00  0.00     0.279 HD
ATOM     11  H21 UNL     1      26.811 -12.498 -14.446  1.00  0.00     0.279 HD
ENDBRANCH   4   5
ENDBRANCH   3   4
TORSDOF 2
ENDMDL
MODEL 3
REMARK VINA RESULT: -4.453036696      1.693      1.965
REMARK  2 active torsions:
REMARK  status: ('A' for Active; 'I' for Inactive)
REMARK    1  A    between atoms: C3_3  and  C4_4 
REMARK    2  A    between atoms: C4_4  and  N1_5 
ROOT
HETATM    1  C1  UNL     1      21.308 -18.534 -11.368  1.00  0.00     0.096 C 
HETATM    2  C2  UNL     1      22.325 -18.219 -11.971  1.00  0.00    -0.186 C 
HETATM    3  C3  UNL     1      23.539 -17.874 -12.691  1.00  0.00     0.109 C 
ENDROOT
BRANCH   3   4
HETATM    4  C4  UNL     1      24.598 -17.352 -11.732  1.00  0.00     0.285 C 
BRANCH   4   5
HETATM    5  N1  UNL     1      24.880 -15.975 -11.936  1.00  0.00     0.116 N 
HETATM    6  C5  UNL     1      24.496 -15.577 -13.266  1.00  0.00     0.302 C 
HETATM    7  C6  UNL     1      23.669 -14.321 -13.104  1.00  0.00     0.264 C 
HETATM    8  N2  UNL     1      23.798 -13.950 -11.709  1.00  0.00    -0.047 N 
HETATM    9  C7  UNL     1      24.186 -15.148 -10.992  1.00  0.00     0.502 C 
ATOM     10  H22 UNL     1      24.433 -13.167 -11.559  1.00  0.00     0.279 HD
ATOM     11  H21 UNL     1      22.959 -13.510 -11.331  1.00  0.00     0.279 HD
ENDBRANCH   4   5
ENDBRANCH   3   4
TORSDOF 2
ENDMDL
MODEL 4
REMARK VINA RESULT: -4.448563624      1.173      1.210
REMARK  2 active torsions:
REMARK  status: ('A' for Active; 'I' for Inactive)
REMARK    1  A    between atoms: C3_3  and  C4_4 
REMARK    2  A    between atoms: C4_4  and  N1_5 
ROOT
HETATM    1  C1  UNL     1      24.212 -19.325 -10.640  1.00  0.00     0.096 C 
HETATM    2  C2  UNL     1      24.226 -18.153 -10.992  1.00  0.00    -0.186 C 
HETATM    3  C3  UNL     1      24.218 -16.757 -11.393  1.00  0.00     0.109 C 
ENDROOT
BRANCH   3   4
HETATM    4  C4  UNL     1      23.697 -16.614 -12.815  1.00  0.00     0.285 C 
BRANCH   4   5
HETATM    5  N1  UNL     1      24.339 -15.562 -13.523  1.00  0.00     0.116 N 
HETATM    6  C5  UNL     1      23.832 -14.285 -13.091  1.00  0.00     0.302 C 
HETATM    7  C6  UNL     1      25.044 -13.433 -12.792  1.00  0.00     0.264 C 
HETATM    8  N2  UNL     1      26.181 -14.196 -13.267  1.00  0.00    -0.047 N 
HETATM    9  C7  UNL     1      25.759 -15.582 -13.325  1.00  0.00     0.502 C 
ATOM     10  H22 UNL     1      26.554 -13.853 -14.151  1.00  0.00     0.279 HD
ATOM     11  H21 UNL     1      27.022 -14.055 -12.708  1.00  0.00     0.279 HD
ENDBRANCH   4   5
ENDBRANCH   3   4
TORSDOF 2
ENDMDL
MODEL 5
REMARK VINA RESULT: -4.375495778      4.544      6.501
REMARK  2 active torsions:
REMARK  status: ('A' for Active; 'I' for Inactive)
REMARK    1  A    between atoms: C3_3  and  C4_4 
REMARK    2  A    between atoms: C4_4  and  N1_5 
ROOT
HETATM    1  C1  UNL     1      23.481 -16.980 -12.839  1.00  0.00     0.096 C 
HETATM    2  C2  UNL     1      22.709 -17.691 -12.209  1.00  0.00    -0.186 C 
HETATM    3  C3  UNL     1      21.774 -18.513 -11.459  1.00  0.00     0.109 C 
ENDROOT
BRANCH   3   4
HETATM    4  C4  UNL     1      22.273 -18.725 -10.038  1.00  0.00     0.285 C 
BRANCH   4   5
HETATM    5  N1  UNL     1      21.209 -18.874  -9.109  1.00  0.00     0.116 N 
HETATM    6  C5  UNL     1      20.030 -18.196  -9.583  1.00  0.00     0.302 C 
HETATM    7  C6  UNL     1      18.898 -19.192  -9.465  1.00  0.00     0.264 C 
HETATM    8  N2  UNL     1      19.447 -20.316  -8.734  1.00  0.00    -0.047 N 
HETATM    9  C7  UNL     1      20.887 -20.254  -8.891  1.00  0.00     0.502 C 
ATOM     10  H22 UNL     1      19.150 -20.346  -7.759  1.00  0.00     0.279 HD
ATOM     11  H21 UNL     1      19.050 -21.212  -9.017  1.00  0.00     0.279 HD
ENDBRANCH   4   5
ENDBRANCH   3   4
TORSDOF 2
ENDMDL
