MODEL 1
REMARK VINA RESULT: -4.848675034      0.000      0.000
REMARK  2 active torsions:
REMARK  status: ('A' for Active; 'I' for Inactive)
REMARK    1  A    between atoms: N2_4  and  C1_6 
REMARK    2  A    between atoms: C1_6  and  N3_7 
ROOT
HETATM    1  N3  UNL     1      24.142 -16.466 -11.680  1.00  0.00     0.106 N 
HETATM    2  C2  UNL     1      23.380 -17.694 -11.763  1.00  0.00     0.274 C 
HETATM    3  C3  UNL     1      23.913 -18.613 -10.667  1.00  0.00     0.030 C 
HETATM    4  C4  UNL     1      25.203 -19.199 -11.196  1.00  0.00     0.003 C 
HETATM    5  C5  UNL     1      25.972 -18.095 -11.869  1.00  0.00     0.030 C 
HETATM    6  C6  UNL     1      25.525 -16.718 -11.436  1.00  0.00     0.274 C 
ENDROOT
BRANCH   1   7
HETATM    7  C1  UNL     1      23.906 -15.699 -12.891  1.00  0.00     0.411 C 
BRANCH   7   8
HETATM    8  N2  UNL     1      23.298 -14.437 -12.580  1.00  0.00    -0.316 N 
HETATM    9  N1  UNL     1      23.745 -13.712 -11.668  1.00  0.00    -0.348 N 
ATOM     10  H12 UNL     1      24.557 -14.037 -11.143  1.00  0.00     0.176 HD
ATOM     11  H11 UNL     1      23.312 -12.815 -11.446  1.00  0.00     0.176 HD
ATOM     12  H2  UNL     1      22.486 -14.126 -13.113  1.00  0.00     0.181 HD
ENDBRANCH   7   8
ENDBRANCH   1   7
TORSDOF 2
ENDMDL
MODEL 2
REMARK VINA RESULT: -4.763207524      1.814      2.789
REMARK  2 active torsions:
REMARK  status: ('A' for Active; 'I' for Inactive)
REMARK    1  A    between atoms: N2_4  and  C1_6 
REMARK    2  A    between atoms: C1_6  and  N3_7 
ROOT
HETATM    1  N3  UNL     1      24.854 -15.527 -13.663  1.00  0.00     0.106 N 
HETATM    2  C2  UNL     1      26.082 -14.787 -13.459  1.00  0.00     0.274 C 
HETATM    3  C3  UNL     1      27.208 -15.815 -13.407  1.00  0.00     0.030 C 
HETATM    4  C4  UNL     1      27.165 -16.422 -12.023  1.00  0.00     0.003 C 
HETATM    5  C5  UNL     1      25.724 -16.677 -11.673  1.00  0.00     0.030 C 
HETATM    6  C6  UNL     1      24.823 -16.724 -12.886  1.00  0.00     0.274 C 
ENDROOT
BRANCH   1   7
HETATM    7  C1  UNL     1      23.736 -14.641 -13.391  1.00  0.00     0.411 C 
BRANCH   7   8
HETATM    8  N2  UNL     1      24.110 -13.632 -12.441  1.00  0.00    -0.316 N 
HETATM    9  N1  UNL     1      23.717 -13.682 -11.257  1.00  0.00    -0.348 N 
ATOM     10  H12 UNL     1      23.121 -14.460 -10.976  1.00  0.00     0.176 HD
ATOM     11  H11 UNL     1      23.983 -12.965 -10.583  1.00  0.00     0.176 HD
ATOM     12  H2  UNL     1      24.707 -12.860 -12.738  1.00  0.00     0.181 HD
ENDBRANCH   7   8
ENDBRANCH   1   7
TORSDOF 2
ENDMDL
MODEL 3
REMARK VINA RESULT: -4.709301112      0.868      1.815
REMARK  2 active torsions:
REMARK  status: ('A' for Active; 'I' for Inactive)
REMARK    1  A    between atoms: N2_4  and  C1_6 
REMARK    2  A    between atoms: C1_6  and  N3_7 
ROOT
HETATM    1  N3  UNL     1      24.291 -16.930 -12.655  1.00  0.00     0.106 N 
HETATM    2  C2  UNL     1      24.915 -17.070 -11.356  1.00  0.00     0.274 C 
HETATM    3  C3  UNL     1      25.039 -18.567 -11.090  1.00  0.00     0.030 C 
HETATM    4  C4  UNL     1      23.669 -19.034 -10.652  1.00  0.00     0.003 C 
HETATM    5  C5  UNL     1      22.649 -18.381 -11.543  1.00  0.00     0.030 C 
HETATM    6  C6  UNL     1      23.237 -17.875 -12.840  1.00  0.00     0.274 C 
ENDROOT
BRANCH   1   7
HETATM    7  C1  UNL     1      23.854 -15.553 -12.807  1.00  0.00     0.411 C 
BRANCH   7   8
HETATM    8  N2  UNL     1      23.825 -14.889 -11.534  1.00  0.00    -0.316 N 
HETATM    9  N1  UNL     1      23.801 -13.644 -11.455  1.00  0.00    -0.348 N 
ATOM     10  H12 UNL     1      23.803 -13.103 -12.320  1.00  0.00     0.176 HD
ATOM     11  H11 UNL     1      23.780 -13.173 -10.551  1.00  0.00     0.176 HD
ATOM     12  H2  UNL     1      23.824 -15.445 -10.678  1.00  0.00     0.181 HD
ENDBRANCH   7   8
ENDBRANCH   1   7
TORSDOF 2
ENDMDL
MODEL 4
REMARK VINA RESULT: -4.680350968      2.061      2.658
REMARK  2 active torsions:
REMARK  status: ('A' for Active; 'I' for Inactive)
REMARK    1  A    between atoms: N2_4  and  C1_6 
REMARK    2  A    between atoms: C1_6  and  N3_7 
ROOT
HETATM    1  N3  UNL     1      25.302 -14.856 -12.550  1.00  0.00     0.106 N 
HETATM    2  C2  UNL     1      24.584 -15.429 -11.431  1.00  0.00     0.274 C 
HETATM    3  C3  UNL     1      24.989 -16.898 -11.359  1.00  0.00     0.030 C 
HETATM    4  C4  UNL     1      24.193 -17.610 -12.430  1.00  0.00     0.003 C 
HETATM    5  C5  UNL     1      24.209 -16.753 -13.666  1.00  0.00     0.030 C 
HETATM    6  C6  UNL     1      25.333 -15.743 -13.668  1.00  0.00     0.274 C 
ENDROOT
BRANCH   1   7
HETATM    7  C1  UNL     1      24.709 -13.566 -12.861  1.00  0.00     0.411 C 
BRANCH   7   8
HETATM    8  N2  UNL     1      25.710 -12.537 -12.858  1.00  0.00    -0.316 N 
HETATM    9  N1  UNL     1      26.704 -12.600 -13.609  1.00  0.00    -0.348 N 
ATOM     10  H12 UNL     1      26.793 -13.405 -14.229  1.00  0.00     0.176 HD
ATOM     11  H11 UNL     1      27.414 -11.868 -13.606  1.00  0.00     0.176 HD
ATOM     12  H2  UNL     1      25.606 -11.738 -12.231  1.00  0.00     0.181 HD
ENDBRANCH   7   8
ENDBRANCH   1   7
TORSDOF 2
ENDMDL
MODEL 5
REMARK VINA RESULT: -4.665470938      2.215      2.792
REMARK  2 active torsions:
REMARK  status: ('A' for Active; 'I' for Inactive)
REMARK    1  A    between atoms: N2_4  and  C1_6 
REMARK    2  A    between atoms: C1_6  and  N3_7 
ROOT
HETATM    1  N3  UNL     1      25.526 -16.018 -13.206  1.00  0.00     0.106 N 
HETATM    2  C2  UNL     1      25.726 -16.146 -11.778  1.00  0.00     0.274 C 
HETATM    3  C3  UNL     1      25.410 -17.595 -11.421  1.00  0.00     0.030 C 
HETATM    4  C4  UNL     1      23.902 -17.700 -11.374  1.00  0.00     0.003 C 
HETATM    5  C5  UNL     1      23.347 -16.943 -12.549  1.00  0.00     0.030 C 
HETATM    6  C6  UNL     1      24.366 -16.725 -13.643  1.00  0.00     0.274 C 
ENDROOT
BRANCH   1   7
HETATM    7  C1  UNL     1      25.492 -14.604 -13.539  1.00  0.00     0.411 C 
BRANCH   7   8
HETATM    8  N2  UNL     1      26.824 -14.090 -13.695  1.00  0.00    -0.316 N 
HETATM    9  N1  UNL     1      27.023 -12.918 -14.074  1.00  0.00    -0.348 N 
ATOM     10  H12 UNL     1      26.215 -12.328 -14.273  1.00  0.00     0.176 HD
ATOM     11  H11 UNL     1      27.969 -12.553 -14.186  1.00  0.00     0.176 HD
ATOM     12  H2  UNL     1      27.621 -14.693 -13.493  1.00  0.00     0.181 HD
ENDBRANCH   7   8
ENDBRANCH   1   7
TORSDOF 2
ENDMDL
