MODEL 1
REMARK VINA RESULT: -5.183889108      0.000      0.000
REMARK  1 active torsions:
REMARK  status: ('A' for Active; 'I' for Inactive)
REMARK    1  A    between atoms: N2_4  and  N3_6 
ROOT
HETATM    1  N3  UNL     1      23.882 -15.208 -11.172  1.00  0.00    -0.269 N 
ATOM      2  H3  UNL     1      23.068 -15.678 -10.777  1.00  0.00     0.190 HD
HETATM    3  C1  UNL     1      24.902 -15.935 -11.480  1.00  0.00     0.133 C 
HETATM    4  C2  UNL     1      24.915 -17.410 -11.276  1.00  0.00     0.087 C 
HETATM    5  C3  UNL     1      26.334 -17.823 -11.665  1.00  0.00     0.035 C 
HETATM    6  C4  UNL     1      27.072 -16.538 -11.958  1.00  0.00     0.177 C 
HETATM    7  O1  UNL     1      26.103 -15.515 -12.025  1.00  0.00    -0.338 OA
ENDROOT
BRANCH   1   8
HETATM    8  N2  UNL     1      23.813 -13.840 -11.338  1.00  0.00    -0.248 N 
HETATM    9  N1  UNL     1      24.154 -13.330 -12.445  1.00  0.00    -0.331 N 
ATOM     10  H12 UNL     1      24.475 -13.939 -13.198  1.00  0.00     0.178 HD
ATOM     11  H11 UNL     1      24.103 -12.319 -12.568  1.00  0.00     0.178 HD
ATOM     12  H2  UNL     1      23.490 -13.245 -10.574  1.00  0.00     0.207 HD
ENDBRANCH   1   8
TORSDOF 1
ENDMDL
MODEL 2
REMARK VINA RESULT: -4.951655953      2.894      3.377
REMARK  1 active torsions:
REMARK  status: ('A' for Active; 'I' for Inactive)
REMARK    1  A    between atoms: N2_4  and  N3_6 
ROOT
HETATM    1  N3  UNL     1      26.838 -14.215 -13.964  1.00  0.00    -0.269 N 
ATOM      2  H3  UNL     1      27.588 -14.864 -14.206  1.00  0.00     0.190 HD
HETATM    3  C1  UNL     1      25.710 -14.717 -13.592  1.00  0.00     0.133 C 
HETATM    4  C2  UNL     1      25.484 -16.187 -13.512  1.00  0.00     0.087 C 
HETATM    5  C3  UNL     1      24.005 -16.313 -13.148  1.00  0.00     0.035 C 
HETATM    6  C4  UNL     1      23.457 -14.906 -13.157  1.00  0.00     0.177 C 
HETATM    7  O1  UNL     1      24.566 -14.035 -13.221  1.00  0.00    -0.338 OA
ENDROOT
BRANCH   1   8
HETATM    8  N2  UNL     1      27.105 -12.865 -14.058  1.00  0.00    -0.248 N 
HETATM    9  N1  UNL     1      26.567 -12.067 -13.236  1.00  0.00    -0.331 N 
ATOM     10  H12 UNL     1      25.943 -12.435 -12.517  1.00  0.00     0.178 HD
ATOM     11  H11 UNL     1      26.764 -11.068 -13.305  1.00  0.00     0.178 HD
ATOM     12  H2  UNL     1      27.731 -12.514 -14.782  1.00  0.00     0.207 HD
ENDBRANCH   1   8
TORSDOF 1
ENDMDL
MODEL 3
REMARK VINA RESULT: -4.883218486      2.305      2.975
REMARK  1 active torsions:
REMARK  status: ('A' for Active; 'I' for Inactive)
REMARK    1  A    between atoms: N2_4  and  N3_6 
ROOT
HETATM    1  N3  UNL     1      25.178 -12.966 -12.936  1.00  0.00    -0.269 N 
ATOM      2  H3  UNL     1      24.434 -12.398 -12.530  1.00  0.00     0.190 HD
HETATM    3  C1  UNL     1      24.924 -14.210 -13.166  1.00  0.00     0.133 C 
HETATM    4  C2  UNL     1      23.600 -14.819 -12.859  1.00  0.00     0.087 C 
HETATM    5  C3  UNL     1      23.792 -16.300 -13.181  1.00  0.00     0.035 C 
HETATM    6  C4  UNL     1      25.250 -16.458 -13.544  1.00  0.00     0.177 C 
HETATM    7  O1  UNL     1      25.774 -15.157 -13.708  1.00  0.00    -0.338 OA
ENDROOT
BRANCH   1   8
HETATM    8  N2  UNL     1      26.384 -12.349 -13.199  1.00  0.00    -0.248 N 
HETATM    9  N1  UNL     1      27.068 -12.722 -14.196  1.00  0.00    -0.331 N 
ATOM     10  H12 UNL     1      26.718 -13.474 -14.790  1.00  0.00     0.178 HD
ATOM     11  H11 UNL     1      27.959 -12.265 -14.392  1.00  0.00     0.178 HD
ATOM     12  H2  UNL     1      26.719 -11.599 -12.595  1.00  0.00     0.207 HD
ENDBRANCH   1   8
TORSDOF 1
ENDMDL
MODEL 4
REMARK VINA RESULT: -4.865506233      1.547      1.984
REMARK  1 active torsions:
REMARK  status: ('A' for Active; 'I' for Inactive)
REMARK    1  A    between atoms: N2_4  and  N3_6 
ROOT
HETATM    1  N3  UNL     1      23.123 -15.469 -12.783  1.00  0.00    -0.269 N 
ATOM      2  H3  UNL     1      22.302 -15.566 -13.382  1.00  0.00     0.190 HD
HETATM    3  C1  UNL     1      23.682 -16.549 -12.353  1.00  0.00     0.133 C 
HETATM    4  C2  UNL     1      23.166 -17.902 -12.703  1.00  0.00     0.087 C 
HETATM    5  C3  UNL     1      24.049 -18.852 -11.896  1.00  0.00     0.035 C 
HETATM    6  C4  UNL     1      24.938 -17.971 -11.049  1.00  0.00     0.177 C 
HETATM    7  O1  UNL     1      24.794 -16.655 -11.538  1.00  0.00    -0.338 OA
ENDROOT
BRANCH   1   8
HETATM    8  N2  UNL     1      23.554 -14.191 -12.492  1.00  0.00    -0.248 N 
HETATM    9  N1  UNL     1      23.795 -13.874 -11.291  1.00  0.00    -0.331 N 
ATOM     10  H12 UNL     1      23.666 -14.570 -10.555  1.00  0.00     0.178 HD
ATOM     11  H11 UNL     1      24.114 -12.930 -11.075  1.00  0.00     0.178 HD
ATOM     12  H2  UNL     1      23.678 -13.508 -13.240  1.00  0.00     0.207 HD
ENDBRANCH   1   8
TORSDOF 1
ENDMDL
MODEL 5
REMARK VINA RESULT: -4.803104333      2.561      2.876
REMARK  1 active torsions:
REMARK  status: ('A' for Active; 'I' for Inactive)
REMARK    1  A    between atoms: N2_4  and  N3_6 
ROOT
HETATM    1  N3  UNL     1      26.126 -14.142 -14.105  1.00  0.00    -0.269 N 
ATOM      2  H3  UNL     1      26.079 -14.319 -15.109  1.00  0.00     0.190 HD
HETATM    3  C1  UNL     1      25.487 -14.946 -13.324  1.00  0.00     0.133 C 
HETATM    4  C2  UNL     1      24.702 -16.099 -13.845  1.00  0.00     0.087 C 
HETATM    5  C3  UNL     1      24.040 -16.687 -12.599  1.00  0.00     0.035 C 
HETATM    6  C4  UNL     1      24.402 -15.759 -11.464  1.00  0.00     0.177 C 
HETATM    7  O1  UNL     1      25.412 -14.898 -11.944  1.00  0.00    -0.338 OA
ENDROOT
BRANCH   1   8
HETATM    8  N2  UNL     1      26.868 -13.059 -13.681  1.00  0.00    -0.248 N 
HETATM    9  N1  UNL     1      26.278 -12.067 -13.161  1.00  0.00    -0.331 N 
ATOM     10  H12 UNL     1      25.263 -12.083 -13.064  1.00  0.00     0.178 HD
ATOM     11  H11 UNL     1      26.827 -11.266 -12.847  1.00  0.00     0.178 HD
ATOM     12  H2  UNL     1      27.883 -13.058 -13.785  1.00  0.00     0.207 HD
ENDBRANCH   1   8
TORSDOF 1
ENDMDL
