MODEL 1
REMARK VINA RESULT: -4.647776476      0.000      0.000
REMARK  2 active torsions:
REMARK  status: ('A' for Active; 'I' for Inactive)
REMARK    1  A    between atoms: N2_4  and  C2_5 
REMARK    2  A    between atoms: C2_5  and  C3_6 
ROOT
HETATM    1  C1  UNL     1      26.130 -12.418 -13.203  1.00  0.00     0.198 A 
HETATM    2  N1  UNL     1      24.944 -12.912 -12.778  1.00  0.00    -0.293 N 
ATOM      3  H1  UNL     1      24.217 -12.365 -12.315  1.00  0.00     0.188 HD
HETATM    4  N2  UNL     1      24.861 -14.206 -13.048  1.00  0.00    -0.286 N 
HETATM    5  C6  UNL     1      26.022 -14.517 -13.652  1.00  0.00     0.201 A 
HETATM    6  N3  UNL     1      26.808 -13.429 -13.752  1.00  0.00    -0.346 N 
ATOM      7  H3  UNL     1      27.738 -13.385 -14.167  1.00  0.00     0.167 HD
ENDROOT
BRANCH   4   8
HETATM    8  C2  UNL     1      23.745 -15.102 -12.750  1.00  0.00     0.154 C 
BRANCH   8   9
HETATM    9  C3  UNL     1      24.170 -16.525 -12.650  1.00  0.00     0.005 A 
HETATM   10  C4  UNL     1      24.074 -17.279 -11.370  1.00  0.00     0.007 A 
HETATM   11  C5  UNL     1      23.066 -17.528 -12.424  1.00  0.00     0.007 A 
ENDBRANCH   8   9
ENDBRANCH   4   8
TORSDOF 2
ENDMDL
MODEL 2
REMARK VINA RESULT: -4.646674455      3.982      5.359
REMARK  2 active torsions:
REMARK  status: ('A' for Active; 'I' for Inactive)
REMARK    1  A    between atoms: N2_4  and  C2_5 
REMARK    2  A    between atoms: C2_5  and  C3_6 
ROOT
HETATM    1  C1  UNL     1      23.781 -17.007 -12.098  1.00  0.00     0.198 A 
HETATM    2  N1  UNL     1      22.469 -17.310 -12.237  1.00  0.00    -0.293 N 
ATOM      3  H1  UNL     1      21.848 -16.903 -12.937  1.00  0.00     0.188 HD
HETATM    4  N2  UNL     1      22.106 -18.211 -11.336  1.00  0.00    -0.286 N 
HETATM    5  C6  UNL     1      23.218 -18.468 -10.624  1.00  0.00     0.201 A 
HETATM    6  N3  UNL     1      24.251 -17.736 -11.082  1.00  0.00    -0.346 N 
ATOM      7  H3  UNL     1      25.206 -17.737 -10.724  1.00  0.00     0.167 HD
ENDROOT
BRANCH   4   8
HETATM    8  C2  UNL     1      20.779 -18.796 -11.156  1.00  0.00     0.154 C 
BRANCH   8   9
HETATM    9  C3  UNL     1      20.228 -18.546  -9.796  1.00  0.00     0.005 A 
HETATM   10  C4  UNL     1      18.816 -18.872  -9.455  1.00  0.00     0.007 A 
HETATM   11  C5  UNL     1      19.891 -19.773  -8.986  1.00  0.00     0.007 A 
ENDBRANCH   8   9
ENDBRANCH   4   8
TORSDOF 2
ENDMDL
MODEL 3
REMARK VINA RESULT: -4.637308980      1.333      1.786
REMARK  2 active torsions:
REMARK  status: ('A' for Active; 'I' for Inactive)
REMARK    1  A    between atoms: N2_4  and  C2_5 
REMARK    2  A    between atoms: C2_5  and  C3_6 
ROOT
HETATM    1  C1  UNL     1      24.617 -13.397 -12.516  1.00  0.00     0.198 A 
HETATM    2  N1  UNL     1      23.886 -14.365 -11.916  1.00  0.00    -0.293 N 
ATOM      3  H1  UNL     1      22.982 -14.218 -11.466  1.00  0.00     0.188 HD
HETATM    4  N2  UNL     1      24.511 -15.530 -11.997  1.00  0.00    -0.286 N 
HETATM    5  C6  UNL     1      25.653 -15.275 -12.660  1.00  0.00     0.201 A 
HETATM    6  N3  UNL     1      25.729 -13.970 -12.983  1.00  0.00    -0.346 N 
ATOM      7  H3  UNL     1      26.487 -13.510 -13.486  1.00  0.00     0.167 HD
ENDROOT
BRANCH   4   8
HETATM    8  C2  UNL     1      24.054 -16.817 -11.474  1.00  0.00     0.154 C 
BRANCH   8   9
HETATM    9  C3  UNL     1      23.087 -17.489 -12.385  1.00  0.00     0.005 A 
HETATM   10  C4  UNL     1      23.075 -18.968 -12.554  1.00  0.00     0.007 A 
HETATM   11  C5  UNL     1      22.031 -18.335 -11.718  1.00  0.00     0.007 A 
ENDBRANCH   8   9
ENDBRANCH   4   8
TORSDOF 2
ENDMDL
MODEL 4
REMARK VINA RESULT: -4.598587834      0.931      1.280
REMARK  2 active torsions:
REMARK  status: ('A' for Active; 'I' for Inactive)
REMARK    1  A    between atoms: N2_4  and  C2_5 
REMARK    2  A    between atoms: C2_5  and  C3_6 
ROOT
HETATM    1  C1  UNL     1      26.671 -13.958 -13.914  1.00  0.00     0.198 A 
HETATM    2  N1  UNL     1      25.791 -14.987 -13.930  1.00  0.00    -0.293 N 
ATOM      3  H1  UNL     1      25.943 -15.876 -14.407  1.00  0.00     0.188 HD
HETATM    4  N2  UNL     1      24.705 -14.675 -13.238  1.00  0.00    -0.286 N 
HETATM    5  C6  UNL     1      24.920 -13.426 -12.786  1.00  0.00     0.201 A 
HETATM    6  N3  UNL     1      26.121 -12.977 -13.195  1.00  0.00    -0.346 N 
ATOM      7  H3  UNL     1      26.532 -12.065 -12.993  1.00  0.00     0.167 HD
ENDROOT
BRANCH   4   8
HETATM    8  C2  UNL     1      23.527 -15.512 -13.017  1.00  0.00     0.154 C 
BRANCH   8   9
HETATM    9  C3  UNL     1      23.884 -16.921 -12.696  1.00  0.00     0.005 A 
HETATM   10  C4  UNL     1      23.862 -17.431 -11.298  1.00  0.00     0.007 A 
HETATM   11  C5  UNL     1      22.753 -17.792 -12.208  1.00  0.00     0.007 A 
ENDBRANCH   8   9
ENDBRANCH   4   8
TORSDOF 2
ENDMDL
MODEL 5
REMARK VINA RESULT: -4.546299268      1.286      2.067
REMARK  2 active torsions:
REMARK  status: ('A' for Active; 'I' for Inactive)
REMARK    1  A    between atoms: N2_4  and  C2_5 
REMARK    2  A    between atoms: C2_5  and  C3_6 
ROOT
HETATM    1  C1  UNL     1      25.483 -13.045 -13.007  1.00  0.00     0.198 A 
HETATM    2  N1  UNL     1      26.065 -14.255 -13.182  1.00  0.00    -0.293 N 
ATOM      3  H1  UNL     1      26.982 -14.406 -13.602  1.00  0.00     0.188 HD
HETATM    4  N2  UNL     1      25.273 -15.216 -12.729  1.00  0.00    -0.286 N 
HETATM    5  C6  UNL     1      24.179 -14.585 -12.267  1.00  0.00     0.201 A 
HETATM    6  N3  UNL     1      24.297 -13.253 -12.432  1.00  0.00    -0.346 N 
ATOM      7  H3  UNL     1      23.613 -12.544 -12.169  1.00  0.00     0.167 HD
ENDROOT
BRANCH   4   8
HETATM    8  C2  UNL     1      25.535 -16.654 -12.735  1.00  0.00     0.154 C 
BRANCH   8   9
HETATM    9  C3  UNL     1      25.475 -17.248 -11.371  1.00  0.00     0.005 A 
HETATM   10  C4  UNL     1      24.336 -18.104 -10.943  1.00  0.00     0.007 A 
HETATM   11  C5  UNL     1      25.620 -18.747 -11.299  1.00  0.00     0.007 A 
ENDBRANCH   8   9
ENDBRANCH   4   8
TORSDOF 2
ENDMDL
