MODEL 1
REMARK VINA RESULT: -3.585797705      0.000      0.000
REMARK  0 active torsions:
REMARK  status: ('A' for Active; 'I' for Inactive)
ROOT
HETATM    1  C1  UNL     1      15.320  12.261  25.590  1.00  0.00     0.054 C 
HETATM    2  C2  UNL     1      14.796  12.624  26.626  1.00  0.00     0.177 C 
HETATM    3  N1  UNL     1      14.206  13.012  27.806  1.00  0.00     0.114 N 
HETATM    4  O1  UNL     1      13.558  12.029  28.446  1.00  0.00    -0.049 OA
HETATM    5  C3  UNL     1      15.134  13.711  28.703  1.00  0.00     0.359 C 
HETATM    6  C4  UNL     1      14.106  14.461  29.565  1.00  0.00     0.209 C 
HETATM    7  O2  UNL     1      13.115  14.811  28.681  1.00  0.00    -0.350 OA
HETATM    8  C5  UNL     1      13.280  14.086  27.521  1.00  0.00     0.404 C 
HETATM    9  C6  UNL     1      11.965  13.562  26.979  1.00  0.00     0.082 C 
ENDROOT
TORSDOF 0
ENDMDL
MODEL 2
REMARK VINA RESULT: -3.556209372      7.044      7.751
REMARK  0 active torsions:
REMARK  status: ('A' for Active; 'I' for Inactive)
ROOT
HETATM    1  C1  UNL     1      17.012  14.292  21.345  1.00  0.00     0.054 C 
HETATM    2  C2  UNL     1      16.586  15.414  21.544  1.00  0.00     0.177 C 
HETATM    3  N1  UNL     1      16.086  16.673  21.778  1.00  0.00     0.114 N 
HETATM    4  O1  UNL     1      14.748  16.751  21.725  1.00  0.00    -0.049 OA
HETATM    5  C3  UNL     1      16.606  17.272  23.012  1.00  0.00     0.359 C 
HETATM    6  C4  UNL     1      16.347  18.750  22.683  1.00  0.00     0.209 C 
HETATM    7  O2  UNL     1      16.605  18.847  21.337  1.00  0.00    -0.350 OA
HETATM    8  C5  UNL     1      16.654  17.578  20.803  1.00  0.00     0.404 C 
HETATM    9  C6  UNL     1      15.938  17.488  19.471  1.00  0.00     0.082 C 
ENDROOT
TORSDOF 0
ENDMDL
MODEL 3
REMARK VINA RESULT: -3.519001008      3.535      4.397
REMARK  0 active torsions:
REMARK  status: ('A' for Active; 'I' for Inactive)
ROOT
HETATM    1  C1  UNL     1      16.116  15.250  22.023  1.00  0.00     0.054 C 
HETATM    2  C2  UNL     1      16.002  14.422  22.906  1.00  0.00     0.177 C 
HETATM    3  N1  UNL     1      15.894  13.477  23.900  1.00  0.00     0.114 N 
HETATM    4  O1  UNL     1      16.583  12.351  23.665  1.00  0.00    -0.049 OA
HETATM    5  C3  UNL     1      16.190  14.016  25.232  1.00  0.00     0.359 C 
HETATM    6  C4  UNL     1      15.458  12.964  26.079  1.00  0.00     0.209 C 
HETATM    7  O2  UNL     1      14.334  12.665  25.349  1.00  0.00    -0.350 OA
HETATM    8  C5  UNL     1      14.495  13.151  24.069  1.00  0.00     0.404 C 
HETATM    9  C6  UNL     1      14.017  12.170  23.018  1.00  0.00     0.082 C 
ENDROOT
TORSDOF 0
ENDMDL
MODEL 4
REMARK VINA RESULT: -3.514423937      1.687      3.032
REMARK  0 active torsions:
REMARK  status: ('A' for Active; 'I' for Inactive)
ROOT
HETATM    1  C1  UNL     1      15.012  13.415  29.216  1.00  0.00     0.054 C 
HETATM    2  C2  UNL     1      14.258  13.541  28.270  1.00  0.00     0.177 C 
HETATM    3  N1  UNL     1      13.404  13.706  27.204  1.00  0.00     0.114 N 
HETATM    4  O1  UNL     1      12.567  14.746  27.327  1.00  0.00    -0.049 OA
HETATM    5  C3  UNL     1      14.104  13.735  25.914  1.00  0.00     0.359 C 
HETATM    6  C4  UNL     1      12.928  13.357  25.001  1.00  0.00     0.209 C 
HETATM    7  O2  UNL     1      12.214  12.439  25.732  1.00  0.00    -0.350 OA
HETATM    8  C5  UNL     1      12.635  12.492  27.043  1.00  0.00     0.404 C 
HETATM    9  C6  UNL     1      11.480  12.427  28.020  1.00  0.00     0.082 C 
ENDROOT
TORSDOF 0
ENDMDL
MODEL 5
REMARK VINA RESULT: -3.448218764      1.803      2.796
REMARK  0 active torsions:
REMARK  status: ('A' for Active; 'I' for Inactive)
ROOT
HETATM    1  C1  UNL     1      13.632  10.588  29.559  1.00  0.00     0.054 C 
HETATM    2  C2  UNL     1      13.682  11.524  28.784  1.00  0.00     0.177 C 
HETATM    3  N1  UNL     1      13.756  12.573  27.897  1.00  0.00     0.114 N 
HETATM    4  O1  UNL     1      14.987  12.802  27.419  1.00  0.00    -0.049 OA
HETATM    5  C3  UNL     1      12.773  12.471  26.812  1.00  0.00     0.359 C 
HETATM    6  C4  UNL     1      12.727  13.949  26.397  1.00  0.00     0.209 C 
HETATM    7  O2  UNL     1      12.842  14.636  27.581  1.00  0.00    -0.350 OA
HETATM    8  C5  UNL     1      13.273  13.765  28.558  1.00  0.00     0.404 C 
HETATM    9  C6  UNL     1      14.333  14.380  29.449  1.00  0.00     0.082 C 
ENDROOT
TORSDOF 0
ENDMDL
