MODEL 1
REMARK VINA RESULT: -4.697994295      0.000      0.000
REMARK  3 active torsions:
REMARK  status: ('A' for Active; 'I' for Inactive)
REMARK    1  A    between atoms: O1_1  and  C1_3 
REMARK    2  A    between atoms: C3_5  and  O2_6 
REMARK    3  A    between atoms: C5_9  and  O3_10 
ROOT
HETATM    1  C1  UNL     1      16.828  17.905  21.450  1.00  0.00     0.132 A 
HETATM    2  C2  UNL     1      15.813  16.856  21.376  1.00  0.00     0.052 A 
HETATM    3  C3  UNL     1      16.045  15.595  22.168  1.00  0.00     0.127 C 
HETATM    4  C4  UNL     1      16.930  14.753  21.293  1.00  0.00     0.064 C 
HETATM    5  C5  UNL     1      17.724  15.701  20.431  1.00  0.00     0.127 C 
HETATM    6  C6  UNL     1      16.865  16.948  20.328  1.00  0.00     0.052 A 
ENDROOT
BRANCH   1   7
HETATM    7  O1  UNL     1      16.571  19.234  21.156  1.00  0.00    -0.395 OA
ATOM      8  H1  UNL     1      16.771  19.630  20.316  1.00  0.00     0.210 HD
ENDBRANCH   1   7
BRANCH   3   9
HETATM    9  O2  UNL     1      14.847  14.906  22.412  1.00  0.00    -0.395 OA
ATOM     10  H2  UNL     1      14.659  14.272  21.731  1.00  0.00     0.210 HD
ENDBRANCH   3   9
BRANCH   5  11
HETATM   11  O3  UNL     1      17.925  15.103  19.198  1.00  0.00    -0.395 OA
ATOM     12  H3  UNL     1      17.177  14.548  19.010  1.00  0.00     0.210 HD
ENDBRANCH   5  11
TORSDOF 3
ENDMDL
MODEL 2
REMARK VINA RESULT: -4.549422475      0.850      2.608
REMARK  3 active torsions:
REMARK  status: ('A' for Active; 'I' for Inactive)
REMARK    1  A    between atoms: O1_1  and  C1_3 
REMARK    2  A    between atoms: C3_5  and  O2_6 
REMARK    3  A    between atoms: C5_9  and  O3_10 
ROOT
HETATM    1  C1  UNL     1      16.169  17.933  20.762  1.00  0.00     0.132 A 
HETATM    2  C2  UNL     1      17.373  17.104  20.753  1.00  0.00     0.052 A 
HETATM    3  C3  UNL     1      17.269  15.718  20.172  1.00  0.00     0.127 C 
HETATM    4  C4  UNL     1      16.739  14.873  21.295  1.00  0.00     0.064 C 
HETATM    5  C5  UNL     1      15.929  15.783  22.184  1.00  0.00     0.127 C 
HETATM    6  C6  UNL     1      16.522  17.164  21.971  1.00  0.00     0.052 A 
ENDROOT
BRANCH   1   7
HETATM    7  O1  UNL     1      16.197  19.314  20.846  1.00  0.00    -0.395 OA
ATOM      8  H1  UNL     1      15.418  19.856  20.800  1.00  0.00     0.210 HD
ENDBRANCH   1   7
BRANCH   3   9
HETATM    9  O2  UNL     1      18.521  15.224  19.774  1.00  0.00    -0.395 OA
ATOM     10  H2  UNL     1      18.563  14.278  19.836  1.00  0.00     0.210 HD
ENDBRANCH   3   9
BRANCH   5  11
HETATM   11  O3  UNL     1      16.071  15.351  23.492  1.00  0.00    -0.395 OA
ATOM     12  H3  UNL     1      15.210  15.322  23.892  1.00  0.00     0.210 HD
ENDBRANCH   5  11
TORSDOF 3
ENDMDL
MODEL 3
REMARK VINA RESULT: -4.397264488      0.756      2.889
REMARK  3 active torsions:
REMARK  status: ('A' for Active; 'I' for Inactive)
REMARK    1  A    between atoms: O1_1  and  C1_3 
REMARK    2  A    between atoms: C3_5  and  O2_6 
REMARK    3  A    between atoms: C5_9  and  O3_10 
ROOT
HETATM    1  C1  UNL     1      15.217  15.619  22.005  1.00  0.00     0.132 A 
HETATM    2  C2  UNL     1      16.172  16.689  22.289  1.00  0.00     0.052 A 
HETATM    3  C3  UNL     1      16.283  17.817  21.296  1.00  0.00     0.127 C 
HETATM    4  C4  UNL     1      17.223  17.304  20.242  1.00  0.00     0.064 C 
HETATM    5  C5  UNL     1      17.090  15.803  20.228  1.00  0.00     0.127 C 
HETATM    6  C6  UNL     1      16.632  15.439  21.628  1.00  0.00     0.052 A 
ENDROOT
BRANCH   1   7
HETATM    7  O1  UNL     1      14.698  14.785  22.980  1.00  0.00    -0.395 OA
ATOM      8  H1  UNL     1      14.163  14.024  22.785  1.00  0.00     0.210 HD
ENDBRANCH   1   7
BRANCH   3   9
HETATM    9  O2  UNL     1      16.826  18.972  21.878  1.00  0.00    -0.395 OA
ATOM     10  H2  UNL     1      17.214  18.791  22.726  1.00  0.00     0.210 HD
ENDBRANCH   3   9
BRANCH   5  11
HETATM   11  O3  UNL     1      18.328  15.260  19.927  1.00  0.00    -0.395 OA
ATOM     12  H3  UNL     1      18.929  15.479  20.629  1.00  0.00     0.210 HD
ENDBRANCH   5  11
TORSDOF 3
ENDMDL
MODEL 4
REMARK VINA RESULT: -4.277014877      0.621      3.359
REMARK  3 active torsions:
REMARK  status: ('A' for Active; 'I' for Inactive)
REMARK    1  A    between atoms: O1_1  and  C1_3 
REMARK    2  A    between atoms: C3_5  and  O2_6 
REMARK    3  A    between atoms: C5_9  and  O3_10 
ROOT
HETATM    1  C1  UNL     1      17.823  15.771  20.273  1.00  0.00     0.132 A 
HETATM    2  C2  UNL     1      16.891  16.895  20.223  1.00  0.00     0.052 A 
HETATM    3  C3  UNL     1      16.987  17.938  21.308  1.00  0.00     0.127 C 
HETATM    4  C4  UNL     1      16.191  17.373  22.450  1.00  0.00     0.064 C 
HETATM    5  C5  UNL     1      16.249  15.872  22.325  1.00  0.00     0.127 C 
HETATM    6  C6  UNL     1      16.473  15.612  20.847  1.00  0.00     0.052 A 
ENDROOT
BRANCH   1   7
HETATM    7  O1  UNL     1      18.147  15.003  19.166  1.00  0.00    -0.395 OA
ATOM      8  H1  UNL     1      18.498  15.369  18.363  1.00  0.00     0.210 HD
ENDBRANCH   1   7
BRANCH   3   9
HETATM    9  O2  UNL     1      16.421  19.158  20.909  1.00  0.00    -0.395 OA
ATOM     10  H2  UNL     1      15.553  19.280  21.273  1.00  0.00     0.210 HD
ENDBRANCH   3   9
BRANCH   5  11
HETATM   11  O3  UNL     1      15.045  15.352  22.769  1.00  0.00    -0.395 OA
ATOM     12  H3  UNL     1      14.915  15.626  23.669  1.00  0.00     0.210 HD
ENDBRANCH   5  11
TORSDOF 3
ENDMDL
MODEL 5
REMARK VINA RESULT: -4.223029483      1.599      3.717
REMARK  3 active torsions:
REMARK  status: ('A' for Active; 'I' for Inactive)
REMARK    1  A    between atoms: O1_1  and  C1_3 
REMARK    2  A    between atoms: C3_5  and  O2_6 
REMARK    3  A    between atoms: C5_9  and  O3_10 
ROOT
HETATM    1  C1  UNL     1      16.495  15.407  22.043  1.00  0.00     0.132 A 
HETATM    2  C2  UNL     1      15.741  16.197  21.072  1.00  0.00     0.052 A 
HETATM    3  C3  UNL     1      16.506  17.158  20.199  1.00  0.00     0.127 C 
HETATM    4  C4  UNL     1      16.658  18.395  21.037  1.00  0.00     0.064 C 
HETATM    5  C5  UNL     1      16.643  17.954  22.478  1.00  0.00     0.127 C 
HETATM    6  C6  UNL     1      15.851  16.659  22.482  1.00  0.00     0.052 A 
ENDROOT
BRANCH   1   7
HETATM    7  O1  UNL     1      16.030  14.219  22.582  1.00  0.00    -0.395 OA
ATOM      8  H1  UNL     1      15.143  14.103  22.900  1.00  0.00     0.210 HD
ENDBRANCH   1   7
BRANCH   3   9
HETATM    9  O2  UNL     1      15.798  17.476  19.030  1.00  0.00    -0.395 OA
ATOM     10  H2  UNL     1      15.226  18.223  19.156  1.00  0.00     0.210 HD
ENDBRANCH   3   9
BRANCH   5  11
HETATM   11  O3  UNL     1      16.029  18.942  23.230  1.00  0.00    -0.395 OA
ATOM     12  H3  UNL     1      16.586  19.141  23.974  1.00  0.00     0.210 HD
ENDBRANCH   5  11
TORSDOF 3
ENDMDL
