MODEL 1
REMARK VINA RESULT: -3.945175025      0.000      0.000
REMARK  1 active torsions:
REMARK  status: ('A' for Active; 'I' for Inactive)
REMARK    1  A    between atoms: O1_1  and  C1_3 
ROOT
HETATM    1  C1  UNL     1      15.908  17.153  21.886  1.00  0.00     0.154 C 
HETATM    2  C2  UNL     1      16.804  17.623  20.724  1.00  0.00     0.064 C 
HETATM    3  C3  UNL     1      17.239  16.309  20.042  1.00  0.00     0.278 C 
HETATM    4  N1  UNL     1      17.264  15.471  21.183  1.00  0.00     0.122 N 
HETATM    5  C4  UNL     1      17.197  14.074  21.001  1.00  0.00     0.503 C 
HETATM    6  N2  UNL     1      16.609  13.629  22.278  1.00  0.00    -0.046 N 
ATOM      7  H21 UNL     1      17.291  13.234  22.925  1.00  0.00     0.279 HD
ATOM      8  H22 UNL     1      16.026  12.797  22.190  1.00  0.00     0.279 HD
HETATM    9  C5  UNL     1      15.893  14.796  22.817  1.00  0.00     0.272 C 
HETATM   10  C6  UNL     1      15.875  15.697  21.653  1.00  0.00     0.279 C 
ENDROOT
BRANCH   1  11
HETATM   11  O1  UNL     1      16.474  17.430  23.106  1.00  0.00    -0.393 OA
ATOM     12  H1  UNL     1      16.251  16.771  23.754  1.00  0.00     0.210 HD
ENDBRANCH   1  11
TORSDOF 1
ENDMDL
MODEL 2
REMARK VINA RESULT: -3.545209492      1.624      2.910
REMARK  1 active torsions:
REMARK  status: ('A' for Active; 'I' for Inactive)
REMARK    1  A    between atoms: O1_1  and  C1_3 
ROOT
HETATM    1  C1  UNL     1      15.835  15.267  22.657  1.00  0.00     0.154 C 
HETATM    2  C2  UNL     1      16.499  14.212  21.753  1.00  0.00     0.064 C 
HETATM    3  C3  UNL     1      17.374  15.049  20.797  1.00  0.00     0.278 C 
HETATM    4  N1  UNL     1      16.569  16.211  20.725  1.00  0.00     0.122 N 
HETATM    5  C4  UNL     1      17.157  17.421  20.304  1.00  0.00     0.503 C 
HETATM    6  N2  UNL     1      16.292  18.422  20.954  1.00  0.00    -0.046 N 
ATOM      7  H21 UNL     1      15.617  18.851  20.320  1.00  0.00     0.279 HD
ATOM      8  H22 UNL     1      16.781  19.279  21.211  1.00  0.00     0.279 HD
HETATM    9  C5  UNL     1      15.671  17.734  22.096  1.00  0.00     0.272 C 
HETATM   10  C6  UNL     1      16.477  16.505  22.177  1.00  0.00     0.279 C 
ENDROOT
BRANCH   1  11
HETATM   11  O1  UNL     1      14.477  15.325  22.457  1.00  0.00    -0.393 OA
ATOM     12  H1  UNL     1      14.236  16.050  21.893  1.00  0.00     0.210 HD
ENDBRANCH   1  11
TORSDOF 1
ENDMDL
MODEL 3
REMARK VINA RESULT: -3.413935914      5.225      6.760
REMARK  1 active torsions:
REMARK  status: ('A' for Active; 'I' for Inactive)
REMARK    1  A    between atoms: O1_1  and  C1_3 
ROOT
HETATM    1  C1  UNL     1      14.795  12.664  28.046  1.00  0.00     0.154 C 
HETATM    2  C2  UNL     1      13.316  12.746  28.469  1.00  0.00     0.064 C 
HETATM    3  C3  UNL     1      12.565  12.950  27.137  1.00  0.00     0.278 C 
HETATM    4  N1  UNL     1      13.554  13.686  26.440  1.00  0.00     0.122 N 
HETATM    5  C4  UNL     1      13.496  13.739  25.032  1.00  0.00     0.503 C 
HETATM    6  N2  UNL     1      14.908  13.971  24.678  1.00  0.00    -0.046 N 
ATOM      7  H21 UNL     1      15.112  14.940  24.430  1.00  0.00     0.279 HD
ATOM      8  H22 UNL     1      15.179  13.557  23.787  1.00  0.00     0.279 HD
HETATM    9  C5  UNL     1      15.693  13.479  25.820  1.00  0.00     0.272 C 
HETATM   10  C6  UNL     1      14.679  12.727  26.577  1.00  0.00     0.279 C 
ENDROOT
BRANCH   1  11
HETATM   11  O1  UNL     1      15.517  13.734  28.515  1.00  0.00    -0.393 OA
ATOM     12  H1  UNL     1      16.449  13.551  28.526  1.00  0.00     0.210 HD
ENDBRANCH   1  11
TORSDOF 1
ENDMDL
MODEL 4
REMARK VINA RESULT: -3.347262904      3.944      4.992
REMARK  1 active torsions:
REMARK  status: ('A' for Active; 'I' for Inactive)
REMARK    1  A    between atoms: O1_1  and  C1_3 
ROOT
HETATM    1  C1  UNL     1      15.850  13.786  23.971  1.00  0.00     0.154 C 
HETATM    2  C2  UNL     1      16.261  13.616  25.446  1.00  0.00     0.064 C 
HETATM    3  C3  UNL     1      14.964  13.147  26.136  1.00  0.00     0.278 C 
HETATM    4  N1  UNL     1      14.026  13.832  25.326  1.00  0.00     0.122 N 
HETATM    5  C4  UNL     1      12.690  13.384  25.304  1.00  0.00     0.503 C 
HETATM    6  N2  UNL     1      12.236  13.844  23.979  1.00  0.00    -0.046 N 
ATOM      7  H21 UNL     1      11.662  14.686  24.014  1.00  0.00     0.279 HD
ATOM      8  H22 UNL     1      11.537  13.236  23.554  1.00  0.00     0.279 HD
HETATM    9  C5  UNL     1      13.454  13.996  23.169  1.00  0.00     0.272 C 
HETATM   10  C6  UNL     1      14.454  13.310  24.004  1.00  0.00     0.279 C 
ENDROOT
BRANCH   1  11
HETATM   11  O1  UNL     1      15.898  15.101  23.580  1.00  0.00    -0.393 OA
ATOM     12  H1  UNL     1      16.791  15.423  23.537  1.00  0.00     0.210 HD
ENDBRANCH   1  11
TORSDOF 1
ENDMDL
MODEL 5
REMARK VINA RESULT: -3.345301743      4.762      6.019
REMARK  1 active torsions:
REMARK  status: ('A' for Active; 'I' for Inactive)
REMARK    1  A    between atoms: O1_1  and  C1_3 
ROOT
HETATM    1  C1  UNL     1      13.447  13.837  23.115  1.00  0.00     0.154 C 
HETATM    2  C2  UNL     1      14.162  13.674  24.470  1.00  0.00     0.064 C 
HETATM    3  C3  UNL     1      13.045  13.187  25.417  1.00  0.00     0.278 C 
HETATM    4  N1  UNL     1      11.949  13.859  24.824  1.00  0.00     0.122 N 
HETATM    5  C4  UNL     1      10.644  13.392  25.083  1.00  0.00     0.503 C 
HETATM    6  N2  UNL     1       9.915  13.845  23.884  1.00  0.00    -0.046 N 
ATOM      7  H21 UNL     1       9.350  14.679  24.042  1.00  0.00     0.279 HD
ATOM      8  H22 UNL     1       9.150  13.227  23.614  1.00  0.00     0.279 HD
HETATM    9  C5  UNL     1      10.933  14.014  22.836  1.00  0.00     0.272 C 
HETATM   10  C6  UNL     1      12.096  13.342  23.440  1.00  0.00     0.279 C 
ENDROOT
BRANCH   1  11
HETATM   11  O1  UNL     1      13.393  15.153  22.726  1.00  0.00    -0.393 OA
ATOM     12  H1  UNL     1      12.816  15.276  21.981  1.00  0.00     0.210 HD
ENDBRANCH   1  11
TORSDOF 1
ENDMDL
