MODEL 1
REMARK VINA RESULT: -3.767802295      0.000      0.000
REMARK  2 active torsions:
REMARK  status: ('A' for Active; 'I' for Inactive)
REMARK    1  A    between atoms: O1_1  and  C1_3 
REMARK    2  A    between atoms: C6_9  and  O2_10 
ROOT
HETATM    1  C1  UNL     1      18.843  10.708  18.940  1.00  0.00     0.363 C 
HETATM    2  C2  UNL     1      19.706  11.959  19.182  1.00  0.00     0.077 C 
HETATM    3  C3  UNL     1      18.706  12.807  19.920  1.00  0.00     0.042 C 
HETATM    4  C4  UNL     1      18.110  11.775  20.873  1.00  0.00     0.276 C 
HETATM    5  N1  UNL     1      18.496  10.472  20.354  1.00  0.00     0.120 N 
HETATM    6  C5  UNL     1      19.870  10.269  20.853  1.00  0.00     0.307 C 
HETATM    7  C6  UNL     1      20.687  11.378  20.174  1.00  0.00     0.155 C 
ENDROOT
BRANCH   1   8
HETATM    8  O1  UNL     1      19.696   9.718  18.521  1.00  0.00    -0.367 OA
ATOM      9  H1  UNL     1      19.427   8.922  18.965  1.00  0.00     0.212 HD
ENDBRANCH   1   8
BRANCH   7  10
HETATM   10  O2  UNL     1      21.728  10.807  19.443  1.00  0.00    -0.393 OA
ATOM     11  H2  UNL     1      22.364  10.478  20.067  1.00  0.00     0.210 HD
ENDBRANCH   7  10
TORSDOF 2
ENDMDL
MODEL 2
REMARK VINA RESULT: -3.551749565      7.198      8.072
REMARK  2 active torsions:
REMARK  status: ('A' for Active; 'I' for Inactive)
REMARK    1  A    between atoms: O1_1  and  C1_3 
REMARK    2  A    between atoms: C6_9  and  O2_10 
ROOT
HETATM    1  C1  UNL     1      15.150  17.624  21.631  1.00  0.00     0.363 C 
HETATM    2  C2  UNL     1      15.998  16.697  22.519  1.00  0.00     0.077 C 
HETATM    3  C3  UNL     1      16.575  15.800  21.458  1.00  0.00     0.042 C 
HETATM    4  C4  UNL     1      16.955  16.829  20.396  1.00  0.00     0.276 C 
HETATM    5  N1  UNL     1      16.250  18.052  20.745  1.00  0.00     0.120 N 
HETATM    6  C5  UNL     1      17.092  18.680  21.781  1.00  0.00     0.307 C 
HETATM    7  C6  UNL     1      17.053  17.688  22.953  1.00  0.00     0.155 C 
ENDROOT
BRANCH   1   8
HETATM    8  O1  UNL     1      14.775  18.684  22.416  1.00  0.00    -0.367 OA
ATOM      9  H1  UNL     1      14.584  19.404  21.827  1.00  0.00     0.212 HD
ENDBRANCH   1   8
BRANCH   7  10
HETATM   10  O2  UNL     1      16.573  18.333  24.092  1.00  0.00    -0.393 OA
ATOM     11  H2  UNL     1      15.728  17.950  24.298  1.00  0.00     0.210 HD
ENDBRANCH   7  10
TORSDOF 2
ENDMDL
MODEL 3
REMARK VINA RESULT: -3.538538342      9.080      9.881
REMARK  2 active torsions:
REMARK  status: ('A' for Active; 'I' for Inactive)
REMARK    1  A    between atoms: O1_1  and  C1_3 
REMARK    2  A    between atoms: C6_9  and  O2_10 
ROOT
HETATM    1  C1  UNL     1      14.210  11.838  27.435  1.00  0.00     0.363 C 
HETATM    2  C2  UNL     1      15.261  12.950  27.271  1.00  0.00     0.077 C 
HETATM    3  C3  UNL     1      14.738  13.599  26.018  1.00  0.00     0.042 C 
HETATM    4  C4  UNL     1      13.243  13.640  26.325  1.00  0.00     0.276 C 
HETATM    5  N1  UNL     1      13.031  12.725  27.436  1.00  0.00     0.120 N 
HETATM    6  C5  UNL     1      13.388  13.510  28.633  1.00  0.00     0.307 C 
HETATM    7  C6  UNL     1      14.885  13.804  28.461  1.00  0.00     0.155 C 
ENDROOT
BRANCH   1   8
HETATM    8  O1  UNL     1      14.378  11.322  28.695  1.00  0.00    -0.367 OA
ATOM      9  H1  UNL     1      15.315  11.251  28.837  1.00  0.00     0.212 HD
ENDBRANCH   1   8
BRANCH   7  10
HETATM   10  O2  UNL     1      15.586  13.311  29.562  1.00  0.00    -0.393 OA
ATOM     11  H2  UNL     1      15.313  13.816  30.319  1.00  0.00     0.210 HD
ENDBRANCH   7  10
TORSDOF 2
ENDMDL
MODEL 4
REMARK VINA RESULT: -3.498447230      1.119      1.403
REMARK  2 active torsions:
REMARK  status: ('A' for Active; 'I' for Inactive)
REMARK    1  A    between atoms: O1_1  and  C1_3 
REMARK    2  A    between atoms: C6_9  and  O2_10 
ROOT
HETATM    1  C1  UNL     1      18.692  10.286  19.513  1.00  0.00     0.363 C 
HETATM    2  C2  UNL     1      18.638  11.792  19.824  1.00  0.00     0.077 C 
HETATM    3  C3  UNL     1      18.174  11.731  21.254  1.00  0.00     0.042 C 
HETATM    4  C4  UNL     1      19.057  10.606  21.789  1.00  0.00     0.276 C 
HETATM    5  N1  UNL     1      19.593   9.922  20.623  1.00  0.00     0.120 N 
HETATM    6  C5  UNL     1      20.744  10.747  20.208  1.00  0.00     0.307 C 
HETATM    7  C6  UNL     1      20.119  12.089  19.799  1.00  0.00     0.155 C 
ENDROOT
BRANCH   1   8
HETATM    8  O1  UNL     1      19.370  10.154  18.328  1.00  0.00    -0.367 OA
ATOM      9  H1  UNL     1      20.176  10.647  18.421  1.00  0.00     0.212 HD
ENDBRANCH   1   8
BRANCH   7  10
HETATM   10  O2  UNL     1      20.462  12.378  18.478  1.00  0.00    -0.393 OA
ATOM     11  H2  UNL     1      20.911  11.617  18.130  1.00  0.00     0.210 HD
ENDBRANCH   7  10
TORSDOF 2
ENDMDL
MODEL 5
REMARK VINA RESULT: -3.446840370      9.325     10.317
REMARK  2 active torsions:
REMARK  status: ('A' for Active; 'I' for Inactive)
REMARK    1  A    between atoms: O1_1  and  C1_3 
REMARK    2  A    between atoms: C6_9  and  O2_10 
ROOT
HETATM    1  C1  UNL     1      14.823  13.496  28.442  1.00  0.00     0.363 C 
HETATM    2  C2  UNL     1      14.484  13.673  26.952  1.00  0.00     0.077 C 
HETATM    3  C3  UNL     1      15.061  12.391  26.415  1.00  0.00     0.042 C 
HETATM    4  C4  UNL     1      14.570  11.399  27.466  1.00  0.00     0.276 C 
HETATM    5  N1  UNL     1      14.151  12.194  28.610  1.00  0.00     0.120 N 
HETATM    6  C5  UNL     1      12.787  12.642  28.268  1.00  0.00     0.307 C 
HETATM    7  C6  UNL     1      12.981  13.539  27.037  1.00  0.00     0.155 C 
ENDROOT
BRANCH   1   8
HETATM    8  O1  UNL     1      14.114  14.453  29.123  1.00  0.00    -0.367 OA
ATOM      9  H1  UNL     1      13.943  14.100  29.988  1.00  0.00     0.212 HD
ENDBRANCH   1   8
BRANCH   7  10
HETATM   10  O2  UNL     1      12.466  14.808  27.300  1.00  0.00    -0.393 OA
ATOM     11  H2  UNL     1      11.523  14.719  27.378  1.00  0.00     0.210 HD
ENDBRANCH   7  10
TORSDOF 2
ENDMDL
