MODEL 1
REMARK VINA RESULT: -8.098467008      0.000      0.000
REMARK  5 active torsions:
REMARK  status: ('A' for Active; 'I' for Inactive)
REMARK    1  A    between atoms: C2_2  and  O1_3 
REMARK    2  A    between atoms: O1_3  and  C3_4 
REMARK    3  A    between atoms: C3_4  and  C4_6 
REMARK    4  A    between atoms: C7_10  and  C8_11 
REMARK    5  A    between atoms: C10_13  and  C11_14 
ROOT
HETATM    1  C4  UNL     1      31.159   0.579  32.036  1.00  0.00     0.041 A 
HETATM    2  C5  UNL     1      31.554   0.432  30.734  1.00  0.00     0.037 A 
HETATM    3  C6  UNL     1      31.102   1.290  29.766  1.00  0.00     0.018 A 
HETATM    4 BR1  UNL     1      31.615   1.095  27.913  1.00  0.00    -0.051 Br
HETATM    5  C7  UNL     1      30.240   2.327  30.032  1.00  0.00    -0.034 A 
HETATM    6  C10 UNL     1      29.814   2.505  31.363  1.00  0.00    -0.045 A 
HETATM    7  C17 UNL     1      30.293   1.605  32.334  1.00  0.00     0.025 A 
ENDROOT
BRANCH   6   8
HETATM    8  C11 UNL     1      29.105   3.745  31.674  1.00  0.00     0.019 C 
HETATM    9  C12 UNL     1      27.847   3.725  32.488  1.00  0.00     0.009 C 
HETATM   10  C13 UNL     1      27.475   5.110  32.976  1.00  0.00     0.001 C 
HETATM   11  C14 UNL     1      28.524   5.720  33.833  1.00  0.00     0.000 C 
HETATM   12  C15 UNL     1      29.743   5.859  32.921  1.00  0.00     0.001 C 
HETATM   13  C16 UNL     1      30.181   4.491  32.566  1.00  0.00     0.009 C 
ENDBRANCH   6   8
BRANCH   5  14
HETATM   14  C8  UNL     1      29.650   3.145  28.925  1.00  0.00     0.036 C 
HETATM   15  C9  UNL     1      28.191   2.700  28.730  1.00  0.00     0.010 C 
ENDBRANCH   5  14
BRANCH   1  16
HETATM   16  C3  UNL     1      31.782  -0.263  33.095  1.00  0.00     0.293 C 
HETATM   17  O2  UNL     1      31.245  -0.278  34.244  1.00  0.00    -0.259 OA
BRANCH  16  18
HETATM   18  O1  UNL     1      32.898  -1.019  32.879  1.00  0.00    -0.318 OA
BRANCH  18  19
HETATM   19  C2  UNL     1      32.775  -2.358  32.454  1.00  0.00     0.174 C 
HETATM   20  C1  UNL     1      33.703  -2.758  31.340  1.00  0.00     0.034 C 
ENDBRANCH  18  19
ENDBRANCH  16  18
ENDBRANCH   1  16
TORSDOF 5
ENDMDL
MODEL 2
REMARK VINA RESULT: -8.018799092      1.114      2.069
REMARK  5 active torsions:
REMARK  status: ('A' for Active; 'I' for Inactive)
REMARK    1  A    between atoms: C2_2  and  O1_3 
REMARK    2  A    between atoms: O1_3  and  C3_4 
REMARK    3  A    between atoms: C3_4  and  C4_6 
REMARK    4  A    between atoms: C7_10  and  C8_11 
REMARK    5  A    between atoms: C10_13  and  C11_14 
ROOT
HETATM    1  C4  UNL     1      30.898   0.616  32.288  1.00  0.00     0.041 A 
HETATM    2  C5  UNL     1      31.362   0.421  31.016  1.00  0.00     0.037 A 
HETATM    3  C6  UNL     1      31.021   1.284  30.008  1.00  0.00     0.018 A 
HETATM    4 BR1  UNL     1      31.634   1.023  28.194  1.00  0.00    -0.051 Br
HETATM    5  C7  UNL     1      30.208   2.374  30.203  1.00  0.00    -0.034 A 
HETATM    6  C10 UNL     1      29.713   2.604  31.502  1.00  0.00    -0.045 A 
HETATM    7  C17 UNL     1      30.078   1.697  32.515  1.00  0.00     0.025 A 
ENDROOT
BRANCH   6   8
HETATM    8  C11 UNL     1      29.060   3.888  31.748  1.00  0.00     0.019 C 
HETATM    9  C12 UNL     1      27.789   3.964  32.539  1.00  0.00     0.009 C 
HETATM   10  C13 UNL     1      27.478   5.384  32.961  1.00  0.00     0.001 C 
HETATM   11  C14 UNL     1      28.541   5.979  33.812  1.00  0.00     0.000 C 
HETATM   12  C15 UNL     1      29.781   6.020  32.917  1.00  0.00     0.001 C 
HETATM   13  C16 UNL     1      30.157   4.619  32.628  1.00  0.00     0.009 C 
ENDBRANCH   6   8
BRANCH   5  14
HETATM   14  C8  UNL     1      29.736   3.203  29.048  1.00  0.00     0.036 C 
HETATM   15  C9  UNL     1      28.275   2.820  28.754  1.00  0.00     0.010 C 
ENDBRANCH   5  14
BRANCH   1  16
HETATM   16  C3  UNL     1      31.405  -0.238  33.397  1.00  0.00     0.293 C 
HETATM   17  O2  UNL     1      32.285  -1.112  33.129  1.00  0.00    -0.259 OA
BRANCH  16  18
HETATM   18  O1  UNL     1      30.971  -0.117  34.685  1.00  0.00    -0.318 OA
BRANCH  18  19
HETATM   19  C2  UNL     1      29.650  -0.475  35.025  1.00  0.00     0.174 C 
HETATM   20  C1  UNL     1      28.836   0.621  35.655  1.00  0.00     0.034 C 
ENDBRANCH  18  19
ENDBRANCH  16  18
ENDBRANCH   1  16
TORSDOF 5
ENDMDL
MODEL 3
REMARK VINA RESULT: -7.970834898      2.637      3.673
REMARK  5 active torsions:
REMARK  status: ('A' for Active; 'I' for Inactive)
REMARK    1  A    between atoms: C2_2  and  O1_3 
REMARK    2  A    between atoms: O1_3  and  C3_4 
REMARK    3  A    between atoms: C3_4  and  C4_6 
REMARK    4  A    between atoms: C7_10  and  C8_11 
REMARK    5  A    between atoms: C10_13  and  C11_14 
ROOT
HETATM    1  C4  UNL     1      31.167   1.070  29.658  1.00  0.00     0.041 A 
HETATM    2  C5  UNL     1      30.316   1.855  28.928  1.00  0.00     0.037 A 
HETATM    3  C6  UNL     1      29.106   2.239  29.445  1.00  0.00     0.018 A 
HETATM    4 BR1  UNL     1      27.867   3.322  28.432  1.00  0.00    -0.051 Br
HETATM    5  C7  UNL     1      28.677   1.869  30.696  1.00  0.00    -0.034 A 
HETATM    6  C10 UNL     1      29.529   1.060  31.473  1.00  0.00    -0.045 A 
HETATM    7  C17 UNL     1      30.764   0.678  30.914  1.00  0.00     0.025 A 
ENDROOT
BRANCH   6   8
HETATM    8  C11 UNL     1      29.177   0.880  32.880  1.00  0.00     0.019 C 
HETATM    9  C12 UNL     1      29.794  -0.219  33.691  1.00  0.00     0.009 C 
HETATM   10  C13 UNL     1      29.561  -0.017  35.173  1.00  0.00     0.001 C 
HETATM   11  C14 UNL     1      30.136   1.256  35.680  1.00  0.00     0.000 C 
HETATM   12  C15 UNL     1      29.374   2.353  34.935  1.00  0.00     0.001 C 
HETATM   13  C16 UNL     1      29.723   2.231  33.502  1.00  0.00     0.009 C 
ENDBRANCH   6   8
BRANCH   5  14
HETATM   14  C8  UNL     1      27.288   2.181  31.161  1.00  0.00     0.036 C 
HETATM   15  C9  UNL     1      26.371   1.023  30.732  1.00  0.00     0.010 C 
ENDBRANCH   5  14
BRANCH   1  16
HETATM   16  C3  UNL     1      32.538   0.795  29.146  1.00  0.00     0.293 C 
HETATM   17  O2  UNL     1      32.809   1.122  27.951  1.00  0.00    -0.259 OA
BRANCH  16  18
HETATM   18  O1  UNL     1      33.511   0.214  29.906  1.00  0.00    -0.318 OA
BRANCH  18  19
HETATM   19  C2  UNL     1      33.908  -1.116  29.655  1.00  0.00     0.174 C 
HETATM   20  C1  UNL     1      35.290  -1.467  30.133  1.00  0.00     0.034 C 
ENDBRANCH  18  19
ENDBRANCH  16  18
ENDBRANCH   1  16
TORSDOF 5
ENDMDL
MODEL 4
REMARK VINA RESULT: -7.792766862      2.747      3.882
REMARK  5 active torsions:
REMARK  status: ('A' for Active; 'I' for Inactive)
REMARK    1  A    between atoms: C2_2  and  O1_3 
REMARK    2  A    between atoms: O1_3  and  C3_4 
REMARK    3  A    between atoms: C3_4  and  C4_6 
REMARK    4  A    between atoms: C7_10  and  C8_11 
REMARK    5  A    between atoms: C10_13  and  C11_14 
ROOT
HETATM    1  C4  UNL     1      31.899   1.083  30.479  1.00  0.00     0.041 A 
HETATM    2  C5  UNL     1      32.306   0.075  31.309  1.00  0.00     0.037 A 
HETATM    3  C6  UNL     1      32.056   0.135  32.655  1.00  0.00     0.018 A 
HETATM    4 BR1  UNL     1      32.642  -1.256  33.861  1.00  0.00    -0.051 Br
HETATM    5  C7  UNL     1      31.400   1.188  33.245  1.00  0.00    -0.034 A 
HETATM    6  C10 UNL     1      30.968   2.243  32.418  1.00  0.00    -0.045 A 
HETATM    7  C17 UNL     1      31.243   2.154  31.040  1.00  0.00     0.025 A 
ENDROOT
BRANCH   6   8
HETATM    8  C11 UNL     1      30.064   3.227  33.011  1.00  0.00     0.019 C 
HETATM    9  C12 UNL     1      30.143   4.673  32.624  1.00  0.00     0.009 C 
HETATM   10  C13 UNL     1      28.921   5.441  33.082  1.00  0.00     0.001 C 
HETATM   11  C14 UNL     1      27.659   4.916  32.500  1.00  0.00     0.000 C 
HETATM   12  C15 UNL     1      27.542   3.490  33.041  1.00  0.00     0.001 C 
HETATM   13  C16 UNL     1      28.666   2.714  32.471  1.00  0.00     0.009 C 
ENDBRANCH   6   8
BRANCH   5  14
HETATM   14  C8  UNL     1      31.284   1.289  34.735  1.00  0.00     0.036 C 
HETATM   15  C9  UNL     1      30.016   0.530  35.165  1.00  0.00     0.010 C 
ENDBRANCH   5  14
BRANCH   1  16
HETATM   16  C3  UNL     1      32.038   0.926  29.004  1.00  0.00     0.293 C 
HETATM   17  O2  UNL     1      31.080   1.307  28.266  1.00  0.00    -0.259 OA
BRANCH  16  18
HETATM   18  O1  UNL     1      33.151   0.398  28.417  1.00  0.00    -0.318 OA
BRANCH  18  19
HETATM   19  C2  UNL     1      33.197  -0.973  28.089  1.00  0.00     0.174 C 
HETATM   20  C1  UNL     1      34.108  -1.802  28.952  1.00  0.00     0.034 C 
ENDBRANCH  18  19
ENDBRANCH  16  18
ENDBRANCH   1  16
TORSDOF 5
ENDMDL
MODEL 5
REMARK VINA RESULT: -7.533022886      2.617      3.762
REMARK  5 active torsions:
REMARK  status: ('A' for Active; 'I' for Inactive)
REMARK    1  A    between atoms: C2_2  and  O1_3 
REMARK    2  A    between atoms: O1_3  and  C3_4 
REMARK    3  A    between atoms: C3_4  and  C4_6 
REMARK    4  A    between atoms: C7_10  and  C8_11 
REMARK    5  A    between atoms: C10_13  and  C11_14 
ROOT
HETATM    1  C4  UNL     1      31.460   1.130  29.767  1.00  0.00     0.041 A 
HETATM    2  C5  UNL     1      30.416   1.751  29.137  1.00  0.00     0.037 A 
HETATM    3  C6  UNL     1      29.343   2.211  29.853  1.00  0.00     0.018 A 
HETATM    4 BR1  UNL     1      27.838   3.066  28.993  1.00  0.00    -0.051 Br
HETATM    5  C7  UNL     1      29.244   2.079  31.217  1.00  0.00    -0.034 A 
HETATM    6  C10 UNL     1      30.302   1.444  31.896  1.00  0.00    -0.045 A 
HETATM    7  C17 UNL     1      31.390   0.979  31.133  1.00  0.00     0.025 A 
ENDROOT
BRANCH   6   8
HETATM    8  C11 UNL     1      30.304   1.531  33.355  1.00  0.00     0.019 C 
HETATM    9  C12 UNL     1      29.518   2.592  34.063  1.00  0.00     0.009 C 
HETATM   10  C13 UNL     1      29.382   2.296  35.541  1.00  0.00     0.001 C 
HETATM   11  C14 UNL     1      28.691   1.008  35.810  1.00  0.00     0.000 C 
HETATM   12  C15 UNL     1      29.602  -0.059  35.202  1.00  0.00     0.001 C 
HETATM   13  C16 UNL     1      29.612   0.158  33.739  1.00  0.00     0.009 C 
ENDBRANCH   6   8
BRANCH   5  14
HETATM   14  C8  UNL     1      27.989   2.457  31.942  1.00  0.00     0.036 C 
HETATM   15  C9  UNL     1      26.986   1.301  31.788  1.00  0.00     0.010 C 
ENDBRANCH   5  14
BRANCH   1  16
HETATM   16  C3  UNL     1      32.684   0.780  28.995  1.00  0.00     0.293 C 
HETATM   17  O2  UNL     1      32.665   0.934  27.736  1.00  0.00    -0.259 OA
BRANCH  16  18
HETATM   18  O1  UNL     1      33.823   0.310  29.583  1.00  0.00    -0.318 OA
BRANCH  18  19
HETATM   19  C2  UNL     1      34.091  -1.075  29.602  1.00  0.00     0.174 C 
HETATM   20  C1  UNL     1      35.442  -1.452  30.145  1.00  0.00     0.034 C 
ENDBRANCH  18  19
ENDBRANCH  16  18
ENDBRANCH   1  16
TORSDOF 5
ENDMDL
