MODEL 1
REMARK VINA RESULT: -7.457811177      0.000      0.000
REMARK  6 active torsions:
REMARK  status: ('A' for Active; 'I' for Inactive)
REMARK    1  A    between atoms: C3_3  and  C5_5 
REMARK    2  A    between atoms: C5_5  and  O2_7 
REMARK    3  A    between atoms: O2_7  and  C6_8 
REMARK    4  A    between atoms: C8_10  and  C9_11 
REMARK    5  A    between atoms: C9_11  and  O4_13 
REMARK    6  A    between atoms: C13_17  and  O5_18 
ROOT
HETATM    1  C6  UNL     1      14.439   8.348  82.627  1.00  0.00     0.190 C 
HETATM    2  C7  UNL     1      14.447   8.516  81.156  1.00  0.00    -0.042 C 
HETATM    3  C8  UNL     1      14.972   9.403  80.359  1.00  0.00     0.087 C 
HETATM    4  C11 UNL     1      13.631   7.322  80.707  1.00  0.00     0.040 C 
HETATM    5  C12 UNL     1      14.289   6.225  81.514  1.00  0.00     0.039 C 
HETATM    6  C13 UNL     1      14.863   6.875  82.738  1.00  0.00     0.152 C 
ENDROOT
BRANCH   1   7
HETATM    7  O2  UNL     1      13.087   8.389  83.043  1.00  0.00    -0.305 OA
BRANCH   7   8
HETATM    8  C5  UNL     1      12.549   9.496  83.705  1.00  0.00     0.289 C 
HETATM    9  O1  UNL     1      11.700  10.146  83.055  1.00  0.00    -0.260 OA
BRANCH   8  10
HETATM   10  C3  UNL     1      12.943   9.866  85.045  1.00  0.00     0.009 C 
HETATM   11  C2  UNL     1      13.753  10.864  85.252  1.00  0.00    -0.018 C 
HETATM   12  C1  UNL     1      14.365  11.728  84.219  1.00  0.00     0.036 C 
HETATM   13  C4  UNL     1      12.403   9.081  86.178  1.00  0.00     0.054 C 
ENDBRANCH   8  10
ENDBRANCH   7   8
ENDBRANCH   1   7
BRANCH   6  14
HETATM   14  O5  UNL     1      16.227   6.740  82.830  1.00  0.00    -0.393 OA
ATOM     15  H5  UNL     1      16.501   5.835  82.742  1.00  0.00     0.210 HD
ENDBRANCH   6  14
BRANCH   3  16
HETATM   16  C9  UNL     1      15.753  10.560  80.723  1.00  0.00     0.282 C 
HETATM   17  O3  UNL     1      16.666  10.484  81.572  1.00  0.00    -0.260 OA
BRANCH  16  18
HETATM   18  O4  UNL     1      15.482  11.776  80.117  1.00  0.00    -0.323 OA
HETATM   19  C10 UNL     1      15.057  11.878  78.767  1.00  0.00     0.213 C 
ENDBRANCH  16  18
ENDBRANCH   3  16
TORSDOF 6
ENDMDL
MODEL 2
REMARK VINA RESULT: -7.409123738      0.351      1.328
REMARK  6 active torsions:
REMARK  status: ('A' for Active; 'I' for Inactive)
REMARK    1  A    between atoms: C3_3  and  C5_5 
REMARK    2  A    between atoms: C5_5  and  O2_7 
REMARK    3  A    between atoms: O2_7  and  C6_8 
REMARK    4  A    between atoms: C8_10  and  C9_11 
REMARK    5  A    between atoms: C9_11  and  O4_13 
REMARK    6  A    between atoms: C13_17  and  O5_18 
ROOT
HETATM    1  C6  UNL     1      14.510   8.469  82.665  1.00  0.00     0.190 C 
HETATM    2  C7  UNL     1      14.462   8.665  81.198  1.00  0.00    -0.042 C 
HETATM    3  C8  UNL     1      15.002   9.537  80.394  1.00  0.00     0.087 C 
HETATM    4  C11 UNL     1      13.558   7.530  80.766  1.00  0.00     0.040 C 
HETATM    5  C12 UNL     1      14.186   6.381  81.523  1.00  0.00     0.039 C 
HETATM    6  C13 UNL     1      14.852   6.972  82.730  1.00  0.00     0.152 C 
ENDROOT
BRANCH   1   7
HETATM    7  O2  UNL     1      13.183   8.579  83.143  1.00  0.00    -0.305 OA
BRANCH   7   8
HETATM    8  C5  UNL     1      12.683   9.772  83.673  1.00  0.00     0.289 C 
HETATM    9  O1  UNL     1      11.585  10.146  83.204  1.00  0.00    -0.260 OA
BRANCH   8  10
HETATM   10  C3  UNL     1      13.383  10.522  84.691  1.00  0.00     0.009 C 
HETATM   11  C2  UNL     1      13.290  10.193  85.947  1.00  0.00    -0.018 C 
HETATM   12  C1  UNL     1      12.504   9.071  86.506  1.00  0.00     0.036 C 
HETATM   13  C4  UNL     1      14.209  11.676  84.269  1.00  0.00     0.054 C 
ENDBRANCH   8  10
ENDBRANCH   7   8
ENDBRANCH   1   7
BRANCH   6  14
HETATM   14  O5  UNL     1      16.209   6.757  82.758  1.00  0.00    -0.393 OA
ATOM     15  H5  UNL     1      16.420   5.834  82.828  1.00  0.00     0.210 HD
ENDBRANCH   6  14
BRANCH   3  16
HETATM   16  C9  UNL     1      15.864  10.639  80.742  1.00  0.00     0.282 C 
HETATM   17  O3  UNL     1      16.761  10.513  81.603  1.00  0.00    -0.260 OA
BRANCH  16  18
HETATM   18  O4  UNL     1      15.691  11.858  80.107  1.00  0.00    -0.323 OA
HETATM   19  C10 UNL     1      15.185  11.966  78.786  1.00  0.00     0.213 C 
ENDBRANCH  16  18
ENDBRANCH   3  16
TORSDOF 6
ENDMDL
MODEL 3
REMARK VINA RESULT: -6.757036697      2.196      3.934
REMARK  6 active torsions:
REMARK  status: ('A' for Active; 'I' for Inactive)
REMARK    1  A    between atoms: C3_3  and  C5_5 
REMARK    2  A    between atoms: C5_5  and  O2_7 
REMARK    3  A    between atoms: O2_7  and  C6_8 
REMARK    4  A    between atoms: C8_10  and  C9_11 
REMARK    5  A    between atoms: C9_11  and  O4_13 
REMARK    6  A    between atoms: C13_17  and  O5_18 
ROOT
HETATM    1  C6  UNL     1      13.712   9.911  83.973  1.00  0.00     0.190 C 
HETATM    2  C7  UNL     1      14.321  11.258  83.874  1.00  0.00    -0.042 C 
HETATM    3  C8  UNL     1      15.111  11.820  83.004  1.00  0.00     0.087 C 
HETATM    4  C11 UNL     1      13.788  11.928  85.122  1.00  0.00     0.040 C 
HETATM    5  C12 UNL     1      12.323  11.569  85.019  1.00  0.00     0.039 C 
HETATM    6  C13 UNL     1      12.246  10.292  84.235  1.00  0.00     0.152 C 
ENDROOT
BRANCH   1   7
HETATM    7  O2  UNL     1      14.178   9.333  85.177  1.00  0.00    -0.305 OA
BRANCH   7   8
HETATM    8  C5  UNL     1      14.034   7.969  85.448  1.00  0.00     0.289 C 
HETATM    9  O1  UNL     1      14.815   7.216  84.823  1.00  0.00    -0.260 OA
BRANCH   8  10
HETATM   10  C3  UNL     1      13.056   7.462  86.382  1.00  0.00     0.009 C 
HETATM   11  C2  UNL     1      11.938   6.943  85.963  1.00  0.00    -0.018 C 
HETATM   12  C1  UNL     1      11.510   6.796  84.555  1.00  0.00     0.036 C 
HETATM   13  C4  UNL     1      13.356   7.547  87.830  1.00  0.00     0.054 C 
ENDBRANCH   8  10
ENDBRANCH   7   8
ENDBRANCH   1   7
BRANCH   6  14
HETATM   14  O5  UNL     1      11.534  10.418  83.067  1.00  0.00    -0.393 OA
ATOM     15  H5  UNL     1      11.772   9.752  82.433  1.00  0.00     0.210 HD
ENDBRANCH   6  14
BRANCH   3  16
HETATM   16  C9  UNL     1      15.655  11.237  81.802  1.00  0.00     0.282 C 
HETATM   17  O3  UNL     1      16.609  10.430  81.847  1.00  0.00    -0.260 OA
BRANCH  16  18
HETATM   18  O4  UNL     1      15.107  11.580  80.577  1.00  0.00    -0.323 OA
HETATM   19  C10 UNL     1      15.875  11.632  79.385  1.00  0.00     0.213 C 
ENDBRANCH  16  18
ENDBRANCH   3  16
TORSDOF 6
ENDMDL
MODEL 4
REMARK VINA RESULT: -6.735101451      1.595      4.543
REMARK  6 active torsions:
REMARK  status: ('A' for Active; 'I' for Inactive)
REMARK    1  A    between atoms: C3_3  and  C5_5 
REMARK    2  A    between atoms: C5_5  and  O2_7 
REMARK    3  A    between atoms: O2_7  and  C6_8 
REMARK    4  A    between atoms: C8_10  and  C9_11 
REMARK    5  A    between atoms: C9_11  and  O4_13 
REMARK    6  A    between atoms: C13_17  and  O5_18 
ROOT
HETATM    1  C6  UNL     1      13.637   8.556  80.934  1.00  0.00     0.190 C 
HETATM    2  C7  UNL     1      13.631   7.981  82.299  1.00  0.00    -0.042 C 
HETATM    3  C8  UNL     1      13.249   8.435  83.459  1.00  0.00     0.087 C 
HETATM    4  C11 UNL     1      14.225   6.610  82.057  1.00  0.00     0.040 C 
HETATM    5  C12 UNL     1      13.407   6.166  80.865  1.00  0.00     0.039 C 
HETATM    6  C13 UNL     1      12.972   7.412  80.151  1.00  0.00     0.152 C 
ENDROOT
BRANCH   1   7
HETATM    7  O2  UNL     1      14.984   8.583  80.501  1.00  0.00    -0.305 OA
BRANCH   7   8
HETATM    8  C5  UNL     1      15.912   9.488  81.025  1.00  0.00     0.289 C 
HETATM    9  O1  UNL     1      16.919   8.970  81.560  1.00  0.00    -0.260 OA
BRANCH   8  10
HETATM   10  C3  UNL     1      15.726  10.919  80.956  1.00  0.00     0.009 C 
HETATM   11  C2  UNL     1      15.751  11.541  79.812  1.00  0.00    -0.018 C 
HETATM   12  C1  UNL     1      15.961  10.929  78.482  1.00  0.00     0.036 C 
HETATM   13  C4  UNL     1      15.506  11.660  82.218  1.00  0.00     0.054 C 
ENDBRANCH   8  10
ENDBRANCH   7   8
ENDBRANCH   1   7
BRANCH   6  14
HETATM   14  O5  UNL     1      11.607   7.555  80.097  1.00  0.00    -0.393 OA
ATOM     15  H5  UNL     1      11.157   6.795  80.445  1.00  0.00     0.210 HD
ENDBRANCH   6  14
BRANCH   3  16
HETATM   16  C9  UNL     1      12.681   9.728  83.755  1.00  0.00     0.282 C 
HETATM   17  O3  UNL     1      11.700  10.166  83.117  1.00  0.00    -0.260 OA
BRANCH  16  18
HETATM   18  O4  UNL     1      13.238  10.494  84.766  1.00  0.00    -0.323 OA
HETATM   19  C10 UNL     1      12.699  11.746  85.159  1.00  0.00     0.213 C 
ENDBRANCH  16  18
ENDBRANCH   3  16
TORSDOF 6
ENDMDL
MODEL 5
REMARK VINA RESULT: -6.715319750      1.015      1.489
REMARK  6 active torsions:
REMARK  status: ('A' for Active; 'I' for Inactive)
REMARK    1  A    between atoms: C3_3  and  C5_5 
REMARK    2  A    between atoms: C5_5  and  O2_7 
REMARK    3  A    between atoms: O2_7  and  C6_8 
REMARK    4  A    between atoms: C8_10  and  C9_11 
REMARK    5  A    between atoms: C9_11  and  O4_13 
REMARK    6  A    between atoms: C13_17  and  O5_18 
ROOT
HETATM    1  C6  UNL     1      14.080   9.095  81.804  1.00  0.00     0.190 C 
HETATM    2  C7  UNL     1      13.994   9.160  80.327  1.00  0.00    -0.042 C 
HETATM    3  C8  UNL     1      14.456   9.996  79.440  1.00  0.00     0.087 C 
HETATM    4  C11 UNL     1      13.168   7.931  80.013  1.00  0.00     0.040 C 
HETATM    5  C12 UNL     1      13.890   6.898  80.850  1.00  0.00     0.039 C 
HETATM    6  C13 UNL     1      14.531   7.637  81.988  1.00  0.00     0.152 C 
ENDROOT
BRANCH   1   7
HETATM    7  O2  UNL     1      12.757   9.152  82.300  1.00  0.00    -0.305 OA
BRANCH   7   8
HETATM    8  C5  UNL     1      12.442   9.795  83.501  1.00  0.00     0.289 C 
HETATM    9  O1  UNL     1      11.461  10.569  83.450  1.00  0.00    -0.260 OA
BRANCH   8  10
HETATM   10  C3  UNL     1      13.196   9.582  84.715  1.00  0.00     0.009 C 
HETATM   11  C2  UNL     1      13.876  10.550  85.257  1.00  0.00    -0.018 C 
HETATM   12  C1  UNL     1      13.986  11.937  84.755  1.00  0.00     0.036 C 
HETATM   13  C4  UNL     1      13.174   8.234  85.328  1.00  0.00     0.054 C 
ENDBRANCH   8  10
ENDBRANCH   7   8
ENDBRANCH   1   7
BRANCH   6  14
HETATM   14  O5  UNL     1      15.900   7.523  82.003  1.00  0.00    -0.393 OA
ATOM     15  H5  UNL     1      16.198   6.768  81.509  1.00  0.00     0.210 HD
ENDBRANCH   6  14
BRANCH   3  16
HETATM   16  C9  UNL     1      15.242  11.183  79.673  1.00  0.00     0.282 C 
HETATM   17  O3  UNL     1      14.994  12.251  79.074  1.00  0.00    -0.260 OA
BRANCH  16  18
HETATM   18  O4  UNL     1      16.289  11.132  80.578  1.00  0.00    -0.323 OA
HETATM   19  C10 UNL     1      16.173  11.614  81.907  1.00  0.00     0.213 C 
ENDBRANCH  16  18
ENDBRANCH   3  16
TORSDOF 6
ENDMDL
