MODEL 1
REMARK VINA RESULT: -6.562379600      0.000      0.000
REMARK  3 active torsions:
REMARK  status: ('A' for Active; 'I' for Inactive)
REMARK    1  A    between atoms: N1_7  and  C7_8 
REMARK    2  A    between atoms: C11_15  and  S1_16 
REMARK    3  A    between atoms: S1_16  and  C12_17 
ROOT
HETATM    1  C7  UNL     1      12.995   9.051  83.621  1.00  0.00     0.110 C 
HETATM    2  C8  UNL     1      13.134   8.151  84.833  1.00  0.00     0.257 C 
HETATM    3  N2  UNL     1      14.284   8.496  85.638  1.00  0.00    -0.073 N 
ATOM      4  H21 UNL     1      15.096   8.668  85.045  1.00  0.00     0.277 HD
ATOM      5  H22 UNL     1      14.617   7.682  86.154  1.00  0.00     0.277 HD
HETATM    6  C9  UNL     1      14.067   9.593  86.518  1.00  0.00     0.233 C 
HETATM    7  C10 UNL     1      12.952  10.513  86.102  1.00  0.00     0.043 C 
HETATM    8  C11 UNL     1      13.176  11.174  84.780  1.00  0.00     0.058 C 
HETATM    9  C13 UNL     1      13.879  10.264  83.785  1.00  0.00     0.042 C 
ENDROOT
BRANCH   1  10
HETATM   10  N1  UNL     1      13.214   8.344  82.405  1.00  0.00    -0.380 N 
HETATM   11  C2  UNL     1      13.466   6.921  82.308  1.00  0.00     0.080 C 
HETATM   12  C1  UNL     1      14.946   6.735  82.023  1.00  0.00     0.032 C 
HETATM   13  C3  UNL     1      12.709   6.333  81.113  1.00  0.00     0.029 C 
HETATM   14  C4  UNL     1      13.073   7.006  79.829  1.00  0.00     0.030 C 
HETATM   15  C5  UNL     1      13.129   8.480  79.981  1.00  0.00    -0.010 C 
HETATM   16  C6  UNL     1      13.194   9.055  81.172  1.00  0.00     0.082 C 
ENDBRANCH   1  10
BRANCH   8  17
HETATM   17  S1  UNL     1      13.963  12.781  84.923  1.00  0.00    -0.096 SA
BRANCH  17  18
HETATM   18  C12 UNL     1      14.872  12.954  86.440  1.00  0.00     0.304 C 
HETATM   19  O1  UNL     1      15.649  13.865  86.641  1.00  0.00    -0.295 OA
ENDBRANCH  17  18
ENDBRANCH   8  17
TORSDOF 3
ENDMDL
MODEL 2
REMARK VINA RESULT: -6.357243271      2.773      3.380
REMARK  3 active torsions:
REMARK  status: ('A' for Active; 'I' for Inactive)
REMARK    1  A    between atoms: N1_7  and  C7_8 
REMARK    2  A    between atoms: C11_15  and  S1_16 
REMARK    3  A    between atoms: S1_16  and  C12_17 
ROOT
HETATM    1  C7  UNL     1      13.490   9.012  83.770  1.00  0.00     0.110 C 
HETATM    2  C8  UNL     1      13.227  10.499  83.636  1.00  0.00     0.257 C 
HETATM    3  N2  UNL     1      11.970  10.885  84.237  1.00  0.00    -0.073 N 
ATOM      4  H21 UNL     1      11.236  10.222  83.989  1.00  0.00     0.277 HD
ATOM      5  H22 UNL     1      11.602  11.724  83.789  1.00  0.00     0.277 HD
HETATM    6  C9  UNL     1      12.031  11.057  85.648  1.00  0.00     0.233 C 
HETATM    7  C10 UNL     1      13.157  10.316  86.316  1.00  0.00     0.043 C 
HETATM    8  C11 UNL     1      13.084   8.832  86.154  1.00  0.00     0.058 C 
HETATM    9  C13 UNL     1      12.549   8.420  84.792  1.00  0.00     0.042 C 
ENDROOT
BRANCH   1  10
HETATM   10  N1  UNL     1      13.456   8.349  82.511  1.00  0.00    -0.380 N 
HETATM   11  C2  UNL     1      13.317   6.919  82.330  1.00  0.00     0.080 C 
HETATM   12  C1  UNL     1      14.679   6.370  81.944  1.00  0.00     0.032 C 
HETATM   13  C3  UNL     1      12.375   6.624  81.160  1.00  0.00     0.029 C 
HETATM   14  C4  UNL     1      12.840   7.258  79.889  1.00  0.00     0.030 C 
HETATM   15  C5  UNL     1      13.292   8.653  80.106  1.00  0.00    -0.010 C 
HETATM   16  C6  UNL     1      13.563   9.116  81.317  1.00  0.00     0.082 C 
ENDBRANCH   1  10
BRANCH   8  17
HETATM   17  S1  UNL     1      12.228   8.020  87.509  1.00  0.00    -0.096 SA
BRANCH  17  18
HETATM   18  C12 UNL     1      10.677   7.317  87.002  1.00  0.00     0.304 C 
HETATM   19  O1  UNL     1       9.674   7.983  86.841  1.00  0.00    -0.295 OA
ENDBRANCH  17  18
ENDBRANCH   8  17
TORSDOF 3
ENDMDL
MODEL 3
REMARK VINA RESULT: -6.301607363      1.087      1.228
REMARK  3 active torsions:
REMARK  status: ('A' for Active; 'I' for Inactive)
REMARK    1  A    between atoms: N1_7  and  C7_8 
REMARK    2  A    between atoms: C11_15  and  S1_16 
REMARK    3  A    between atoms: S1_16  and  C12_17 
ROOT
HETATM    1  C7  UNL     1      13.011   8.348  83.787  1.00  0.00     0.110 C 
HETATM    2  C8  UNL     1      13.641   7.256  84.630  1.00  0.00     0.257 C 
HETATM    3  N2  UNL     1      14.687   7.765  85.487  1.00  0.00    -0.073 N 
ATOM      4  H21 UNL     1      15.287   8.411  84.974  1.00  0.00     0.277 HD
ATOM      5  H22 UNL     1      15.365   7.033  85.699  1.00  0.00     0.277 HD
HETATM    6  C9  UNL     1      14.213   8.370  86.685  1.00  0.00     0.233 C 
HETATM    7  C10 UNL     1      12.792   8.858  86.614  1.00  0.00     0.043 C 
HETATM    8  C11 UNL     1      12.568   9.917  85.583  1.00  0.00     0.058 C 
HETATM    9  C13 UNL     1      13.404   9.700  84.332  1.00  0.00     0.042 C 
ENDROOT
BRANCH   1  10
HETATM   10  N1  UNL     1      13.297   8.184  82.403  1.00  0.00    -0.380 N 
HETATM   11  C2  UNL     1      13.006   6.994  81.631  1.00  0.00     0.080 C 
HETATM   12  C1  UNL     1      14.316   6.258  81.410  1.00  0.00     0.032 C 
HETATM   13  C3  UNL     1      12.477   7.380  80.247  1.00  0.00     0.029 C 
HETATM   14  C4  UNL     1      13.434   8.252  79.501  1.00  0.00     0.030 C 
HETATM   15  C5  UNL     1      13.998   9.313  80.369  1.00  0.00    -0.010 C 
HETATM   16  C6  UNL     1      13.917   9.248  81.689  1.00  0.00     0.082 C 
ENDBRANCH   1  10
BRANCH   8  17
HETATM   17  S1  UNL     1      12.724  11.581  86.241  1.00  0.00    -0.096 SA
BRANCH  17  18
HETATM   18  C12 UNL     1      14.201  12.392  85.679  1.00  0.00     0.304 C 
HETATM   19  O1  UNL     1      14.655  13.381  86.218  1.00  0.00    -0.295 OA
ENDBRANCH  17  18
ENDBRANCH   8  17
TORSDOF 3
ENDMDL
MODEL 4
REMARK VINA RESULT: -6.296000820      2.384      3.412
REMARK  3 active torsions:
REMARK  status: ('A' for Active; 'I' for Inactive)
REMARK    1  A    between atoms: N1_7  and  C7_8 
REMARK    2  A    between atoms: C11_15  and  S1_16 
REMARK    3  A    between atoms: S1_16  and  C12_17 
ROOT
HETATM    1  C7  UNL     1      13.538   9.333  81.645  1.00  0.00     0.110 C 
HETATM    2  C8  UNL     1      13.748   7.856  81.916  1.00  0.00     0.257 C 
HETATM    3  N2  UNL     1      14.394   7.623  83.188  1.00  0.00    -0.073 N 
ATOM      4  H21 UNL     1      15.170   8.272  83.320  1.00  0.00     0.277 HD
ATOM      5  H22 UNL     1      14.908   6.742  83.173  1.00  0.00     0.277 HD
HETATM    6  C9  UNL     1      13.511   7.667  84.303  1.00  0.00     0.233 C 
HETATM    7  C10 UNL     1      12.249   8.452  84.065  1.00  0.00     0.043 C 
HETATM    8  C11 UNL     1      12.484   9.895  83.756  1.00  0.00     0.058 C 
HETATM    9  C13 UNL     1      13.735  10.116  82.921  1.00  0.00     0.042 C 
ENDROOT
BRANCH   1  10
HETATM   10  N1  UNL     1      14.338   9.795  80.562  1.00  0.00    -0.380 N 
HETATM   11  C2  UNL     1      13.850  10.054  79.223  1.00  0.00     0.080 C 
HETATM   12  C1  UNL     1      14.313   8.911  78.337  1.00  0.00     0.032 C 
HETATM   13  C3  UNL     1      14.488  11.330  78.667  1.00  0.00     0.029 C 
HETATM   14  C4  UNL     1      15.981  11.258  78.663  1.00  0.00     0.030 C 
HETATM   15  C5  UNL     1      16.505  10.693  79.930  1.00  0.00    -0.010 C 
HETATM   16  C6  UNL     1      15.725  10.032  80.772  1.00  0.00     0.082 C 
ENDBRANCH   1  10
BRANCH   8  17
HETATM   17  S1  UNL     1      12.430  10.943  85.214  1.00  0.00    -0.096 SA
BRANCH  17  18
HETATM   18  C12 UNL     1      14.015  11.080  86.004  1.00  0.00     0.304 C 
HETATM   19  O1  UNL     1      14.655  10.115  86.370  1.00  0.00    -0.295 OA
ENDBRANCH  17  18
ENDBRANCH   8  17
TORSDOF 3
ENDMDL
MODEL 5
REMARK VINA RESULT: -6.289888119      3.587      5.998
REMARK  3 active torsions:
REMARK  status: ('A' for Active; 'I' for Inactive)
REMARK    1  A    between atoms: N1_7  and  C7_8 
REMARK    2  A    between atoms: C11_15  and  S1_16 
REMARK    3  A    between atoms: S1_16  and  C12_17 
ROOT
HETATM    1  C7  UNL     1      13.843   9.987  82.628  1.00  0.00     0.110 C 
HETATM    2  C8  UNL     1      15.064  10.786  82.215  1.00  0.00     0.257 C 
HETATM    3  N2  UNL     1      16.051   9.966  81.549  1.00  0.00    -0.073 N 
ATOM      4  H21 UNL     1      16.174   9.082  82.043  1.00  0.00     0.277 HD
ATOM      5  H22 UNL     1      16.984  10.361  81.668  1.00  0.00     0.277 HD
HETATM    6  C9  UNL     1      15.778   9.733  80.172  1.00  0.00     0.233 C 
HETATM    7  C10 UNL     1      14.330   9.886  79.791  1.00  0.00     0.043 C 
HETATM    8  C11 UNL     1      13.418   8.928  80.488  1.00  0.00     0.058 C 
HETATM    9  C13 UNL     1      13.846   8.653  81.921  1.00  0.00     0.042 C 
ENDROOT
BRANCH   1  10
HETATM   10  N1  UNL     1      13.729   9.883  84.043  1.00  0.00    -0.380 N 
HETATM   11  C2  UNL     1      13.375   8.675  84.759  1.00  0.00     0.080 C 
HETATM   12  C1  UNL     1      11.936   8.820  85.221  1.00  0.00     0.032 C 
HETATM   13  C3  UNL     1      14.232   8.541  86.021  1.00  0.00     0.029 C 
HETATM   14  C4  UNL     1      14.100   9.727  86.921  1.00  0.00     0.030 C 
HETATM   15  C5  UNL     1      14.147  10.999  86.160  1.00  0.00    -0.010 C 
HETATM   16  C6  UNL     1      13.973  11.032  84.848  1.00  0.00     0.082 C 
ENDBRANCH   1  10
BRANCH   8  17
HETATM   17  S1  UNL     1      13.132   7.424  79.550  1.00  0.00    -0.096 SA
BRANCH  17  18
HETATM   18  C12 UNL     1      13.199   5.970  80.569  1.00  0.00     0.304 C 
HETATM   19  O1  UNL     1      14.018   5.089  80.406  1.00  0.00    -0.295 OA
ENDBRANCH  17  18
ENDBRANCH   8  17
TORSDOF 3
ENDMDL
