MODEL 1
REMARK VINA RESULT: -7.084728320      0.000      0.000
REMARK  4 active torsions:
REMARK  status: ('A' for Active; 'I' for Inactive)
REMARK    1  A    between atoms: C3_3  and  O1_4 
REMARK    2  A    between atoms: O1_4  and  N1_5 
REMARK    3  A    between atoms: C12_16  and  C13_17 
REMARK    4  A    between atoms: C13_17  and  O3_18 
ROOT
HETATM    1  C1  UNL     1      16.196  10.124  77.361  1.00  0.00     0.014 C 
HETATM    2  C2  UNL     1      16.130  10.808  78.348  1.00  0.00    -0.089 C 
HETATM    3  C3  UNL     1      16.073  11.658  79.569  1.00  0.00     0.294 C 
ENDROOT
BRANCH   3   4
HETATM    4  O1  UNL     1      16.555  10.915  80.648  1.00  0.00    -0.267 OA
BRANCH   4   5
HETATM    5  N1  UNL     1      15.870  10.406  81.660  1.00  0.00    -0.247 N 
HETATM    6  C4  UNL     1      14.967   9.516  81.728  1.00  0.00     0.143 C 
HETATM    7  C5  UNL     1      14.397   8.746  80.604  1.00  0.00     0.122 C 
HETATM    8  O4  UNL     1      14.416   9.188  82.993  1.00  0.00    -0.301 OA
HETATM    9  C6  UNL     1      13.167   7.987  81.092  1.00  0.00     0.161 C 
HETATM   10  O2  UNL     1      12.416   8.860  81.846  1.00  0.00    -0.345 OA
HETATM   11  C11 UNL     1      13.556   6.738  81.794  1.00  0.00    -0.052 C 
HETATM   12  C7  UNL     1      12.994   9.016  83.109  1.00  0.00     0.169 C 
HETATM   13  C8  UNL     1      12.443  10.233  83.769  1.00  0.00     0.079 C 
HETATM   14  C9  UNL     1      12.752   7.745  83.853  1.00  0.00     0.073 C 
HETATM   15  C10 UNL     1      13.652   6.678  83.265  1.00  0.00     0.042 C 
HETATM   16  C12 UNL     1      13.822   5.663  81.082  1.00  0.00     0.004 C 
ATOM     17  H1  UNL     1      16.115  10.810  82.564  1.00  0.00     0.196 HD
BRANCH  16  18
HETATM   18  C13 UNL     1      14.222   4.337  81.558  1.00  0.00     0.191 C 
BRANCH  18  19
HETATM   19  O3  UNL     1      13.054   3.547  81.694  1.00  0.00    -0.397 OA
ATOM     20  H3  UNL     1      13.315   2.634  81.707  1.00  0.00     0.209 HD
ENDBRANCH  18  19
ENDBRANCH  16  18
ENDBRANCH   4   5
ENDBRANCH   3   4
TORSDOF 4
ENDMDL
MODEL 2
REMARK VINA RESULT: -6.969765377      2.271      2.764
REMARK  4 active torsions:
REMARK  status: ('A' for Active; 'I' for Inactive)
REMARK    1  A    between atoms: C3_3  and  O1_4 
REMARK    2  A    between atoms: O1_4  and  N1_5 
REMARK    3  A    between atoms: C12_16  and  C13_17 
REMARK    4  A    between atoms: C13_17  and  O3_18 
ROOT
HETATM    1  C1  UNL     1      14.847  11.664  78.380  1.00  0.00     0.014 C 
HETATM    2  C2  UNL     1      15.342  11.381  79.440  1.00  0.00    -0.089 C 
HETATM    3  C3  UNL     1      15.934  11.019  80.757  1.00  0.00     0.294 C 
ENDROOT
BRANCH   3   4
HETATM    4  O1  UNL     1      15.336  11.806  81.741  1.00  0.00    -0.267 OA
BRANCH   4   5
HETATM    5  N1  UNL     1      15.126  11.503  83.013  1.00  0.00    -0.247 N 
HETATM    6  C4  UNL     1      14.367  10.659  83.583  1.00  0.00     0.143 C 
HETATM    7  C5  UNL     1      13.443   9.714  82.925  1.00  0.00     0.122 C 
HETATM    8  O4  UNL     1      14.369  10.577  84.999  1.00  0.00    -0.301 OA
HETATM    9  C6  UNL     1      12.540   9.082  83.979  1.00  0.00     0.161 C 
HETATM   10  O2  UNL     1      12.100  10.093  84.804  1.00  0.00    -0.345 OA
HETATM   11  C11 UNL     1      13.234   7.971  84.679  1.00  0.00    -0.052 C 
HETATM   12  C7  UNL     1      13.115  10.460  85.691  1.00  0.00     0.169 C 
HETATM   13  C8  UNL     1      12.805  11.787  86.292  1.00  0.00     0.079 C 
HETATM   14  C9  UNL     1      13.246   9.348  86.679  1.00  0.00     0.073 C 
HETATM   15  C10 UNL     1      13.898   8.174  85.980  1.00  0.00     0.042 C 
HETATM   16  C12 UNL     1      13.255   6.780  84.117  1.00  0.00     0.004 C 
ATOM     17  H1  UNL     1      15.684  12.056  83.663  1.00  0.00     0.196 HD
BRANCH  16  18
HETATM   18  C13 UNL     1      13.875   5.552  84.621  1.00  0.00     0.191 C 
BRANCH  18  19
HETATM   19  O3  UNL     1      15.116   5.382  83.961  1.00  0.00    -0.397 OA
ATOM     20  H3  UNL     1      15.195   4.470  83.710  1.00  0.00     0.209 HD
ENDBRANCH  18  19
ENDBRANCH  16  18
ENDBRANCH   4   5
ENDBRANCH   3   4
TORSDOF 4
ENDMDL
MODEL 3
REMARK VINA RESULT: -6.767340877      3.053      4.084
REMARK  4 active torsions:
REMARK  status: ('A' for Active; 'I' for Inactive)
REMARK    1  A    between atoms: C3_3  and  O1_4 
REMARK    2  A    between atoms: O1_4  and  N1_5 
REMARK    3  A    between atoms: C12_16  and  C13_17 
REMARK    4  A    between atoms: C13_17  and  O3_18 
ROOT
HETATM    1  C1  UNL     1      14.749  11.672  78.422  1.00  0.00     0.014 C 
HETATM    2  C2  UNL     1      15.198  10.885  79.214  1.00  0.00    -0.089 C 
HETATM    3  C3  UNL     1      15.739   9.894  80.184  1.00  0.00     0.294 C 
ENDROOT
BRANCH   3   4
HETATM    4  O1  UNL     1      14.793   9.701  81.192  1.00  0.00    -0.267 OA
BRANCH   4   5
HETATM    5  N1  UNL     1      14.852  10.098  82.453  1.00  0.00    -0.247 N 
HETATM    6  C4  UNL     1      13.982  10.166  83.376  1.00  0.00     0.143 C 
HETATM    7  C5  UNL     1      12.558   9.788  83.279  1.00  0.00     0.122 C 
HETATM    8  O4  UNL     1      14.368  10.649  84.653  1.00  0.00    -0.301 OA
HETATM    9  C6  UNL     1      11.826  10.277  84.524  1.00  0.00     0.161 C 
HETATM   10  O2  UNL     1      12.232  11.571  84.760  1.00  0.00    -0.345 OA
HETATM   11  C11 UNL     1      12.030   9.347  85.663  1.00  0.00    -0.052 C 
HETATM   12  C7  UNL     1      13.505  11.571  85.337  1.00  0.00     0.169 C 
HETATM   13  C8  UNL     1      14.111  12.928  85.222  1.00  0.00     0.079 C 
HETATM   14  C9  UNL     1      13.343  11.084  86.738  1.00  0.00     0.073 C 
HETATM   15  C10 UNL     1      13.060   9.597  86.688  1.00  0.00     0.042 C 
HETATM   16  C12 UNL     1      11.273   8.273  85.752  1.00  0.00     0.004 C 
ATOM     17  H1  UNL     1      15.779  10.411  82.741  1.00  0.00     0.196 HD
BRANCH  16  18
HETATM   18  C13 UNL     1      11.299   7.228  86.778  1.00  0.00     0.191 C 
BRANCH  18  19
HETATM   19  O3  UNL     1      10.273   7.505  87.715  1.00  0.00    -0.397 OA
ATOM     20  H3  UNL     1       9.514   7.818  87.238  1.00  0.00     0.209 HD
ENDBRANCH  18  19
ENDBRANCH  16  18
ENDBRANCH   4   5
ENDBRANCH   3   4
TORSDOF 4
ENDMDL
MODEL 4
REMARK VINA RESULT: -6.644575467      2.744      4.173
REMARK  4 active torsions:
REMARK  status: ('A' for Active; 'I' for Inactive)
REMARK    1  A    between atoms: C3_3  and  O1_4 
REMARK    2  A    between atoms: O1_4  and  N1_5 
REMARK    3  A    between atoms: C12_16  and  C13_17 
REMARK    4  A    between atoms: C13_17  and  O3_18 
ROOT
HETATM    1  C1  UNL     1      14.850  10.211  78.716  1.00  0.00     0.014 C 
HETATM    2  C2  UNL     1      14.177   9.399  79.295  1.00  0.00    -0.089 C 
HETATM    3  C3  UNL     1      13.324   8.406  80.003  1.00  0.00     0.294 C 
ENDROOT
BRANCH   3   4
HETATM    4  O1  UNL     1      12.812   9.005  81.155  1.00  0.00    -0.267 OA
BRANCH   4   5
HETATM    5  N1  UNL     1      13.481   9.494  82.187  1.00  0.00    -0.247 N 
HETATM    6  C4  UNL     1      13.242   9.517  83.434  1.00  0.00     0.143 C 
HETATM    7  C5  UNL     1      12.061   8.956  84.121  1.00  0.00     0.122 C 
HETATM    8  O4  UNL     1      14.179  10.134  84.303  1.00  0.00    -0.301 OA
HETATM    9  C6  UNL     1      12.050   9.436  85.568  1.00  0.00     0.161 C 
HETATM   10  O2  UNL     1      12.328  10.784  85.558  1.00  0.00    -0.345 OA
HETATM   11  C11 UNL     1      12.966   8.622  86.407  1.00  0.00    -0.052 C 
HETATM   12  C7  UNL     1      13.695  10.987  85.354  1.00  0.00     0.169 C 
HETATM   13  C8  UNL     1      13.940  12.397  84.941  1.00  0.00     0.079 C 
HETATM   14  C9  UNL     1      14.383  10.583  86.616  1.00  0.00     0.073 C 
HETATM   15  C10 UNL     1      14.336   9.073  86.713  1.00  0.00     0.042 C 
HETATM   16  C12 UNL     1      12.540   7.470  86.882  1.00  0.00     0.004 C 
ATOM     17  H1  UNL     1      14.360   9.941  81.930  1.00  0.00     0.196 HD
BRANCH  16  18
HETATM   18  C13 UNL     1      13.264   6.513  87.721  1.00  0.00     0.191 C 
BRANCH  18  19
HETATM   19  O3  UNL     1      13.798   5.505  86.880  1.00  0.00    -0.397 OA
ATOM     20  H3  UNL     1      14.029   4.760  87.422  1.00  0.00     0.209 HD
ENDBRANCH  18  19
ENDBRANCH  16  18
ENDBRANCH   4   5
ENDBRANCH   3   4
TORSDOF 4
ENDMDL
MODEL 5
REMARK VINA RESULT: -6.531008205      2.177      5.299
REMARK  4 active torsions:
REMARK  status: ('A' for Active; 'I' for Inactive)
REMARK    1  A    between atoms: C3_3  and  O1_4 
REMARK    2  A    between atoms: O1_4  and  N1_5 
REMARK    3  A    between atoms: C12_16  and  C13_17 
REMARK    4  A    between atoms: C13_17  and  O3_18 
ROOT
HETATM    1  C1  UNL     1      14.316  12.760  85.137  1.00  0.00     0.014 C 
HETATM    2  C2  UNL     1      13.635  12.061  85.841  1.00  0.00    -0.089 C 
HETATM    3  C3  UNL     1      12.811  11.180  86.713  1.00  0.00     0.294 C 
ENDROOT
BRANCH   3   4
HETATM    4  O1  UNL     1      12.422  10.064  85.973  1.00  0.00    -0.267 OA
BRANCH   4   5
HETATM    5  N1  UNL     1      13.191   9.208  85.319  1.00  0.00    -0.247 N 
HETATM    6  C4  UNL     1      13.406   9.014  84.082  1.00  0.00     0.143 C 
HETATM    7  C5  UNL     1      12.806   9.752  82.953  1.00  0.00     0.122 C 
HETATM    8  O4  UNL     1      14.308   7.991  83.692  1.00  0.00    -0.301 OA
HETATM    9  C6  UNL     1      13.129   9.024  81.653  1.00  0.00     0.161 C 
HETATM   10  O2  UNL     1      12.901   7.683  81.863  1.00  0.00    -0.345 OA
HETATM   11  C11 UNL     1      14.499   9.353  81.184  1.00  0.00    -0.052 C 
HETATM   12  C7  UNL     1      13.953   7.131  82.597  1.00  0.00     0.169 C 
HETATM   13  C8  UNL     1      13.536   5.819  83.169  1.00  0.00     0.079 C 
HETATM   14  C9  UNL     1      15.128   7.060  81.679  1.00  0.00     0.073 C 
HETATM   15  C10 UNL     1      15.644   8.468  81.468  1.00  0.00     0.042 C 
HETATM   16  C12 UNL     1      14.690  10.463  80.502  1.00  0.00     0.004 C 
ATOM     17  H1  UNL     1      13.715   8.580  85.929  1.00  0.00     0.196 HD
BRANCH  16  18
HETATM   18  C13 UNL     1      15.943  10.982  79.948  1.00  0.00     0.191 C 
BRANCH  18  19
HETATM   19  O3  UNL     1      15.876  12.397  79.958  1.00  0.00    -0.397 OA
ATOM     20  H3  UNL     1      16.645  12.725  80.410  1.00  0.00     0.209 HD
ENDBRANCH  18  19
ENDBRANCH  16  18
ENDBRANCH   4   5
ENDBRANCH   3   4
TORSDOF 4
ENDMDL
