MODEL 1
REMARK VINA RESULT: -7.196870038      0.000      0.000
REMARK  5 active torsions:
REMARK  status: ('A' for Active; 'I' for Inactive)
REMARK    1  A    between atoms: C2_2  and  C3_3 
REMARK    2  A    between atoms: C3_3  and  C6_7 
REMARK    3  A    between atoms: C6_7  and  O2_9 
REMARK    4  A    between atoms: O2_9  and  C7_10 
REMARK    5  A    between atoms: C13_17  and  O4_18 
ROOT
HETATM    1  C3  UNL     1      15.203   9.995  81.073  1.00  0.00     0.132 C 
HETATM    2  C4  UNL     1      13.821   9.655  80.503  1.00  0.00     0.042 C 
HETATM    3  C5  UNL     1      15.951  10.601  79.968  1.00  0.00     0.079 C 
HETATM    4  N1  UNL     1      16.539  11.078  79.072  1.00  0.00    -0.196 NA
ENDROOT
BRANCH   1   5
HETATM    5  C2  UNL     1      15.916   8.717  81.434  1.00  0.00     0.030 C 
HETATM    6  C1  UNL     1      15.018   7.547  81.636  1.00  0.00     0.007 C 
ENDBRANCH   1   5
BRANCH   1   7
HETATM    7  C6  UNL     1      15.116  10.949  82.176  1.00  0.00     0.281 C 
HETATM    8  O1  UNL     1      15.467  12.124  82.029  1.00  0.00    -0.263 OA
BRANCH   7   9
HETATM    9  O2  UNL     1      14.636  10.559  83.412  1.00  0.00    -0.312 OA
BRANCH   9  10
HETATM   10  C7  UNL     1      13.275  10.617  83.802  1.00  0.00     0.165 C 
HETATM   11  C8  UNL     1      12.737   9.297  84.211  1.00  0.00     0.072 C 
HETATM   12  C9  UNL     1      12.527   9.093  85.666  1.00  0.00     0.056 C 
HETATM   13  C10 UNL     1      13.753   8.389  86.242  1.00  0.00     0.045 C 
HETATM   14  C11 UNL     1      11.356   8.133  85.924  1.00  0.00     0.045 C 
HETATM   15  O3  UNL     1      12.293  10.216  86.404  1.00  0.00    -0.378 OA
HETATM   16  C12 UNL     1      13.169  11.252  86.226  1.00  0.00     0.203 C 
HETATM   17  C13 UNL     1      13.041  11.726  84.798  1.00  0.00     0.171 C 
BRANCH  17  18
HETATM   18  O4  UNL     1      13.947  12.771  84.610  1.00  0.00    -0.391 OA
ATOM     19  H4  UNL     1      13.524  13.524  84.216  1.00  0.00     0.210 HD
ENDBRANCH  17  18
ENDBRANCH   9  10
ENDBRANCH   7   9
ENDBRANCH   1   7
TORSDOF 5
ENDMDL
MODEL 2
REMARK VINA RESULT: -7.086100372      1.185      1.797
REMARK  5 active torsions:
REMARK  status: ('A' for Active; 'I' for Inactive)
REMARK    1  A    between atoms: C2_2  and  C3_3 
REMARK    2  A    between atoms: C3_3  and  C6_7 
REMARK    3  A    between atoms: C6_7  and  O2_9 
REMARK    4  A    between atoms: O2_9  and  C7_10 
REMARK    5  A    between atoms: C13_17  and  O4_18 
ROOT
HETATM    1  C3  UNL     1      15.168  10.234  81.040  1.00  0.00     0.132 C 
HETATM    2  C4  UNL     1      16.187   9.097  81.180  1.00  0.00     0.042 C 
HETATM    3  C5  UNL     1      13.879   9.584  80.788  1.00  0.00     0.079 C 
HETATM    4  N1  UNL     1      12.856   9.049  80.581  1.00  0.00    -0.196 NA
ENDROOT
BRANCH   1   5
HETATM    5  C2  UNL     1      15.497  11.042  79.811  1.00  0.00     0.030 C 
HETATM    6  C1  UNL     1      15.663  10.237  78.570  1.00  0.00     0.007 C 
ENDBRANCH   1   5
BRANCH   1   7
HETATM    7  C6  UNL     1      15.075  11.033  82.259  1.00  0.00     0.281 C 
HETATM    8  O1  UNL     1      15.435  12.215  82.272  1.00  0.00    -0.263 OA
BRANCH   7   9
HETATM    9  O2  UNL     1      14.581  10.487  83.428  1.00  0.00    -0.312 OA
BRANCH   9  10
HETATM   10  C7  UNL     1      13.246  10.629  83.881  1.00  0.00     0.165 C 
HETATM   11  C8  UNL     1      12.606   9.330  84.205  1.00  0.00     0.072 C 
HETATM   12  C9  UNL     1      12.433   9.024  85.647  1.00  0.00     0.056 C 
HETATM   13  C10 UNL     1      13.611   8.171  86.110  1.00  0.00     0.045 C 
HETATM   14  C11 UNL     1      11.191   8.150  85.879  1.00  0.00     0.045 C 
HETATM   15  O3  UNL     1      12.327  10.097  86.482  1.00  0.00    -0.378 OA
HETATM   16  C12 UNL     1      13.286  11.064  86.350  1.00  0.00     0.203 C 
HETATM   17  C13 UNL     1      13.149  11.667  84.973  1.00  0.00     0.171 C 
BRANCH  17  18
HETATM   18  O4  UNL     1      14.138  12.641  84.829  1.00  0.00    -0.391 OA
ATOM     19  H4  UNL     1      14.206  13.177  85.611  1.00  0.00     0.210 HD
ENDBRANCH  17  18
ENDBRANCH   9  10
ENDBRANCH   7   9
ENDBRANCH   1   7
TORSDOF 5
ENDMDL
MODEL 3
REMARK VINA RESULT: -7.054983027      1.241      1.680
REMARK  5 active torsions:
REMARK  status: ('A' for Active; 'I' for Inactive)
REMARK    1  A    between atoms: C2_2  and  C3_3 
REMARK    2  A    between atoms: C3_3  and  C6_7 
REMARK    3  A    between atoms: C6_7  and  O2_9 
REMARK    4  A    between atoms: O2_9  and  C7_10 
REMARK    5  A    between atoms: C13_17  and  O4_18 
ROOT
HETATM    1  C3  UNL     1      14.931   9.641  81.073  1.00  0.00     0.132 C 
HETATM    2  C4  UNL     1      15.850   9.951  79.886  1.00  0.00     0.042 C 
HETATM    3  C5  UNL     1      15.418   8.378  81.634  1.00  0.00     0.079 C 
HETATM    4  N1  UNL     1      15.814   7.362  82.066  1.00  0.00    -0.196 NA
ENDROOT
BRANCH   1   5
HETATM    5  C2  UNL     1      13.536   9.385  80.564  1.00  0.00     0.030 C 
HETATM    6  C1  UNL     1      13.443   8.315  79.534  1.00  0.00     0.007 C 
ENDBRANCH   1   5
BRANCH   1   7
HETATM    7  C6  UNL     1      14.999  10.680  82.098  1.00  0.00     0.281 C 
HETATM    8  O1  UNL     1      15.446  11.801  81.837  1.00  0.00    -0.263 OA
BRANCH   7   9
HETATM    9  O2  UNL     1      14.562  10.435  83.386  1.00  0.00    -0.312 OA
BRANCH   9  10
HETATM   10  C7  UNL     1      13.214  10.536  83.811  1.00  0.00     0.165 C 
HETATM   11  C8  UNL     1      12.660   9.244  84.285  1.00  0.00     0.072 C 
HETATM   12  C9  UNL     1      12.488   9.100  85.752  1.00  0.00     0.056 C 
HETATM   13  C10 UNL     1      13.715   8.392  86.320  1.00  0.00     0.045 C 
HETATM   14  C11 UNL     1      11.306   8.176  86.080  1.00  0.00     0.045 C 
HETATM   15  O3  UNL     1      12.299  10.255  86.453  1.00  0.00    -0.378 OA
HETATM   16  C12 UNL     1      13.190  11.264  86.211  1.00  0.00     0.203 C 
HETATM   17  C13 UNL     1      13.031  11.687  84.771  1.00  0.00     0.171 C 
BRANCH  17  18
HETATM   18  O4  UNL     1      13.953  12.704  84.517  1.00  0.00    -0.391 OA
ATOM     19  H4  UNL     1      14.187  13.160  85.317  1.00  0.00     0.210 HD
ENDBRANCH  17  18
ENDBRANCH   9  10
ENDBRANCH   7   9
ENDBRANCH   1   7
TORSDOF 5
ENDMDL
MODEL 4
REMARK VINA RESULT: -6.717916094      1.303      1.569
REMARK  5 active torsions:
REMARK  status: ('A' for Active; 'I' for Inactive)
REMARK    1  A    between atoms: C2_2  and  C3_3 
REMARK    2  A    between atoms: C3_3  and  C6_7 
REMARK    3  A    between atoms: C6_7  and  O2_9 
REMARK    4  A    between atoms: O2_9  and  C7_10 
REMARK    5  A    between atoms: C13_17  and  O4_18 
ROOT
HETATM    1  C3  UNL     1      14.711   9.012  81.121  1.00  0.00     0.132 C 
HETATM    2  C4  UNL     1      14.226   8.957  79.668  1.00  0.00     0.042 C 
HETATM    3  C5  UNL     1      15.743  10.052  81.158  1.00  0.00     0.079 C 
HETATM    4  N1  UNL     1      16.572  10.882  81.169  1.00  0.00    -0.196 NA
ENDROOT
BRANCH   1   5
HETATM    5  C2  UNL     1      15.390   7.711  81.465  1.00  0.00     0.030 C 
HETATM    6  C1  UNL     1      14.458   6.575  81.705  1.00  0.00     0.007 C 
ENDBRANCH   1   5
BRANCH   1   7
HETATM    7  C6  UNL     1      13.633   9.370  82.040  1.00  0.00     0.281 C 
HETATM    8  O1  UNL     1      12.454   9.346  81.675  1.00  0.00    -0.263 OA
BRANCH   7   9
HETATM    9  O2  UNL     1      13.908   9.745  83.342  1.00  0.00    -0.312 OA
BRANCH   9  10
HETATM   10  C7  UNL     1      12.925  10.053  84.314  1.00  0.00     0.165 C 
HETATM   11  C8  UNL     1      12.592   8.899  85.185  1.00  0.00     0.072 C 
HETATM   12  C9  UNL     1      13.122   8.945  86.570  1.00  0.00     0.056 C 
HETATM   13  C10 UNL     1      14.433   8.165  86.617  1.00  0.00     0.045 C 
HETATM   14  C11 UNL     1      12.186   8.212  87.542  1.00  0.00     0.045 C 
HETATM   15  O3  UNL     1      13.344  10.186  87.090  1.00  0.00    -0.378 OA
HETATM   16  C12 UNL     1      14.069  11.048  86.313  1.00  0.00     0.203 C 
HETATM   17  C13 UNL     1      13.274  11.320  85.058  1.00  0.00     0.171 C 
BRANCH  17  18
HETATM   18  O4  UNL     1      14.021  12.184  84.256  1.00  0.00    -0.391 OA
ATOM     19  H4  UNL     1      14.354  12.917  84.761  1.00  0.00     0.210 HD
ENDBRANCH  17  18
ENDBRANCH   9  10
ENDBRANCH   7   9
ENDBRANCH   1   7
TORSDOF 5
ENDMDL
MODEL 5
REMARK VINA RESULT: -6.453629264      1.596      1.960
REMARK  5 active torsions:
REMARK  status: ('A' for Active; 'I' for Inactive)
REMARK    1  A    between atoms: C2_2  and  C3_3 
REMARK    2  A    between atoms: C3_3  and  C6_7 
REMARK    3  A    between atoms: C6_7  and  O2_9 
REMARK    4  A    between atoms: O2_9  and  C7_10 
REMARK    5  A    between atoms: C13_17  and  O4_18 
ROOT
HETATM    1  C3  UNL     1      14.515   8.892  81.365  1.00  0.00     0.132 C 
HETATM    2  C4  UNL     1      13.970   8.893  79.932  1.00  0.00     0.042 C 
HETATM    3  C5  UNL     1      15.698   9.755  81.341  1.00  0.00     0.079 C 
HETATM    4  N1  UNL     1      16.648  10.443  81.304  1.00  0.00    -0.196 NA
ENDROOT
BRANCH   1   5
HETATM    5  C2  UNL     1      14.992   7.505  81.711  1.00  0.00     0.030 C 
HETATM    6  C1  UNL     1      14.053   6.416  81.327  1.00  0.00     0.007 C 
ENDBRANCH   1   5
BRANCH   1   7
HETATM    7  C6  UNL     1      13.545   9.431  82.315  1.00  0.00     0.281 C 
HETATM    8  O1  UNL     1      12.389   9.689  81.965  1.00  0.00    -0.263 OA
BRANCH   7   9
HETATM    9  O2  UNL     1      13.896   9.664  83.631  1.00  0.00    -0.312 OA
BRANCH   9  10
HETATM   10  C7  UNL     1      13.019   9.527  84.735  1.00  0.00     0.165 C 
HETATM   11  C8  UNL     1      12.727   8.111  85.067  1.00  0.00     0.072 C 
HETATM   12  C9  UNL     1      13.384   7.571  86.284  1.00  0.00     0.056 C 
HETATM   13  C10 UNL     1      14.665   6.853  85.868  1.00  0.00     0.045 C 
HETATM   14  C11 UNL     1      12.516   6.490  86.944  1.00  0.00     0.045 C 
HETATM   15  O3  UNL     1      13.697   8.478  87.252  1.00  0.00    -0.378 OA
HETATM   16  C12 UNL     1      14.377   9.593  86.843  1.00  0.00     0.203 C 
HETATM   17  C13 UNL     1      13.480  10.364  85.904  1.00  0.00     0.171 C 
BRANCH  17  18
HETATM   18  O4  UNL     1      14.180  11.491  85.470  1.00  0.00    -0.391 OA
ATOM     19  H4  UNL     1      14.848  11.256  84.836  1.00  0.00     0.210 HD
ENDBRANCH  17  18
ENDBRANCH   9  10
ENDBRANCH   7   9
ENDBRANCH   1   7
TORSDOF 5
ENDMDL
