MODEL 1
REMARK VINA RESULT: -7.821319775      0.000      0.000
REMARK  3 active torsions:
REMARK  status: ('A' for Active; 'I' for Inactive)
REMARK    1  A    between atoms: C2_2  and  C3_3 
REMARK    2  A    between atoms: C3_3  and  N1_4 
REMARK    3  A    between atoms: N1_4  and  C4_7 
ROOT
HETATM    1  C4  UNL     1      13.503   8.779  83.562  1.00  0.00     0.218 C 
HETATM    2  C5  UNL     1      13.838   8.012  84.793  1.00  0.00     0.040 C 
HETATM    3  C6  UNL     1      13.327   8.584  86.070  1.00  0.00    -0.010 C 
HETATM    4  C7  UNL     1      11.916   9.071  86.031  1.00  0.00     0.012 C 
HETATM    5  C8  UNL     1      12.050  10.521  85.654  1.00  0.00     0.020 C 
HETATM    6  C9  UNL     1      12.141  10.715  84.168  1.00  0.00     0.044 C 
HETATM    7  C10 UNL     1      13.505  10.268  83.721  1.00  0.00     0.191 C 
HETATM    8  O1  UNL     1      14.536  10.752  84.502  1.00  0.00    -0.233 OA
HETATM    9  O2  UNL     1      14.050  11.679  85.304  1.00  0.00    -0.235 OA
HETATM   10  C11 UNL     1      13.333  10.986  86.293  1.00  0.00     0.165 C 
HETATM   11  C12 UNL     1      14.139   9.731  86.602  1.00  0.00     0.040 C 
ENDROOT
BRANCH   1  12
HETATM   12  N1  UNL     1      14.462   8.464  82.502  1.00  0.00    -0.065 N 
ATOM     13  H12 UNL     1      14.521   7.465  82.306  1.00  0.00     0.277 HD
ATOM     14  H11 UNL     1      15.431   8.602  82.791  1.00  0.00     0.277 HD
BRANCH  12  15
HETATM   15  C3  UNL     1      14.109   9.242  81.341  1.00  0.00     0.275 C 
BRANCH  15  16
HETATM   16  C2  UNL     1      15.297   9.808  80.618  1.00  0.00     0.140 C 
HETATM   17  C1  UNL     1      15.259   9.789  79.124  1.00  0.00     0.053 C 
HETATM   18  C13 UNL     1      15.598  11.218  81.132  1.00  0.00     0.252 C 
HETATM   19  O3  UNL     1      16.728  10.751  81.781  1.00  0.00    -0.237 OA
HETATM   20  O4  UNL     1      16.532   9.582  81.199  1.00  0.00    -0.226 OA
ENDBRANCH  15  16
ENDBRANCH  12  15
ENDBRANCH   1  12
TORSDOF 3
ENDMDL
MODEL 2
REMARK VINA RESULT: -7.748463872      3.135      4.317
REMARK  3 active torsions:
REMARK  status: ('A' for Active; 'I' for Inactive)
REMARK    1  A    between atoms: C2_2  and  C3_3 
REMARK    2  A    between atoms: C3_3  and  N1_4 
REMARK    3  A    between atoms: N1_4  and  C4_7 
ROOT
HETATM    1  C4  UNL     1      13.598   8.714  81.322  1.00  0.00     0.218 C 
HETATM    2  C5  UNL     1      13.180   7.876  80.165  1.00  0.00     0.040 C 
HETATM    3  C6  UNL     1      12.792   6.474  80.489  1.00  0.00    -0.010 C 
HETATM    4  C7  UNL     1      11.922   6.316  81.692  1.00  0.00     0.012 C 
HETATM    5  C8  UNL     1      12.902   6.105  82.814  1.00  0.00     0.020 C 
HETATM    6  C9  UNL     1      13.412   7.401  83.374  1.00  0.00     0.044 C 
HETATM    7  C10 UNL     1      14.373   7.992  82.382  1.00  0.00     0.191 C 
HETATM    8  O1  UNL     1      15.297   7.090  81.891  1.00  0.00    -0.233 OA
HETATM    9  O2  UNL     1      15.228   5.990  82.614  1.00  0.00    -0.235 OA
HETATM   10  C11 UNL     1      14.051   5.342  82.206  1.00  0.00     0.165 C 
HETATM   11  C12 UNL     1      13.953   5.545  80.700  1.00  0.00     0.040 C 
ENDROOT
BRANCH   1  12
HETATM   12  N1  UNL     1      14.441   9.818  80.859  1.00  0.00    -0.065 N 
ATOM     13  H12 UNL     1      15.304   9.908  81.394  1.00  0.00     0.277 HD
ATOM     14  H11 UNL     1      14.049  10.734  81.079  1.00  0.00     0.277 HD
BRANCH  12  15
HETATM   15  C3  UNL     1      14.674   9.634  79.448  1.00  0.00     0.275 C 
BRANCH  15  16
HETATM   16  C2  UNL     1      15.726  10.550  78.892  1.00  0.00     0.140 C 
HETATM   17  C1  UNL     1      16.381  10.139  77.613  1.00  0.00     0.053 C 
HETATM   18  C13 UNL     1      15.175  11.973  78.783  1.00  0.00     0.252 C 
HETATM   19  O3  UNL     1      15.967  12.372  79.846  1.00  0.00    -0.237 OA
HETATM   20  O4  UNL     1      16.538  11.182  79.817  1.00  0.00    -0.226 OA
ENDBRANCH  15  16
ENDBRANCH  12  15
ENDBRANCH   1  12
TORSDOF 3
ENDMDL
MODEL 3
REMARK VINA RESULT: -7.680611249      3.673      4.492
REMARK  3 active torsions:
REMARK  status: ('A' for Active; 'I' for Inactive)
REMARK    1  A    between atoms: C2_2  and  C3_3 
REMARK    2  A    between atoms: C3_3  and  N1_4 
REMARK    3  A    between atoms: N1_4  and  C4_7 
ROOT
HETATM    1  C4  UNL     1      14.691   7.815  80.938  1.00  0.00     0.218 C 
HETATM    2  C5  UNL     1      15.064   7.322  82.293  1.00  0.00     0.040 C 
HETATM    3  C6  UNL     1      14.454   6.026  82.699  1.00  0.00    -0.010 C 
HETATM    4  C7  UNL     1      14.458   4.963  81.651  1.00  0.00     0.012 C 
HETATM    5  C8  UNL     1      13.140   5.148  80.952  1.00  0.00     0.020 C 
HETATM    6  C9  UNL     1      13.211   6.190  79.872  1.00  0.00     0.044 C 
HETATM    7  C10 UNL     1      13.277   7.539  80.529  1.00  0.00     0.191 C 
HETATM    8  O1  UNL     1      12.352   7.715  81.540  1.00  0.00    -0.233 OA
HETATM    9  O2  UNL     1      11.494   6.716  81.497  1.00  0.00    -0.235 OA
HETATM   10  C11 UNL     1      12.179   5.606  82.019  1.00  0.00     0.165 C 
HETATM   11  C12 UNL     1      13.030   6.133  83.167  1.00  0.00     0.040 C 
ENDROOT
BRANCH   1  12
HETATM   12  N1  UNL     1      14.879   9.265  80.866  1.00  0.00    -0.065 N 
ATOM     13  H12 UNL     1      15.793   9.563  81.208  1.00  0.00     0.277 HD
ATOM     14  H11 UNL     1      14.309   9.772  81.544  1.00  0.00     0.277 HD
BRANCH  12  15
HETATM   15  C3  UNL     1      14.628   9.676  79.507  1.00  0.00     0.275 C 
BRANCH  15  16
HETATM   16  C2  UNL     1      15.706  10.552  78.940  1.00  0.00     0.140 C 
HETATM   17  C1  UNL     1      16.333  10.117  77.654  1.00  0.00     0.053 C 
HETATM   18  C13 UNL     1      15.207  11.995  78.836  1.00  0.00     0.252 C 
HETATM   19  O3  UNL     1      16.026  12.365  79.889  1.00  0.00    -0.237 OA
HETATM   20  O4  UNL     1      16.551  11.154  79.855  1.00  0.00    -0.226 OA
ENDBRANCH  15  16
ENDBRANCH  12  15
ENDBRANCH   1  12
TORSDOF 3
ENDMDL
MODEL 4
REMARK VINA RESULT: -7.336500147      2.831      4.227
REMARK  3 active torsions:
REMARK  status: ('A' for Active; 'I' for Inactive)
REMARK    1  A    between atoms: C2_2  and  C3_3 
REMARK    2  A    between atoms: C3_3  and  N1_4 
REMARK    3  A    between atoms: N1_4  and  C4_7 
ROOT
HETATM    1  C4  UNL     1      13.223   8.159  82.065  1.00  0.00     0.218 C 
HETATM    2  C5  UNL     1      12.888   7.445  80.803  1.00  0.00     0.040 C 
HETATM    3  C6  UNL     1      12.782   5.963  80.908  1.00  0.00    -0.010 C 
HETATM    4  C7  UNL     1      12.035   5.461  82.100  1.00  0.00     0.012 C 
HETATM    5  C8  UNL     1      13.108   5.269  83.137  1.00  0.00     0.020 C 
HETATM    6  C9  UNL     1      13.411   6.537  83.882  1.00  0.00     0.044 C 
HETATM    7  C10 UNL     1      14.183   7.444  82.965  1.00  0.00     0.191 C 
HETATM    8  O1  UNL     1      15.220   6.817  82.302  1.00  0.00    -0.233 OA
HETATM    9  O2  UNL     1      15.398   5.627  82.839  1.00  0.00    -0.235 OA
HETATM   10  C11 UNL     1      14.334   4.839  82.373  1.00  0.00     0.165 C 
HETATM   11  C12 UNL     1      14.103   5.248  80.924  1.00  0.00     0.040 C 
ENDROOT
BRANCH   1  12
HETATM   12  N1  UNL     1      13.820   9.460  81.757  1.00  0.00    -0.065 N 
ATOM     13  H12 UNL     1      14.556   9.723  82.413  1.00  0.00     0.277 HD
ATOM     14  H11 UNL     1      13.189  10.240  81.943  1.00  0.00     0.277 HD
BRANCH  12  15
HETATM   15  C3  UNL     1      14.277   9.425  80.390  1.00  0.00     0.275 C 
BRANCH  15  16
HETATM   16  C2  UNL     1      15.613  10.080  80.189  1.00  0.00     0.140 C 
HETATM   17  C1  UNL     1      16.031  10.359  78.782  1.00  0.00     0.053 C 
HETATM   18  C13 UNL     1      15.706  11.348  81.042  1.00  0.00     0.252 C 
HETATM   19  O3  UNL     1      16.598  10.720  81.895  1.00  0.00    -0.237 OA
HETATM   20  O4  UNL     1      16.618   9.698  81.059  1.00  0.00    -0.226 OA
ENDBRANCH  15  16
ENDBRANCH  12  15
ENDBRANCH   1  12
TORSDOF 3
ENDMDL
MODEL 5
REMARK VINA RESULT: -7.192824229      3.182      4.401
REMARK  3 active torsions:
REMARK  status: ('A' for Active; 'I' for Inactive)
REMARK    1  A    between atoms: C2_2  and  C3_3 
REMARK    2  A    between atoms: C3_3  and  N1_4 
REMARK    3  A    between atoms: N1_4  and  C4_7 
ROOT
HETATM    1  C4  UNL     1      14.098   7.765  81.461  1.00  0.00     0.218 C 
HETATM    2  C5  UNL     1      14.579   7.383  82.816  1.00  0.00     0.040 C 
HETATM    3  C6  UNL     1      14.378   5.956  83.194  1.00  0.00    -0.010 C 
HETATM    4  C7  UNL     1      14.718   4.962  82.133  1.00  0.00     0.012 C 
HETATM    5  C8  UNL     1      13.417   4.756  81.408  1.00  0.00     0.020 C 
HETATM    6  C9  UNL     1      13.190   5.790  80.343  1.00  0.00     0.044 C 
HETATM    7  C10 UNL     1      12.838   7.086  81.018  1.00  0.00     0.191 C 
HETATM    8  O1  UNL     1      11.886   6.959  82.011  1.00  0.00    -0.233 OA
HETATM    9  O2  UNL     1      11.368   5.749  81.938  1.00  0.00    -0.235 OA
HETATM   10  C11 UNL     1      12.345   4.887  82.460  1.00  0.00     0.165 C 
HETATM   11  C12 UNL     1      12.980   5.623  83.632  1.00  0.00     0.040 C 
ENDROOT
BRANCH   1  12
HETATM   12  N1  UNL     1      13.843   9.206  81.410  1.00  0.00    -0.065 N 
ATOM     13  H12 UNL     1      14.310   9.716  82.160  1.00  0.00     0.277 HD
ATOM     14  H11 UNL     1      12.884   9.447  81.659  1.00  0.00     0.277 HD
BRANCH  12  15
HETATM   15  C3  UNL     1      14.215   9.675  80.098  1.00  0.00     0.275 C 
BRANCH  15  16
HETATM   16  C2  UNL     1      15.372  10.631  80.111  1.00  0.00     0.140 C 
HETATM   17  C1  UNL     1      15.375  11.712  79.079  1.00  0.00     0.053 C 
HETATM   18  C13 UNL     1      15.545  11.223  81.512  1.00  0.00     0.252 C 
HETATM   19  O3  UNL     1      16.691  10.470  81.699  1.00  0.00    -0.237 OA
HETATM   20  O4  UNL     1      16.605  10.096  80.436  1.00  0.00    -0.226 OA
ENDBRANCH  15  16
ENDBRANCH  12  15
ENDBRANCH   1  12
TORSDOF 3
ENDMDL
