MODEL 1
REMARK VINA RESULT: -8.571207872      0.000      0.000
REMARK  4 active torsions:
REMARK  status: ('A' for Active; 'I' for Inactive)
REMARK    1  A    between atoms: N1_9  and  C9_10 
REMARK    2  A    between atoms: C9_10  and  C10_11 
REMARK    3  A    between atoms: C10_11  and  C11_12 
REMARK    4  A    between atoms: C11_12  and  C12_13 
ROOT
HETATM    1  C10 UNL     1      79.083  34.280  -9.580  1.00  0.00     0.031 C 
ENDROOT
BRANCH   1   2
HETATM    2  C9  UNL     1      79.559  35.170 -10.648  1.00  0.00     0.273 C 
BRANCH   2   3
HETATM    3  N1  UNL     1      79.118  36.517 -10.739  1.00  0.00     0.097 N 
HETATM    4  C7  UNL     1      79.058  37.066 -12.037  1.00  0.00     0.220 C 
HETATM    5  C6  UNL     1      77.568  37.299 -12.382  1.00  0.00     0.042 C 
HETATM    6  C8  UNL     1      79.777  38.411 -12.103  1.00  0.00     0.043 C 
HETATM    7  C5  UNL     1      76.900  36.436 -11.349  1.00  0.00     0.021 C 
HETATM    8  C4  UNL     1      75.470  36.844 -11.093  1.00  0.00     0.007 C 
HETATM    9  C23 UNL     1      77.782  36.664 -10.145  1.00  0.00     0.228 C 
HETATM   10  C3  UNL     1      75.267  37.234  -9.648  1.00  0.00     0.005 C 
HETATM   11  C2  UNL     1      76.178  38.420  -9.372  1.00  0.00    -0.017 C 
HETATM   12  C1  UNL     1      75.864  38.946  -8.010  1.00  0.00     0.010 C 
HETATM   13  C24 UNL     1      77.633  38.016  -9.536  1.00  0.00     0.040 C 
ENDBRANCH   2   3
ENDBRANCH   1   2
BRANCH   1  14
HETATM   14  C11 UNL     1      79.451  32.859  -9.567  1.00  0.00     0.011 C 
BRANCH  14  15
HETATM   15  C12 UNL     1      78.233  31.911  -9.601  1.00  0.00    -0.039 C 
HETATM   16  C13 UNL     1      77.384  32.510 -10.722  1.00  0.00     0.014 C 
HETATM   17  C14 UNL     1      75.959  32.061 -10.668  1.00  0.00    -0.013 C 
HETATM   18  C15 UNL     1      75.386  32.568  -9.364  1.00  0.00     0.009 C 
HETATM   19  C19 UNL     1      75.873  30.588 -10.835  1.00  0.00     0.010 C 
HETATM   20  C16 UNL     1      76.101  31.817  -8.262  1.00  0.00    -0.013 C 
HETATM   21  C17 UNL     1      75.648  30.383  -8.342  1.00  0.00     0.010 C 
HETATM   22  C22 UNL     1      77.582  31.987  -8.274  1.00  0.00     0.014 C 
HETATM   23  C18 UNL     1      76.223  29.782  -9.632  1.00  0.00     0.001 C 
HETATM   24  C20 UNL     1      77.676  29.468  -9.489  1.00  0.00     0.063 C 
HETATM   25  S1  UNL     1      78.020  27.948 -10.422  1.00  0.00    -0.092 SA
HETATM   26  C21 UNL     1      78.581  30.538 -10.036  1.00  0.00     0.026 C 
ENDBRANCH  14  15
ENDBRANCH   1  14
TORSDOF 4
ENDMDL
MODEL 2
REMARK VINA RESULT: -8.055374069      1.723      2.372
REMARK  4 active torsions:
REMARK  status: ('A' for Active; 'I' for Inactive)
REMARK    1  A    between atoms: N1_9  and  C9_10 
REMARK    2  A    between atoms: C9_10  and  C10_11 
REMARK    3  A    between atoms: C10_11  and  C11_12 
REMARK    4  A    between atoms: C11_12  and  C12_13 
ROOT
HETATM    1  C10 UNL     1      76.884  33.384  -9.982  1.00  0.00     0.031 C 
ENDROOT
BRANCH   1   2
HETATM    2  C9  UNL     1      78.123  34.017 -10.452  1.00  0.00     0.273 C 
BRANCH   2   3
HETATM    3  N1  UNL     1      78.224  35.426 -10.596  1.00  0.00     0.097 N 
HETATM    4  C7  UNL     1      78.238  35.918 -11.918  1.00  0.00     0.220 C 
HETATM    5  C6  UNL     1      76.922  36.699 -12.145  1.00  0.00     0.042 C 
HETATM    6  C8  UNL     1      79.405  36.876 -12.142  1.00  0.00     0.043 C 
HETATM    7  C5  UNL     1      76.092  36.194 -10.998  1.00  0.00     0.021 C 
HETATM    8  C4  UNL     1      74.964  37.131 -10.644  1.00  0.00     0.007 C 
HETATM    9  C23 UNL     1      77.120  36.097  -9.897  1.00  0.00     0.228 C 
HETATM   10  C3  UNL     1      75.084  37.611  -9.217  1.00  0.00     0.005 C 
HETATM   11  C2  UNL     1      76.404  38.359  -9.106  1.00  0.00    -0.017 C 
HETATM   12  C1  UNL     1      76.466  39.005  -7.762  1.00  0.00     0.010 C 
HETATM   13  C24 UNL     1      77.566  37.419  -9.372  1.00  0.00     0.040 C 
ENDBRANCH   2   3
ENDBRANCH   1   2
BRANCH   1  14
HETATM   14  C11 UNL     1      76.919  32.345  -8.945  1.00  0.00     0.011 C 
BRANCH  14  15
HETATM   15  C12 UNL     1      75.597  31.555  -8.825  1.00  0.00    -0.039 C 
HETATM   16  C13 UNL     1      74.545  32.655  -8.967  1.00  0.00     0.014 C 
HETATM   17  C14 UNL     1      73.206  32.240  -8.450  1.00  0.00    -0.013 C 
HETATM   18  C15 UNL     1      73.368  31.974  -6.970  1.00  0.00     0.009 C 
HETATM   19  C19 UNL     1      72.689  31.081  -9.220  1.00  0.00     0.010 C 
HETATM   20  C16 UNL     1      74.256  30.756  -6.849  1.00  0.00    -0.013 C 
HETATM   21  C17 UNL     1      73.462  29.581  -7.360  1.00  0.00     0.010 C 
HETATM   22  C22 UNL     1      75.591  30.911  -7.492  1.00  0.00     0.014 C 
HETATM   23  C18 UNL     1      73.285  29.760  -8.874  1.00  0.00     0.001 C 
HETATM   24  C20 UNL     1      74.537  29.424  -9.614  1.00  0.00     0.063 C 
HETATM   25  S1  UNL     1      74.071  28.634 -11.182  1.00  0.00    -0.092 SA
HETATM   26  C21 UNL     1      75.377  30.625  -9.957  1.00  0.00     0.026 C 
ENDBRANCH  14  15
ENDBRANCH   1  14
TORSDOF 4
ENDMDL
MODEL 3
REMARK VINA RESULT: -7.972003317      1.103      1.487
REMARK  4 active torsions:
REMARK  status: ('A' for Active; 'I' for Inactive)
REMARK    1  A    between atoms: N1_9  and  C9_10 
REMARK    2  A    between atoms: C9_10  and  C10_11 
REMARK    3  A    between atoms: C10_11  and  C11_12 
REMARK    4  A    between atoms: C11_12  and  C12_13 
ROOT
HETATM    1  C10 UNL     1      78.533  34.031 -10.120  1.00  0.00     0.031 C 
ENDROOT
BRANCH   1   2
HETATM    2  C9  UNL     1      79.494  35.111 -10.381  1.00  0.00     0.273 C 
BRANCH   2   3
HETATM    3  N1  UNL     1      79.069  36.459 -10.527  1.00  0.00     0.097 N 
HETATM    4  C7  UNL     1      79.072  36.973 -11.840  1.00  0.00     0.220 C 
HETATM    5  C6  UNL     1      77.601  37.207 -12.258  1.00  0.00     0.042 C 
HETATM    6  C8  UNL     1      79.805  38.310 -11.911  1.00  0.00     0.043 C 
HETATM    7  C5  UNL     1      76.880  36.378 -11.233  1.00  0.00     0.021 C 
HETATM    8  C4  UNL     1      75.444  36.802 -11.052  1.00  0.00     0.007 C 
HETATM    9  C23 UNL     1      77.710  36.632  -9.997  1.00  0.00     0.228 C 
HETATM   10  C3  UNL     1      75.180  37.233  -9.628  1.00  0.00     0.005 C 
HETATM   11  C2  UNL     1      76.088  38.420  -9.343  1.00  0.00    -0.017 C 
HETATM   12  C1  UNL     1      75.719  38.984  -8.012  1.00  0.00     0.010 C 
HETATM   13  C24 UNL     1      77.545  38.001  -9.432  1.00  0.00     0.040 C 
ENDBRANCH   2   3
ENDBRANCH   1   2
BRANCH   1  14
HETATM   14  C11 UNL     1      78.215  33.042 -11.158  1.00  0.00     0.011 C 
BRANCH  14  15
HETATM   15  C12 UNL     1      77.181  31.989 -10.704  1.00  0.00    -0.039 C 
HETATM   16  C13 UNL     1      76.071  32.856 -10.111  1.00  0.00     0.014 C 
HETATM   17  C14 UNL     1      75.161  32.087  -9.207  1.00  0.00    -0.013 C 
HETATM   18  C15 UNL     1      76.003  31.598  -8.049  1.00  0.00     0.009 C 
HETATM   19  C19 UNL     1      74.476  31.006  -9.958  1.00  0.00     0.010 C 
HETATM   20  C16 UNL     1      76.971  30.586  -8.622  1.00  0.00    -0.013 C 
HETATM   21  C17 UNL     1      76.160  29.386  -9.035  1.00  0.00     0.010 C 
HETATM   22  C22 UNL     1      77.847  31.127  -9.701  1.00  0.00     0.014 C 
HETATM   23  C18 UNL     1      75.299  29.795 -10.238  1.00  0.00     0.001 C 
HETATM   24  C20 UNL     1      76.108  29.864 -11.491  1.00  0.00     0.063 C 
HETATM   25  S1  UNL     1      75.068  29.291 -12.866  1.00  0.00    -0.092 SA
HETATM   26  C21 UNL     1      76.571  31.254 -11.836  1.00  0.00     0.026 C 
ENDBRANCH  14  15
ENDBRANCH   1  14
TORSDOF 4
ENDMDL
MODEL 4
REMARK VINA RESULT: -7.844436964      1.128      1.532
REMARK  4 active torsions:
REMARK  status: ('A' for Active; 'I' for Inactive)
REMARK    1  A    between atoms: N1_9  and  C9_10 
REMARK    2  A    between atoms: C9_10  and  C10_11 
REMARK    3  A    between atoms: C10_11  and  C11_12 
REMARK    4  A    between atoms: C11_12  and  C12_13 
ROOT
HETATM    1  C10 UNL     1      79.334  34.402  -9.723  1.00  0.00     0.031 C 
ENDROOT
BRANCH   1   2
HETATM    2  C9  UNL     1      79.548  35.215 -10.928  1.00  0.00     0.273 C 
BRANCH   2   3
HETATM    3  N1  UNL     1      79.086  36.556 -11.007  1.00  0.00     0.097 N 
HETATM    4  C7  UNL     1      78.876  37.066 -12.305  1.00  0.00     0.220 C 
HETATM    5  C6  UNL     1      77.354  37.277 -12.488  1.00  0.00     0.042 C 
HETATM    6  C8  UNL     1      79.568  38.414 -12.490  1.00  0.00     0.043 C 
HETATM    7  C5  UNL     1      76.815  36.441 -11.362  1.00  0.00     0.021 C 
HETATM    8  C4  UNL     1      75.419  36.845 -10.959  1.00  0.00     0.007 C 
HETATM    9  C23 UNL     1      77.823  36.710 -10.271  1.00  0.00     0.228 C 
HETATM   10  C3  UNL     1      75.373  37.276  -9.512  1.00  0.00     0.005 C 
HETATM   11  C2  UNL     1      76.297  38.476  -9.373  1.00  0.00    -0.017 C 
HETATM   12  C1  UNL     1      76.132  39.039  -8.001  1.00  0.00     0.010 C 
HETATM   13  C24 UNL     1      77.729  38.079  -9.688  1.00  0.00     0.040 C 
ENDBRANCH   2   3
ENDBRANCH   1   2
BRANCH   1  14
HETATM   14  C11 UNL     1      79.550  32.950  -9.749  1.00  0.00     0.011 C 
BRANCH  14  15
HETATM   15  C12 UNL     1      78.269  32.146 -10.058  1.00  0.00    -0.039 C 
HETATM   16  C13 UNL     1      77.179  33.010  -9.423  1.00  0.00     0.014 C 
HETATM   17  C14 UNL     1      75.910  32.256  -9.189  1.00  0.00    -0.013 C 
HETATM   18  C15 UNL     1      76.229  31.154  -8.203  1.00  0.00     0.009 C 
HETATM   19  C19 UNL     1      75.348  31.773 -10.475  1.00  0.00     0.010 C 
HETATM   20  C16 UNL     1      77.156  30.196  -8.917  1.00  0.00    -0.013 C 
HETATM   21  C17 UNL     1      76.345  29.519  -9.992  1.00  0.00     0.010 C 
HETATM   22  C22 UNL     1      78.415  30.823  -9.411  1.00  0.00     0.014 C 
HETATM   23  C18 UNL     1      76.011  30.572 -11.057  1.00  0.00     0.001 C 
HETATM   24  C20 UNL     1      77.190  30.865 -11.926  1.00  0.00     0.063 C 
HETATM   25  S1  UNL     1      76.588  31.165 -13.613  1.00  0.00    -0.092 SA
HETATM   26  C21 UNL     1      77.959  32.090 -11.506  1.00  0.00     0.026 C 
ENDBRANCH  14  15
ENDBRANCH   1  14
TORSDOF 4
ENDMDL
MODEL 5
REMARK VINA RESULT: -7.750235115      1.188      2.130
REMARK  4 active torsions:
REMARK  status: ('A' for Active; 'I' for Inactive)
REMARK    1  A    between atoms: N1_9  and  C9_10 
REMARK    2  A    between atoms: C9_10  and  C10_11 
REMARK    3  A    between atoms: C10_11  and  C11_12 
REMARK    4  A    between atoms: C11_12  and  C12_13 
ROOT
HETATM    1  C10 UNL     1      79.481  34.273  -9.946  1.00  0.00     0.031 C 
ENDROOT
BRANCH   1   2
HETATM    2  C9  UNL     1      79.505  35.085 -11.170  1.00  0.00     0.273 C 
BRANCH   2   3
HETATM    3  N1  UNL     1      79.132  36.455 -11.155  1.00  0.00     0.097 N 
HETATM    4  C7  UNL     1      78.954  37.066 -12.414  1.00  0.00     0.220 C 
HETATM    5  C6  UNL     1      77.450  37.389 -12.573  1.00  0.00     0.042 C 
HETATM    6  C8  UNL     1      79.734  38.374 -12.512  1.00  0.00     0.043 C 
HETATM    7  C5  UNL     1      76.858  36.515 -11.503  1.00  0.00     0.021 C 
HETATM    8  C4  UNL     1      75.492  36.982 -11.064  1.00  0.00     0.007 C 
HETATM    9  C23 UNL     1      77.884  36.643 -10.403  1.00  0.00     0.228 C 
HETATM   10  C3  UNL     1      75.479  37.316  -9.591  1.00  0.00     0.005 C 
HETATM   11  C2  UNL     1      76.480  38.441  -9.377  1.00  0.00    -0.017 C 
HETATM   12  C1  UNL     1      76.355  38.918  -7.969  1.00  0.00     0.010 C 
HETATM   13  C24 UNL     1      77.882  37.972  -9.728  1.00  0.00     0.040 C 
ENDBRANCH   2   3
ENDBRANCH   1   2
BRANCH   1  14
HETATM   14  C11 UNL     1      78.214  33.981  -9.264  1.00  0.00     0.011 C 
BRANCH  14  15
HETATM   15  C12 UNL     1      77.621  32.605  -9.638  1.00  0.00    -0.039 C 
HETATM   16  C13 UNL     1      78.818  31.672  -9.454  1.00  0.00     0.014 C 
HETATM   17  C14 UNL     1      78.647  30.369 -10.167  1.00  0.00    -0.013 C 
HETATM   18  C15 UNL     1      78.557  30.684 -11.643  1.00  0.00     0.009 C 
HETATM   19  C19 UNL     1      77.473  29.635  -9.632  1.00  0.00     0.010 C 
HETATM   20  C16 UNL     1      77.262  31.440 -11.842  1.00  0.00    -0.013 C 
HETATM   21  C17 UNL     1      76.142  30.463 -11.594  1.00  0.00     0.010 C 
HETATM   22  C22 UNL     1      77.162  32.694 -11.042  1.00  0.00     0.014 C 
HETATM   23  C18 UNL     1      76.143  30.120 -10.098  1.00  0.00     0.001 C 
HETATM   24  C20 UNL     1      75.557  31.225  -9.283  1.00  0.00     0.063 C 
HETATM   25  S1  UNL     1      74.636  30.483  -7.905  1.00  0.00    -0.092 SA
HETATM   26  C21 UNL     1      76.587  32.143  -8.682  1.00  0.00     0.026 C 
ENDBRANCH  14  15
ENDBRANCH   1  14
TORSDOF 4
ENDMDL
