MODEL 1
REMARK VINA RESULT: -7.728396425      0.000      0.000
REMARK  5 active torsions:
REMARK  status: ('A' for Active; 'I' for Inactive)
REMARK    1  A    between atoms: C4_4  and  C5_5 
REMARK    2  A    between atoms: C5_5  and  C6_6 
REMARK    3  A    between atoms: C6_6  and  C7_7 
REMARK    4  A    between atoms: C25_25  and  O1_26 
REMARK    5  A    between atoms: O1_26  and  O2_27 
ROOT
HETATM    1  C7  UNL     1      78.728  36.489 -12.244  1.00  0.00     0.009 C 
HETATM    2  C8  UNL     1      79.723  37.572 -12.630  1.00  0.00     0.023 C 
HETATM    3  C9  UNL     1      79.002  36.193 -10.833  1.00  0.00    -0.076 C 
HETATM    4  C10 UNL     1      79.293  37.365  -9.924  1.00  0.00     0.044 C 
HETATM    5  C11 UNL     1      79.025  35.006 -10.253  1.00  0.00    -0.013 C 
HETATM    6  C12 UNL     1      78.752  33.802 -11.065  1.00  0.00    -0.008 C 
HETATM    7  C13 UNL     1      77.304  33.532 -11.105  1.00  0.00     0.015 C 
HETATM    8  C14 UNL     1      76.755  32.387 -10.374  1.00  0.00     0.010 C 
HETATM    9  C15 UNL     1      77.657  31.700  -9.396  1.00  0.00    -0.047 C 
HETATM   10  C16 UNL     1      77.748  32.369  -8.072  1.00  0.00     0.015 C 
HETATM   11  C17 UNL     1      77.046  30.307  -9.167  1.00  0.00     0.015 C 
HETATM   12  C18 UNL     1      78.973  31.470 -10.074  1.00  0.00     0.015 C 
HETATM   13  C19 UNL     1      79.617  32.628 -10.671  1.00  0.00     0.007 C 
HETATM   14  C20 UNL     1      80.333  32.390 -11.981  1.00  0.00    -0.038 C 
HETATM   15  C21 UNL     1      81.207  31.274 -12.172  1.00  0.00     0.015 C 
HETATM   16  C22 UNL     1      79.295  32.737 -13.062  1.00  0.00     0.023 C 
HETATM   17  C23 UNL     1      79.346  34.078 -12.424  1.00  0.00     0.003 C 
HETATM   18  C24 UNL     1      80.852  33.813 -12.259  1.00  0.00     0.023 C 
HETATM   19  C25 UNL     1      78.942  35.267 -13.141  1.00  0.00     0.182 C 
ENDROOT
BRANCH   1  20
HETATM   20  C6  UNL     1      77.367  37.002 -12.531  1.00  0.00     0.020 C 
BRANCH  20  21
HETATM   21  C5  UNL     1      76.300  36.740 -11.521  1.00  0.00     0.028 C 
BRANCH  21  22
HETATM   22  C4  UNL     1      76.347  37.870 -10.558  1.00  0.00    -0.025 C 
HETATM   23  C2  UNL     1      75.538  37.870  -9.516  1.00  0.00    -0.091 C 
HETATM   24  C1  UNL     1      74.598  36.755  -9.314  1.00  0.00     0.042 C 
HETATM   25  C3  UNL     1      75.526  38.969  -8.505  1.00  0.00     0.042 C 
ENDBRANCH  21  22
ENDBRANCH  20  21
ENDBRANCH   1  20
BRANCH  19  26
HETATM   26  O1  UNL     1      77.812  34.985 -13.911  1.00  0.00    -0.236 OA
BRANCH  26  27
HETATM   27  O2  UNL     1      77.991  35.127 -15.180  1.00  0.00    -0.250 OA
ATOM     28  H2  UNL     1      77.226  35.443 -15.646  1.00  0.00     0.253 HD
ENDBRANCH  26  27
ENDBRANCH  19  26
TORSDOF 5
ENDMDL
MODEL 2
REMARK VINA RESULT: -7.397615918      1.751      5.154
REMARK  5 active torsions:
REMARK  status: ('A' for Active; 'I' for Inactive)
REMARK    1  A    between atoms: C4_4  and  C5_5 
REMARK    2  A    between atoms: C5_5  and  C6_6 
REMARK    3  A    between atoms: C6_6  and  C7_7 
REMARK    4  A    between atoms: C25_25  and  O1_26 
REMARK    5  A    between atoms: O1_26  and  O2_27 
ROOT
HETATM    1  C7  UNL     1      79.461  32.529 -12.994  1.00  0.00     0.009 C 
HETATM    2  C8  UNL     1      79.655  31.796 -14.312  1.00  0.00     0.023 C 
HETATM    3  C9  UNL     1      78.064  32.976 -12.998  1.00  0.00    -0.076 C 
HETATM    4  C10 UNL     1      77.030  32.008 -13.529  1.00  0.00     0.044 C 
HETATM    5  C11 UNL     1      77.593  34.139 -12.587  1.00  0.00    -0.013 C 
HETATM    6  C12 UNL     1      78.532  35.147 -12.053  1.00  0.00    -0.008 C 
HETATM    7  C13 UNL     1      78.729  34.944 -10.606  1.00  0.00     0.015 C 
HETATM    8  C14 UNL     1      78.158  35.896  -9.650  1.00  0.00     0.010 C 
HETATM    9  C15 UNL     1      77.167  36.887 -10.177  1.00  0.00    -0.047 C 
HETATM   10  C16 UNL     1      75.786  36.357 -10.316  1.00  0.00     0.015 C 
HETATM   11  C17 UNL     1      77.122  38.025  -9.144  1.00  0.00     0.015 C 
HETATM   12  C18 UNL     1      77.738  37.482 -11.428  1.00  0.00     0.015 C 
HETATM   13  C19 UNL     1      78.167  36.555 -12.462  1.00  0.00     0.007 C 
HETATM   14  C20 UNL     1      79.422  36.933 -13.216  1.00  0.00    -0.038 C 
HETATM   15  C21 UNL     1      79.631  38.255 -13.718  1.00  0.00     0.015 C 
HETATM   16  C22 UNL     1      80.558  36.215 -12.467  1.00  0.00     0.023 C 
HETATM   17  C23 UNL     1      79.800  34.997 -12.855  1.00  0.00     0.003 C 
HETATM   18  C24 UNL     1      79.521  35.733 -14.177  1.00  0.00     0.023 C 
HETATM   19  C25 UNL     1      80.441  33.702 -12.924  1.00  0.00     0.182 C 
ENDROOT
BRANCH   1  20
HETATM   20  C6  UNL     1      79.825  31.597 -11.901  1.00  0.00     0.020 C 
BRANCH  20  21
HETATM   21  C5  UNL     1      78.715  30.968 -11.127  1.00  0.00     0.028 C 
BRANCH  21  22
HETATM   22  C4  UNL     1      78.890  31.397  -9.716  1.00  0.00    -0.025 C 
HETATM   23  C2  UNL     1      77.865  31.905  -9.058  1.00  0.00    -0.091 C 
HETATM   24  C1  UNL     1      76.559  32.042  -9.724  1.00  0.00     0.042 C 
HETATM   25  C3  UNL     1      77.963  32.359  -7.640  1.00  0.00     0.042 C 
ENDBRANCH  21  22
ENDBRANCH  20  21
ENDBRANCH   1  20
BRANCH  19  26
HETATM   26  O1  UNL     1      81.334  33.568 -11.858  1.00  0.00    -0.236 OA
BRANCH  26  27
HETATM   27  O2  UNL     1      82.558  33.380 -12.218  1.00  0.00    -0.250 OA
ATOM     28  H2  UNL     1      82.810  32.465 -12.271  1.00  0.00     0.253 HD
ENDBRANCH  26  27
ENDBRANCH  19  26
TORSDOF 5
ENDMDL
MODEL 3
REMARK VINA RESULT: -7.316197882      2.616      4.797
REMARK  5 active torsions:
REMARK  status: ('A' for Active; 'I' for Inactive)
REMARK    1  A    between atoms: C4_4  and  C5_5 
REMARK    2  A    between atoms: C5_5  and  C6_6 
REMARK    3  A    between atoms: C6_6  and  C7_7 
REMARK    4  A    between atoms: C25_25  and  O1_26 
REMARK    5  A    between atoms: O1_26  and  O2_27 
ROOT
HETATM    1  C7  UNL     1      77.710  32.655  -9.946  1.00  0.00     0.009 C 
HETATM    2  C8  UNL     1      79.210  32.545 -10.169  1.00  0.00     0.023 C 
HETATM    3  C9  UNL     1      77.486  32.197  -8.570  1.00  0.00    -0.076 C 
HETATM    4  C10 UNL     1      78.481  32.643  -7.522  1.00  0.00     0.044 C 
HETATM    5  C11 UNL     1      76.505  31.430  -8.130  1.00  0.00    -0.013 C 
HETATM    6  C12 UNL     1      75.486  30.946  -9.085  1.00  0.00    -0.008 C 
HETATM    7  C13 UNL     1      74.394  31.928  -9.206  1.00  0.00     0.015 C 
HETATM    8  C14 UNL     1      73.079  31.632  -8.632  1.00  0.00     0.010 C 
HETATM    9  C15 UNL     1      72.981  30.458  -7.709  1.00  0.00    -0.047 C 
HETATM   10  C16 UNL     1      73.411  30.737  -6.315  1.00  0.00     0.015 C 
HETATM   11  C17 UNL     1      71.491  30.082  -7.665  1.00  0.00     0.015 C 
HETATM   12  C18 UNL     1      73.681  29.305  -8.362  1.00  0.00     0.015 C 
HETATM   13  C19 UNL     1      75.050  29.528  -8.799  1.00  0.00     0.007 C 
HETATM   14  C20 UNL     1      75.448  28.873 -10.102  1.00  0.00    -0.038 C 
HETATM   15  C21 UNL     1      75.127  27.509 -10.389  1.00  0.00     0.015 C 
HETATM   16  C22 UNL     1      75.207  29.953 -11.171  1.00  0.00     0.023 C 
HETATM   17  C23 UNL     1      76.218  30.703 -10.381  1.00  0.00     0.003 C 
HETATM   18  C24 UNL     1      76.912  29.342 -10.195  1.00  0.00     0.023 C 
HETATM   19  C25 UNL     1      76.985  31.779 -10.970  1.00  0.00     0.182 C 
ENDROOT
BRANCH   1  20
HETATM   20  C6  UNL     1      77.314  34.056 -10.219  1.00  0.00     0.020 C 
BRANCH  20  21
HETATM   21  C5  UNL     1      78.400  35.049 -10.469  1.00  0.00     0.028 C 
BRANCH  21  22
HETATM   22  C4  UNL     1      78.084  36.236  -9.635  1.00  0.00    -0.025 C 
HETATM   23  C2  UNL     1      77.564  37.309 -10.201  1.00  0.00    -0.091 C 
HETATM   24  C1  UNL     1      77.301  37.321 -11.650  1.00  0.00     0.042 C 
HETATM   25  C3  UNL     1      77.220  38.540  -9.431  1.00  0.00     0.042 C 
ENDBRANCH  21  22
ENDBRANCH  20  21
ENDBRANCH   1  20
BRANCH  19  26
HETATM   26  O1  UNL     1      76.160  32.534 -11.806  1.00  0.00    -0.236 OA
BRANCH  26  27
HETATM   27  O2  UNL     1      76.570  32.601 -13.028  1.00  0.00    -0.250 OA
ATOM     28  H2  UNL     1      77.335  33.152 -13.149  1.00  0.00     0.253 HD
ENDBRANCH  26  27
ENDBRANCH  19  26
TORSDOF 5
ENDMDL
MODEL 4
REMARK VINA RESULT: -7.304561704      2.464      5.266
REMARK  5 active torsions:
REMARK  status: ('A' for Active; 'I' for Inactive)
REMARK    1  A    between atoms: C4_4  and  C5_5 
REMARK    2  A    between atoms: C5_5  and  C6_6 
REMARK    3  A    between atoms: C6_6  and  C7_7 
REMARK    4  A    between atoms: C25_25  and  O1_26 
REMARK    5  A    between atoms: O1_26  and  O2_27 
ROOT
HETATM    1  C7  UNL     1      79.257  36.611 -13.517  1.00  0.00     0.009 C 
HETATM    2  C8  UNL     1      78.885  37.415 -14.753  1.00  0.00     0.023 C 
HETATM    3  C9  UNL     1      78.636  35.296 -13.705  1.00  0.00    -0.076 C 
HETATM    4  C10 UNL     1      78.694  34.695 -15.091  1.00  0.00     0.044 C 
HETATM    5  C11 UNL     1      78.021  34.561 -12.795  1.00  0.00    -0.013 C 
HETATM    6  C12 UNL     1      77.916  35.070 -11.412  1.00  0.00    -0.008 C 
HETATM    7  C13 UNL     1      79.105  34.680 -10.633  1.00  0.00     0.015 C 
HETATM    8  C14 UNL     1      78.991  33.657  -9.590  1.00  0.00     0.010 C 
HETATM    9  C15 UNL     1      77.726  32.858  -9.547  1.00  0.00    -0.047 C 
HETATM   10  C16 UNL     1      77.681  31.730 -10.512  1.00  0.00     0.015 C 
HETATM   11  C17 UNL     1      77.657  32.257  -8.133  1.00  0.00     0.015 C 
HETATM   12  C18 UNL     1      76.578  33.816  -9.648  1.00  0.00     0.015 C 
HETATM   13  C19 UNL     1      76.589  34.739 -10.771  1.00  0.00     0.007 C 
HETATM   14  C20 UNL     1      76.088  36.137 -10.488  1.00  0.00    -0.038 C 
HETATM   15  C21 UNL     1      74.883  36.373  -9.756  1.00  0.00     0.015 C 
HETATM   16  C22 UNL     1      77.354  36.944 -10.151  1.00  0.00     0.023 C 
HETATM   17  C23 UNL     1      77.745  36.564 -11.533  1.00  0.00     0.003 C 
HETATM   18  C24 UNL     1      76.261  36.765 -11.884  1.00  0.00     0.023 C 
HETATM   19  C25 UNL     1      78.725  37.328 -12.274  1.00  0.00     0.182 C 
ENDROOT
BRANCH   1  20
HETATM   20  C6  UNL     1      80.735  36.604 -13.411  1.00  0.00     0.020 C 
BRANCH  20  21
HETATM   21  C5  UNL     1      81.513  37.241 -14.514  1.00  0.00     0.028 C 
BRANCH  21  22
HETATM   22  C4  UNL     1      82.140  38.458 -13.938  1.00  0.00    -0.025 C 
HETATM   23  C2  UNL     1      83.092  39.079 -14.608  1.00  0.00    -0.091 C 
HETATM   24  C1  UNL     1      83.524  38.565 -15.919  1.00  0.00     0.042 C 
HETATM   25  C3  UNL     1      83.769  40.306 -14.096  1.00  0.00     0.042 C 
ENDBRANCH  21  22
ENDBRANCH  20  21
ENDBRANCH   1  20
BRANCH  19  26
HETATM   26  O1  UNL     1      79.758  37.714 -11.417  1.00  0.00    -0.236 OA
BRANCH  26  27
HETATM   27  O2  UNL     1      79.818  38.985 -11.206  1.00  0.00    -0.250 OA
ATOM     28  H2  UNL     1      79.315  39.277 -10.455  1.00  0.00     0.253 HD
ENDBRANCH  26  27
ENDBRANCH  19  26
TORSDOF 5
ENDMDL
MODEL 5
REMARK VINA RESULT: -7.277626761      2.931      5.291
REMARK  5 active torsions:
REMARK  status: ('A' for Active; 'I' for Inactive)
REMARK    1  A    between atoms: C4_4  and  C5_5 
REMARK    2  A    between atoms: C5_5  and  C6_6 
REMARK    3  A    between atoms: C6_6  and  C7_7 
REMARK    4  A    between atoms: C25_25  and  O1_26 
REMARK    5  A    between atoms: O1_26  and  O2_27 
ROOT
HETATM    1  C7  UNL     1      77.633  31.814 -10.176  1.00  0.00     0.009 C 
HETATM    2  C8  UNL     1      79.126  31.545 -10.275  1.00  0.00     0.023 C 
HETATM    3  C9  UNL     1      77.335  31.832  -8.739  1.00  0.00    -0.076 C 
HETATM    4  C10 UNL     1      78.330  32.525  -7.835  1.00  0.00     0.044 C 
HETATM    5  C11 UNL     1      76.286  31.308  -8.131  1.00  0.00    -0.013 C 
HETATM    6  C12 UNL     1      75.262  30.611  -8.936  1.00  0.00    -0.008 C 
HETATM    7  C13 UNL     1      74.252  31.570  -9.417  1.00  0.00     0.015 C 
HETATM    8  C14 UNL     1      72.902  31.555  -8.848  1.00  0.00     0.010 C 
HETATM    9  C15 UNL     1      72.688  30.744  -7.608  1.00  0.00    -0.047 C 
HETATM   10  C16 UNL     1      73.097  31.425  -6.352  1.00  0.00     0.015 C 
HETATM   11  C17 UNL     1      71.173  30.496  -7.524  1.00  0.00     0.015 C 
HETATM   12  C18 UNL     1      73.317  29.402  -7.827  1.00  0.00     0.015 C 
HETATM   13  C19 UNL     1      74.711  29.388  -8.241  1.00  0.00     0.007 C 
HETATM   14  C20 UNL     1      75.096  28.329  -9.248  1.00  0.00    -0.038 C 
HETATM   15  C21 UNL     1      74.681  26.968  -9.108  1.00  0.00     0.015 C 
HETATM   16  C22 UNL     1      74.969  29.025 -10.614  1.00  0.00     0.023 C 
HETATM   17  C23 UNL     1      76.011  29.923 -10.050  1.00  0.00     0.003 C 
HETATM   18  C24 UNL     1      76.593  28.651  -9.409  1.00  0.00     0.023 C 
HETATM   19  C25 UNL     1      76.873  30.705 -10.908  1.00  0.00     0.182 C 
ENDROOT
BRANCH   1  20
HETATM   20  C6  UNL     1      77.352  33.078 -10.897  1.00  0.00     0.020 C 
BRANCH  20  21
HETATM   21  C5  UNL     1      76.569  34.127 -10.180  1.00  0.00     0.028 C 
BRANCH  21  22
HETATM   22  C4  UNL     1      77.384  35.367 -10.231  1.00  0.00    -0.025 C 
HETATM   23  C2  UNL     1      76.782  36.542 -10.225  1.00  0.00    -0.091 C 
HETATM   24  C1  UNL     1      75.312  36.614 -10.168  1.00  0.00     0.042 C 
HETATM   25  C3  UNL     1      77.530  37.832 -10.274  1.00  0.00     0.042 C 
ENDBRANCH  21  22
ENDBRANCH  20  21
ENDBRANCH   1  20
BRANCH  19  26
HETATM   26  O1  UNL     1      76.133  31.206 -11.981  1.00  0.00    -0.236 OA
BRANCH  26  27
HETATM   27  O2  UNL     1      76.496  30.746 -13.130  1.00  0.00    -0.250 OA
ATOM     28  H2  UNL     1      75.787  30.366 -13.636  1.00  0.00     0.253 HD
ENDBRANCH  26  27
ENDBRANCH  19  26
TORSDOF 5
ENDMDL
