MODEL 1
REMARK VINA RESULT: -7.502039941      0.000      0.000
REMARK  6 active torsions:
REMARK  status: ('A' for Active; 'I' for Inactive)
REMARK    1  A    between atoms: C2_2  and  C4_4 
REMARK    2  A    between atoms: C4_4  and  C5_5 
REMARK    3  A    between atoms: C5_5  and  C6_6 
REMARK    4  A    between atoms: C6_6  and  C7_7 
REMARK    5  A    between atoms: C7_7  and  C9_9 
REMARK    6  A    between atoms: C17_17  and  O1_18 
ROOT
HETATM    1  C9  UNL     1      79.059  36.502 -12.357  1.00  0.00    -0.002 C 
HETATM    2  C10 UNL     1      77.736  36.692 -13.103  1.00  0.00     0.006 C 
HETATM    3  C11 UNL     1      76.792  35.894 -12.222  1.00  0.00     0.006 C 
HETATM    4  C12 UNL     1      77.661  34.639 -12.049  1.00  0.00    -0.002 C 
HETATM    5  C13 UNL     1      77.088  33.649 -11.142  1.00  0.00    -0.005 C 
HETATM    6  C14 UNL     1      75.848  34.257 -10.471  1.00  0.00     0.006 C 
HETATM    7  C15 UNL     1      75.138  33.177  -9.719  1.00  0.00     0.008 C 
HETATM    8  C16 UNL     1      75.968  32.411  -8.767  1.00  0.00     0.023 C 
HETATM    9  C17 UNL     1      75.348  31.010  -8.677  1.00  0.00     0.123 C 
HETATM   10  C18 UNL     1      76.008  30.331  -9.854  1.00  0.00     0.033 C 
HETATM   11  C19 UNL     1      77.467  30.752  -9.648  1.00  0.00     0.012 C 
HETATM   12  C20 UNL     1      77.375  32.189  -9.125  1.00  0.00    -0.034 C 
HETATM   13  C21 UNL     1      78.196  32.213  -7.828  1.00  0.00     0.016 C 
HETATM   14  C22 UNL     1      78.006  33.115 -10.077  1.00  0.00    -0.001 C 
HETATM   15  C23 UNL     1      78.689  34.295  -9.456  1.00  0.00     0.006 C 
HETATM   16  C24 UNL     1      79.626  34.920 -10.468  1.00  0.00     0.010 C 
HETATM   17  C25 UNL     1      79.058  35.115 -11.828  1.00  0.00    -0.036 C 
HETATM   18  C26 UNL     1      79.940  34.203 -12.732  1.00  0.00     0.016 C 
ENDROOT
BRANCH   1  19
HETATM   19  C7  UNL     1      79.433  37.644 -11.530  1.00  0.00    -0.014 C 
HETATM   20  C8  UNL     1      80.130  38.667 -12.452  1.00  0.00     0.010 C 
BRANCH  19  21
HETATM   21  C6  UNL     1      78.390  38.401 -10.798  1.00  0.00     0.005 C 
BRANCH  21  22
HETATM   22  C5  UNL     1      78.415  38.100  -9.288  1.00  0.00     0.001 C 
BRANCH  22  23
HETATM   23  C4  UNL     1      77.089  37.413  -8.931  1.00  0.00     0.004 C 
BRANCH  23  24
HETATM   24  C2  UNL     1      75.917  38.233  -9.365  1.00  0.00    -0.023 C 
HETATM   25  C1  UNL     1      75.637  39.359  -8.403  1.00  0.00     0.009 C 
HETATM   26  C3  UNL     1      74.658  37.403  -9.531  1.00  0.00     0.009 C 
ENDBRANCH  23  24
ENDBRANCH  22  23
ENDBRANCH  21  22
ENDBRANCH  19  21
ENDBRANCH   1  19
BRANCH   9  27
HETATM   27  O1  UNL     1      75.592  30.405  -7.474  1.00  0.00    -0.395 OA
ATOM     28  H1  UNL     1      74.891  30.545  -6.848  1.00  0.00     0.210 HD
ENDBRANCH   9  27
TORSDOF 6
ENDMDL
MODEL 2
REMARK VINA RESULT: -6.818714297      1.913      3.645
REMARK  6 active torsions:
REMARK  status: ('A' for Active; 'I' for Inactive)
REMARK    1  A    between atoms: C2_2  and  C4_4 
REMARK    2  A    between atoms: C4_4  and  C5_5 
REMARK    3  A    between atoms: C5_5  and  C6_6 
REMARK    4  A    between atoms: C6_6  and  C7_7 
REMARK    5  A    between atoms: C7_7  and  C9_9 
REMARK    6  A    between atoms: C17_17  and  O1_18 
ROOT
HETATM    1  C9  UNL     1      78.259  32.734 -10.823  1.00  0.00    -0.002 C 
HETATM    2  C10 UNL     1      77.323  33.432 -11.813  1.00  0.00     0.006 C 
HETATM    3  C11 UNL     1      76.037  33.482 -11.006  1.00  0.00     0.006 C 
HETATM    4  C12 UNL     1      76.041  32.033 -10.497  1.00  0.00    -0.002 C 
HETATM    5  C13 UNL     1      74.952  31.734  -9.571  1.00  0.00    -0.005 C 
HETATM    6  C14 UNL     1      74.226  33.043  -9.229  1.00  0.00     0.006 C 
HETATM    7  C15 UNL     1      72.984  32.709  -8.465  1.00  0.00     0.008 C 
HETATM    8  C16 UNL     1      73.178  31.853  -7.277  1.00  0.00     0.023 C 
HETATM    9  C17 UNL     1      71.874  31.063  -7.092  1.00  0.00     0.123 C 
HETATM   10  C18 UNL     1      72.116  29.894  -8.019  1.00  0.00     0.033 C 
HETATM   11  C19 UNL     1      73.544  29.502  -7.621  1.00  0.00     0.012 C 
HETATM   12  C20 UNL     1      74.238  30.838  -7.341  1.00  0.00    -0.034 C 
HETATM   13  C21 UNL     1      74.844  30.707  -5.936  1.00  0.00     0.016 C 
HETATM   14  C22 UNL     1      75.342  31.044  -8.292  1.00  0.00    -0.001 C 
HETATM   15  C23 UNL     1      76.525  31.778  -7.740  1.00  0.00     0.006 C 
HETATM   16  C24 UNL     1      77.716  31.561  -8.651  1.00  0.00     0.010 C 
HETATM   17  C25 UNL     1      77.446  31.722 -10.103  1.00  0.00    -0.036 C 
HETATM   18  C26 UNL     1      77.723  30.306 -10.691  1.00  0.00     0.016 C 
ENDROOT
BRANCH   1  19
HETATM   19  C7  UNL     1      79.153  33.649 -10.121  1.00  0.00    -0.014 C 
HETATM   20  C8  UNL     1      80.237  34.091 -11.127  1.00  0.00     0.010 C 
BRANCH  19  21
HETATM   21  C6  UNL     1      78.618  34.896  -9.526  1.00  0.00     0.005 C 
BRANCH  21  22
HETATM   22  C5  UNL     1      79.161  36.150 -10.235  1.00  0.00     0.001 C 
BRANCH  22  23
HETATM   23  C4  UNL     1      78.231  37.320  -9.884  1.00  0.00     0.004 C 
BRANCH  23  24
HETATM   24  C2  UNL     1      76.810  37.008 -10.230  1.00  0.00    -0.023 C 
HETATM   25  C1  UNL     1      76.551  37.153 -11.708  1.00  0.00     0.009 C 
HETATM   26  C3  UNL     1      75.825  37.876  -9.471  1.00  0.00     0.009 C 
ENDBRANCH  23  24
ENDBRANCH  22  23
ENDBRANCH  21  22
ENDBRANCH  19  21
ENDBRANCH   1  19
BRANCH   9  27
HETATM   27  O1  UNL     1      71.657  30.706  -5.790  1.00  0.00    -0.395 OA
ATOM     28  H1  UNL     1      70.734  30.607  -5.588  1.00  0.00     0.210 HD
ENDBRANCH   9  27
TORSDOF 6
ENDMDL
MODEL 3
REMARK VINA RESULT: -6.519222811      2.458      6.212
REMARK  6 active torsions:
REMARK  status: ('A' for Active; 'I' for Inactive)
REMARK    1  A    between atoms: C2_2  and  C4_4 
REMARK    2  A    between atoms: C4_4  and  C5_5 
REMARK    3  A    between atoms: C5_5  and  C6_6 
REMARK    4  A    between atoms: C6_6  and  C7_7 
REMARK    5  A    between atoms: C7_7  and  C9_9 
REMARK    6  A    between atoms: C17_17  and  O1_18 
ROOT
HETATM    1  C9  UNL     1      78.709  31.015 -12.648  1.00  0.00    -0.002 C 
HETATM    2  C10 UNL     1      80.172  31.118 -12.210  1.00  0.00     0.006 C 
HETATM    3  C11 UNL     1      80.123  32.358 -11.335  1.00  0.00     0.006 C 
HETATM    4  C12 UNL     1      79.302  33.256 -12.274  1.00  0.00    -0.002 C 
HETATM    5  C13 UNL     1      78.966  34.554 -11.696  1.00  0.00    -0.005 C 
HETATM    6  C14 UNL     1      79.381  34.557 -10.218  1.00  0.00     0.006 C 
HETATM    7  C15 UNL     1      79.243  35.949  -9.690  1.00  0.00     0.008 C 
HETATM    8  C16 UNL     1      77.925  36.582  -9.900  1.00  0.00     0.023 C 
HETATM    9  C17 UNL     1      78.177  38.095  -9.989  1.00  0.00     0.123 C 
HETATM   10  C18 UNL     1      78.520  38.239 -11.453  1.00  0.00     0.033 C 
HETATM   11  C19 UNL     1      77.401  37.411 -12.094  1.00  0.00     0.012 C 
HETATM   12  C20 UNL     1      77.198  36.239 -11.129  1.00  0.00    -0.034 C 
HETATM   13  C21 UNL     1      75.699  36.227 -10.798  1.00  0.00     0.016 C 
HETATM   14  C22 UNL     1      77.524  34.970 -11.799  1.00  0.00    -0.001 C 
HETATM   15  C23 UNL     1      76.698  33.797 -11.369  1.00  0.00     0.006 C 
HETATM   16  C24 UNL     1      76.833  32.689 -12.393  1.00  0.00     0.010 C 
HETATM   17  C25 UNL     1      78.220  32.402 -12.844  1.00  0.00    -0.036 C 
HETATM   18  C26 UNL     1      78.195  32.746 -14.362  1.00  0.00     0.016 C 
ENDROOT
BRANCH   1  19
HETATM   19  C7  UNL     1      77.943  30.023 -11.899  1.00  0.00    -0.014 C 
HETATM   20  C8  UNL     1      77.489  28.942 -12.904  1.00  0.00     0.010 C 
BRANCH  19  21
HETATM   21  C6  UNL     1      78.576  29.294 -10.775  1.00  0.00     0.005 C 
BRANCH  21  22
HETATM   22  C5  UNL     1      77.649  29.211  -9.549  1.00  0.00     0.001 C 
BRANCH  22  23
HETATM   23  C4  UNL     1      76.578  30.300  -9.703  1.00  0.00     0.004 C 
BRANCH  23  24
HETATM   24  C2  UNL     1      76.486  31.149  -8.475  1.00  0.00    -0.023 C 
HETATM   25  C1  UNL     1      75.239  31.996  -8.475  1.00  0.00     0.009 C 
HETATM   26  C3  UNL     1      77.693  32.052  -8.304  1.00  0.00     0.009 C 
ENDBRANCH  23  24
ENDBRANCH  22  23
ENDBRANCH  21  22
ENDBRANCH  19  21
ENDBRANCH   1  19
BRANCH   9  27
HETATM   27  O1  UNL     1      77.094  38.831  -9.594  1.00  0.00    -0.395 OA
ATOM     28  H1  UNL     1      76.739  38.538  -8.763  1.00  0.00     0.210 HD
ENDBRANCH   9  27
TORSDOF 6
ENDMDL
MODEL 4
REMARK VINA RESULT: -6.376829204      2.373      6.148
REMARK  6 active torsions:
REMARK  status: ('A' for Active; 'I' for Inactive)
REMARK    1  A    between atoms: C2_2  and  C4_4 
REMARK    2  A    between atoms: C4_4  and  C5_5 
REMARK    3  A    between atoms: C5_5  and  C6_6 
REMARK    4  A    between atoms: C6_6  and  C7_7 
REMARK    5  A    between atoms: C7_7  and  C9_9 
REMARK    6  A    between atoms: C17_17  and  O1_18 
ROOT
HETATM    1  C9  UNL     1      78.423  30.914 -11.939  1.00  0.00    -0.002 C 
HETATM    2  C10 UNL     1      79.932  31.094 -11.761  1.00  0.00     0.006 C 
HETATM    3  C11 UNL     1      79.979  32.427 -11.035  1.00  0.00     0.006 C 
HETATM    4  C12 UNL     1      78.985  33.195 -11.921  1.00  0.00    -0.002 C 
HETATM    5  C13 UNL     1      78.699  34.545 -11.445  1.00  0.00    -0.005 C 
HETATM    6  C14 UNL     1      79.346  34.728 -10.065  1.00  0.00     0.006 C 
HETATM    7  C15 UNL     1      79.244  36.170  -9.681  1.00  0.00     0.008 C 
HETATM    8  C16 UNL     1      77.887  36.750  -9.741  1.00  0.00     0.023 C 
HETATM    9  C17 UNL     1      78.066  38.246 -10.040  1.00  0.00     0.123 C 
HETATM   10  C18 UNL     1      78.162  38.224 -11.548  1.00  0.00     0.033 C 
HETATM   11  C19 UNL     1      76.986  37.307 -11.899  1.00  0.00     0.012 C 
HETATM   12  C20 UNL     1      76.985  36.252 -10.788  1.00  0.00    -0.034 C 
HETATM   13  C21 UNL     1      75.560  36.252 -10.216  1.00  0.00     0.016 C 
HETATM   14  C22 UNL     1      77.245  34.920 -11.355  1.00  0.00    -0.001 C 
HETATM   15  C23 UNL     1      76.542  33.790 -10.667  1.00  0.00     0.006 C 
HETATM   16  C24 UNL     1      76.551  32.573 -11.568  1.00  0.00     0.010 C 
HETATM   17  C25 UNL     1      77.857  32.261 -12.205  1.00  0.00    -0.036 C 
HETATM   18  C26 UNL     1      77.576  32.424 -13.728  1.00  0.00     0.016 C 
ENDROOT
BRANCH   1  19
HETATM   19  C7  UNL     1      77.824  30.004 -10.967  1.00  0.00    -0.014 C 
HETATM   20  C8  UNL     1      78.598  28.671 -11.054  1.00  0.00     0.010 C 
BRANCH  19  21
HETATM   21  C6  UNL     1      77.799  30.367  -9.531  1.00  0.00     0.005 C 
BRANCH  21  22
HETATM   22  C5  UNL     1      76.486  29.934  -8.852  1.00  0.00     0.001 C 
BRANCH  22  23
HETATM   23  C4  UNL     1      75.892  31.170  -8.162  1.00  0.00     0.004 C 
BRANCH  23  24
HETATM   24  C2  UNL     1      74.415  31.255  -8.375  1.00  0.00    -0.023 C 
HETATM   25  C1  UNL     1      73.985  30.498  -9.607  1.00  0.00     0.009 C 
HETATM   26  C3  UNL     1      73.926  32.687  -8.483  1.00  0.00     0.009 C 
ENDBRANCH  23  24
ENDBRANCH  22  23
ENDBRANCH  21  22
ENDBRANCH  19  21
ENDBRANCH   1  19
BRANCH   9  27
HETATM   27  O1  UNL     1      77.034  39.003  -9.558  1.00  0.00    -0.395 OA
ATOM     28  H1  UNL     1      76.184  38.631  -9.759  1.00  0.00     0.210 HD
ENDBRANCH   9  27
TORSDOF 6
ENDMDL
MODEL 5
REMARK VINA RESULT: -6.284380648      3.170      4.949
REMARK  6 active torsions:
REMARK  status: ('A' for Active; 'I' for Inactive)
REMARK    1  A    between atoms: C2_2  and  C4_4 
REMARK    2  A    between atoms: C4_4  and  C5_5 
REMARK    3  A    between atoms: C5_5  and  C6_6 
REMARK    4  A    between atoms: C6_6  and  C7_7 
REMARK    5  A    between atoms: C7_7  and  C9_9 
REMARK    6  A    between atoms: C17_17  and  O1_18 
ROOT
HETATM    1  C9  UNL     1      77.806  34.052  -9.779  1.00  0.00    -0.002 C 
HETATM    2  C10 UNL     1      79.030  34.960  -9.920  1.00  0.00     0.006 C 
HETATM    3  C11 UNL     1      80.006  34.022 -10.609  1.00  0.00     0.006 C 
HETATM    4  C12 UNL     1      79.784  32.786  -9.724  1.00  0.00    -0.002 C 
HETATM    5  C13 UNL     1      80.521  31.607 -10.170  1.00  0.00    -0.005 C 
HETATM    6  C14 UNL     1      81.162  31.914 -11.530  1.00  0.00     0.006 C 
HETATM    7  C15 UNL     1      82.093  30.796 -11.878  1.00  0.00     0.008 C 
HETATM    8  C16 UNL     1      81.506  29.441 -11.831  1.00  0.00     0.023 C 
HETATM    9  C17 UNL     1      82.655  28.481 -11.489  1.00  0.00     0.123 C 
HETATM   10  C18 UNL     1      82.660  28.570  -9.981  1.00  0.00     0.033 C 
HETATM   11  C19 UNL     1      81.164  28.427  -9.679  1.00  0.00     0.012 C 
HETATM   12  C20 UNL     1      80.475  29.186 -10.817  1.00  0.00    -0.034 C 
HETATM   13  C21 UNL     1      79.461  28.202 -11.419  1.00  0.00     0.016 C 
HETATM   14  C22 UNL     1      79.728  30.334 -10.280  1.00  0.00    -0.001 C 
HETATM   15  C23 UNL     1      78.465  30.666 -11.013  1.00  0.00     0.006 C 
HETATM   16  C24 UNL     1      77.604  31.559 -10.144  1.00  0.00     0.010 C 
HETATM   17  C25 UNL     1      78.314  32.688  -9.488  1.00  0.00    -0.036 C 
HETATM   18  C26 UNL     1      78.171  32.383  -7.968  1.00  0.00     0.016 C 
ENDROOT
BRANCH   1  19
HETATM   19  C7  UNL     1      76.779  34.296 -10.786  1.00  0.00    -0.014 C 
HETATM   20  C8  UNL     1      75.430  34.416 -10.044  1.00  0.00     0.010 C 
BRANCH  19  21
HETATM   21  C6  UNL     1      76.869  35.489 -11.661  1.00  0.00     0.005 C 
BRANCH  21  22
HETATM   22  C5  UNL     1      76.004  36.651 -11.139  1.00  0.00     0.001 C 
BRANCH  22  23
HETATM   23  C4  UNL     1      76.952  37.783 -10.721  1.00  0.00     0.004 C 
BRANCH  23  24
HETATM   24  C2  UNL     1      76.482  38.451  -9.469  1.00  0.00    -0.023 C 
HETATM   25  C1  UNL     1      77.391  38.155  -8.303  1.00  0.00     0.009 C 
HETATM   26  C3  UNL     1      75.064  38.057  -9.099  1.00  0.00     0.009 C 
ENDBRANCH  23  24
ENDBRANCH  22  23
ENDBRANCH  21  22
ENDBRANCH  19  21
ENDBRANCH   1  19
BRANCH   9  27
HETATM   27  O1  UNL     1      82.445  27.219 -11.973  1.00  0.00    -0.395 OA
ATOM     28  H1  UNL     1      81.638  26.836 -11.651  1.00  0.00     0.210 HD
ENDBRANCH   9  27
TORSDOF 6
ENDMDL
