MODEL 1
REMARK VINA RESULT: -6.190536144      0.000      0.000
REMARK  3 active torsions:
REMARK  status: ('A' for Active; 'I' for Inactive)
REMARK    1  A    between atoms: N1_2  and  C2_5 
REMARK    2  A    between atoms: C2_5  and  C3_6 
REMARK    3  A    between atoms: C5_8  and  N2_9 
REMARK       I    between atoms: N3_14  and  C8_15 
ROOT
HETATM    1  C3  UNL     1     -20.969  14.225  -5.172  1.00  0.00     0.114 C 
HETATM    2  C4  UNL     1     -20.399  14.803  -3.877  1.00  0.00     0.061 C 
HETATM    3  C5  UNL     1     -20.233  16.288  -4.108  1.00  0.00     0.205 C 
HETATM    4  C7  UNL     1     -21.115  16.529  -5.317  1.00  0.00     0.159 C 
HETATM    5  N3  UNL     1     -20.805  15.310  -6.086  1.00  0.00    -0.347 N 
HETATM    6  C8  UNL     1     -20.429  15.365  -7.439  1.00  0.00     0.184 C 
HETATM    7  N4  UNL     1     -19.210  15.215  -7.765  1.00  0.00    -0.374 N 
ATOM      8  H41 UNL     1     -18.937  15.256  -8.747  1.00  0.00     0.158 HD
ATOM      9  H42 UNL     1     -18.503  15.055  -7.048  1.00  0.00     0.158 HD
HETATM   10  N5  UNL     1     -21.403  15.585  -8.425  1.00  0.00    -0.064 NA
ENDROOT
BRANCH   1  11
HETATM   11  C2  UNL     1     -20.205  12.985  -5.476  1.00  0.00     0.257 C 
BRANCH  11  12
HETATM   12  N1  UNL     1     -20.979  11.763  -5.289  1.00  0.00    -0.077 N 
HETATM   13  C1  UNL     1     -20.115  10.640  -5.688  1.00  0.00     0.267 C 
ATOM     14  H12 UNL     1     -21.873  11.775  -5.781  1.00  0.00     0.276 HD
ATOM     15  H11 UNL     1     -21.352  11.665  -4.345  1.00  0.00     0.276 HD
ENDBRANCH  11  12
ENDBRANCH   1  11
BRANCH   3  16
HETATM   16  N2  UNL     1     -18.874  16.596  -4.523  1.00  0.00    -0.073 N 
HETATM   17  C6  UNL     1     -17.869  15.928  -3.759  1.00  0.00     0.267 C 
ATOM     18  H22 UNL     1     -18.751  16.407  -5.518  1.00  0.00     0.277 HD
ATOM     19  H21 UNL     1     -18.718  17.604  -4.519  1.00  0.00     0.277 HD
ENDBRANCH   3  16
TORSDOF 3
ENDMDL
MODEL 2
REMARK VINA RESULT: -6.047113450      2.000      3.229
REMARK  3 active torsions:
REMARK  status: ('A' for Active; 'I' for Inactive)
REMARK    1  A    between atoms: N1_2  and  C2_5 
REMARK    2  A    between atoms: C2_5  and  C3_6 
REMARK    3  A    between atoms: C5_8  and  N2_9 
REMARK       I    between atoms: N3_14  and  C8_15 
ROOT
HETATM    1  C3  UNL     1     -20.462  15.079  -5.700  1.00  0.00     0.114 C 
HETATM    2  C4  UNL     1     -19.327  14.512  -4.846  1.00  0.00     0.061 C 
HETATM    3  C5  UNL     1     -19.483  15.122  -3.471  1.00  0.00     0.205 C 
HETATM    4  C7  UNL     1     -20.912  15.625  -3.498  1.00  0.00     0.159 C 
HETATM    5  N3  UNL     1     -20.960  16.137  -4.880  1.00  0.00    -0.347 N 
HETATM    6  C8  UNL     1     -21.420  17.432  -5.173  1.00  0.00     0.184 C 
HETATM    7  N4  UNL     1     -20.588  18.352  -5.447  1.00  0.00    -0.374 N 
ATOM      8  H41 UNL     1     -20.922  19.293  -5.660  1.00  0.00     0.158 HD
ATOM      9  H42 UNL     1     -19.588  18.156  -5.456  1.00  0.00     0.158 HD
HETATM   10  N5  UNL     1     -22.797  17.702  -5.162  1.00  0.00    -0.064 NA
ENDROOT
BRANCH   1  11
HETATM   11  C2  UNL     1     -19.873  15.478  -7.006  1.00  0.00     0.257 C 
BRANCH  11  12
HETATM   12  N1  UNL     1     -20.870  15.816  -8.017  1.00  0.00    -0.077 N 
HETATM   13  C1  UNL     1     -20.139  16.300  -9.199  1.00  0.00     0.267 C 
ATOM     14  H12 UNL     1     -21.572  16.476  -7.682  1.00  0.00     0.276 HD
ATOM     15  H11 UNL     1     -21.504  15.045  -8.226  1.00  0.00     0.276 HD
ENDBRANCH  11  12
ENDBRANCH   1  11
BRANCH   3  16
HETATM   16  N2  UNL     1     -18.636  16.296  -3.329  1.00  0.00    -0.073 N 
HETATM   17  C6  UNL     1     -17.443  16.248  -4.113  1.00  0.00     0.267 C 
ATOM     18  H22 UNL     1     -19.164  17.145  -3.532  1.00  0.00     0.277 HD
ATOM     19  H21 UNL     1     -18.414  16.461  -2.348  1.00  0.00     0.277 HD
ENDBRANCH   3  16
TORSDOF 3
ENDMDL
MODEL 3
REMARK VINA RESULT: -5.798794909      1.970      3.164
REMARK  3 active torsions:
REMARK  status: ('A' for Active; 'I' for Inactive)
REMARK    1  A    between atoms: N1_2  and  C2_5 
REMARK    2  A    between atoms: C2_5  and  C3_6 
REMARK    3  A    between atoms: C5_8  and  N2_9 
REMARK       I    between atoms: N3_14  and  C8_15 
ROOT
HETATM    1  C3  UNL     1     -20.106  16.260  -4.732  1.00  0.00     0.114 C 
HETATM    2  C4  UNL     1     -18.948  16.456  -5.711  1.00  0.00     0.061 C 
HETATM    3  C5  UNL     1     -19.361  17.575  -6.642  1.00  0.00     0.205 C 
HETATM    4  C7  UNL     1     -20.494  18.231  -5.879  1.00  0.00     0.159 C 
HETATM    5  N3  UNL     1     -21.148  17.025  -5.338  1.00  0.00    -0.347 N 
HETATM    6  C8  UNL     1     -22.530  16.809  -5.477  1.00  0.00     0.184 C 
HETATM    7  N4  UNL     1     -22.957  15.981  -6.340  1.00  0.00    -0.374 N 
ATOM      8  H41 UNL     1     -23.960  15.824  -6.441  1.00  0.00     0.158 HD
ATOM      9  H42 UNL     1     -22.303  15.473  -6.934  1.00  0.00     0.158 HD
HETATM   10  N5  UNL     1     -23.431  17.509  -4.660  1.00  0.00    -0.064 NA
ENDROOT
BRANCH   1  11
HETATM   11  C2  UNL     1     -20.343  14.796  -4.619  1.00  0.00     0.257 C 
BRANCH  11  12
HETATM   12  N1  UNL     1     -19.358  13.989  -5.330  1.00  0.00    -0.077 N 
HETATM   13  C1  UNL     1     -19.995  12.697  -5.631  1.00  0.00     0.267 C 
ATOM     14  H12 UNL     1     -18.478  13.893  -4.824  1.00  0.00     0.276 HD
ATOM     15  H11 UNL     1     -18.983  14.452  -6.157  1.00  0.00     0.276 HD
ENDBRANCH  11  12
ENDBRANCH   1  11
BRANCH   3  16
HETATM   16  N2  UNL     1     -19.943  17.040  -7.863  1.00  0.00    -0.073 N 
HETATM   17  C6  UNL     1     -19.236  15.920  -8.400  1.00  0.00     0.267 C 
ATOM     18  H22 UNL     1     -20.926  16.807  -7.719  1.00  0.00     0.277 HD
ATOM     19  H21 UNL     1     -20.040  17.773  -8.564  1.00  0.00     0.277 HD
ENDBRANCH   3  16
TORSDOF 3
ENDMDL
MODEL 4
REMARK VINA RESULT: -5.780195320      2.041      3.498
REMARK  3 active torsions:
REMARK  status: ('A' for Active; 'I' for Inactive)
REMARK    1  A    between atoms: N1_2  and  C2_5 
REMARK    2  A    between atoms: C2_5  and  C3_6 
REMARK    3  A    between atoms: C5_8  and  N2_9 
REMARK       I    between atoms: N3_14  and  C8_15 
ROOT
HETATM    1  C3  UNL     1     -19.991  15.915  -5.187  1.00  0.00     0.114 C 
HETATM    2  C4  UNL     1     -18.939  16.058  -6.287  1.00  0.00     0.061 C 
HETATM    3  C5  UNL     1     -19.319  17.285  -7.085  1.00  0.00     0.205 C 
HETATM    4  C7  UNL     1     -20.270  18.001  -6.147  1.00  0.00     0.159 C 
HETATM    5  N3  UNL     1     -20.997  16.837  -5.608  1.00  0.00    -0.347 N 
HETATM    6  C8  UNL     1     -22.402  16.787  -5.590  1.00  0.00     0.184 C 
HETATM    7  N4  UNL     1     -23.022  16.082  -6.445  1.00  0.00    -0.374 N 
ATOM      8  H41 UNL     1     -24.041  16.046  -6.432  1.00  0.00     0.158 HD
ATOM      9  H42 UNL     1     -22.505  15.553  -7.147  1.00  0.00     0.158 HD
HETATM   10  N5  UNL     1     -23.113  17.515  -4.623  1.00  0.00    -0.064 NA
ENDROOT
BRANCH   1  11
HETATM   11  C2  UNL     1     -20.387  14.482  -5.141  1.00  0.00     0.257 C 
BRANCH  11  12
HETATM   12  N1  UNL     1     -20.263  13.885  -3.816  1.00  0.00    -0.077 N 
HETATM   13  C1  UNL     1     -20.392  14.976  -2.837  1.00  0.00     0.267 C 
ATOM     14  H12 UNL     1     -19.406  13.342  -3.700  1.00  0.00     0.276 HD
ATOM     15  H11 UNL     1     -20.922  13.123  -3.656  1.00  0.00     0.276 HD
ENDBRANCH  11  12
ENDBRANCH   1  11
BRANCH   3  16
HETATM   16  N2  UNL     1     -20.098  16.916  -8.256  1.00  0.00    -0.073 N 
HETATM   17  C6  UNL     1     -19.708  15.674  -8.843  1.00  0.00     0.267 C 
ATOM     18  H22 UNL     1     -21.094  16.913  -8.038  1.00  0.00     0.277 HD
ATOM     19  H21 UNL     1     -20.076  17.663  -8.950  1.00  0.00     0.277 HD
ENDBRANCH   3  16
TORSDOF 3
ENDMDL
MODEL 5
REMARK VINA RESULT: -5.670040503      1.293      1.558
REMARK  3 active torsions:
REMARK  status: ('A' for Active; 'I' for Inactive)
REMARK    1  A    between atoms: N1_2  and  C2_5 
REMARK    2  A    between atoms: C2_5  and  C3_6 
REMARK    3  A    between atoms: C5_8  and  N2_9 
REMARK       I    between atoms: N3_14  and  C8_15 
ROOT
HETATM    1  C3  UNL     1     -20.467  14.180  -5.771  1.00  0.00     0.114 C 
HETATM    2  C4  UNL     1     -20.453  15.005  -4.484  1.00  0.00     0.061 C 
HETATM    3  C5  UNL     1     -21.004  16.367  -4.843  1.00  0.00     0.205 C 
HETATM    4  C7  UNL     1     -21.700  16.098  -6.162  1.00  0.00     0.159 C 
HETATM    5  N3  UNL     1     -20.723  15.174  -6.765  1.00  0.00    -0.347 N 
HETATM    6  C8  UNL     1     -20.226  15.369  -8.065  1.00  0.00     0.184 C 
HETATM    7  N4  UNL     1     -19.058  15.837  -8.233  1.00  0.00    -0.374 N 
ATOM      8  H41 UNL     1     -18.697  15.979  -9.177  1.00  0.00     0.158 HD
ATOM      9  H42 UNL     1     -18.478  16.074  -7.429  1.00  0.00     0.158 HD
HETATM   10  N5  UNL     1     -21.024  15.043  -9.172  1.00  0.00    -0.064 NA
ENDROOT
BRANCH   1  11
HETATM   11  C2  UNL     1     -19.159  13.479  -5.860  1.00  0.00     0.257 C 
BRANCH  11  12
HETATM   12  N1  UNL     1     -19.234  12.185  -6.529  1.00  0.00    -0.077 N 
HETATM   13  C1  UNL     1     -20.127  11.335  -5.726  1.00  0.00     0.267 C 
ATOM     14  H12 UNL     1     -18.319  11.764  -6.691  1.00  0.00     0.276 HD
ATOM     15  H11 UNL     1     -19.520  12.256  -7.506  1.00  0.00     0.276 HD
ENDBRANCH  11  12
ENDBRANCH   1  11
BRANCH   3  16
HETATM   16  N2  UNL     1     -19.926  17.299  -5.129  1.00  0.00    -0.073 N 
HETATM   17  C6  UNL     1     -20.334  18.444  -5.881  1.00  0.00     0.267 C 
ATOM     18  H22 UNL     1     -19.460  17.584  -4.268  1.00  0.00     0.277 HD
ATOM     19  H21 UNL     1     -19.154  16.822  -5.593  1.00  0.00     0.277 HD
ENDBRANCH   3  16
TORSDOF 3
ENDMDL
