MODEL 1
REMARK VINA RESULT: -6.558128748      0.000      0.000
REMARK  4 active torsions:
REMARK  status: ('A' for Active; 'I' for Inactive)
REMARK    1  A    between atoms: C1_4  and  C2_5 
REMARK    2  A    between atoms: C1_4  and  N6_13 
REMARK    3  A    between atoms: N2_6  and  N3_8 
REMARK    4  A    between atoms: N6_13  and  C4_15 
ROOT
HETATM    1  N1  UNL     1       2.886  25.831  32.349  1.00  0.00    -0.385 N 
ATOM      2  H11 UNL     1       2.058  25.808  32.946  1.00  0.00     0.157 HD
ATOM      3  H12 UNL     1       3.680  26.406  32.630  1.00  0.00     0.157 HD
HETATM    4  C1  UNL     1       2.927  25.141  31.256  1.00  0.00     0.112 C 
ENDROOT
BRANCH   4   5
HETATM    5  C2  UNL     1       4.100  25.174  30.411  1.00  0.00     0.154 C 
HETATM    6  N2  UNL     1       4.629  26.303  30.109  1.00  0.00    -0.306 N 
ATOM      7  H2  UNL     1       4.213  27.162  30.470  1.00  0.00     0.186 HD
BRANCH   6   8
HETATM    8  N3  UNL     1       5.760  26.381  29.300  1.00  0.00    -0.276 N 
HETATM    9  C3  UNL     1       6.262  27.528  29.037  1.00  0.00     0.215 C 
HETATM   10  N4  UNL     1       5.671  28.685  29.566  1.00  0.00    -0.065 NA
HETATM   11  N5  UNL     1       7.415  27.590  28.209  1.00  0.00    -0.065 NA
ATOM     12  H3  UNL     1       6.182  25.534  28.921  1.00  0.00     0.189 HD
ENDBRANCH   6   8
ENDBRANCH   4   5
BRANCH   4  13
HETATM   13  N6  UNL     1       1.812  24.334  30.862  1.00  0.00    -0.371 N 
ATOM     14  H6  UNL     1       1.324  23.740  31.532  1.00  0.00     0.161 HD
BRANCH  13  15
HETATM   15  C4  UNL     1       1.407  24.397  29.474  1.00  0.00     0.083 A 
HETATM   16  C5  UNL     1       0.280  23.470  29.108  1.00  0.00     0.027 A 
HETATM   17  C6  UNL     1       1.647  23.294  28.535  1.00  0.00     0.027 A 
ENDBRANCH  13  15
ENDBRANCH   4  13
TORSDOF 4
ENDMDL
MODEL 2
REMARK VINA RESULT: -6.007332374      2.040      5.413
REMARK  4 active torsions:
REMARK  status: ('A' for Active; 'I' for Inactive)
REMARK    1  A    between atoms: C1_4  and  C2_5 
REMARK    2  A    between atoms: C1_4  and  N6_13 
REMARK    3  A    between atoms: N2_6  and  N3_8 
REMARK    4  A    between atoms: N6_13  and  C4_15 
ROOT
HETATM    1  N1  UNL     1       4.907  23.659  31.886  1.00  0.00    -0.385 N 
ATOM      2  H11 UNL     1       5.925  23.720  31.894  1.00  0.00     0.157 HD
ATOM      3  H12 UNL     1       4.451  22.934  32.440  1.00  0.00     0.157 HD
HETATM    4  C1  UNL     1       4.205  24.489  31.184  1.00  0.00     0.112 C 
ENDROOT
BRANCH   4   5
HETATM    5  C2  UNL     1       2.761  24.403  31.173  1.00  0.00     0.154 C 
HETATM    6  N2  UNL     1       2.147  24.247  30.057  1.00  0.00    -0.306 N 
ATOM      7  H2  UNL     1       2.688  24.187  29.193  1.00  0.00     0.186 HD
BRANCH   6   8
HETATM    8  N3  UNL     1       0.758  24.158  29.999  1.00  0.00    -0.276 N 
HETATM    9  C3  UNL     1       0.218  23.379  29.140  1.00  0.00     0.215 C 
HETATM   10  N4  UNL     1       1.025  22.629  28.273  1.00  0.00    -0.065 NA
HETATM   11  N5  UNL     1      -1.201  23.301  29.095  1.00  0.00    -0.065 NA
ATOM     12  H3  UNL     1       0.179  24.707  30.635  1.00  0.00     0.189 HD
ENDBRANCH   6   8
ENDBRANCH   4   5
BRANCH   4  13
HETATM   13  N6  UNL     1       4.844  25.507  30.407  1.00  0.00    -0.371 N 
ATOM     14  H6  UNL     1       4.815  26.487  30.689  1.00  0.00     0.161 HD
BRANCH  13  15
HETATM   15  C4  UNL     1       5.532  25.087  29.204  1.00  0.00     0.083 A 
HETATM   16  C5  UNL     1       6.290  26.180  28.503  1.00  0.00     0.027 A 
HETATM   17  C6  UNL     1       5.112  25.522  27.867  1.00  0.00     0.027 A 
ENDBRANCH  13  15
ENDBRANCH   4  13
TORSDOF 4
ENDMDL
MODEL 3
REMARK VINA RESULT: -5.977937617      2.250      5.283
REMARK  4 active torsions:
REMARK  status: ('A' for Active; 'I' for Inactive)
REMARK    1  A    between atoms: C1_4  and  C2_5 
REMARK    2  A    between atoms: C1_4  and  N6_13 
REMARK    3  A    between atoms: N2_6  and  N3_8 
REMARK    4  A    between atoms: N6_13  and  C4_15 
ROOT
HETATM    1  N1  UNL     1       4.441  25.135  31.623  1.00  0.00    -0.385 N 
ATOM      2  H11 UNL     1       5.310  25.666  31.578  1.00  0.00     0.157 HD
ATOM      3  H12 UNL     1       4.306  24.474  32.388  1.00  0.00     0.157 HD
HETATM    4  C1  UNL     1       3.524  25.297  30.725  1.00  0.00     0.112 C 
ENDROOT
BRANCH   4   5
HETATM    5  C2  UNL     1       2.291  24.543  30.790  1.00  0.00     0.154 C 
HETATM    6  N2  UNL     1       1.487  24.562  29.790  1.00  0.00    -0.306 N 
ATOM      7  H2  UNL     1       1.729  25.110  28.964  1.00  0.00     0.186 HD
BRANCH   6   8
HETATM    8  N3  UNL     1       0.290  23.850  29.809  1.00  0.00    -0.276 N 
HETATM    9  C3  UNL     1       0.050  23.007  28.877  1.00  0.00     0.215 C 
HETATM   10  N4  UNL     1       0.991  22.810  27.856  1.00  0.00    -0.065 NA
HETATM   11  N5  UNL     1      -1.176  22.289  28.912  1.00  0.00    -0.065 NA
ATOM     12  H3  UNL     1      -0.387  23.999  30.557  1.00  0.00     0.189 HD
ENDBRANCH   6   8
ENDBRANCH   4   5
BRANCH   4  13
HETATM   13  N6  UNL     1       3.712  26.225  29.651  1.00  0.00    -0.371 N 
ATOM     14  H6  UNL     1       3.181  27.094  29.601  1.00  0.00     0.161 HD
BRANCH  13  15
HETATM   15  C4  UNL     1       4.690  25.878  28.641  1.00  0.00     0.083 A 
HETATM   16  C5  UNL     1       4.119  25.664  27.266  1.00  0.00     0.027 A 
HETATM   17  C6  UNL     1       4.746  24.545  28.028  1.00  0.00     0.027 A 
ENDBRANCH  13  15
ENDBRANCH   4  13
TORSDOF 4
ENDMDL
MODEL 4
REMARK VINA RESULT: -5.789913176      2.253      5.398
REMARK  4 active torsions:
REMARK  status: ('A' for Active; 'I' for Inactive)
REMARK    1  A    between atoms: C1_4  and  C2_5 
REMARK    2  A    between atoms: C1_4  and  N6_13 
REMARK    3  A    between atoms: N2_6  and  N3_8 
REMARK    4  A    between atoms: N6_13  and  C4_15 
ROOT
HETATM    1  N1  UNL     1       3.913  26.511  30.018  1.00  0.00    -0.385 N 
ATOM      2  H11 UNL     1       4.799  26.996  29.873  1.00  0.00     0.157 HD
ATOM      3  H12 UNL     1       3.042  27.002  29.816  1.00  0.00     0.157 HD
HETATM    4  C1  UNL     1       3.895  25.291  30.449  1.00  0.00     0.112 C 
ENDROOT
BRANCH   4   5
HETATM    5  C2  UNL     1       2.639  24.604  30.655  1.00  0.00     0.154 C 
HETATM    6  N2  UNL     1       1.758  24.608  29.722  1.00  0.00    -0.306 N 
ATOM      7  H2  UNL     1       1.956  25.097  28.849  1.00  0.00     0.186 HD
BRANCH   6   8
HETATM    8  N3  UNL     1       0.536  23.957  29.876  1.00  0.00    -0.276 N 
HETATM    9  C3  UNL     1       0.167  23.105  28.997  1.00  0.00     0.215 C 
HETATM   10  N4  UNL     1       0.993  22.836  27.896  1.00  0.00    -0.065 NA
HETATM   11  N5  UNL     1      -1.083  22.451  29.170  1.00  0.00    -0.065 NA
ATOM     12  H3  UNL     1      -0.058  24.159  30.681  1.00  0.00     0.189 HD
ENDBRANCH   6   8
ENDBRANCH   4   5
BRANCH   4  13
HETATM   13  N6  UNL     1       5.117  24.601  30.732  1.00  0.00    -0.371 N 
ATOM     14  H6  UNL     1       5.874  25.051  31.248  1.00  0.00     0.161 HD
BRANCH  13  15
HETATM   15  C4  UNL     1       5.233  23.238  30.257  1.00  0.00     0.083 A 
HETATM   16  C5  UNL     1       6.474  22.959  29.454  1.00  0.00     0.027 A 
HETATM   17  C6  UNL     1       5.117  22.891  28.835  1.00  0.00     0.027 A 
ENDBRANCH  13  15
ENDBRANCH   4  13
TORSDOF 4
ENDMDL
MODEL 5
REMARK VINA RESULT: -5.738972390      2.618      5.996
REMARK  4 active torsions:
REMARK  status: ('A' for Active; 'I' for Inactive)
REMARK    1  A    between atoms: C1_4  and  C2_5 
REMARK    2  A    between atoms: C1_4  and  N6_13 
REMARK    3  A    between atoms: N2_6  and  N3_8 
REMARK    4  A    between atoms: N6_13  and  C4_15 
ROOT
HETATM    1  N1  UNL     1       3.926  23.915  31.228  1.00  0.00    -0.385 N 
ATOM      2  H11 UNL     1       4.925  23.730  31.139  1.00  0.00     0.157 HD
ATOM      3  H12 UNL     1       3.487  23.825  32.144  1.00  0.00     0.157 HD
HETATM    4  C1  UNL     1       3.227  24.258  30.195  1.00  0.00     0.112 C 
ENDROOT
BRANCH   4   5
HETATM    5  C2  UNL     1       1.810  24.520  30.321  1.00  0.00     0.154 C 
HETATM    6  N2  UNL     1       0.981  23.874  29.585  1.00  0.00    -0.306 N 
ATOM      7  H2  UNL     1       1.334  23.185  28.920  1.00  0.00     0.186 HD
BRANCH   6   8
HETATM    8  N3  UNL     1      -0.392  24.093  29.675  1.00  0.00    -0.276 N 
HETATM    9  C3  UNL     1      -1.197  23.193  29.253  1.00  0.00     0.215 C 
HETATM   10  N4  UNL     1      -0.690  22.003  28.711  1.00  0.00    -0.065 NA
HETATM   11  N5  UNL     1      -2.594  23.433  29.351  1.00  0.00    -0.065 NA
ATOM     12  H3  UNL     1      -0.751  24.961  30.072  1.00  0.00     0.189 HD
ENDBRANCH   6   8
ENDBRANCH   4   5
BRANCH   4  13
HETATM   13  N6  UNL     1       3.842  24.384  28.909  1.00  0.00    -0.371 N 
ATOM     14  H6  UNL     1       4.067  23.564  28.345  1.00  0.00     0.161 HD
BRANCH  13  15
HETATM   15  C4  UNL     1       4.130  25.724  28.441  1.00  0.00     0.083 A 
HETATM   16  C5  UNL     1       5.588  26.001  28.195  1.00  0.00     0.027 A 
HETATM   17  C6  UNL     1       4.835  26.710  29.270  1.00  0.00     0.027 A 
ENDBRANCH  13  15
ENDBRANCH   4  13
TORSDOF 4
ENDMDL
