MODEL 1
REMARK VINA RESULT: -5.838571448      0.000      0.000
REMARK  5 active torsions:
REMARK  status: ('A' for Active; 'I' for Inactive)
REMARK    1  A    between atoms: C5_6  and  C6_7 
REMARK    2  A    between atoms: C5_6  and  N2_10 
REMARK    3  A    between atoms: C6_7  and  O1_8 
REMARK    4  A    between atoms: N2_10  and  N3_12 
REMARK    5  A    between atoms: N3_12  and  N4_13 
ROOT
HETATM    1  C1  UNL     1       3.419  23.656  27.582  1.00  0.00     0.272 C 
HETATM    2  N1  UNL     1       3.584  25.087  27.584  1.00  0.00    -0.072 N 
HETATM    3  C2  UNL     1       3.217  25.687  26.318  1.00  0.00     0.272 C 
HETATM    4  C3  UNL     1       4.977  25.375  27.844  1.00  0.00     0.239 C 
HETATM    5  C4  UNL     1       5.020  25.386  29.359  1.00  0.00     0.064 C 
HETATM    6  C5  UNL     1       3.795  26.279  29.619  1.00  0.00     0.091 C 
HETATM    7  C7  UNL     1       2.814  25.680  28.646  1.00  0.00     0.270 C 
ENDROOT
BRANCH   6   8
HETATM    8  C6  UNL     1       3.365  26.128  31.051  1.00  0.00     0.198 C 
BRANCH   8   9
HETATM    9  O1  UNL     1       4.517  25.777  31.794  1.00  0.00    -0.398 OA
ATOM     10  H1  UNL     1       4.221  25.504  32.653  1.00  0.00     0.209 HD
ENDBRANCH   8   9
ENDBRANCH   6   8
BRANCH   6  11
HETATM   11  N2  UNL     1       4.183  27.604  29.262  1.00  0.00    -0.306 N 
ATOM     12  H2  UNL     1       4.728  27.802  28.424  1.00  0.00     0.178 HD
BRANCH  11  13
HETATM   13  N3  UNL     1       3.776  28.595  30.117  1.00  0.00    -0.034 NA
BRANCH  13  14
HETATM   14  N4  UNL     1       2.909  29.452  29.388  1.00  0.00    -0.329 N 
ATOM     15  H42 UNL     1       2.878  29.541  28.373  1.00  0.00     0.174 HD
ATOM     16  H41 UNL     1       2.334  29.950  30.068  1.00  0.00     0.174 HD
ENDBRANCH  13  14
ENDBRANCH  11  13
ENDBRANCH   6  11
TORSDOF 5
ENDMDL
MODEL 2
REMARK VINA RESULT: -5.721791809      1.154      1.275
REMARK  5 active torsions:
REMARK  status: ('A' for Active; 'I' for Inactive)
REMARK    1  A    between atoms: C5_6  and  C6_7 
REMARK    2  A    between atoms: C5_6  and  N2_10 
REMARK    3  A    between atoms: C6_7  and  O1_8 
REMARK    4  A    between atoms: N2_10  and  N3_12 
REMARK    5  A    between atoms: N3_12  and  N4_13 
ROOT
HETATM    1  C1  UNL     1       2.421  23.535  27.738  1.00  0.00     0.272 C 
HETATM    2  N1  UNL     1       3.199  24.722  27.979  1.00  0.00    -0.072 N 
HETATM    3  C2  UNL     1       3.299  25.565  26.805  1.00  0.00     0.272 C 
HETATM    4  C3  UNL     1       4.531  24.313  28.367  1.00  0.00     0.239 C 
HETATM    5  C4  UNL     1       4.381  24.129  29.864  1.00  0.00     0.064 C 
HETATM    6  C5  UNL     1       3.653  25.445  30.187  1.00  0.00     0.091 C 
HETATM    7  C7  UNL     1       2.642  25.475  29.073  1.00  0.00     0.270 C 
ENDROOT
BRANCH   6   8
HETATM    8  C6  UNL     1       3.022  25.343  31.548  1.00  0.00     0.198 C 
BRANCH   8   9
HETATM    9  O1  UNL     1       3.325  26.543  32.234  1.00  0.00    -0.398 OA
ATOM     10  H1  UNL     1       2.582  26.738  32.793  1.00  0.00     0.209 HD
ENDBRANCH   8   9
ENDBRANCH   6   8
BRANCH   6  11
HETATM   11  N2  UNL     1       4.628  26.479  30.072  1.00  0.00    -0.306 N 
ATOM     12  H2  UNL     1       5.623  26.303  30.205  1.00  0.00     0.178 HD
BRANCH  11  13
HETATM   13  N3  UNL     1       4.143  27.725  29.770  1.00  0.00    -0.034 NA
BRANCH  13  14
HETATM   14  N4  UNL     1       5.260  28.554  29.479  1.00  0.00    -0.329 N 
ATOM     15  H42 UNL     1       5.468  29.447  29.925  1.00  0.00     0.174 HD
ATOM     16  H41 UNL     1       5.800  28.089  28.749  1.00  0.00     0.174 HD
ENDBRANCH  13  14
ENDBRANCH  11  13
ENDBRANCH   6  11
TORSDOF 5
ENDMDL
MODEL 3
REMARK VINA RESULT: -5.608724170      2.187      2.790
REMARK  5 active torsions:
REMARK  status: ('A' for Active; 'I' for Inactive)
REMARK    1  A    between atoms: C5_6  and  C6_7 
REMARK    2  A    between atoms: C5_6  and  N2_10 
REMARK    3  A    between atoms: C6_7  and  O1_8 
REMARK    4  A    between atoms: N2_10  and  N3_12 
REMARK    5  A    between atoms: N3_12  and  N4_13 
ROOT
HETATM    1  C1  UNL     1       1.453  24.382  29.393  1.00  0.00     0.272 C 
HETATM    2  N1  UNL     1       2.880  24.525  29.261  1.00  0.00    -0.072 N 
HETATM    3  C2  UNL     1       3.464  23.492  28.430  1.00  0.00     0.272 C 
HETATM    4  C3  UNL     1       3.461  24.436  30.582  1.00  0.00     0.239 C 
HETATM    5  C4  UNL     1       3.380  25.872  31.060  1.00  0.00     0.064 C 
HETATM    6  C5  UNL     1       3.949  26.565  29.810  1.00  0.00     0.091 C 
HETATM    7  C7  UNL     1       3.209  25.822  28.730  1.00  0.00     0.270 C 
ENDROOT
BRANCH   6   8
HETATM    8  C6  UNL     1       3.608  28.028  29.853  1.00  0.00     0.198 C 
BRANCH   8   9
HETATM    9  O1  UNL     1       4.832  28.737  29.862  1.00  0.00    -0.398 OA
ATOM     10  H1  UNL     1       4.723  29.471  30.455  1.00  0.00     0.209 HD
ENDBRANCH   8   9
ENDBRANCH   6   8
BRANCH   6  11
HETATM   11  N2  UNL     1       5.348  26.292  29.804  1.00  0.00    -0.306 N 
ATOM     12  H2  UNL     1       5.839  25.961  30.634  1.00  0.00     0.178 HD
BRANCH  11  13
HETATM   13  N3  UNL     1       5.992  26.501  28.612  1.00  0.00    -0.034 NA
BRANCH  13  14
HETATM   14  N4  UNL     1       7.172  27.239  28.893  1.00  0.00    -0.329 N 
ATOM     15  H42 UNL     1       7.723  27.174  29.750  1.00  0.00     0.174 HD
ATOM     16  H41 UNL     1       7.356  27.836  28.087  1.00  0.00     0.174 HD
ENDBRANCH  13  14
ENDBRANCH  11  13
ENDBRANCH   6  11
TORSDOF 5
ENDMDL
MODEL 4
REMARK VINA RESULT: -5.546188939      1.840      2.585
REMARK  5 active torsions:
REMARK  status: ('A' for Active; 'I' for Inactive)
REMARK    1  A    between atoms: C5_6  and  C6_7 
REMARK    2  A    between atoms: C5_6  and  N2_10 
REMARK    3  A    between atoms: C6_7  and  O1_8 
REMARK    4  A    between atoms: N2_10  and  N3_12 
REMARK    5  A    between atoms: N3_12  and  N4_13 
ROOT
HETATM    1  C1  UNL     1       4.855  23.428  29.955  1.00  0.00     0.272 C 
HETATM    2  N1  UNL     1       4.031  24.609  29.940  1.00  0.00    -0.072 N 
HETATM    3  C2  UNL     1       2.870  24.484  30.798  1.00  0.00     0.272 C 
HETATM    4  C3  UNL     1       3.580  24.822  28.583  1.00  0.00     0.239 C 
HETATM    5  C4  UNL     1       4.719  25.631  27.995  1.00  0.00     0.064 C 
HETATM    6  C5  UNL     1       4.875  26.665  29.123  1.00  0.00     0.091 C 
HETATM    7  C7  UNL     1       4.800  25.764  30.327  1.00  0.00     0.270 C 
ENDROOT
BRANCH   6   8
HETATM    8  C6  UNL     1       6.206  27.351  28.988  1.00  0.00     0.198 C 
BRANCH   8   9
HETATM    9  O1  UNL     1       5.998  28.718  29.290  1.00  0.00    -0.398 OA
ATOM     10  H1  UNL     1       6.454  29.221  28.627  1.00  0.00     0.209 HD
ENDBRANCH   8   9
ENDBRANCH   6   8
BRANCH   6  11
HETATM   11  N2  UNL     1       3.754  27.540  29.022  1.00  0.00    -0.306 N 
ATOM     12  H2  UNL     1       3.251  27.677  28.146  1.00  0.00     0.178 HD
BRANCH  11  13
HETATM   13  N3  UNL     1       3.395  28.186  30.176  1.00  0.00    -0.034 NA
BRANCH  13  14
HETATM   14  N4  UNL     1       3.007  29.505  29.819  1.00  0.00    -0.329 N 
ATOM     15  H42 UNL     1       2.719  29.807  28.889  1.00  0.00     0.174 HD
ATOM     16  H41 UNL     1       3.073  30.078  30.661  1.00  0.00     0.174 HD
ENDBRANCH  13  14
ENDBRANCH  11  13
ENDBRANCH   6  11
TORSDOF 5
ENDMDL
MODEL 5
REMARK VINA RESULT: -5.463987225      2.417      3.467
REMARK  5 active torsions:
REMARK  status: ('A' for Active; 'I' for Inactive)
REMARK    1  A    between atoms: C5_6  and  C6_7 
REMARK    2  A    between atoms: C5_6  and  N2_10 
REMARK    3  A    between atoms: C6_7  and  O1_8 
REMARK    4  A    between atoms: N2_10  and  N3_12 
REMARK    5  A    between atoms: N3_12  and  N4_13 
ROOT
HETATM    1  C1  UNL     1       2.463  26.729  27.968  1.00  0.00     0.272 C 
HETATM    2  N1  UNL     1       3.406  25.732  28.402  1.00  0.00    -0.072 N 
HETATM    3  C2  UNL     1       4.615  25.728  27.604  1.00  0.00     0.272 C 
HETATM    4  C3  UNL     1       2.773  24.437  28.286  1.00  0.00     0.239 C 
HETATM    5  C4  UNL     1       2.058  24.315  29.616  1.00  0.00     0.064 C 
HETATM    6  C5  UNL     1       3.213  24.733  30.540  1.00  0.00     0.091 C 
HETATM    7  C7  UNL     1       3.740  25.927  29.790  1.00  0.00     0.270 C 
ENDROOT
BRANCH   6   8
HETATM    8  C6  UNL     1       2.664  25.089  31.893  1.00  0.00     0.198 C 
BRANCH   8   9
HETATM    9  O1  UNL     1       3.279  26.303  32.282  1.00  0.00    -0.398 OA
ATOM     10  H1  UNL     1       2.582  26.909  32.500  1.00  0.00     0.209 HD
ENDBRANCH   8   9
ENDBRANCH   6   8
BRANCH   6  11
HETATM   11  N2  UNL     1       4.131  23.642  30.551  1.00  0.00    -0.306 N 
ATOM     12  H2  UNL     1       4.085  22.888  29.867  1.00  0.00     0.178 HD
BRANCH  11  13
HETATM   13  N3  UNL     1       5.081  23.671  31.539  1.00  0.00    -0.034 NA
BRANCH  13  14
HETATM   14  N4  UNL     1       6.136  22.809  31.136  1.00  0.00    -0.329 N 
ATOM     15  H42 UNL     1       6.222  22.364  30.222  1.00  0.00     0.174 HD
ATOM     16  H41 UNL     1       6.776  22.724  31.926  1.00  0.00     0.174 HD
ENDBRANCH  13  14
ENDBRANCH  11  13
ENDBRANCH   6  11
TORSDOF 5
ENDMDL
