MODEL 1
REMARK VINA RESULT: -5.688332178      0.000      0.000
REMARK  3 active torsions:
REMARK  status: ('A' for Active; 'I' for Inactive)
REMARK    1  A    between atoms: C2_2  and  S1_3 
REMARK    2  A    between atoms: S1_3  and  N1_6 
REMARK    3  A    between atoms: N1_6  and  N2_8 
REMARK       I    between atoms: N2_8  and  C3_10 
REMARK       I    between atoms: C3_10  and  N4_14 
ROOT
HETATM    1  N2  UNL     1       3.382  24.114  30.654  1.00  0.00    -0.123 N 
ATOM      2  H2  UNL     1       2.971  23.455  31.316  1.00  0.00     0.206 HD
HETATM    3  C3  UNL     1       3.670  25.423  31.070  1.00  0.00     0.686 C 
HETATM    4  N3  UNL     1       3.007  25.853  32.158  1.00  0.00    -0.234 N 
ATOM      5  H31 UNL     1       3.216  26.804  32.461  1.00  0.00     0.174 HD
ATOM      6  H32 UNL     1       2.365  25.235  32.654  1.00  0.00     0.174 HD
HETATM    7  N4  UNL     1       4.539  26.260  30.399  1.00  0.00    -0.230 N 
ATOM      8  H4  UNL     1       5.544  26.084  30.391  1.00  0.00     0.177 HD
HETATM    9  C4  UNL     1       3.957  27.418  29.696  1.00  0.00     0.165 C 
ENDROOT
BRANCH   1  10
HETATM   10  N1  UNL     1       3.653  23.695  29.328  1.00  0.00    -0.209 N 
ATOM     11  H1  UNL     1       4.559  23.402  28.963  1.00  0.00     0.201 HD
BRANCH  10  12
HETATM   12  S1  UNL     1       2.186  23.766  28.447  1.00  0.00     0.265 S 
HETATM   13  O1  UNL     1       2.340  24.896  27.441  1.00  0.00    -0.200 OA
HETATM   14  O2  UNL     1       1.982  22.440  27.743  1.00  0.00    -0.200 OA
BRANCH  12  15
HETATM   15  C2  UNL     1       0.775  24.068  29.444  1.00  0.00     0.122 C 
HETATM   16  C1  UNL     1      -0.293  23.354  29.288  1.00  0.00     0.025 C 
ENDBRANCH  12  15
ENDBRANCH  10  12
ENDBRANCH   1  10
TORSDOF 3
ENDMDL
MODEL 2
REMARK VINA RESULT: -5.327751038      2.563      4.155
REMARK  3 active torsions:
REMARK  status: ('A' for Active; 'I' for Inactive)
REMARK    1  A    between atoms: C2_2  and  S1_3 
REMARK    2  A    between atoms: S1_3  and  N1_6 
REMARK    3  A    between atoms: N1_6  and  N2_8 
REMARK       I    between atoms: N2_8  and  C3_10 
REMARK       I    between atoms: C3_10  and  N4_14 
ROOT
HETATM    1  N2  UNL     1       4.070  25.706  31.600  1.00  0.00    -0.123 N 
ATOM      2  H2  UNL     1       4.955  25.713  32.107  1.00  0.00     0.206 HD
HETATM    3  C3  UNL     1       3.438  24.483  31.328  1.00  0.00     0.686 C 
HETATM    4  N3  UNL     1       4.225  23.394  31.364  1.00  0.00    -0.234 N 
ATOM      5  H31 UNL     1       3.766  22.505  31.167  1.00  0.00     0.174 HD
ATOM      6  H32 UNL     1       5.211  23.473  31.612  1.00  0.00     0.174 HD
HETATM    7  N4  UNL     1       2.103  24.375  30.992  1.00  0.00    -0.230 N 
ATOM      8  H4  UNL     1       1.368  24.557  31.676  1.00  0.00     0.177 HD
HETATM    9  C4  UNL     1       1.781  23.987  29.606  1.00  0.00     0.165 C 
ENDROOT
BRANCH   1  10
HETATM   10  N1  UNL     1       3.496  26.932  31.181  1.00  0.00    -0.209 N 
ATOM     11  H1  UNL     1       2.821  27.490  31.703  1.00  0.00     0.201 HD
BRANCH  10  12
HETATM   12  S1  UNL     1       4.140  27.311  29.639  1.00  0.00     0.265 S 
HETATM   13  O1  UNL     1       2.966  27.332  28.673  1.00  0.00    -0.200 OA
HETATM   14  O2  UNL     1       4.802  28.672  29.715  1.00  0.00    -0.200 OA
BRANCH  12  15
HETATM   15  C2  UNL     1       5.337  26.162  29.070  1.00  0.00     0.122 C 
HETATM   16  C1  UNL     1       5.091  25.432  28.030  1.00  0.00     0.025 C 
ENDBRANCH  12  15
ENDBRANCH  10  12
ENDBRANCH   1  10
TORSDOF 3
ENDMDL
MODEL 3
REMARK VINA RESULT: -5.315366409      2.347      2.934
REMARK  3 active torsions:
REMARK  status: ('A' for Active; 'I' for Inactive)
REMARK    1  A    between atoms: C2_2  and  S1_3 
REMARK    2  A    between atoms: S1_3  and  N1_6 
REMARK    3  A    between atoms: N1_6  and  N2_8 
REMARK       I    between atoms: N2_8  and  C3_10 
REMARK       I    between atoms: C3_10  and  N4_14 
ROOT
HETATM    1  N2  UNL     1       5.006  25.425  29.256  1.00  0.00    -0.123 N 
ATOM      2  H2  UNL     1       5.788  25.112  28.680  1.00  0.00     0.206 HD
HETATM    3  C3  UNL     1       4.825  24.873  30.534  1.00  0.00     0.686 C 
HETATM    4  N3  UNL     1       5.415  23.684  30.750  1.00  0.00    -0.234 N 
ATOM      5  H31 UNL     1       5.284  23.284  31.678  1.00  0.00     0.174 HD
ATOM      6  H32 UNL     1       5.984  23.247  30.025  1.00  0.00     0.174 HD
HETATM    7  N4  UNL     1       4.055  25.465  31.515  1.00  0.00    -0.230 N 
ATOM      8  H4  UNL     1       4.351  26.327  31.973  1.00  0.00     0.177 HD
HETATM    9  C4  UNL     1       2.788  24.802  31.876  1.00  0.00     0.165 C 
ENDROOT
BRANCH   1  10
HETATM   10  N1  UNL     1       4.119  26.410  28.755  1.00  0.00    -0.209 N 
ATOM     11  H1  UNL     1       4.166  27.411  28.942  1.00  0.00     0.201 HD
BRANCH  10  12
HETATM   12  S1  UNL     1       2.955  25.618  27.780  1.00  0.00     0.265 S 
HETATM   13  O1  UNL     1       1.726  25.415  28.652  1.00  0.00    -0.200 OA
HETATM   14  O2  UNL     1       2.636  26.506  26.594  1.00  0.00    -0.200 OA
BRANCH  12  15
HETATM   15  C2  UNL     1       3.488  24.066  27.161  1.00  0.00     0.122 C 
HETATM   16  C1  UNL     1       2.961  22.973  27.611  1.00  0.00     0.025 C 
ENDBRANCH  12  15
ENDBRANCH  10  12
ENDBRANCH   1  10
TORSDOF 3
ENDMDL
MODEL 4
REMARK VINA RESULT: -5.302667993      3.385      4.183
REMARK  3 active torsions:
REMARK  status: ('A' for Active; 'I' for Inactive)
REMARK    1  A    between atoms: C2_2  and  S1_3 
REMARK    2  A    between atoms: S1_3  and  N1_6 
REMARK    3  A    between atoms: N1_6  and  N2_8 
REMARK       I    between atoms: N2_8  and  C3_10 
REMARK       I    between atoms: C3_10  and  N4_14 
ROOT
HETATM    1  N2  UNL     1       5.523  24.978  30.366  1.00  0.00    -0.123 N 
ATOM      2  H2  UNL     1       5.716  25.258  31.328  1.00  0.00     0.206 HD
HETATM    3  C3  UNL     1       5.349  23.619  30.063  1.00  0.00     0.686 C 
HETATM    4  N3  UNL     1       5.863  22.748  30.949  1.00  0.00    -0.234 N 
ATOM      5  H31 UNL     1       5.736  21.761  30.729  1.00  0.00     0.174 HD
ATOM      6  H32 UNL     1       6.315  23.080  31.801  1.00  0.00     0.174 HD
HETATM    7  N4  UNL     1       4.736  23.169  28.910  1.00  0.00    -0.230 N 
ATOM      8  H4  UNL     1       3.734  23.290  28.761  1.00  0.00     0.177 HD
HETATM    9  C4  UNL     1       5.587  22.509  27.903  1.00  0.00     0.165 C 
ENDROOT
BRANCH   1  10
HETATM   10  N1  UNL     1       5.435  25.967  29.355  1.00  0.00    -0.209 N 
ATOM     11  H1  UNL     1       6.072  26.079  28.567  1.00  0.00     0.201 HD
BRANCH  10  12
HETATM   12  S1  UNL     1       4.067  26.941  29.694  1.00  0.00     0.265 S 
HETATM   13  O1  UNL     1       3.612  26.575  31.098  1.00  0.00    -0.200 OA
HETATM   14  O2  UNL     1       4.483  28.397  29.623  1.00  0.00    -0.200 OA
BRANCH  12  15
HETATM   15  C2  UNL     1       2.737  26.707  28.575  1.00  0.00     0.122 C 
HETATM   16  C1  UNL     1       2.919  26.038  27.482  1.00  0.00     0.025 C 
ENDBRANCH  12  15
ENDBRANCH  10  12
ENDBRANCH   1  10
TORSDOF 3
ENDMDL
MODEL 5
REMARK VINA RESULT: -5.178693792      2.110      2.509
REMARK  3 active torsions:
REMARK  status: ('A' for Active; 'I' for Inactive)
REMARK    1  A    between atoms: C2_2  and  S1_3 
REMARK    2  A    between atoms: S1_3  and  N1_6 
REMARK    3  A    between atoms: N1_6  and  N2_8 
REMARK       I    between atoms: N2_8  and  C3_10 
REMARK       I    between atoms: C3_10  and  N4_14 
ROOT
HETATM    1  N2  UNL     1       5.095  25.056  29.416  1.00  0.00    -0.123 N 
ATOM      2  H2  UNL     1       5.858  24.651  28.873  1.00  0.00     0.206 HD
HETATM    3  C3  UNL     1       4.849  24.589  30.717  1.00  0.00     0.686 C 
HETATM    4  N3  UNL     1       5.337  23.370  31.006  1.00  0.00    -0.234 N 
ATOM      5  H31 UNL     1       5.159  23.031  31.951  1.00  0.00     0.174 HD
ATOM      6  H32 UNL     1       5.880  22.851  30.316  1.00  0.00     0.174 HD
HETATM    7  N4  UNL     1       4.114  25.292  31.650  1.00  0.00    -0.230 N 
ATOM      8  H4  UNL     1       4.471  26.150  32.069  1.00  0.00     0.177 HD
HETATM    9  C4  UNL     1       2.791  24.753  32.018  1.00  0.00     0.165 C 
ENDROOT
BRANCH   1  10
HETATM   10  N1  UNL     1       4.299  26.081  28.847  1.00  0.00    -0.209 N 
ATOM     11  H1  UNL     1       4.334  27.072  29.086  1.00  0.00     0.201 HD
BRANCH  10  12
HETATM   12  S1  UNL     1       3.269  25.359  27.685  1.00  0.00     0.265 S 
HETATM   13  O1  UNL     1       2.646  26.497  26.892  1.00  0.00    -0.200 OA
HETATM   14  O2  UNL     1       4.105  24.470  26.787  1.00  0.00    -0.200 OA
BRANCH  12  15
HETATM   15  C2  UNL     1       1.996  24.374  28.382  1.00  0.00     0.122 C 
HETATM   16  C1  UNL     1       1.902  23.121  28.070  1.00  0.00     0.025 C 
ENDBRANCH  12  15
ENDBRANCH  10  12
ENDBRANCH   1  10
TORSDOF 3
ENDMDL
