MODEL 1
REMARK VINA RESULT: -7.673575734      0.000      0.000
REMARK  6 active torsions:
REMARK  status: ('A' for Active; 'I' for Inactive)
REMARK    1  A    between atoms: O1_1  and  N1_3 
REMARK    2  A    between atoms: C3_6  and  N2_7 
REMARK    3  A    between atoms: N2_7  and  C4_9 
REMARK    4  A    between atoms: C5_12  and  N4_13 
REMARK    5  A    between atoms: C6_14  and  C7_15 
REMARK    6  A    between atoms: C7_15  and  O2_16 
ROOT
HETATM    1  C4  UNL     1      -5.179   5.391  14.502  1.00  0.00     0.684 A 
HETATM    2  N3  UNL     1      -5.382   5.563  13.175  1.00  0.00    -0.176 N 
ATOM      3  H3  UNL     1      -6.260   5.251  12.759  1.00  0.00     0.186 HD
HETATM    4  C5  UNL     1      -4.449   6.136  12.395  1.00  0.00     0.130 A 
HETATM    5  C14 UNL     1      -3.283   6.539  13.007  1.00  0.00     0.067 A 
HETATM    6  C15 UNL     1      -3.073   6.367  14.356  1.00  0.00     0.110 A 
HETATM    7  N6  UNL     1      -4.042   5.781  15.114  1.00  0.00    -0.202 N 
ATOM      8  H6  UNL     1      -3.912   5.641  16.116  1.00  0.00     0.183 HD
ENDROOT
BRANCH   4   9
HETATM    9  N4  UNL     1      -4.663   6.318  10.992  1.00  0.00    -0.282 N 
HETATM   10  C6  UNL     1      -4.304   5.481  10.002  1.00  0.00     0.114 A 
HETATM   11  N5  UNL     1      -4.674   5.990   8.801  1.00  0.00    -0.342 N 
HETATM   12  C8  UNL     1      -5.284   7.178   9.013  1.00  0.00     0.061 A 
ATOM     13  H5  UNL     1      -4.519   5.552   7.893  1.00  0.00     0.167 HD
HETATM   14  C9  UNL     1      -5.845   8.100   8.144  1.00  0.00     0.032 A 
HETATM   15  C13 UNL     1      -5.267   7.361  10.379  1.00  0.00     0.069 A 
HETATM   16  C10 UNL     1      -6.397   9.232   8.702  1.00  0.00     0.002 A 
HETATM   17  C11 UNL     1      -6.387   9.432  10.073  1.00  0.00     0.002 A 
HETATM   18  C12 UNL     1      -5.823   8.499  10.917  1.00  0.00     0.032 A 
BRANCH  10  19
HETATM   19  C7  UNL     1      -3.605   4.183  10.155  1.00  0.00     0.241 C 
BRANCH  19  20
HETATM   20  O2  UNL     1      -4.512   3.109  10.229  1.00  0.00    -0.393 OA
ATOM     21  H2  UNL     1      -5.213   3.283  10.846  1.00  0.00     0.209 HD
ENDBRANCH  19  20
ENDBRANCH  10  19
ENDBRANCH   4   9
BRANCH   1  22
HETATM   22  N2  UNL     1      -6.150   4.826  15.156  1.00  0.00    -0.192 N 
ATOM     23  H2  UNL     1      -7.011   5.345  15.330  1.00  0.00     0.184 HD
BRANCH  22  24
HETATM   24  C3  UNL     1      -6.025   3.493  15.631  1.00  0.00     0.051 A 
HETATM   25  C2  UNL     1      -6.806   3.072  16.682  1.00  0.00     0.050 A 
HETATM   26  C1  UNL     1      -6.682   1.777  17.140  1.00  0.00     0.124 A 
HETATM   27  N1  UNL     1      -5.816   0.909  16.586  1.00  0.00    -0.247 N 
HETATM   28  C17 UNL     1      -5.054   1.313  15.563  1.00  0.00     0.124 A 
HETATM   29  C16 UNL     1      -5.139   2.587  15.072  1.00  0.00     0.050 A 
BRANCH  27  30
HETATM   30  O1  UNL     1      -5.737  -0.384  17.092  1.00  0.00    -0.284 OA
ATOM     31  H1  UNL     1      -6.317  -1.053  16.746  1.00  0.00     0.245 HD
ENDBRANCH  27  30
ENDBRANCH  22  24
ENDBRANCH   1  22
TORSDOF 6
ENDMDL
MODEL 2
REMARK VINA RESULT: -7.198517946      1.510      1.732
REMARK  6 active torsions:
REMARK  status: ('A' for Active; 'I' for Inactive)
REMARK    1  A    between atoms: O1_1  and  N1_3 
REMARK    2  A    between atoms: C3_6  and  N2_7 
REMARK    3  A    between atoms: N2_7  and  C4_9 
REMARK    4  A    between atoms: C5_12  and  N4_13 
REMARK    5  A    between atoms: C6_14  and  C7_15 
REMARK    6  A    between atoms: C7_15  and  O2_16 
ROOT
HETATM    1  C4  UNL     1      -3.224   4.652  14.214  1.00  0.00     0.684 A 
HETATM    2  N3  UNL     1      -3.718   4.738  12.957  1.00  0.00    -0.176 N 
ATOM      3  H3  UNL     1      -4.017   3.889  12.478  1.00  0.00     0.186 HD
HETATM    4  C5  UNL     1      -3.820   5.922  12.328  1.00  0.00     0.130 A 
HETATM    5  C14 UNL     1      -3.402   7.036  13.019  1.00  0.00     0.067 A 
HETATM    6  C15 UNL     1      -2.900   6.953  14.297  1.00  0.00     0.110 A 
HETATM    7  N6  UNL     1      -2.811   5.736  14.903  1.00  0.00    -0.202 N 
ATOM      8  H6  UNL     1      -2.443   5.646  15.849  1.00  0.00     0.183 HD
ENDROOT
BRANCH   4   9
HETATM    9  N4  UNL     1      -4.343   6.013  10.998  1.00  0.00    -0.282 N 
HETATM   10  C6  UNL     1      -3.818   5.475   9.882  1.00  0.00     0.114 A 
HETATM   11  N5  UNL     1      -4.591   5.774   8.810  1.00  0.00    -0.342 N 
HETATM   12  C8  UNL     1      -5.637   6.518   9.234  1.00  0.00     0.061 A 
ATOM     13  H5  UNL     1      -4.415   5.486   7.847  1.00  0.00     0.167 HD
HETATM   14  C9  UNL     1      -6.709   7.080   8.560  1.00  0.00     0.032 A 
HETATM   15  C13 UNL     1      -5.462   6.655  10.594  1.00  0.00     0.069 A 
HETATM   16  C10 UNL     1      -7.615   7.797   9.310  1.00  0.00     0.002 A 
HETATM   17  C11 UNL     1      -7.454   7.943  10.678  1.00  0.00     0.002 A 
HETATM   18  C12 UNL     1      -6.379   7.374  11.326  1.00  0.00     0.032 A 
BRANCH  10  19
HETATM   19  C7  UNL     1      -2.578   4.666   9.792  1.00  0.00     0.241 C 
BRANCH  19  20
HETATM   20  O2  UNL     1      -2.277   4.322   8.461  1.00  0.00    -0.393 OA
ATOM     21  H2  UNL     1      -3.008   3.892   8.035  1.00  0.00     0.209 HD
ENDBRANCH  19  20
ENDBRANCH  10  19
ENDBRANCH   4   9
BRANCH   1  22
HETATM   22  N2  UNL     1      -3.171   3.456  14.722  1.00  0.00    -0.192 N 
ATOM     23  H2  UNL     1      -2.293   2.938  14.703  1.00  0.00     0.184 HD
BRANCH  22  24
HETATM   24  C3  UNL     1      -4.324   2.864  15.302  1.00  0.00     0.051 A 
HETATM   25  C2  UNL     1      -4.281   1.551  15.708  1.00  0.00     0.050 A 
HETATM   26  C1  UNL     1      -5.402   0.979  16.272  1.00  0.00     0.124 A 
HETATM   27  N1  UNL     1      -6.544   1.672  16.438  1.00  0.00    -0.247 N 
HETATM   28  C17 UNL     1      -6.592   2.950  16.045  1.00  0.00     0.124 A 
HETATM   29  C16 UNL     1      -5.507   3.563  15.481  1.00  0.00     0.050 A 
BRANCH  27  30
HETATM   30  O1  UNL     1      -7.641   1.040  17.013  1.00  0.00    -0.284 OA
ATOM     31  H1  UNL     1      -7.822   0.134  16.791  1.00  0.00     0.245 HD
ENDBRANCH  27  30
ENDBRANCH  22  24
ENDBRANCH   1  22
TORSDOF 6
ENDMDL
MODEL 3
REMARK VINA RESULT: -7.141867975      4.109      5.104
REMARK  6 active torsions:
REMARK  status: ('A' for Active; 'I' for Inactive)
REMARK    1  A    between atoms: O1_1  and  N1_3 
REMARK    2  A    between atoms: C3_6  and  N2_7 
REMARK    3  A    between atoms: N2_7  and  C4_9 
REMARK    4  A    between atoms: C5_12  and  N4_13 
REMARK    5  A    between atoms: C6_14  and  C7_15 
REMARK    6  A    between atoms: C7_15  and  O2_16 
ROOT
HETATM    1  C4  UNL     1      -4.218   3.407  14.547  1.00  0.00     0.684 A 
HETATM    2  N3  UNL     1      -3.154   4.108  14.092  1.00  0.00    -0.176 N 
ATOM      3  H3  UNL     1      -2.371   3.611  13.669  1.00  0.00     0.186 HD
HETATM    4  C5  UNL     1      -3.111   5.449  14.188  1.00  0.00     0.130 A 
HETATM    5  C14 UNL     1      -4.194   6.071  14.766  1.00  0.00     0.067 A 
HETATM    6  C15 UNL     1      -5.277   5.361  15.229  1.00  0.00     0.110 A 
HETATM    7  N6  UNL     1      -5.286   4.003  15.115  1.00  0.00    -0.202 N 
ATOM      8  H6  UNL     1      -6.077   3.454  15.451  1.00  0.00     0.183 HD
ENDROOT
BRANCH   4   9
HETATM    9  N4  UNL     1      -1.985   6.192  13.706  1.00  0.00    -0.282 N 
HETATM   10  C6  UNL     1      -1.151   5.844  12.709  1.00  0.00     0.114 A 
HETATM   11  N5  UNL     1      -0.203   6.798  12.539  1.00  0.00    -0.342 N 
HETATM   12  C8  UNL     1      -0.423   7.782  13.439  1.00  0.00     0.061 A 
ATOM     13  H5  UNL     1       0.548   6.777  11.849  1.00  0.00     0.167 HD
HETATM   14  C9  UNL     1       0.240   8.972  13.692  1.00  0.00     0.032 A 
HETATM   15  C13 UNL     1      -1.533   7.385  14.153  1.00  0.00     0.069 A 
HETATM   16  C10 UNL     1      -0.257   9.763  14.704  1.00  0.00     0.002 A 
HETATM   17  C11 UNL     1      -1.372   9.379  15.431  1.00  0.00     0.002 A 
HETATM   18  C12 UNL     1      -2.015   8.190  15.160  1.00  0.00     0.032 A 
BRANCH  10  19
HETATM   19  C7  UNL     1      -1.222   4.610  11.891  1.00  0.00     0.241 C 
BRANCH  19  20
HETATM   20  O2  UNL     1      -0.616   3.519  12.541  1.00  0.00    -0.393 OA
ATOM     21  H2  UNL     1      -0.129   3.794  13.309  1.00  0.00     0.209 HD
ENDBRANCH  19  20
ENDBRANCH  10  19
ENDBRANCH   4   9
BRANCH   1  22
HETATM   22  N2  UNL     1      -4.151   2.117  14.401  1.00  0.00    -0.192 N 
ATOM     23  H2  UNL     1      -3.940   1.528  15.208  1.00  0.00     0.184 HD
BRANCH  22  24
HETATM   24  C3  UNL     1      -4.367   1.518  13.132  1.00  0.00     0.051 A 
HETATM   25  C2  UNL     1      -4.134   0.172  12.969  1.00  0.00     0.050 A 
HETATM   26  C1  UNL     1      -4.345  -0.406  11.734  1.00  0.00     0.124 A 
HETATM   27  N1  UNL     1      -4.774   0.311  10.680  1.00  0.00    -0.247 N 
HETATM   28  C17 UNL     1      -5.003   1.621  10.833  1.00  0.00     0.124 A 
HETATM   29  C16 UNL     1      -4.808   2.241  12.036  1.00  0.00     0.050 A 
BRANCH  27  30
HETATM   30  O1  UNL     1      -4.969  -0.329   9.461  1.00  0.00    -0.284 OA
ATOM     31  H1  UNL     1      -5.415   0.134   8.761  1.00  0.00     0.245 HD
ENDBRANCH  27  30
ENDBRANCH  22  24
ENDBRANCH   1  22
TORSDOF 6
ENDMDL
MODEL 4
REMARK VINA RESULT: -7.126839877      2.641      4.115
REMARK  6 active torsions:
REMARK  status: ('A' for Active; 'I' for Inactive)
REMARK    1  A    between atoms: O1_1  and  N1_3 
REMARK    2  A    between atoms: C3_6  and  N2_7 
REMARK    3  A    between atoms: N2_7  and  C4_9 
REMARK    4  A    between atoms: C5_12  and  N4_13 
REMARK    5  A    between atoms: C6_14  and  C7_15 
REMARK    6  A    between atoms: C7_15  and  O2_16 
ROOT
HETATM    1  C4  UNL     1      -4.910   2.754  14.654  1.00  0.00     0.684 A 
HETATM    2  N3  UNL     1      -4.335   3.753  13.945  1.00  0.00    -0.176 N 
ATOM      3  H3  UNL     1      -3.613   3.529  13.261  1.00  0.00     0.186 HD
HETATM    4  C5  UNL     1      -4.699   5.035  14.126  1.00  0.00     0.130 A 
HETATM    5  C14 UNL     1      -5.678   5.281  15.061  1.00  0.00     0.067 A 
HETATM    6  C15 UNL     1      -6.265   4.268  15.784  1.00  0.00     0.110 A 
HETATM    7  N6  UNL     1      -5.870   2.981  15.573  1.00  0.00    -0.202 N 
ATOM      8  H6  UNL     1      -6.289   2.212  16.095  1.00  0.00     0.183 HD
ENDROOT
BRANCH   4   9
HETATM    9  N4  UNL     1      -4.092   6.092  13.376  1.00  0.00    -0.282 N 
HETATM   10  C6  UNL     1      -2.793   6.442  13.375  1.00  0.00     0.114 A 
HETATM   11  N5  UNL     1      -2.592   7.492  12.541  1.00  0.00    -0.342 N 
HETATM   12  C8  UNL     1      -3.779   7.829  11.989  1.00  0.00     0.061 A 
ATOM     13  H5  UNL     1      -1.698   7.948  12.359  1.00  0.00     0.167 HD
HETATM   14  C9  UNL     1      -4.132   8.816  11.082  1.00  0.00     0.032 A 
HETATM   15  C13 UNL     1      -4.695   6.948  12.521  1.00  0.00     0.069 A 
HETATM   16  C10 UNL     1      -5.460   8.889  10.722  1.00  0.00     0.002 A 
HETATM   17  C11 UNL     1      -6.394   8.010  11.248  1.00  0.00     0.002 A 
HETATM   18  C12 UNL     1      -6.017   7.038  12.149  1.00  0.00     0.032 A 
BRANCH  10  19
HETATM   19  C7  UNL     1      -1.706   5.803  14.156  1.00  0.00     0.241 C 
BRANCH  19  20
HETATM   20  O2  UNL     1      -1.377   4.533  13.646  1.00  0.00    -0.393 OA
ATOM     21  H2  UNL     1      -1.089   3.943  14.332  1.00  0.00     0.209 HD
ENDBRANCH  19  20
ENDBRANCH  10  19
ENDBRANCH   4   9
BRANCH   1  22
HETATM   22  N2  UNL     1      -4.479   1.555  14.395  1.00  0.00    -0.192 N 
ATOM     23  H2  UNL     1      -4.120   0.973  15.153  1.00  0.00     0.184 HD
BRANCH  22  24
HETATM   24  C3  UNL     1      -4.503   1.046  13.070  1.00  0.00     0.051 A 
HETATM   25  C2  UNL     1      -4.880   1.870  12.034  1.00  0.00     0.050 A 
HETATM   26  C1  UNL     1      -4.902   1.372  10.748  1.00  0.00     0.124 A 
HETATM   27  N1  UNL     1      -4.564   0.100  10.474  1.00  0.00    -0.247 N 
HETATM   28  C17 UNL     1      -4.196  -0.706  11.477  1.00  0.00     0.124 A 
HETATM   29  C16 UNL     1      -4.158  -0.261  12.770  1.00  0.00     0.050 A 
BRANCH  27  30
HETATM   30  O1  UNL     1      -4.605  -0.343   9.157  1.00  0.00    -0.284 OA
ATOM     31  H1  UNL     1      -4.162  -1.151   8.926  1.00  0.00     0.245 HD
ENDBRANCH  27  30
ENDBRANCH  22  24
ENDBRANCH   1  22
TORSDOF 6
ENDMDL
MODEL 5
REMARK VINA RESULT: -7.122049619      3.297      5.104
REMARK  6 active torsions:
REMARK  status: ('A' for Active; 'I' for Inactive)
REMARK    1  A    between atoms: O1_1  and  N1_3 
REMARK    2  A    between atoms: C3_6  and  N2_7 
REMARK    3  A    between atoms: N2_7  and  C4_9 
REMARK    4  A    between atoms: C5_12  and  N4_13 
REMARK    5  A    between atoms: C6_14  and  C7_15 
REMARK    6  A    between atoms: C7_15  and  O2_16 
ROOT
HETATM    1  C4  UNL     1      -3.942   2.263  12.582  1.00  0.00     0.684 A 
HETATM    2  N3  UNL     1      -2.978   3.175  12.849  1.00  0.00    -0.176 N 
ATOM      3  H3  UNL     1      -2.443   3.098  13.714  1.00  0.00     0.186 HD
HETATM    4  C5  UNL     1      -2.715   4.181  11.996  1.00  0.00     0.130 A 
HETATM    5  C14 UNL     1      -3.466   4.238  10.845  1.00  0.00     0.067 A 
HETATM    6  C15 UNL     1      -4.446   3.312  10.569  1.00  0.00     0.110 A 
HETATM    7  N6  UNL     1      -4.685   2.307  11.457  1.00  0.00    -0.202 N 
ATOM      8  H6  UNL     1      -5.406   1.608  11.277  1.00  0.00     0.183 HD
ENDROOT
BRANCH   4   9
HETATM    9  N4  UNL     1      -1.695   5.146  12.279  1.00  0.00    -0.282 N 
HETATM   10  C6  UNL     1      -1.830   6.283  12.985  1.00  0.00     0.114 A 
HETATM   11  N5  UNL     1      -0.646   6.941  13.040  1.00  0.00    -0.342 N 
HETATM   12  C8  UNL     1       0.274   6.221  12.360  1.00  0.00     0.061 A 
ATOM     13  H5  UNL     1      -0.478   7.829  13.514  1.00  0.00     0.167 HD
HETATM   14  C9  UNL     1       1.620   6.435  12.110  1.00  0.00     0.032 A 
HETATM   15  C13 UNL     1      -0.399   5.111  11.896  1.00  0.00     0.069 A 
HETATM   16  C10 UNL     1       2.278   5.482  11.365  1.00  0.00     0.002 A 
HETATM   17  C11 UNL     1       1.617   4.361  10.891  1.00  0.00     0.002 A 
HETATM   18  C12 UNL     1       0.277   4.170  11.154  1.00  0.00     0.032 A 
BRANCH  10  19
HETATM   19  C7  UNL     1      -3.070   6.782  13.625  1.00  0.00     0.241 C 
BRANCH  19  20
HETATM   20  O2  UNL     1      -3.522   5.910  14.634  1.00  0.00    -0.393 OA
ATOM     21  H2  UNL     1      -3.486   5.003  14.356  1.00  0.00     0.209 HD
ENDBRANCH  19  20
ENDBRANCH  10  19
ENDBRANCH   4   9
BRANCH   1  22
HETATM   22  N2  UNL     1      -4.109   1.336  13.478  1.00  0.00    -0.192 N 
ATOM     23  H2  UNL     1      -3.777   0.389  13.293  1.00  0.00     0.184 HD
BRANCH  22  24
HETATM   24  C3  UNL     1      -4.749   1.627  14.712  1.00  0.00     0.051 A 
HETATM   25  C2  UNL     1      -4.594   0.769  15.775  1.00  0.00     0.050 A 
HETATM   26  C1  UNL     1      -5.217   1.056  16.972  1.00  0.00     0.124 A 
HETATM   27  N1  UNL     1      -5.975   2.155  17.132  1.00  0.00    -0.247 N 
HETATM   28  C17 UNL     1      -6.129   2.994  16.100  1.00  0.00     0.124 A 
HETATM   29  C16 UNL     1      -5.533   2.755  14.892  1.00  0.00     0.050 A 
BRANCH  27  30
HETATM   30  O1  UNL     1      -6.577   2.389  18.363  1.00  0.00    -0.284 OA
ATOM     31  H1  UNL     1      -7.457   2.748  18.387  1.00  0.00     0.245 HD
ENDBRANCH  27  30
ENDBRANCH  22  24
ENDBRANCH   1  22
TORSDOF 6
ENDMDL
