MODEL 1
REMARK VINA RESULT: -7.475527423      0.000      0.000
REMARK  7 active torsions:
REMARK  status: ('A' for Active; 'I' for Inactive)
REMARK    1  A    between atoms: C3_3  and  O1_4 
REMARK    2  A    between atoms: C3_3  and  O2_6 
REMARK    3  A    between atoms: O2_6  and  C4_7 
REMARK    4  A    between atoms: C8_11  and  C9_12 
REMARK    5  A    between atoms: C10_13  and  C11_14 
REMARK    6  A    between atoms: C11_14  and  N1_15 
REMARK    7  A    between atoms: C16_24  and  N4_25 
ROOT
HETATM    1  C1  UNL     1      -6.200   2.345  19.300  1.00  0.00     0.017 C 
HETATM    2  C2  UNL     1      -6.120   2.037  18.131  1.00  0.00    -0.057 C 
HETATM    3  C3  UNL     1      -6.040   1.655  16.715  1.00  0.00     0.345 C 
ENDROOT
BRANCH   3   4
HETATM    4  O1  UNL     1      -6.906   0.572  16.473  1.00  0.00    -0.361 OA
ATOM      5  H1  UNL     1      -7.007   0.452  15.537  1.00  0.00     0.213 HD
ENDBRANCH   3   4
BRANCH   3   6
HETATM    6  O2  UNL     1      -6.476   2.716  15.925  1.00  0.00    -0.309 OA
BRANCH   6   7
HETATM    7  C4  UNL     1      -5.709   3.480  15.090  1.00  0.00     0.075 A 
HETATM    8  C5  UNL     1      -6.306   4.631  14.562  1.00  0.00     0.038 A 
HETATM    9  C6  UNL     1      -5.592   5.453  13.710  1.00  0.00     0.019 A 
HETATM   10  C7  UNL     1      -4.286   5.149  13.370  1.00  0.00     0.027 A 
HETATM   11  C8  UNL     1      -3.550   5.961  12.516  1.00  0.00     0.115 A 
HETATM   12  C18 UNL     1      -3.679   4.025  13.875  1.00  0.00     0.065 A 
HETATM   13  N3  UNL     1      -2.292   5.639  12.209  1.00  0.00    -0.183 N 
HETATM   14  C16 UNL     1      -1.689   4.540  12.699  1.00  0.00     0.679 A 
ATOM     15  H3  UNL     1      -1.768   6.248  11.580  1.00  0.00     0.185 HD
HETATM   16  N5  UNL     1      -2.419   3.769  13.523  1.00  0.00    -0.191 N 
ATOM     17  H5  UNL     1      -1.980   2.931  13.905  1.00  0.00     0.184 HD
HETATM   18  C19 UNL     1      -4.420   3.225  14.725  1.00  0.00     0.067 A 
BRANCH  11  19
HETATM   19  C9  UNL     1      -4.131   7.151  11.955  1.00  0.00    -0.045 C 
HETATM   20  C10 UNL     1      -4.604   8.161  11.476  1.00  0.00    -0.078 C 
BRANCH  20  21
HETATM   21  C11 UNL     1      -5.155   9.389  10.900  1.00  0.00     0.242 C 
BRANCH  21  22
HETATM   22  N1  UNL     1      -6.235   9.028   9.975  1.00  0.00    -0.292 N 
HETATM   23  C12 UNL     1      -6.781   9.820   9.046  1.00  0.00     0.119 A 
HETATM   24  C13 UNL     1      -7.769   9.143   8.363  1.00  0.00    -0.028 A 
HETATM   25  C14 UNL     1      -8.634   9.627   7.255  1.00  0.00     0.051 C 
HETATM   26  C15 UNL     1      -7.794   7.880   8.933  1.00  0.00     0.115 A 
HETATM   27  N2  UNL     1      -6.857   7.863   9.893  1.00  0.00    -0.309 N 
ATOM     28  H2  UNL     1      -6.651   7.057  10.483  1.00  0.00     0.186 HD
ENDBRANCH  21  22
ENDBRANCH  20  21
ENDBRANCH  11  19
BRANCH  14  29
HETATM   29  N4  UNL     1      -0.457   4.236  12.390  1.00  0.00    -0.230 N 
HETATM   30  C17 UNL     1      -0.036   4.454  11.020  1.00  0.00     0.165 C 
ATOM     31  H4  UNL     1       0.185   3.860  13.087  1.00  0.00     0.177 HD
ENDBRANCH  14  29
ENDBRANCH   6   7
ENDBRANCH   3   6
TORSDOF 7
ENDMDL
MODEL 2
REMARK VINA RESULT: -7.448928401      2.122      2.584
REMARK  7 active torsions:
REMARK  status: ('A' for Active; 'I' for Inactive)
REMARK    1  A    between atoms: C3_3  and  O1_4 
REMARK    2  A    between atoms: C3_3  and  O2_6 
REMARK    3  A    between atoms: O2_6  and  C4_7 
REMARK    4  A    between atoms: C8_11  and  C9_12 
REMARK    5  A    between atoms: C10_13  and  C11_14 
REMARK    6  A    between atoms: C11_14  and  N1_15 
REMARK    7  A    between atoms: C16_24  and  N4_25 
ROOT
HETATM    1  C1  UNL     1      -6.591   1.560  17.626  1.00  0.00     0.017 C 
HETATM    2  C2  UNL     1      -5.559   1.743  17.019  1.00  0.00    -0.057 C 
HETATM    3  C3  UNL     1      -4.304   1.946  16.281  1.00  0.00     0.345 C 
ENDROOT
BRANCH   3   4
HETATM    4  O1  UNL     1      -3.563   0.750  16.282  1.00  0.00    -0.361 OA
ATOM      5  H1  UNL     1      -3.663   0.317  15.442  1.00  0.00     0.213 HD
ENDBRANCH   3   4
BRANCH   3   6
HETATM    6  O2  UNL     1      -4.595   2.251  14.953  1.00  0.00    -0.309 OA
BRANCH   6   7
HETATM    7  C4  UNL     1      -4.192   3.361  14.264  1.00  0.00     0.075 A 
HETATM    8  C5  UNL     1      -4.616   3.466  12.935  1.00  0.00     0.038 A 
HETATM    9  C6  UNL     1      -4.248   4.561  12.174  1.00  0.00     0.019 A 
HETATM   10  C7  UNL     1      -3.461   5.561  12.718  1.00  0.00     0.027 A 
HETATM   11  C8  UNL     1      -3.080   6.670  11.972  1.00  0.00     0.115 A 
HETATM   12  C18 UNL     1      -3.033   5.480  14.020  1.00  0.00     0.065 A 
HETATM   13  N3  UNL     1      -2.320   7.616  12.526  1.00  0.00    -0.183 N 
HETATM   14  C16 UNL     1      -1.895   7.546  13.801  1.00  0.00     0.679 A 
ATOM     15  H3  UNL     1      -2.050   8.423  11.962  1.00  0.00     0.185 HD
HETATM   16  N5  UNL     1      -2.276   6.464  14.504  1.00  0.00    -0.191 N 
ATOM     17  H5  UNL     1      -1.965   6.392  15.473  1.00  0.00     0.184 HD
HETATM   18  C19 UNL     1      -3.419   4.373  14.753  1.00  0.00     0.067 A 
BRANCH  11  19
HETATM   19  C9  UNL     1      -3.496   6.811  10.603  1.00  0.00    -0.045 C 
HETATM   20  C10 UNL     1      -3.864   6.934   9.453  1.00  0.00    -0.078 C 
BRANCH  20  21
HETATM   21  C11 UNL     1      -4.330   7.074   8.071  1.00  0.00     0.242 C 
BRANCH  21  22
HETATM   22  N1  UNL     1      -5.772   7.346   8.089  1.00  0.00    -0.292 N 
HETATM   23  C12 UNL     1      -6.367   8.490   7.737  1.00  0.00     0.119 A 
HETATM   24  C13 UNL     1      -7.734   8.380   7.881  1.00  0.00    -0.028 A 
HETATM   25  C14 UNL     1      -8.783   9.397   7.609  1.00  0.00     0.051 C 
HETATM   26  C15 UNL     1      -7.940   7.092   8.346  1.00  0.00     0.115 A 
HETATM   27  N2  UNL     1      -6.733   6.514   8.454  1.00  0.00    -0.309 N 
ATOM     28  H2  UNL     1      -6.579   5.559   8.775  1.00  0.00     0.186 HD
ENDBRANCH  21  22
ENDBRANCH  20  21
ENDBRANCH  11  19
BRANCH  14  29
HETATM   29  N4  UNL     1      -1.152   8.479  14.332  1.00  0.00    -0.230 N 
HETATM   30  C17 UNL     1      -1.486   8.920  15.672  1.00  0.00     0.165 C 
ATOM     31  H4  UNL     1      -0.366   8.882  13.822  1.00  0.00     0.177 HD
ENDBRANCH  14  29
ENDBRANCH   6   7
ENDBRANCH   3   6
TORSDOF 7
ENDMDL
MODEL 3
REMARK VINA RESULT: -7.341683891      3.379      5.108
REMARK  7 active torsions:
REMARK  status: ('A' for Active; 'I' for Inactive)
REMARK    1  A    between atoms: C3_3  and  O1_4 
REMARK    2  A    between atoms: C3_3  and  O2_6 
REMARK    3  A    between atoms: O2_6  and  C4_7 
REMARK    4  A    between atoms: C8_11  and  C9_12 
REMARK    5  A    between atoms: C10_13  and  C11_14 
REMARK    6  A    between atoms: C11_14  and  N1_15 
REMARK    7  A    between atoms: C16_24  and  N4_25 
ROOT
HETATM    1  C1  UNL     1      -6.939   1.180  17.343  1.00  0.00     0.017 C 
HETATM    2  C2  UNL     1      -5.982   1.021  16.620  1.00  0.00    -0.057 C 
HETATM    3  C3  UNL     1      -4.825   0.810  15.737  1.00  0.00     0.345 C 
ENDROOT
BRANCH   3   4
HETATM    4  O1  UNL     1      -4.666  -0.567  15.497  1.00  0.00    -0.361 OA
ATOM      5  H1  UNL     1      -5.304  -1.052  16.007  1.00  0.00     0.213 HD
ENDBRANCH   3   4
BRANCH   3   6
HETATM    6  O2  UNL     1      -5.067   1.419  14.508  1.00  0.00    -0.309 OA
BRANCH   6   7
HETATM    7  C4  UNL     1      -4.612   2.641  14.099  1.00  0.00     0.075 A 
HETATM    8  C5  UNL     1      -4.002   3.444  15.069  1.00  0.00     0.038 A 
HETATM    9  C6  UNL     1      -3.516   4.694  14.730  1.00  0.00     0.019 A 
HETATM   10  C7  UNL     1      -3.628   5.162  13.433  1.00  0.00     0.027 A 
HETATM   11  C8  UNL     1      -3.147   6.414  13.071  1.00  0.00     0.115 A 
HETATM   12  C18 UNL     1      -4.223   4.392  12.464  1.00  0.00     0.065 A 
HETATM   13  N3  UNL     1      -3.270   6.836  11.811  1.00  0.00    -0.183 N 
HETATM   14  C16 UNL     1      -3.851   6.090  10.854  1.00  0.00     0.679 A 
ATOM     15  H3  UNL     1      -2.911   7.759  11.564  1.00  0.00     0.185 HD
HETATM   16  N5  UNL     1      -4.309   4.881  11.227  1.00  0.00    -0.191 N 
ATOM     17  H5  UNL     1      -4.753   4.300  10.516  1.00  0.00     0.184 HD
HETATM   18  C19 UNL     1      -4.697   3.148  12.835  1.00  0.00     0.067 A 
BRANCH  11  19
HETATM   19  C9  UNL     1      -2.514   7.266  14.042  1.00  0.00    -0.045 C 
HETATM   20  C10 UNL     1      -1.984   8.000  14.850  1.00  0.00    -0.078 C 
BRANCH  20  21
HETATM   21  C11 UNL     1      -1.336   8.898  15.808  1.00  0.00     0.242 C 
BRANCH  21  22
HETATM   22  N1  UNL     1      -0.967  10.136  15.112  1.00  0.00    -0.292 N 
HETATM   23  C12 UNL     1      -1.737  10.828  14.266  1.00  0.00     0.119 A 
HETATM   24  C13 UNL     1      -1.060  11.937  13.804  1.00  0.00    -0.028 A 
HETATM   25  C14 UNL     1      -1.523  12.982  12.854  1.00  0.00     0.051 C 
HETATM   26  C15 UNL     1       0.178  11.881  14.424  1.00  0.00     0.115 A 
HETATM   27  N2  UNL     1       0.183  10.783  15.196  1.00  0.00    -0.309 N 
ATOM     28  H2  UNL     1       0.971  10.488  15.772  1.00  0.00     0.186 HD
ENDBRANCH  21  22
ENDBRANCH  20  21
ENDBRANCH  11  19
BRANCH  14  29
HETATM   29  N4  UNL     1      -3.965   6.514   9.625  1.00  0.00    -0.230 N 
HETATM   30  C17 UNL     1      -5.254   7.037   9.213  1.00  0.00     0.165 C 
ATOM     31  H4  UNL     1      -3.177   6.481   8.978  1.00  0.00     0.177 HD
ENDBRANCH  14  29
ENDBRANCH   6   7
ENDBRANCH   3   6
TORSDOF 7
ENDMDL
MODEL 4
REMARK VINA RESULT: -7.067176817      3.452      4.561
REMARK  7 active torsions:
REMARK  status: ('A' for Active; 'I' for Inactive)
REMARK    1  A    between atoms: C3_3  and  O1_4 
REMARK    2  A    between atoms: C3_3  and  O2_6 
REMARK    3  A    between atoms: O2_6  and  C4_7 
REMARK    4  A    between atoms: C8_11  and  C9_12 
REMARK    5  A    between atoms: C10_13  and  C11_14 
REMARK    6  A    between atoms: C11_14  and  N1_15 
REMARK    7  A    between atoms: C16_24  and  N4_25 
ROOT
HETATM    1  C1  UNL     1      -7.297   2.558  17.360  1.00  0.00     0.017 C 
HETATM    2  C2  UNL     1      -6.417   1.776  17.075  1.00  0.00    -0.057 C 
HETATM    3  C3  UNL     1      -5.363   0.813  16.727  1.00  0.00     0.345 C 
ENDROOT
BRANCH   3   4
HETATM    4  O1  UNL     1      -5.825  -0.494  16.970  1.00  0.00    -0.361 OA
ATOM      5  H1  UNL     1      -5.521  -0.783  17.822  1.00  0.00     0.213 HD
ENDBRANCH   3   4
BRANCH   3   6
HETATM    6  O2  UNL     1      -5.084   0.906  15.366  1.00  0.00    -0.309 OA
BRANCH   6   7
HETATM    7  C4  UNL     1      -4.660   2.019  14.694  1.00  0.00     0.075 A 
HETATM    8  C5  UNL     1      -4.103   3.046  15.464  1.00  0.00     0.038 A 
HETATM    9  C6  UNL     1      -3.652   4.203  14.855  1.00  0.00     0.019 A 
HETATM   10  C7  UNL     1      -3.745   4.356  13.483  1.00  0.00     0.027 A 
HETATM   11  C8  UNL     1      -3.297   5.509  12.851  1.00  0.00     0.115 A 
HETATM   12  C18 UNL     1      -4.287   3.362  12.707  1.00  0.00     0.065 A 
HETATM   13  N3  UNL     1      -3.402   5.626  11.525  1.00  0.00    -0.183 N 
HETATM   14  C16 UNL     1      -3.932   4.657  10.756  1.00  0.00     0.679 A 
ATOM     15  H3  UNL     1      -3.067   6.480  11.079  1.00  0.00     0.185 HD
HETATM   16  N5  UNL     1      -4.358   3.550  11.389  1.00  0.00    -0.191 N 
ATOM     17  H5  UNL     1      -4.763   2.804  10.823  1.00  0.00     0.184 HD
HETATM   18  C19 UNL     1      -4.729   2.219  13.347  1.00  0.00     0.067 A 
BRANCH  11  19
HETATM   19  C9  UNL     1      -2.720   6.586  13.610  1.00  0.00    -0.045 C 
HETATM   20  C10 UNL     1      -2.242   7.488  14.265  1.00  0.00    -0.078 C 
BRANCH  20  21
HETATM   21  C11 UNL     1      -1.684   8.578  15.069  1.00  0.00     0.242 C 
BRANCH  21  22
HETATM   22  N1  UNL     1      -1.364   9.699  14.178  1.00  0.00    -0.292 N 
HETATM   23  C12 UNL     1      -1.649  10.988  14.393  1.00  0.00     0.119 A 
HETATM   24  C13 UNL     1      -1.197  11.758  13.342  1.00  0.00    -0.028 A 
HETATM   25  C14 UNL     1      -1.295  13.229  13.157  1.00  0.00     0.051 C 
HETATM   26  C15 UNL     1      -0.615  10.856  12.466  1.00  0.00     0.115 A 
HETATM   27  N2  UNL     1      -0.742   9.637  13.013  1.00  0.00    -0.309 N 
ATOM     28  H2  UNL     1      -0.402   8.776  12.585  1.00  0.00     0.186 HD
ENDBRANCH  21  22
ENDBRANCH  20  21
ENDBRANCH  11  19
BRANCH  14  29
HETATM   29  N4  UNL     1      -4.028   4.783   9.460  1.00  0.00    -0.230 N 
HETATM   30  C17 UNL     1      -2.807   5.036   8.719  1.00  0.00     0.165 C 
ATOM     31  H4  UNL     1      -4.928   4.707   8.986  1.00  0.00     0.177 HD
ENDBRANCH  14  29
ENDBRANCH   6   7
ENDBRANCH   3   6
TORSDOF 7
ENDMDL
MODEL 5
REMARK VINA RESULT: -7.066526806      3.764      5.556
REMARK  7 active torsions:
REMARK  status: ('A' for Active; 'I' for Inactive)
REMARK    1  A    between atoms: C3_3  and  O1_4 
REMARK    2  A    between atoms: C3_3  and  O2_6 
REMARK    3  A    between atoms: O2_6  and  C4_7 
REMARK    4  A    between atoms: C8_11  and  C9_12 
REMARK    5  A    between atoms: C10_13  and  C11_14 
REMARK    6  A    between atoms: C11_14  and  N1_15 
REMARK    7  A    between atoms: C16_24  and  N4_25 
ROOT
HETATM    1  C1  UNL     1      -7.011   1.199  17.336  1.00  0.00     0.017 C 
HETATM    2  C2  UNL     1      -6.053   1.060  16.609  1.00  0.00    -0.057 C 
HETATM    3  C3  UNL     1      -4.896   0.874  15.721  1.00  0.00     0.345 C 
ENDROOT
BRANCH   3   4
HETATM    4  O1  UNL     1      -4.757  -0.492  15.415  1.00  0.00    -0.361 OA
ATOM      5  H1  UNL     1      -4.768  -0.998  16.219  1.00  0.00     0.213 HD
ENDBRANCH   3   4
BRANCH   3   6
HETATM    6  O2  UNL     1      -5.124   1.545  14.521  1.00  0.00    -0.309 OA
BRANCH   6   7
HETATM    7  C4  UNL     1      -4.457   2.646  14.063  1.00  0.00     0.075 A 
HETATM    8  C5  UNL     1      -4.137   3.628  15.007  1.00  0.00     0.038 A 
HETATM    9  C6  UNL     1      -3.462   4.771  14.617  1.00  0.00     0.019 A 
HETATM   10  C7  UNL     1      -3.097   4.954  13.295  1.00  0.00     0.027 A 
HETATM   11  C8  UNL     1      -2.418   6.094  12.883  1.00  0.00     0.115 A 
HETATM   12  C18 UNL     1      -3.400   4.005  12.351  1.00  0.00     0.065 A 
HETATM   13  N3  UNL     1      -2.081   6.241  11.600  1.00  0.00    -0.183 N 
HETATM   14  C16 UNL     1      -2.373   5.316  10.667  1.00  0.00     0.679 A 
ATOM     15  H3  UNL     1      -1.583   7.085  11.316  1.00  0.00     0.185 HD
HETATM   16  N5  UNL     1      -3.030   4.221  11.089  1.00  0.00    -0.191 N 
ATOM     17  H5  UNL     1      -3.261   3.508  10.397  1.00  0.00     0.184 HD
HETATM   18  C19 UNL     1      -4.075   2.874  12.773  1.00  0.00     0.067 A 
BRANCH  11  19
HETATM   19  C9  UNL     1      -2.073   7.124  13.825  1.00  0.00    -0.045 C 
HETATM   20  C10 UNL     1      -1.765   7.994  14.614  1.00  0.00    -0.078 C 
BRANCH  20  21
HETATM   21  C11 UNL     1      -1.372   9.035  15.566  1.00  0.00     0.242 C 
BRANCH  21  22
HETATM   22  N1  UNL     1      -0.197   9.735  15.034  1.00  0.00    -0.292 N 
HETATM   23  C12 UNL     1       0.281  10.911  15.453  1.00  0.00     0.119 A 
HETATM   24  C13 UNL     1       1.397  11.260  14.721  1.00  0.00    -0.028 A 
HETATM   25  C14 UNL     1       2.246  12.474  14.841  1.00  0.00     0.051 C 
HETATM   26  C15 UNL     1       1.574  10.219  13.825  1.00  0.00     0.115 A 
HETATM   27  N2  UNL     1       0.593   9.331  14.053  1.00  0.00    -0.309 N 
ATOM     28  H2  UNL     1       0.473   8.460  13.537  1.00  0.00     0.186 HD
ENDBRANCH  21  22
ENDBRANCH  20  21
ENDBRANCH  11  19
BRANCH  14  29
HETATM   29  N4  UNL     1      -2.037   5.472   9.415  1.00  0.00    -0.230 N 
HETATM   30  C17 UNL     1      -0.814   6.199   9.135  1.00  0.00     0.165 C 
ATOM     31  H4  UNL     1      -2.612   5.095   8.662  1.00  0.00     0.177 HD
ENDBRANCH  14  29
ENDBRANCH   6   7
ENDBRANCH   3   6
TORSDOF 7
ENDMDL
