MODEL 1
REMARK VINA RESULT: -7.020128560      0.000      0.000
REMARK  8 active torsions:
REMARK  status: ('A' for Active; 'I' for Inactive)
REMARK    1  A    between atoms: C2_2  and  C3_3 
REMARK    2  A    between atoms: C4_5  and  C5_6 
REMARK    3  A    between atoms: C5_6  and  S1_7 
REMARK    4  A    between atoms: S1_7  and  C6_8 
REMARK    5  A    between atoms: C7_13  and  C8_14 
REMARK    6  A    between atoms: C12_19  and  O2_20 
REMARK    7  A    between atoms: C13_22  and  O3_23 
REMARK    8  A    between atoms: C14_25  and  O4_26 
ROOT
HETATM    1  C3  UNL     1      -4.479   1.587  13.947  1.00  0.00     0.153 C 
HETATM    2  O1  UNL     1      -5.446   2.442  13.531  1.00  0.00    -0.374 OA
HETATM    3  C4  UNL     1      -6.007   3.281  14.421  1.00  0.00     0.163 C 
HETATM    4  C12 UNL     1      -5.657   3.037  15.861  1.00  0.00     0.179 C 
HETATM    5  C13 UNL     1      -5.767   1.527  16.091  1.00  0.00     0.180 C 
HETATM    6  C14 UNL     1      -4.658   0.922  15.263  1.00  0.00     0.178 C 
ENDROOT
BRANCH   3   7
HETATM    7  C5  UNL     1      -5.782   4.750  14.136  1.00  0.00     0.117 C 
BRANCH   7   8
HETATM    8  S1  UNL     1      -4.198   5.350  14.719  1.00  0.00    -0.090 SA
BRANCH   8   9
HETATM    9  C6  UNL     1      -2.923   4.599  13.716  1.00  0.00     0.162 A 
HETATM   10  N1  UNL     1      -1.757   4.070  14.128  1.00  0.00    -0.278 N 
HETATM   11  N2  UNL     1      -1.081   3.612  13.089  1.00  0.00    -0.286 N 
ATOM     12  H1  UNL     1      -1.441   4.030  15.097  1.00  0.00     0.189 HD
HETATM   13  C7  UNL     1      -1.805   3.838  11.967  1.00  0.00     0.103 A 
ATOM     14  H2  UNL     1      -0.166   3.162  13.127  1.00  0.00     0.188 HD
HETATM   15  N3  UNL     1      -2.917   4.437  12.366  1.00  0.00    -0.319 N 
HETATM   16  C11 UNL     1      -4.000   4.875  11.517  1.00  0.00     0.159 C 
BRANCH  13  17
HETATM   17  C8  UNL     1      -1.358   3.456  10.591  1.00  0.00     0.047 C 
HETATM   18  C9  UNL     1      -0.011   4.091  10.320  1.00  0.00     0.017 C 
HETATM   19  C10 UNL     1      -1.261   1.977  10.422  1.00  0.00     0.017 C 
ENDBRANCH  13  17
ENDBRANCH   8   9
ENDBRANCH   7   8
ENDBRANCH   3   7
BRANCH   4  20
HETATM   20  O2  UNL     1      -6.583   3.652  16.679  1.00  0.00    -0.390 OA
ATOM     21  H2  UNL     1      -6.808   3.077  17.401  1.00  0.00     0.210 HD
ENDBRANCH   4  20
BRANCH   1  22
HETATM   22  C2  UNL     1      -4.377   0.475  12.893  1.00  0.00     0.030 C 
HETATM   23  C1  UNL     1      -4.793   1.070  11.565  1.00  0.00     0.007 C 
ENDBRANCH   1  22
BRANCH   5  24
HETATM   24  O3  UNL     1      -5.562   1.219  17.439  1.00  0.00    -0.390 OA
ATOM     25  H3  UNL     1      -5.579   2.007  17.969  1.00  0.00     0.210 HD
ENDBRANCH   5  24
BRANCH   6  26
HETATM   26  O4  UNL     1      -4.850  -0.446  15.215  1.00  0.00    -0.390 OA
ATOM     27  H4  UNL     1      -4.301  -0.954  15.799  1.00  0.00     0.210 HD
ENDBRANCH   6  26
TORSDOF 8
ENDMDL
MODEL 2
REMARK VINA RESULT: -6.936701865      2.545      5.547
REMARK  8 active torsions:
REMARK  status: ('A' for Active; 'I' for Inactive)
REMARK    1  A    between atoms: C2_2  and  C3_3 
REMARK    2  A    between atoms: C4_5  and  C5_6 
REMARK    3  A    between atoms: C5_6  and  S1_7 
REMARK    4  A    between atoms: S1_7  and  C6_8 
REMARK    5  A    between atoms: C7_13  and  C8_14 
REMARK    6  A    between atoms: C12_19  and  O2_20 
REMARK    7  A    between atoms: C13_22  and  O3_23 
REMARK    8  A    between atoms: C14_25  and  O4_26 
ROOT
HETATM    1  C3  UNL     1      -1.994   2.544  10.888  1.00  0.00     0.153 C 
HETATM    2  O1  UNL     1      -2.873   3.565  10.737  1.00  0.00    -0.374 OA
HETATM    3  C4  UNL     1      -4.079   3.484  11.330  1.00  0.00     0.163 C 
HETATM    4  C12 UNL     1      -4.426   2.153  11.931  1.00  0.00     0.179 C 
HETATM    5  C13 UNL     1      -4.029   1.089  10.905  1.00  0.00     0.180 C 
HETATM    6  C14 UNL     1      -2.522   1.157  10.831  1.00  0.00     0.178 C 
ENDROOT
BRANCH   3   7
HETATM    7  C5  UNL     1      -4.343   4.545  12.376  1.00  0.00     0.117 C 
BRANCH   7   8
HETATM    8  S1  UNL     1      -3.269   4.414  13.804  1.00  0.00    -0.090 SA
BRANCH   8   9
HETATM    9  C6  UNL     1      -4.088   3.387  15.015  1.00  0.00     0.162 A 
HETATM   10  N1  UNL     1      -3.626   2.260  15.586  1.00  0.00    -0.278 N 
HETATM   11  N2  UNL     1      -4.522   1.786  16.434  1.00  0.00    -0.286 N 
ATOM     12  H1  UNL     1      -2.719   1.834  15.393  1.00  0.00     0.189 HD
HETATM   13  C7  UNL     1      -5.599   2.608  16.429  1.00  0.00     0.103 A 
ATOM     14  H2  UNL     1      -4.420   0.942  16.998  1.00  0.00     0.188 HD
HETATM   15  N3  UNL     1      -5.318   3.572  15.564  1.00  0.00    -0.319 N 
HETATM   16  C11 UNL     1      -6.173   4.684  15.220  1.00  0.00     0.159 C 
BRANCH  13  17
HETATM   17  C8  UNL     1      -6.821   2.392  17.265  1.00  0.00     0.047 C 
HETATM   18  C9  UNL     1      -7.462   1.080  16.865  1.00  0.00     0.017 C 
HETATM   19  C10 UNL     1      -6.508   2.375  18.723  1.00  0.00     0.017 C 
ENDBRANCH  13  17
ENDBRANCH   8   9
ENDBRANCH   7   8
ENDBRANCH   3   7
BRANCH   4  20
HETATM   20  O2  UNL     1      -5.790   2.065  12.119  1.00  0.00    -0.390 OA
ATOM     21  H2  UNL     1      -5.979   1.470  12.835  1.00  0.00     0.210 HD
ENDBRANCH   4  20
BRANCH   1  22
HETATM   22  C2  UNL     1      -0.954   2.675   9.766  1.00  0.00     0.030 C 
HETATM   23  C1  UNL     1       0.157   3.566  10.279  1.00  0.00     0.007 C 
ENDBRANCH   1  22
BRANCH   5  24
HETATM   24  O3  UNL     1      -4.417  -0.182  11.339  1.00  0.00    -0.390 OA
ATOM     25  H3  UNL     1      -4.732  -0.703  10.610  1.00  0.00     0.210 HD
ENDBRANCH   5  24
BRANCH   6  26
HETATM   26  O4  UNL     1      -2.108   0.410   9.744  1.00  0.00    -0.390 OA
ATOM     27  H4  UNL     1      -1.915  -0.502   9.927  1.00  0.00     0.210 HD
ENDBRANCH   6  26
TORSDOF 8
ENDMDL
MODEL 3
REMARK VINA RESULT: -6.906100410      2.920      5.285
REMARK  8 active torsions:
REMARK  status: ('A' for Active; 'I' for Inactive)
REMARK    1  A    between atoms: C2_2  and  C3_3 
REMARK    2  A    between atoms: C4_5  and  C5_6 
REMARK    3  A    between atoms: C5_6  and  S1_7 
REMARK    4  A    between atoms: S1_7  and  C6_8 
REMARK    5  A    between atoms: C7_13  and  C8_14 
REMARK    6  A    between atoms: C12_19  and  O2_20 
REMARK    7  A    between atoms: C13_22  and  O3_23 
REMARK    8  A    between atoms: C14_25  and  O4_26 
ROOT
HETATM    1  C3  UNL     1      -3.512   2.038  12.022  1.00  0.00     0.153 C 
HETATM    2  O1  UNL     1      -2.268   2.575  11.974  1.00  0.00    -0.374 OA
HETATM    3  C4  UNL     1      -2.134   3.912  11.895  1.00  0.00     0.163 C 
HETATM    4  C12 UNL     1      -3.397   4.683  11.642  1.00  0.00     0.179 C 
HETATM    5  C13 UNL     1      -4.150   3.944  10.532  1.00  0.00     0.180 C 
HETATM    6  C14 UNL     1      -4.557   2.625  11.145  1.00  0.00     0.178 C 
ENDROOT
BRANCH   3   7
HETATM    7  C5  UNL     1      -1.434   4.550  13.075  1.00  0.00     0.117 C 
BRANCH   7   8
HETATM    8  S1  UNL     1      -2.563   5.305  14.245  1.00  0.00    -0.090 SA
BRANCH   8   9
HETATM    9  C6  UNL     1      -3.486   3.997  15.039  1.00  0.00     0.162 A 
HETATM   10  N1  UNL     1      -3.001   2.898  15.645  1.00  0.00    -0.278 N 
HETATM   11  N2  UNL     1      -3.998   2.167  16.113  1.00  0.00    -0.286 N 
ATOM     12  H1  UNL     1      -2.012   2.664  15.730  1.00  0.00     0.189 HD
HETATM   13  C7  UNL     1      -5.165   2.786  15.815  1.00  0.00     0.103 A 
ATOM     14  H2  UNL     1      -3.904   1.284  16.615  1.00  0.00     0.188 HD
HETATM   15  N3  UNL     1      -4.836   3.892  15.165  1.00  0.00    -0.319 N 
HETATM   16  C11 UNL     1      -5.753   4.879  14.642  1.00  0.00     0.159 C 
BRANCH  13  17
HETATM   17  C8  UNL     1      -6.514   2.252  16.184  1.00  0.00     0.047 C 
HETATM   18  C9  UNL     1      -6.351   0.857  16.747  1.00  0.00     0.017 C 
HETATM   19  C10 UNL     1      -7.208   3.119  17.180  1.00  0.00     0.017 C 
ENDBRANCH  13  17
ENDBRANCH   8   9
ENDBRANCH   7   8
ENDBRANCH   3   7
BRANCH   4  20
HETATM   20  O2  UNL     1      -3.091   5.944  11.171  1.00  0.00    -0.390 OA
ATOM     21  H2  UNL     1      -3.002   6.547  11.899  1.00  0.00     0.210 HD
ENDBRANCH   4  20
BRANCH   1  22
HETATM   22  C2  UNL     1      -3.379   0.559  11.634  1.00  0.00     0.030 C 
HETATM   23  C1  UNL     1      -2.034   0.386  10.960  1.00  0.00     0.007 C 
ENDBRANCH   1  22
BRANCH   5  24
HETATM   24  O3  UNL     1      -5.293   4.654  10.156  1.00  0.00    -0.390 OA
ATOM     25  H3  UNL     1      -5.279   5.530  10.524  1.00  0.00     0.210 HD
ENDBRANCH   5  24
BRANCH   6  26
HETATM   26  O4  UNL     1      -5.014   1.800  10.134  1.00  0.00    -0.390 OA
ATOM     27  H4  UNL     1      -5.958   1.756  10.041  1.00  0.00     0.210 HD
ENDBRANCH   6  26
TORSDOF 8
ENDMDL
MODEL 4
REMARK VINA RESULT: -6.845799650      3.008      5.980
REMARK  8 active torsions:
REMARK  status: ('A' for Active; 'I' for Inactive)
REMARK    1  A    between atoms: C2_2  and  C3_3 
REMARK    2  A    between atoms: C4_5  and  C5_6 
REMARK    3  A    between atoms: C5_6  and  S1_7 
REMARK    4  A    between atoms: S1_7  and  C6_8 
REMARK    5  A    between atoms: C7_13  and  C8_14 
REMARK    6  A    between atoms: C12_19  and  O2_20 
REMARK    7  A    between atoms: C13_22  and  O3_23 
REMARK    8  A    between atoms: C14_25  and  O4_26 
ROOT
HETATM    1  C3  UNL     1      -2.747   2.753  11.282  1.00  0.00     0.153 C 
HETATM    2  O1  UNL     1      -2.372   3.033  12.555  1.00  0.00    -0.374 OA
HETATM    3  C4  UNL     1      -1.432   3.973  12.770  1.00  0.00     0.163 C 
HETATM    4  C12 UNL     1      -0.719   4.477  11.549  1.00  0.00     0.179 C 
HETATM    5  C13 UNL     1      -0.362   3.248  10.708  1.00  0.00     0.180 C 
HETATM    6  C14 UNL     1      -1.688   2.693  10.243  1.00  0.00     0.178 C 
ENDROOT
BRANCH   3   7
HETATM    7  C5  UNL     1      -1.907   5.176  13.555  1.00  0.00     0.117 C 
BRANCH   7   8
HETATM    8  S1  UNL     1      -3.685   5.217  13.781  1.00  0.00    -0.090 SA
BRANCH   8   9
HETATM    9  C6  UNL     1      -4.126   3.902  14.908  1.00  0.00     0.162 A 
HETATM   10  N1  UNL     1      -3.315   2.976  15.450  1.00  0.00    -0.278 N 
HETATM   11  N2  UNL     1      -4.013   2.173  16.235  1.00  0.00    -0.286 N 
ATOM     12  H1  UNL     1      -2.312   2.904  15.281  1.00  0.00     0.189 HD
HETATM   13  C7  UNL     1      -5.308   2.568  16.217  1.00  0.00     0.103 A 
ATOM     14  H2  UNL     1      -3.637   1.387  16.767  1.00  0.00     0.188 HD
HETATM   15  N3  UNL     1      -5.358   3.616  15.408  1.00  0.00    -0.319 N 
HETATM   16  C11 UNL     1      -6.538   4.379  15.073  1.00  0.00     0.159 C 
BRANCH  13  17
HETATM   17  C8  UNL     1      -6.400   1.894  16.986  1.00  0.00     0.047 C 
HETATM   18  C9  UNL     1      -6.079   0.419  17.101  1.00  0.00     0.017 C 
HETATM   19  C10 UNL     1      -6.572   2.479  18.347  1.00  0.00     0.017 C 
ENDBRANCH  13  17
ENDBRANCH   8   9
ENDBRANCH   7   8
ENDBRANCH   3   7
BRANCH   4  20
HETATM   20  O2  UNL     1       0.463   5.089  11.916  1.00  0.00    -0.390 OA
ATOM     21  H2  UNL     1       1.192   4.499  11.764  1.00  0.00     0.210 HD
ENDBRANCH   4  20
BRANCH   1  22
HETATM   22  C2  UNL     1      -3.431   1.379  11.306  1.00  0.00     0.030 C 
HETATM   23  C1  UNL     1      -4.541   1.444  12.333  1.00  0.00     0.007 C 
ENDBRANCH   1  22
BRANCH   5  24
HETATM   24  O3  UNL     1       0.403   3.617   9.598  1.00  0.00    -0.390 OA
ATOM     25  H3  UNL     1       1.328   3.612   9.813  1.00  0.00     0.210 HD
ENDBRANCH   5  24
BRANCH   6  26
HETATM   26  O4  UNL     1      -1.466   1.444   9.695  1.00  0.00    -0.390 OA
ATOM     27  H4  UNL     1      -0.704   1.376   9.132  1.00  0.00     0.210 HD
ENDBRANCH   6  26
TORSDOF 8
ENDMDL
MODEL 5
REMARK VINA RESULT: -6.808604685      1.146      2.773
REMARK  8 active torsions:
REMARK  status: ('A' for Active; 'I' for Inactive)
REMARK    1  A    between atoms: C2_2  and  C3_3 
REMARK    2  A    between atoms: C4_5  and  C5_6 
REMARK    3  A    between atoms: C5_6  and  S1_7 
REMARK    4  A    between atoms: S1_7  and  C6_8 
REMARK    5  A    between atoms: C7_13  and  C8_14 
REMARK    6  A    between atoms: C12_19  and  O2_20 
REMARK    7  A    between atoms: C13_22  and  O3_23 
REMARK    8  A    between atoms: C14_25  and  O4_26 
ROOT
HETATM    1  C3  UNL     1      -6.474   1.983  16.731  1.00  0.00     0.153 C 
HETATM    2  O1  UNL     1      -5.665   3.039  16.466  1.00  0.00    -0.374 OA
HETATM    3  C4  UNL     1      -4.960   3.053  15.320  1.00  0.00     0.163 C 
HETATM    4  C12 UNL     1      -4.969   1.777  14.529  1.00  0.00     0.179 C 
HETATM    5  C13 UNL     1      -4.740   0.639  15.527  1.00  0.00     0.180 C 
HETATM    6  C14 UNL     1      -5.976   0.624  16.395  1.00  0.00     0.178 C 
ENDROOT
BRANCH   3   7
HETATM    7  C5  UNL     1      -5.311   4.182  14.375  1.00  0.00     0.117 C 
BRANCH   7   8
HETATM    8  S1  UNL     1      -3.979   5.360  14.153  1.00  0.00    -0.090 SA
BRANCH   8   9
HETATM    9  C6  UNL     1      -2.677   4.549  13.235  1.00  0.00     0.162 A 
HETATM   10  N1  UNL     1      -1.521   4.052  13.711  1.00  0.00    -0.278 N 
HETATM   11  N2  UNL     1      -0.817   3.529  12.723  1.00  0.00    -0.286 N 
ATOM     12  H1  UNL     1      -1.231   4.077  14.689  1.00  0.00     0.189 HD
HETATM   13  C7  UNL     1      -1.512   3.678  11.570  1.00  0.00     0.103 A 
ATOM     14  H2  UNL     1       0.098   3.086  12.813  1.00  0.00     0.188 HD
HETATM   15  N3  UNL     1      -2.636   4.298  11.899  1.00  0.00    -0.319 N 
HETATM   16  C11 UNL     1      -3.697   4.676  10.996  1.00  0.00     0.159 C 
BRANCH  13  17
HETATM   17  C8  UNL     1      -1.029   3.209  10.234  1.00  0.00     0.047 C 
HETATM   18  C9  UNL     1       0.416   3.624  10.062  1.00  0.00     0.017 C 
HETATM   19  C10 UNL     1      -1.149   1.729  10.081  1.00  0.00     0.017 C 
ENDBRANCH  13  17
ENDBRANCH   8   9
ENDBRANCH   7   8
ENDBRANCH   3   7
BRANCH   4  20
HETATM   20  O2  UNL     1      -3.914   1.770  13.639  1.00  0.00    -0.390 OA
ATOM     21  H2  UNL     1      -3.091   1.756  14.114  1.00  0.00     0.210 HD
ENDBRANCH   4  20
BRANCH   1  22
HETATM   22  C2  UNL     1      -6.756   1.998  18.239  1.00  0.00     0.030 C 
HETATM   23  C1  UNL     1      -6.872   3.446  18.664  1.00  0.00     0.007 C 
ENDBRANCH   1  22
BRANCH   5  24
HETATM   24  O3  UNL     1      -4.626  -0.584  14.861  1.00  0.00    -0.390 OA
ATOM     25  H3  UNL     1      -4.526  -1.296  15.483  1.00  0.00     0.210 HD
ENDBRANCH   5  24
BRANCH   6  26
HETATM   26  O4  UNL     1      -5.735  -0.202  17.477  1.00  0.00    -0.390 OA
ATOM     27  H4  UNL     1      -5.791   0.216  18.328  1.00  0.00     0.210 HD
ENDBRANCH   6  26
TORSDOF 8
ENDMDL
